#------------------------------------------------------------------------------
#$Date: 2019-06-25 11:23:40 +0300 (Tue, 25 Jun 2019) $
#$Revision: 216528 $
#$URL: file:///home/coder/svn-repositories/cod/cif/1/55/18/1551886.cif $
#------------------------------------------------------------------------------
#
# This file is available in the Crystallography Open Database (COD),
# http://www.crystallography.net/
#
# All data on this site have been placed in the public domain by the
# contributors.
#
data_1551886
loop_
_publ_author_name
'Daniel R. Hummer'
'Bruce C. Noll'
'Robert M. Hazen'
'Robert T. Downs'
_publ_contact_author_address
;
;
_publ_contact_author_email       daniel.hummer@siu.edu
_publ_contact_author_name        'Daniel Hummer'
_publ_contact_author_phone       814-321-8859
_publ_section_title
;
 Crystal structure of abelsonite, the only known crystalline geoporphyrin
;
_journal_name_full               'American Mineralogist'
_journal_page_first              1129
_journal_page_last               1132
_journal_paper_doi               10.2138/am-2017-5927
_journal_volume                  102
_journal_year                    2017
_chemical_compound_source        'Green River formation Uinta Co. Utah'
_chemical_formula_moiety         'C31 H32 N4 Ni'
_chemical_formula_sum            'C31 H32 N4 Ni'
_chemical_formula_weight         519.31
_chemical_name_common            abelsonite
_chemical_name_mineral           abelsonite
_space_group_crystal_system      triclinic
_space_group_IT_number           2
_space_group_name_Hall           '-P 1'
_space_group_name_H-M_alt        'P -1'
_atom_sites_solution_hydrogens   geom
_atom_sites_solution_primary     direct
_atom_sites_solution_secondary   difmap
_audit_creation_method           'APEX3 v2016.9-0'
_cell_angle_alpha                90.465(2)
_cell_angle_beta                 113.158(2)
_cell_angle_gamma                78.080(2)
_cell_formula_units_Z            1
_cell_length_a                   8.4416(5)
_cell_length_b                   10.8919(7)
_cell_length_c                   7.2749(4)
_cell_measurement_reflns_used    8178
_cell_measurement_temperature    100.(2)
_cell_measurement_theta_max      25.2991
_cell_measurement_theta_min      2.6905
_cell_volume                     599.74(6)
_computing_cell_refinement       'SAINT V8.37A (Bruker AXS Inc., 2015)'
_computing_data_collection
' BIS 3.0.26/2012-11-20 (Bruker AXS Inc., 2012)'
_computing_data_reduction        'SAINT V8.37A (Bruker AXS Inc., 2015)'
_computing_molecular_graphics    'shelXle (C.B. Huebschle, rev 807)'
_computing_publication_material  'APEX3 v2016.1-0 (Bruker AXS Inc., 2016)'
_computing_structure_refinement  'SHELXL-2014/7 (Sheldrick, 2014)'
_computing_structure_solution    'XT, VERSION 2014/5'
_diffrn_ambient_temperature      100.(2)
_diffrn_detector_area_resol_mean 10.4167
_diffrn_measured_fraction_theta_full 0.999
_diffrn_measured_fraction_theta_max 0.999
_diffrn_measurement_device_type  'Bruker D8 VENTURE diffractometer'
_diffrn_measurement_method       '\f and \w scans'
_diffrn_radiation_monochromator  'multilayer mirror'
_diffrn_radiation_type           'Mo K\a'
_diffrn_radiation_wavelength     0.71073
_diffrn_reflns_av_R_equivalents  0.0527
_diffrn_reflns_av_unetI/netI     0.0233
_diffrn_reflns_limit_h_max       10
_diffrn_reflns_limit_h_min       -10
_diffrn_reflns_limit_k_max       13
_diffrn_reflns_limit_k_min       -13
_diffrn_reflns_limit_l_max       8
_diffrn_reflns_limit_l_min       -8
_diffrn_reflns_number            24224
_diffrn_reflns_theta_full        25.35
_diffrn_reflns_theta_max         25.35
_diffrn_reflns_theta_min         2.69
_diffrn_source                   'microfocus sealed tube'
_diffrn_source_type              'Incoatec I\mS HB'
_exptl_absorpt_coefficient_mu    0.838
_exptl_absorpt_correction_T_max  0.97
_exptl_absorpt_correction_T_min  0.82
_exptl_absorpt_correction_type   multi-scan
_exptl_absorpt_process_details
;
Krause, L.; Herbst-Irmer, R.; Sheldrick, G. M.; Stalke, D. (2015). J. Appl.
Cryst. 48, 3-10.
;
_exptl_crystal_colour            green
_exptl_crystal_density_diffrn    1.438
_exptl_crystal_density_method    'not measured'
_exptl_crystal_description       plate
_exptl_crystal_F_000             274
_exptl_crystal_size_max          0.090
_exptl_crystal_size_mid          0.090
_exptl_crystal_size_min          0.040
_refine_diff_density_max         0.548
_refine_diff_density_min         -0.481
_refine_ls_extinction_method     none
_refine_ls_goodness_of_fit_ref   1.077
_refine_ls_hydrogen_treatment    constr
_refine_ls_matrix_type           full
_refine_ls_number_parameters     304
_refine_ls_number_reflns         2195
_refine_ls_number_restraints     346
_refine_ls_restrained_S_all      1.034
_refine_ls_R_factor_all          0.0514
_refine_ls_R_factor_gt           0.0406
_refine_ls_shift/su_max          0.000
_refine_ls_shift/su_mean         0.000
_refine_ls_structure_factor_coef Fsqd
_refine_ls_weighting_details
'w=1/[\s^2^(Fo^2^)+(0.0415P)^2^+0.5633P] where P=(Fo^2^+2Fc^2^)/3'
_refine_ls_weighting_scheme      calc
_refine_ls_wR_factor_gt          0.0942
_refine_ls_wR_factor_ref         0.1019
_reflns_number_gt                1911
_reflns_number_total             2195
_reflns_threshold_expression     'I > 2\s(I)'
_cod_data_source_file            5927hummer.cif
_cod_data_source_block           Abelsonite
_cod_depositor_comments
;
The following automatic conversions were performed:

data item '_exptl_absorpt_correction_type' value 'Multi-Scan' was
changed to 'multi-scan' in accordance with the built-in table derived
from the CIF Core dictionary named 'cif_core.dic' version 2.4.5 last
updated on 2014-11-21.

Automatic conversion script
Id: cif_fix_values 6909 2019-04-08 15:41:33Z antanas 
;
_cod_database_code               1551886
_shelx_res_file
;


    recurrence.res created by SHELXL-2014/7


TITL Abelsonite_a.res in P-1
REM Old TITL Abelsonite in P-1
REM SHELXT solution in P-1
REM R1 0.263,  Rweak 0.030,  Alpha 0.084,  Orientation as input
REM Formula found by SHELXT:  C30 N4 Ni
CELL  0.71073   8.4416  10.8919   7.2749   90.465  113.158   78.080
ZERR    1.000   0.0005   0.0007   0.0004    0.002    0.002    0.002
LATT  1
SFAC C H N NI
UNIT 31 32 4 1
TEMP -173.140
SIZE 0.04 0.09 0.09
shel 999 0.83
omit 0 1 0
acta
L.S. 10
BOND $H
LIST 4
FMAP 2
PLAN 5
isor 0.005 c11 c11' c13" c14"
rigu
simu 0.02 0.04 c14' c14"
simu c11" c13"
sadi c3 c4 c3' c4' c4 c5 c4' c5' c2 c3  c2' c3"
sadi 0.01 c2 c11 c2' c11' c2" c11"
sadi c11 c12 c11" c12"
sadi c3 c13 c3' c13' c3" c13"
flat c2' c3' c4' c13'
flat n1 c1 c2" c3"
WGHT    0.041500    0.563300
FVAR       0.60837   0.75604   0.55358
NI1   4    0.500000    0.500000    0.500000    10.50000    0.02683    0.08133 =
         0.03451   -0.01259    0.01652   -0.02290
N1    3    0.644315    0.621966    0.505144    11.00000    0.04271    0.08557 =
         0.04235   -0.01452    0.02763   -0.03305
N2    3    0.425030    0.591795    0.689318    11.00000    0.02543    0.08324 =
         0.03846   -0.01199    0.01491   -0.01814
C1    1    0.753663    0.623474    0.402973    11.00000    0.06248    0.08502 =
         0.05924   -0.02267    0.04385   -0.04611
part 1
C2    1    0.865031    0.704693    0.476607    20.50000    0.01316    0.03540 =
         0.03119    0.00229    0.00559   -0.00059
C3    1    0.803040    0.775430    0.603021    10.50000    0.02452    0.05412 =
         0.04027   -0.00768    0.01261   -0.01214
C4    1    0.680439    0.711509    0.630358    10.50000    0.02030    0.05027 =
         0.03444   -0.00097    0.00898   -0.00519
C5    1    0.590677    0.747625    0.752779    10.50000    0.02842    0.05262 =
         0.04451   -0.00683    0.01539   -0.00629
AFIX  43
H5    2    0.622171    0.816129    0.830279    10.50000   -1.20000
AFIX   0
C11   1    1.001329    0.736382    0.407911    20.50000    0.02596    0.04113 =
         0.04247   -0.00234    0.01520   -0.01075
AFIX  23
H11A  2    1.057444    0.660194    0.362272    20.50000   -1.20000
H11B  2    1.094622    0.764119    0.521953    20.50000   -1.20000
AFIX   0
C12   1    0.915688    0.840156    0.237412    20.50000    0.05110    0.07128 =
         0.04373    0.00255    0.01839   -0.02583
AFIX 137
H12A  2    0.825071    0.811995    0.123470    20.50000   -1.50000
H12B  2    1.005794    0.859446    0.196044    20.50000   -1.50000
H12C  2    0.861079    0.915814    0.282991    20.50000   -1.50000
AFIX   0
C13   1    0.852028    0.892641    0.699531    10.50000    0.04175    0.06327 =
         0.06164   -0.02052    0.02368   -0.02413
AFIX 137
H13A  2    0.966137    0.899626    0.700177    10.50000   -1.50000
H13B  2    0.860570    0.887990    0.837698    10.50000   -1.50000
H13C  2    0.761247    0.966562    0.623507    10.50000   -1.50000
AFIX   0
C15   1    0.159689    0.614138    0.972794    10.50000    0.04130    0.05433 =
         0.06715   -0.01020    0.03696   -0.01442
AFIX  23
H15A  2    0.053031    0.682808    0.938226    10.50000   -1.20000
H15B  2    0.212574    0.591669    1.119307    10.50000   -1.20000
AFIX   0
C16   1    0.115959    0.496074    0.851477    10.50000    0.06434    0.07094 =
         0.08519   -0.02534    0.05796   -0.03445
AFIX  23
H16A  2    0.139997    0.422917    0.945865    10.50000   -1.20000
H16B  2   -0.010936    0.514011    0.760955    10.50000   -1.20000
AFIX   0
part 0
C6    1    0.465783    0.699415    0.777016    11.00000    0.03516    0.09077 =
         0.03673   -0.01827    0.01746   -0.03150
C7    1    0.379555    0.735399    0.913388    11.00000    0.04014    0.08044 =
         0.04112   -0.01600    0.02211   -0.02854
dfix 1.54 c8 c15'
C8    1    0.284730    0.648308    0.905692    11.00000    0.03400    0.06627 =
         0.04860   -0.01434    0.02449   -0.01840
C9    1    0.313743    0.561161    0.769220    11.00000    0.02961    0.07400 =
         0.04659   -0.01328    0.01915   -0.01517
C10   1    0.227969    0.464248    0.727718    11.00000    0.04821    0.08872 =
         0.05620   -0.01467    0.03796   -0.03054
part 2
AFIX  43
H10   2    0.151779    0.457305    0.792683    10.50000   -1.20000
AFIX   0
part 0
C14   1    0.397451    0.846219    1.035670    11.00000    0.07333    0.09613 =
         0.05710   -0.03001    0.04168   -0.05151
AFIX 123
H14A  2    0.475550    0.892016    1.008811    10.50000   -1.50000
H14B  2    0.280878    0.902058    1.000167    10.50000   -1.50000
H14C  2    0.447689    0.817417    1.178400    10.50000   -1.50000
H14D  2    0.327195    0.848978    1.116108    10.50000   -1.50000
H14E  2    0.521866    0.838936    1.124751    10.50000   -1.50000
H14F  2    0.355055    0.923577    0.946519    10.50000   -1.50000
AFIX   0
PART 2
C2'   1    0.815837    0.750679    0.437337    10.50000    0.09331    0.07560 =
         0.07455   -0.02907    0.06252   -0.05765
C3'   1    0.750846    0.804084    0.551987    30.50000    0.06162    0.07240 =
         0.04706   -0.01163    0.03055   -0.03522
C4'   1    0.632986    0.745261    0.590824    10.50000    0.03578    0.08457 =
         0.02867   -0.00714    0.01461   -0.03057
C5'   1    0.554840    0.783680    0.724053    10.50000    0.05413    0.08499 =
         0.03277   -0.02030    0.02489   -0.04149
AFIX  43
H5'   2    0.560006    0.863050    0.778488    10.50000   -1.20000
AFIX   0
C11'  1    0.952891    0.771610    0.358510    10.50000    0.06703    0.08572 =
         0.07082   -0.01719    0.04328   -0.04651
AFIX 137
H11D  2    0.896908    0.787008    0.212084    10.50000   -1.50000
H11E  2    1.049603    0.696666    0.396019    10.50000   -1.50000
H11F  2    0.999735    0.844531    0.417061    10.50000   -1.50000
AFIX   0
C13'  1    0.800060    0.923158    0.642431    30.50000    0.07010    0.07327 =
         0.04847   -0.01720    0.04742   -0.03690
AFIX  23
H13D  2    0.777044    0.929682    0.765898    30.50000   -1.50000
H13E  2    0.929089    0.912517    0.684282    30.50000   -1.50000
AFIX   0
C14'  1    0.729513    1.022435    0.543350    30.50000    0.10423    0.06046 =
         0.05569   -0.01972    0.04041   -0.03962
AFIX 137
H14G  2    0.752290    1.019598    0.421105    30.50000   -1.50000
H14H  2    0.776992    1.090039    0.621237    30.50000   -1.50000
H14I  2    0.601893    1.038397    0.507140    30.50000   -1.50000
AFIX   0
C15'  1    0.176820    0.632151    1.033971    10.50000    0.05868    0.06634 =
         0.05934   -0.01406    0.04219   -0.02684
AFIX 137
H15D  2    0.051863    0.641680    0.945251    10.50000   -1.50000
H15E  2    0.189137    0.696395    1.130728    10.50000   -1.50000
H15F  2    0.222160    0.548304    1.105937    10.50000   -1.50000
AFIX   0
part   0
part 3 -20.5
C2"   1    0.800851    0.732311    0.406583   -20.50000    0.06189    0.07058 =
         0.04793   -0.01666    0.04489   -0.03582
C11"  1    0.854707    0.805300    0.269771   -20.50000    0.02198    0.03738 =
         0.03973   -0.00348    0.02277   -0.01428
AFIX  23
H11G  2    0.808850    0.777653    0.132250   -20.50000   -1.20000
H11H  2    0.804903    0.896563    0.263599   -20.50000   -1.20000
AFIX   0
C12"  1    1.055062    0.779911    0.354931   -20.50000    0.03236    0.06128 =
         0.05447    0.01030    0.02191   -0.01751
AFIX 137
H12D  2    1.098555    0.815823    0.484757   -20.50000   -1.50000
H12E  2    1.092392    0.818666    0.262110   -20.50000   -1.50000
H12F  2    1.103532    0.688862    0.372881   -20.50000   -1.50000
AFIX   0
part 3
C3"   1    0.731264    0.832801    0.540157   -30.50000    0.06430    0.06346 =
         0.04309   -0.00765    0.03962   -0.02868
C13"  1    0.744011    0.965086    0.603930   -30.50000    0.05485    0.05873 =
         0.05195   -0.00608    0.02198   -0.01507
AFIX  23
H13F  2    0.637404    1.005201    0.626464   -30.50000   -1.20000
H13G  2    0.749386    1.016473    0.495778   -30.50000   -1.20000
AFIX   0
C14"  1    0.913824    0.960587    0.802456   -30.50000    0.05209    0.04295 =
         0.04269   -0.01086    0.02648   -0.02050
AFIX 137
H14J  2    0.901669    0.918624    0.913324   -30.50000   -1.50000
H14K  2    0.927154    1.046557    0.833432   -30.50000   -1.50000
H14L  2    1.018176    0.913785    0.783984   -30.50000   -1.50000
AFIX   0
HKLF 4

REM  Abelsonite_a.res in P-1
REM R1 =  0.0406 for    1911 Fo > 4sig(Fo)  and  0.0514 for all    2195 data
REM    304 parameters refined using    346 restraints

END

WGHT      0.0415      0.5633

REM Highest difference peak  0.548,  deepest hole -0.481,  1-sigma level  0.052
Q1    1   0.3840  0.5529  0.3691  11.00000  0.05    0.55
Q2    1   0.5936  0.6871  0.5101  11.00000  0.05    0.30
Q3    1   0.6844  0.6234  0.2792  11.00000  0.05    0.24
Q4    1   0.4246  0.6436  0.7023  11.00000  0.05    0.23
Q5    1   0.3204  0.8031  0.8880  11.00000  0.05    0.23
;
_shelx_res_checksum              92489
_shelx_hkl_file
;
  -1   0   0 969.205 40.0721   1
  -1   0   0 926.970 40.0615   1
  -1   0   0 978.090 40.0989   2
  -1   0   0 946.882 40.0604   6
  -1   0   0 980.088 40.1234   9
  -1   0   0 988.916 40.1107  11
   1   0   0 951.844 40.0721   1
   1   0   0 990.998 40.1024   2
   1   0   0 987.391 40.0839   6
   1   0   0 945.122 40.1210   9
   1   0   0 884.345 40.0968  11
  -2   0   0 2.06928 0.61012   5
  -2   0   0 1.87078 0.46420   6
  -2   0   0 3.35735 0.68501   9
  -2   0   0 2.08921 0.60490  11
  -2   0   0 3.01020 0.69013   2
  -2   0   0 2.71794 0.53440   1
  -2   0   0 2.23677 0.50901   1
   2   0   0 2.19876 0.61668  11
   2   0   0 3.15905 0.72733   2
   2   0   0 2.47639 0.51866   1
   2   0   0 2.53662 0.65172   9
  -3   0   0 92.0382 4.35161   6
  -3   0   0 102.195 4.56163   5
  -3   0   0 95.0409 4.49176   2
  -3   0   0 102.567 4.57786  11
  -3   0   0 92.6628 4.38000   1
  -3   0   0 101.477 4.62095   9
  -3   0   0 99.3613 4.39217   1
   3   0   0 103.379 4.37121   6
   3   0   0 94.0807 4.55083  11
   3   0   0 94.4560 4.35391   6
   3   0   0 99.3887 4.37632   1
   3   0   0 104.487 4.50987   2
   3   0   0 94.3399 4.58700   9
   3   0   0 94.7976 4.37365   1
  -4   0   0 36.0099 2.31586   2
  -4   0   0 35.9350 2.31427  11
  -4   0   0 36.8309 2.06991   1
  -4   0   0 37.2795 2.27690   5
  -4   0   0 37.6129 2.33219   9
  -4   0   0 33.7078 1.94463   6
  -4   0   0 33.7058 1.98267   1
   4   0   0 36.3361 1.96347   6
   4   0   0 35.5646 2.38799   9
   4   0   0 36.0136 2.26923   2
   4   0   0 35.0072 2.33538  11
   4   0   0 35.6550 2.10056   1
   4   0   0 34.4002 1.98666   1
   4   0   0 35.1189 2.02938   6
  -5   0   0 12.3803 1.66317  12
  -5   0   0 14.0557 1.53085   6
  -5   0   0 14.7094 1.65159   1
  -5   0   0 15.0109 1.94291   5
  -5   0   0 19.1914 2.10964   9
  -5   0   0 14.3138 1.73333   1
  -5   0   0 16.9333 2.06433  11
  -5   0   0 16.8730 2.21720   2
   5   0   0 14.5301 1.64604   6
   5   0   0 16.0013 2.05533   9
   5   0   0 14.1489 1.74543   1
   5   0   0 14.6327 1.53722   1
   5   0   0 16.1690 1.43040   6
  -6   0   0 34.4287 2.90016  11
  -6   0   0 33.8037 2.87495   5
  -6   0   0 32.7812 2.95525  12
  -6   0   0 31.9951 2.96857   9
  -6   0   0 33.6975 2.47249   1
  -6   0   0 32.6667 2.49097   1
   6   0   0 29.9336 2.37189   1
   6   0   0 34.2750 2.45183   6
   6   0   0 32.1083 2.25009   6
   6   0   0 29.0159 2.97267   9
   6   0   0 35.1972 2.55548   1
  -7   0   0 11.5638 2.22798  12
  -7   0   0 13.2373 2.04588   5
  -7   0   0 11.2895 2.17430  11
  -7   0   0 19.2827 2.63018   4
  -7   0   0 9.69914 2.10606   9
  -7   0   0 13.8439 2.19595   3
  -7   0   0 13.4272 1.75922   1
  -7   0   0 16.1624 2.40074   1
   7   0   0 13.5987 1.61369   6
   7   0   0 10.5376 1.73632   1
   7   0   0 10.4587 1.59510   6
   7   0   0 14.7527 2.19221   1
  -8   0   0 16.0342 2.81602   3
  -8   0   0 14.9165 2.07433   1
  -8   0   0 13.9724 2.11377   1
  -8   0   0 14.3735 2.89175  12
  -8   0   0 14.1319 2.60808   9
  -8   0   0 14.8638 2.60351   5
  -8   0   0 16.9781 2.70981  11
  -8   0   0 17.4218 2.50739   4
   8   0   0 12.6353 1.99694   6
   8   0   0 14.0494 2.04611   1
  -9   0   0 8.17509 3.49160   9
  -9   0   0 8.98944 3.65929  12
  -9   0   0 2.38465 2.97446   5
  -9   0   0 8.63958 2.79998   4
  -9   0   0 8.52733 2.38978   1
  -9   0   0 7.09550 3.54575   3
  -9   0   0 8.98018 3.33649  11
  -9   0   0 8.44782 3.47737   7
  -9   0   0 4.45751 3.24120   8
   9   0   0 1.90947 3.74162   1
   9   0   0 8.01286 3.44395   6
   9   0   0 5.68798 2.29891   6
   9   0   0 9.60214 2.31515   1
   8  -1   0 23.4920 3.09036   1
   8  -1   0 17.3025 2.22816   6
   8  -1   0 13.4309 2.75925   1
  -8   1   0 19.8917 2.67556   4
  -8   1   0 20.3452 3.11047   7
  -8   1   0 17.6919 2.41999   1
  -8   1   0 17.7032 3.22238  12
  -8   1   0 15.8680 2.76280   5
  -8   1   0 20.0691 3.09146   9
  -8   1   0 19.6382 3.08906  11
   7  -1   0 16.6070 2.22250   6
   7  -1   0 15.5064 1.86532   6
   7  -1   0 13.2653 2.38420   9
   7  -1   0 19.2812 2.75666   1
   7  -1   0 15.1543 2.29730   1
  -7   1   0 11.8221 1.99290   4
  -7   1   0 15.6602 1.94464   1
  -7   1   0 12.3687 2.09920   5
  -7   1   0 17.9863 2.58702   1
  -7   1   0 17.6094 2.59597  12
  -7   1   0 14.5862 2.12957  11
  -7   1   0 13.2545 2.29254   9
  -7   1   0 19.1602 2.36670   7
   6  -1   0 23.6416 2.42437   1
   6  -1   0 20.9505 2.81499   9
   6  -1   0 20.0188 2.00779   6
   6  -1   0 21.9976 2.67673   2
   6  -1   0 23.5506 2.21640   6
   6  -1   0 18.2402 2.19542  11
   6  -1   0 20.0461 2.04852   1
  -6   1   0 20.5571 2.20327   1
  -6   1   0 20.0919 2.52829   5
  -6   1   0 18.6769 2.06509   4
  -6   1   0 21.0383 2.06447   6
  -6   1   0 18.4107 2.65492   9
  -6   1   0 25.8281 2.71799  11
  -6   1   0 19.2915 2.21163   1
   5  -1   0 33.9284 2.39648   1
   5  -1   0 30.3580 2.65704   9
   5  -1   0 32.7494 2.20835   1
   5  -1   0 34.7063 2.27503   6
   5  -1   0 31.6372 2.74925  11
   5  -1   0 33.1149 2.56370   2
   5  -1   0 32.4651 2.12862   6
  -5   1   0 30.0411 2.21358   1
  -5   1   0 32.2269 2.28347   1
  -5   1   0 34.2334 2.50976   5
  -5   1   0 34.8701 2.69582   9
  -5   1   0 34.3005 2.44262   4
  -5   1   0 30.4939 2.12645   6
  -5   1   0 37.1449 2.58513  11
   4  -1   0 95.7084 4.14330   6
   4  -1   0 86.4372 4.47311   9
   4  -1   0 91.1837 4.38384   2
   4  -1   0 84.8614 4.39593  11
   4  -1   0 85.1657 4.22671   1
   4  -1   0 88.0270 4.13582   1
  -4   1   0 88.0271 4.17748   1
  -4   1   0 90.9879 4.46001   9
  -4   1   0 84.5366 4.17206   1
  -4   1   0 84.7392 4.12956   6
  -4   1   0 93.8423 4.40394  11
  -4   1   0 93.2821 4.39535   5
   3  -1   0 21.7539 1.57198   1
   3  -1   0 20.3325 1.71803  11
   3  -1   0 22.8088 1.47821   1
   3  -1   0 21.7240 1.76585   2
   3  -1   0 22.5998 1.80525   9
   3  -1   0 25.7241 1.44279   6
  -3   1   0 21.4528 1.47467   1
  -3   1   0 24.4984 1.81461   9
  -3   1   0 22.9774 1.41670   6
  -3   1   0 21.9894 1.70586  11
  -3   1   0 24.4612 1.70031   5
  -3   1   0 23.5193 1.54283   1
   2  -1   0 52.2436 2.70330   2
   2  -1   0 50.8921 2.72896   9
   2  -1   0 53.2728 2.67652  11
   2  -1   0 50.3914 2.64594   5
   2  -1   0 50.2283 2.53273   1
   2  -1   0 52.8626 2.52922   1
   2  -1   0 55.3210 2.51676   6
  -2   1   0 55.5246 2.73059   9
  -2   1   0 54.5822 2.65246  11
  -2   1   0 48.1501 2.51322   1
  -2   1   0 55.4737 2.67680   5
  -2   1   0 52.5611 2.50508   6
  -2   1   0 55.6013 2.54611   1
   1  -1   0 1202.44 51.6092   9
   1  -1   0 1211.38 51.6031   5
   1  -1   0 1129.34 51.5140   7
   1  -1   0 1179.07 51.5944  11
   1  -1   0 1335.12 51.7438   6
   1  -1   0 1208.57 51.6515   1
   1  -1   0 1292.17 51.6866   1
  -1   1   0 1203.20 51.5222   7
  -1   1   0 1257.34 51.6774   6
  -1   1   0 1243.68 51.6072   9
  -1   1   0 1181.46 51.6489   1
  -1   1   0 1258.88 51.7179   1
  -1   1   0 1278.86 51.7516   4
  -1   1   0 1280.03 51.6046  11
  -1   1   0 1244.33 51.5998   5
   0   1   0 0.09747 0.19519   7
  -1  -1   0 176.995 6.88744   6
  -1  -1   0 154.952 6.87435   4
  -1  -1   0 154.256 6.92726   3
  -1  -1   0 168.734 6.88358   1
  -1  -1   0 155.451 6.90675   8
  -1  -1   0 162.505 6.88437   1
   1   1   0 163.986 6.88808   1
   1   1   0 159.502 6.93302   3
   1   1   0 164.331 6.91679   8
  -2  -1   0 262.633 11.9943   3
  -2  -1   0 277.960 12.0013  12
  -2  -1   0 276.045 11.8952   1
  -2  -1   0 296.460 12.0558   9
  -2  -1   0 285.728 11.8887   6
  -2  -1   0 282.095 11.8950   1
   2   1   0 282.530 11.9903  12
   2   1   0 285.403 11.9017   1
  -3  -1   0 245.857 10.7761  12
  -3  -1   0 252.378 10.6467   2
  -3  -1   0 248.063 10.6126   1
  -3  -1   0 252.731 10.6029   6
  -3  -1   0 239.315 10.7858   3
  -3  -1   0 244.667 10.7612  11
  -3  -1   0 243.761 10.6147   1
  -3  -1   0 263.174 10.8488   9
   3   1   0 250.035 10.5984   6
   3   1   0 247.023 10.6073   1
   3   1   0 253.220 10.5959   6
   3   1   0 241.278 10.5987   1
  -4  -1   0 163.525 7.06922   9
  -4  -1   0 155.912 6.96032  11
  -4  -1   0 149.897 6.98524  12
  -4  -1   0 156.437 6.75267   1
  -4  -1   0 156.836 6.82834   2
  -4  -1   0 146.081 6.98747   3
  -4  -1   0 145.967 6.73635   1
   4   1   0 155.696 6.71631   6
   4   1   0 150.987 6.72324   1
   4   1   0 152.897 6.72766   6
   4   1   0 150.685 6.74526   1
  -5  -1   0 138.225 6.30344  11
  -5  -1   0 125.785 6.30897  12
  -5  -1   0 127.499 5.97783   1
  -5  -1   0 127.799 6.32158   9
  -5  -1   0 120.655 6.29277   3
  -5  -1   0 132.846 6.25811   5
  -5  -1   0 133.955 5.98458   1
  -5  -1   0 134.185 6.13368   2
   5   1   0 132.895 5.95349   1
   5   1   0 135.815 5.96219   6
   5   1   0 127.543 5.97222   1
   5   1   0 138.688 5.91869   6
  -6  -1   0 105.380 5.18314   1
  -6  -1   0 105.871 5.68304  12
  -6  -1   0 108.815 5.59957  11
  -6  -1   0 105.427 5.67493   3
  -6  -1   0 116.321 5.62092   5
  -6  -1   0 107.400 5.51160   2
  -6  -1   0 114.978 5.21633   1
  -6  -1   0 116.892 5.73855   9
   6   1   0 102.829 5.10825   6
   6   1   0 100.637 5.13622   1
   6   1   0 108.568 5.10929   6
   6   1   0 109.120 5.14911   1
  -7  -1   0 30.4081 2.72151   1
  -7  -1   0 25.4453 3.21200   5
  -7  -1   0 28.1312 3.49118   3
  -7  -1   0 30.5735 2.58040   1
  -7  -1   0 30.3369 3.26324  11
  -7  -1   0 29.2029 3.33355  12
  -7  -1   0 29.7377 3.37363   9
   7   1   0 26.1668 2.42630   1
   7   1   0 27.1151 2.32188   6
  -8  -1   0 5.24485 2.14972   8
  -8  -1   0 4.48861 2.51274  12
  -8  -1   0 3.15294 1.82052   1
  -8  -1   0 6.44586 2.18365   5
  -8  -1   0 2.78231 1.63729   1
  -8  -1   0 2.53710 2.62592   3
  -8  -1   0 3.15662 2.34503   9
  -8  -1   0 3.93657 2.24035  11
   8   1   0 3.34253 1.59678   1
   8   1   0 4.56019 1.53431   6
  -9  -1   0 3.16163 3.08250  11
  -9  -1   0 -0.4098 3.01443   9
  -9  -1   0 4.42255 2.76414   8
  -9  -1   0 0.90735 2.57856   4
  -9  -1   0 7.95686 3.39121   3
  -9  -1   0 0.37517 3.55454  12
  -9  -1   0 5.30647 2.20236   1
  -9  -1   0 2.88632 2.90698   5
  -9  -1   0 3.10499 2.32613   1
   9   1   0 0.51846 2.01451   1
   9   1   0 1.36621 2.07452   1
   8  -2   0 19.5813 2.49539   6
   8  -2   0 16.2684 3.27915   9
   8  -2   0 27.9476 3.78063   6
   8  -2   0 21.3479 2.97028   1
   8  -2   0 19.6068 2.46557   1
  -8   2   0 18.0612 2.91318   4
  -8   2   0 17.9865 3.04662  10
  -8   2   0 16.2144 3.07795   7
  -8   2   0 24.1023 3.66168   1
  -8   2   0 15.4766 3.18217  11
  -8   2   0 21.3200 3.46876  12
  -8   2   0 21.1621 3.05605   9
  -8   2   0 16.8086 2.69839   1
  -8   2   0 29.3339 4.20147   5
   7  -2   0 8.12427 1.56924   6
   7  -2   0 8.93858 2.45177  11
   7  -2   0 4.49847 1.55608   1
   7  -2   0 4.94860 2.20350   2
   7  -2   0 7.52118 1.95862   1
   7  -2   0 8.09544 1.83411   6
  -7   2   0 5.60829 2.11934  11
  -7   2   0 7.14177 1.85950   4
  -7   2   0 4.13478 1.60567   6
  -7   2   0 6.18793 1.80703   1
  -7   2   0 6.19316 1.90852   5
  -7   2   0 8.50371 2.11024   7
  -7   2   0 4.79206 2.01848  10
  -7   2   0 5.17650 2.24124   9
   6  -2   0 -0.1488 1.18227   6
   6  -2   0 -0.4559 1.31673   6
   6  -2   0 -1.5123 1.44433   9
   6  -2   0 1.10323 1.72681  11
   6  -2   0 -0.0636 1.75515   2
   6  -2   0 -1.0121 1.45511   1
   6  -2   0 -0.1338 1.23030   1
  -6   2   0 0.25258 1.29761   1
  -6   2   0 -1.6294 1.39751   9
  -6   2   0 -0.2402 1.27338   1
  -6   2   0 -0.5896 1.43482  11
  -6   2   0 3.17689 1.39454   4
  -6   2   0 1.45073 1.22154   6
  -6   2   0 1.12805 1.38796   5
  -6   2   0 1.25800 1.43985   7
   5  -2   0 56.7882 3.47730   2
   5  -2   0 57.3342 3.03433   6
   5  -2   0 53.0719 3.61513   9
   5  -2   0 54.6468 3.07551   1
   5  -2   0 51.2272 3.55780  11
   5  -2   0 58.0025 3.32686   1
  -5   2   0 52.5988 3.02585   6
  -5   2   0 54.7758 3.33181   5
  -5   2   0 54.6070 3.53375   9
  -5   2   0 53.3108 3.34516   4
  -5   2   0 55.2366 3.44494  11
  -5   2   0 57.9165 3.21141   1
  -5   2   0 56.4235 3.18902   7
  -5   2   0 50.8154 3.16755   1
   4  -2   0 59.8287 3.51497   9
   4  -2   0 60.4382 3.40367   5
   4  -2   0 58.2415 3.31174   1
   4  -2   0 63.3471 3.50278   2
   4  -2   0 63.2016 3.50234  11
   4  -2   0 65.7004 3.18365   6
   4  -2   0 63.1148 3.19052   1
  -4   2   0 64.5928 3.39634   5
  -4   2   0 64.8991 3.23283   7
  -4   2   0 64.9157 3.53807   9
  -4   2   0 66.8244 3.29493   1
  -4   2   0 64.7314 3.40409   4
  -4   2   0 58.3497 3.17543   1
  -4   2   0 66.3908 3.43808  11
  -4   2   0 57.2562 3.08665   6
   3  -2   0 78.6092 4.02288   2
   3  -2   0 78.5911 4.02878  11
   3  -2   0 78.8397 4.06763   9
   3  -2   0 77.2474 3.88397   1
   3  -2   0 84.6578 3.84265   1
   3  -2   0 77.1754 3.97759   5
   3  -2   0 85.1836 3.83564   6
  -3   2   0 86.2822 3.99103   4
  -3   2   0 85.4118 3.98469   5
  -3   2   0 87.5450 4.03164  11
  -3   2   0 76.9258 3.78907   6
  -3   2   0 87.6200 4.11416   9
  -3   2   0 81.3533 3.79550   7
  -3   2   0 84.2932 3.87270   1
  -3   2   0 73.2193 3.79471   1
   2  -2   0 105.487 4.49331   1
   2  -2   0 92.7894 4.54715  11
   2  -2   0 97.0474 4.64412   2
   2  -2   0 97.5536 4.60664   9
   2  -2   0 95.6298 4.55418   5
   2  -2   0 105.071 4.47731   6
   2  -2   0 95.5987 4.49784   1
  -2   2   0 102.182 4.49157   1
  -2   2   0 93.0660 4.46057   1
  -2   2   0 102.666 4.56967  11
  -2   2   0 93.9747 4.37074   7
  -2   2   0 103.905 4.56229   4
  -2   2   0 97.6746 4.44998   6
  -2   2   0 99.9111 4.56401   5
   1  -2   0 3.69646 0.59576   6
   1  -2   0 2.38772 0.50792   7
   1  -2   0 3.40457 0.68387  11
   1  -2   0 3.44748 0.61346   1
   1  -2   0 3.51135 0.64171   1
   1  -2   0 3.05777 0.59724   4
   1  -2   0 2.56969 0.61018   5
  -1   2   0 3.71234 0.62283   4
  -1   2   0 3.12099 0.61074   1
  -1   2   0 4.46417 0.72540  11
  -1   2   0 2.69567 0.60351  10
  -1   2   0 4.16681 0.64077   6
  -1   2   0 3.71795 0.66279   5
  -1   2   0 3.65017 0.69940   8
  -1   2   0 2.74976 0.50547   7
  -1   2   0 4.26046 0.71986   1
   0  -2   0 36.0548 1.70430   7
   0  -2   0 39.8118 1.80961   6
   0  -2   0 34.2572 1.83740   3
   0  -2   0 35.3395 1.79906  10
   0  -2   0 37.1859 1.79695   4
   0  -2   0 35.2688 1.82129   1
   0  -2   0 35.3488 1.81578   5
   0  -2   0 36.4115 1.83065   1
   0  -2   0 35.5375 1.83276  11
   0  -2   0 33.9625 1.77341   8
   0   2   0 37.2457 1.84365   1
   0   2   0 37.8930 1.69885   7
   0   2   0 37.1823 1.79117   4
   0   2   0 36.0192 1.83957   3
   0   2   0 33.5120 1.78363   1
   0   2   0 37.4881 1.79695  10
   0   2   0 35.9593 1.78871   8
   0   2   0 36.6271 1.77151   6
  -1  -2   0 260.778 10.8278   1
  -1  -2   0 235.564 10.8296   3
  -1  -2   0 239.540 10.8084   8
  -1  -2   0 258.135 10.8110   1
  -1  -2   0 239.740 10.7680  10
  -1  -2   0 267.181 10.8157   6
  -1  -2   0 242.042 10.7708   4
   1   2   0 270.769 10.8180   6
   1   2   0 252.923 10.8523   3
   1   2   0 250.455 10.7810   4
   1   2   0 283.507 10.8367   8
   1   2   0 249.732 10.7758  10
   1   2   0 253.799 10.8085   1
   1   2   0 259.234 10.8184   1
  -2  -2   0 76.1808 3.47679   1
  -2  -2   0 72.7832 3.46475   4
  -2  -2   0 75.4976 3.46597   1
  -2  -2   0 78.7750 3.45617   6
  -2  -2   0 74.7298 3.61565   3
  -2  -2   0 71.6913 3.54538   8
   2   2   0 74.4193 3.44744   1
   2   2   0 79.2298 3.60431  12
   2   2   0 75.6529 3.48085   1
   2   2   0 75.1462 3.56121   8
   2   2   0 78.0400 3.60710   3
   2   2   0 75.8743 3.43411   6
  -3  -2   0 374.351 15.6122   1
  -3  -2   0 379.564 15.8116   9
  -3  -2   0 381.044 15.6003   6
  -3  -2   0 359.061 15.5969   1
  -3  -2   0 349.462 15.7530   3
  -3  -2   0 346.151 15.7025   8
  -3  -2   0 374.637 15.7637  12
   3   2   0 353.142 15.5791   1
   3   2   0 363.116 15.5776   6
   3   2   0 383.173 15.7502  12
   3   2   0 366.916 15.7598   3
   3   2   0 379.845 15.6149   1
  -4  -2   0 373.264 15.4729   6
  -4  -2   0 384.679 15.7824   9
  -4  -2   0 360.480 15.6821  12
  -4  -2   0 352.396 15.6394   8
  -4  -2   0 368.156 15.4806   1
  -4  -2   0 342.751 15.6892   3
  -4  -2   0 354.658 15.4733   1
  -4  -2   0 359.907 15.4840   2
  -4  -2   0 376.263 15.6875  11
   4   2   0 362.981 15.4626   6
   4   2   0 355.328 15.4746   1
   4   2   0 361.537 15.4797   1
   4   2   0 369.069 15.4660   6
  -5  -2   0 277.713 12.7247  12
  -5  -2   0 271.448 12.4336   1
  -5  -2   0 310.581 12.8685   9
  -5  -2   0 294.173 12.4633   1
  -5  -2   0 277.851 12.7499   3
  -5  -2   0 297.528 12.7223  11
  -5  -2   0 289.668 12.5117   2
  -5  -2   0 282.095 12.6617   8
   5   2   0 280.550 12.4156   6
   5   2   0 301.682 12.4393   6
   5   2   0 294.172 12.4571   1
   5   2   0 282.002 12.4349   1
  -6  -2   0 132.571 6.70964  12
  -6  -2   0 131.285 6.51461   8
  -6  -2   0 137.540 6.25975   1
  -6  -2   0 132.627 6.35855   2
  -6  -2   0 143.372 6.75169   9
  -6  -2   0 124.403 6.20825   1
  -6  -2   0 134.583 6.71182   3
  -6  -2   0 137.966 6.62940  11
   6   2   0 138.198 6.17652   6
   6   2   0 132.265 6.19543   6
   6   2   0 129.987 6.21062   1
   6   2   0 136.393 6.21740   1
  -7  -2   0 96.8261 5.27214  11
  -7  -2   0 95.8836 5.29100   9
  -7  -2   0 87.7984 5.34600   3
  -7  -2   0 90.6303 5.07188   8
  -7  -2   0 84.4831 4.60714   1
  -7  -2   0 88.9133 5.33115  12
  -7  -2   0 97.2789 5.25628   5
  -7  -2   0 84.4555 4.96271   2
  -7  -2   0 90.4744 4.70300   1
   7   2   0 91.9300 4.62995   1
   7   2   0 86.6820 4.49416   6
  -8  -2   0 0.14653 2.31336  12
  -8  -2   0 -0.2963 1.57425   1
  -8  -2   0 2.52108 2.15373   8
  -8  -2   0 0.18446 1.79323   1
  -8  -2   0 1.62537 2.11746   5
  -8  -2   0 2.05572 2.11797  11
  -8  -2   0 2.74339 2.21751   9
  -8  -2   0 0.13302 2.42331   3
   8   2   0 0.06539 1.47853   1
   8   2   0 2.77703 1.43049   6
  -9  -2   0 1.17629 3.05196  11
  -9  -2   0 -2.6120 3.01969   8
  -9  -2   0 1.09869 2.50042   4
  -9  -2   0 2.45658 3.43837   3
  -9  -2   0 -2.3773 2.03285   1
  -9  -2   0 -1.6281 2.73024   5
  -9  -2   0 -2.1462 2.87577   9
  -9  -2   0 0.45580 3.43757  12
  -9  -2   0 2.46659 2.08893   1
   9   2   0 1.86249 2.01884   1
   9   2   0 -0.0821 1.93627   1
   8  -3   0 22.7046 3.09141   1
   8  -3   0 15.0982 2.58580   6
   8  -3   0 21.8845 2.91646   6
   8  -3   0 18.0675 4.08913  11
   8  -3   0 21.4767 3.70058   2
   8  -3   0 17.4409 2.66225   1
  -8   3   0 13.9701 3.07346  11
  -8   3   0 23.0230 3.13944   5
  -8   3   0 18.9705 2.65474   6
  -8   3   0 14.8893 3.05386   4
  -8   3   0 14.7234 3.52878   9
  -8   3   0 20.5663 3.30248   7
  -8   3   0 13.2988 2.84950   1
  -8   3   0 17.4189 3.00045  10
  -8   3   0 18.9312 2.98469   1
   7  -3   0 5.40434 2.01635   6
   7  -3   0 6.33969 1.77784   6
   7  -3   0 9.92368 2.66245   2
   7  -3   0 1.64714 2.44747  11
   7  -3   0 9.84802 2.30462   1
   7  -3   0 3.83429 1.78397   1
  -7   3   0 8.48877 2.06768   4
  -7   3   0 7.86459 2.10018   5
  -7   3   0 5.10608 2.43913   9
  -7   3   0 10.5261 2.30054  10
  -7   3   0 6.66624 1.86845   6
  -7   3   0 3.80205 2.07834  11
  -7   3   0 5.43433 1.94953   1
  -7   3   0 4.67028 1.99302   1
  -7   3   0 7.77778 2.20359   7
   6  -3   0 3.08072 1.85401   2
   6  -3   0 3.47191 1.34259   1
   6  -3   0 3.41288 1.47911   6
   6  -3   0 2.72466 1.70932   1
   6  -3   0 2.78849 1.74372   9
   6  -3   0 0.02601 1.76378  11
  -6   3   0 2.51196 1.49115  10
  -6   3   0 0.19532 1.40589   5
  -6   3   0 2.74975 1.56498   7
  -6   3   0 -0.6952 1.56082  11
  -6   3   0 0.18350 1.27311   6
  -6   3   0 -0.5410 1.38110   4
  -6   3   0 1.14982 1.61774   9
  -6   3   0 0.89547 1.50777   1
  -6   3   0 3.46880 1.54076   1
   5  -3   0 21.0586 1.95017   6
   5  -3   0 19.1216 2.47288   1
   5  -3   0 21.0251 2.72616   9
   5  -3   0 22.2315 2.90811  11
   5  -3   0 14.2887 1.99309   1
   5  -3   0 20.2634 2.37797   5
   5  -3   0 19.5763 2.60310   2
  -5   3   0 21.8080 1.89645   6
  -5   3   0 21.8825 2.25472   5
  -5   3   0 20.7025 2.48746  10
  -5   3   0 17.3078 2.40308  11
  -5   3   0 19.7139 2.31669   4
  -5   3   0 22.5677 2.68899   9
  -5   3   0 22.3298 2.23425   7
  -5   3   0 21.4859 2.12438   1
   4  -3   0 21.7591 1.71011   6
   4  -3   0 21.1212 2.24843  11
   4  -3   0 22.0375 2.08020   1
   4  -3   0 20.5223 1.75762   1
   4  -3   0 19.5480 2.03940   5
   4  -3   0 21.1409 2.28327   2
   4  -3   0 17.6380 2.28144   9
  -4   3   0 19.6057 1.84147   7
  -4   3   0 20.6051 1.61750   6
  -4   3   0 21.9516 1.92266   4
  -4   3   0 20.7306 2.05898  10
  -4   3   0 22.3159 2.00883   5
  -4   3   0 21.5103 2.06534  11
  -4   3   0 18.9395 1.71233   1
   3  -3   0 83.6350 3.89345   1
   3  -3   0 75.3873 3.97023   5
   3  -3   0 82.1872 3.96918   1
   3  -3   0 77.6404 4.07168   2
   3  -3   0 85.0271 3.87970   6
   3  -3   0 75.1702 4.01272  11
   3  -3   0 78.1904 4.08076   9
  -3   3   0 74.7643 3.78906   6
  -3   3   0 82.4807 3.98168   4
  -3   3   0 77.8349 3.74028   7
  -3   3   0 83.3168 4.00985  11
  -3   3   0 75.5627 3.81461   1
  -3   3   0 82.9594 3.98549   5
  -3   3   0 83.9384 4.06523  10
   2  -3   0 98.0999 4.69228   5
   2  -3   0 97.0749 4.67076  11
   2  -3   0 100.263 4.59956   1
   2  -3   0 92.6249 4.41905   7
   2  -3   0 93.5133 4.67719   4
   2  -3   0 96.9476 4.73056   9
   2  -3   0 98.3917 4.62962   1
   2  -3   0 107.564 4.61802   6
  -2   3   0 94.2999 4.56397   6
  -2   3   0 104.563 4.69142   4
  -2   3   0 93.3204 4.57088   1
  -2   3   0  99.999 4.41608   7
  -2   3   0 107.173 4.70928  11
  -2   3   0 104.580 4.72123  10
  -2   3   0 102.688 4.65456   1
  -2   3   0 100.011 4.59713   8
  -2   3   0 104.706 4.69931   5
   1  -3   0 0.09949 0.72810   8
   1  -3   0 0.68858 0.73468  11
   1  -3   0 -0.0001 0.56910   7
   1  -3   0 0.69725 0.62049   6
   1  -3   0 0.34249 0.67707   1
   1  -3   0 0.43322 0.64755   1
   1  -3   0 1.01771 0.70017   5
   1  -3   0 0.13610 0.57830   4
  -1   3   0 0.64363 0.74618   3
  -1   3   0 0.45690 0.59175   6
  -1   3   0 0.48065 0.57317   4
  -1   3   0 0.56938 0.70964  11
  -1   3   0 1.00093 0.69438   5
  -1   3   0 -0.2566 0.67495   1
  -1   3   0 0.55436 0.52847   7
  -1   3   0 0.00069 0.57061  10
  -1   3   0 0.23833 0.59876   1
  -1   3   0 1.55227 0.66940   8
   0  -3   0 79.0580 3.77855  11
   0  -3   0 81.2425 3.62371   7
   0  -3   0 77.4164 3.72190  10
   0  -3   0 77.8350 3.75742   5
   0  -3   0 81.5406 3.76592   1
   0  -3   0 83.0328 3.74437   6
   0  -3   0 75.9295 3.71510   8
   0  -3   0 76.4807 3.77348   3
   0  -3   0 79.9636 3.71715   4
   0  -3   0 83.3799 3.76295   1
   0   3   0 81.8316 3.77393   1
   0   3   0 77.7108 3.69166   6
   0   3   0 83.8147 3.71916   4
   0   3   0 82.2296 3.78466   3
   0   3   0 80.7460 3.73892   8
   0   3   0 85.2529 3.74361  10
   0   3   0 72.6305 3.70173   1
   0   3   0 84.3132 3.60771   7
  -1  -3   0 242.902 10.2679  10
  -1  -3   0 236.342 10.3235   1
  -1  -3   0 233.713 10.3032   8
  -1  -3   0 264.039 10.3536   6
  -1  -3   0 233.592 10.3494   3
  -1  -3   0 236.464 10.2673   7
  -1  -3   0 244.058 10.3205   1
  -1  -3   0 237.274 10.2589   4
   1   3   0 222.922 10.3084   1
   1   3   0 242.958 10.3512   3
   1   3   0 240.073 10.2723   4
   1   3   0 226.005 10.2803   1
   1   3   0 243.901 10.3045   6
   1   3   0 245.039 10.3134   8
   1   3   0 250.416 10.2849  10
  -2  -3   0 583.327 23.1846   6
  -2  -3   0 530.608 23.1997   8
  -2  -3   0 527.628 23.1108  10
  -2  -3   0 584.842 23.1953   1
  -2  -3   0 539.676 23.2483   3
  -2  -3   0 537.305 23.1236   4
  -2  -3   0 552.064 23.1870   1
   2   3   0 545.592 23.1981   8
   2   3   0 564.276 23.1750   6
   2   3   0 530.771 23.1237  10
   2   3   0 530.490 23.1225   4
   2   3   0 552.917 23.2499   3
   2   3   0 522.713 23.1442   1
   2   3   0 577.731 23.1882   1
  -3  -3   0 385.142 15.5076   6
  -3  -3   0 354.426 15.5897   8
  -3  -3   0 348.503 15.4778   4
  -3  -3   0 352.691 15.6304   3
  -3  -3   0 367.241 15.5010   1
  -3  -3   0 360.293 15.4889   1
  -3  -3   0 352.675 15.4724  10
   3   3   0 371.844 15.5033   1
   3   3   0 362.653 15.4704   6
   3   3   0 354.251 15.4686   1
   3   3   0 365.495 15.5797   8
   3   3   0 370.702 15.6406   3
   3   3   0 378.991 15.6272  12
  -4  -3   0 111.714 5.52179   3
  -4  -3   0 116.392 5.32576   1
  -4  -3   0 120.226 5.54805   9
  -4  -3   0 122.102 5.31106   6
  -4  -3   0 111.455 5.26768   1
  -4  -3   0 111.114 5.43034   8
   4   3   0 117.640 5.50288   3
   4   3   0 118.526 5.31835   1
   4   3   0 113.744 5.25335   6
   4   3   0 114.126 5.28573   1
   4   3   0 118.077 5.48429  12
  -5  -3   0 33.4110 2.45898   2
  -5  -3   0 37.6214 2.54615   8
  -5  -3   0 36.2942 2.28329   1
  -5  -3   0 39.1877 2.33986   6
  -5  -3   0 39.4258 2.70611   9
  -5  -3   0 35.6144 2.40052   1
  -5  -3   0 37.3510 2.65568  11
  -5  -3   0 32.8603 2.65452   3
   5   3   0 39.2503 2.39527   1
   5   3   0 35.7840 2.24414   6
   5   3   0 36.4558 2.37586   1
   5   3   0 39.4216 2.29089   6
  -6  -3   0 58.8375 4.00405   3
  -6  -3   0 58.0666 3.33812   1
  -6  -3   0 56.6035 3.60737   2
  -6  -3   0 60.4934 3.86887  11
  -6  -3   0 65.3028 3.91832   9
  -6  -3   0 63.2299 3.79453   8
  -6  -3   0 64.2049 3.52429   1
  -6  -3   0 66.9119 3.43642   6
   6   3   0 58.1691 3.49241   1
   6   3   0 60.9469 3.37596   6
   6   3   0 61.2584 3.31760   6
   6   3   0 61.9632 3.42390   1
  -7  -3   0 98.4740 5.32542   2
  -7  -3   0 95.0393 5.04530   1
  -7  -3   0 108.203 5.77041   9
  -7  -3   0 107.988 5.75231  11
  -7  -3   0 104.370 5.60958   8
  -7  -3   0 99.7046 5.85087   3
  -7  -3   0 106.066 5.16595   1
   7   3   0 97.1915 5.04146   1
   7   3   0 92.7679 4.93352   6
   7   3   0 103.678 4.99146   6
   7   3   0 101.017 5.06621   1
  -8  -3   0 2.92635 2.19751   8
  -8  -3   0 4.17324 1.79536   1
  -8  -3   0 1.33855 2.05812   5
  -8  -3   0 0.04278 2.07822  11
  -8  -3   0 -1.6759 2.10740   9
  -8  -3   0 -1.8004 2.18703   2
  -8  -3   0 4.38229 2.56442   3
  -8  -3   0 1.18568 1.56079   1
   8   3   0 1.52725 1.58152   1
   8   3   0 -0.4824 1.35332   6
  -9  -3   0 2.42076 2.15785   1
  -9  -3   0 -1.3069 2.00063   1
  -9  -3   0 1.69294 2.81196   9
  -9  -3   0 -2.9289 2.70666   5
  -9  -3   0 2.54990 3.51047   3
  -9  -3   0 -1.2771 2.80714  11
  -9  -3   0 1.12199 2.86044   8
   9   3   0 0.61831 1.89943   1
   9   3   0 0.26846 2.04986   1
   8  -4   0 9.56767 3.90779   9
   8  -4   0 13.9484 2.99574   6
   8  -4   0 16.8830 2.99972   1
   8  -4   0 16.9375 4.25835  11
   8  -4   0 20.3452 4.18673   2
  -8   4   0 10.5635 5.19410   1
  -8   4   0 11.4871 3.29523   5
  -8   4   0 13.3411 2.88094   6
  -8   4   0 15.6117 3.44820  11
  -8   4   0 17.6031 3.11196   4
  -8   4   0 13.6189 3.16447   1
  -8   4   0 18.0940 3.30859   7
  -8   4   0 14.3170 3.15651  10
   7  -4   0 16.9251 3.16488   2
   7  -4   0 13.5684 3.22144   9
   7  -4   0 15.3813 2.86836   1
   7  -4   0 15.1055 2.43916   1
   7  -4   0 13.1795 2.18549   6
  -7   4   0 11.2056 2.19275   6
  -7   4   0 14.6088 2.50243   1
  -7   4   0 16.2315 2.49009  10
  -7   4   0 11.1964 2.58803   5
  -7   4   0 12.5208 2.55213   1
  -7   4   0 16.0155 2.60667  11
  -7   4   0 15.1624 2.65455   4
  -7   4   0 15.4494 2.59954   7
   6  -4   0 7.51079 2.35709   9
   6  -4   0 9.33530 2.26493  11
   6  -4   0 8.24579 2.09272   1
   6  -4   0 7.55555 2.21792   2
   6  -4   0 7.99228 1.67922   1
   6  -4   0 6.92340 1.76161   6
  -6   4   0 6.09185 1.70684   1
  -6   4   0 6.29079 1.85955  10
  -6   4   0 10.1122 1.90138   7
  -6   4   0 5.27468 1.87908  11
  -6   4   0 7.51346 1.78279   5
  -6   4   0 8.47550 2.05642   1
  -6   4   0 6.73841 1.53179   6
  -6   4   0 5.12625 1.77259   4
   5  -4   0 37.2912 2.70243   6
   5  -4   0 39.5905 3.03454   5
   5  -4   0 38.1403 3.31507   9
   5  -4   0 39.6275 3.39897  11
   5  -4   0 38.4615 2.75577   1
   5  -4   0 34.9084 3.15564   1
   5  -4   0 34.8575 3.27988   2
  -5   4   0 32.3523 2.47057   6
  -5   4   0 33.2034 2.74898   1
  -5   4   0 38.3674 2.72210   7
  -5   4   0 37.3236 2.99855   5
  -5   4   0 37.1969 3.05153  10
  -5   4   0 35.3291 3.05270   1
  -5   4   0 35.5892 3.01895   4
  -5   4   0 35.4509 3.05889  11
   4  -4   0 53.7815 3.64786  11
   4  -4   0 61.0336 3.74432   2
   4  -4   0 61.3398 3.26981   1
   4  -4   0 58.1758 3.75785   9
   4  -4   0 56.7531 3.52328   1
   4  -4   0 57.8995 3.46838   5
   4  -4   0 58.4728 3.22325   6
  -4   4   0 60.8599 3.47652   5
  -4   4   0 62.6441 3.15140   7
  -4   4   0 64.5112 3.50309  11
  -4   4   0 52.2508 3.14930   1
  -4   4   0 62.5390 3.51935  10
  -4   4   0 56.3007 3.50246   1
  -4   4   0 55.6713 3.46014   4
  -4   4   0 54.5517 3.14275   6
   3  -4   0 19.6523 2.03810   1
   3  -4   0 16.2214 1.88132  11
   3  -4   0 23.8907 1.71278   6
   3  -4   0 22.5383 2.14121   9
   3  -4   0 24.2030 2.18168   2
   3  -4   0 18.4209 1.69185   1
   3  -4   0 20.0537 1.92331   5
  -3   4   0 18.6316 1.87480   5
  -3   4   0 19.8825 1.80750   4
  -3   4   0 20.6752 2.02162   1
  -3   4   0 18.5331 1.66347   1
  -3   4   0 23.0115 1.81164   8
  -3   4   0 21.7497 1.93930  10
  -3   4   0 19.4969 1.86522  11
  -3   4   0 22.2647 1.58800   7
  -3   4   0 20.1089 1.59136   6
   2  -4   0 90.6276 4.17627   7
   2  -4   0 95.1080 4.37542   6
   2  -4   0 90.2044 4.46165  11
   2  -4   0 88.4966 4.51128   9
   2  -4   0 88.3326 4.46101   5
   2  -4   0 87.5524 4.41897   1
   2  -4   0 96.6434 4.42404   1
   2  -4   0 89.5953 4.46042   4
  -2   4   0 82.9133 4.33106   1
  -2   4   0 91.5310 4.34123   8
  -2   4   0 94.5909 4.50448  10
  -2   4   0 98.2915 4.48855  11
  -2   4   0 95.4337 4.48286   1
  -2   4   0 91.1914 4.40509   3
  -2   4   0 94.5961 4.46891   4
  -2   4   0 91.5177 4.44650   5
  -2   4   0 86.7140 4.33939   6
  -2   4   0 97.3463 4.14491   7
   1  -4   0 55.1290 2.97304   8
   1  -4   0 56.6865 3.04562   5
   1  -4   0 53.5460 3.00400   4
   1  -4   0 63.7206 3.08866   1
   1  -4   0 58.2399 3.07242  11
   1  -4   0 56.8652 2.99583   1
   1  -4   0 63.0419 3.03988   6
  -1   4   0 59.6753 2.75524   7
  -1   4   0 58.0133 2.94377   8
  -1   4   0 59.5176 3.02057   4
  -1   4   0 56.1102 3.01577  10
  -1   4   0 59.2169 2.96486   6
  -1   4   0 57.6198 3.04956   1
  -1   4   0 57.9912 3.02244   3
  -1   4   0 61.4299 3.05215  11
  -1   4   0 50.5689 2.92829   1
  -1   4   0 63.9435 3.07801   5
   0  -4   0 114.518 4.88372   6
   0  -4   0 104.192 4.89235   3
   0  -4   0 100.998 4.86241   5
   0  -4   0 98.0879 4.79765  10
   0  -4   0 105.619 4.85282   1
   0  -4   0 98.7247 4.77740   4
   0  -4   0 102.390 4.88277  11
   0  -4   0 103.240 4.67958   7
   0  -4   0 101.068 4.80096   8
   0  -4   0 103.138 4.86508   1
   0   4   0 111.650 4.83270   4
   0   4   0 110.620 4.83626  10
   0   4   0 107.186 4.88636   1
   0   4   0 98.3123 4.80753   1
   0   4   0 108.090 4.67320   7
   0   4   0 99.0576 4.80071   6
   0   4   0 108.927 4.80993   8
   0   4   0 105.797 4.86719   3
  -1  -4   0 42.2837 2.47087   8
  -1  -4   0 41.9354 2.35348  10
  -1  -4   0 49.3224 2.51447   6
  -1  -4   0 42.6185 2.50349   3
  -1  -4   0 41.9238 2.33740   4
  -1  -4   0 42.2541 2.45286   1
  -1  -4   0 46.7133 2.35448   7
  -1  -4   0 48.1396 2.50173   1
   1   4   0 47.5220 2.46237   8
   1   4   0 46.6970 2.39875   4
   1   4   0 42.8262 2.37540   6
   1   4   0 47.2363 2.47212   1
   1   4   0 47.6910 2.56971   3
   1   4   0 46.8375 2.38116  10
   1   4   0 38.2266 2.38598   1
  -2  -4   0 419.238 19.0194   8
  -2  -4   0 471.689 19.0551   6
  -2  -4   0 473.661 19.0646   1
  -2  -4   0 432.359 18.9566   4
  -2  -4   0 425.363 18.9476  10
  -2  -4   0 432.760 19.0937   3
  -2  -4   0 436.623 19.0440   1
   2   4   0 427.258 19.0051   1
   2   4   0 444.892 19.0922   3
   2   4   0 443.141 19.0209   6
   2   4   0 463.101 19.0553   1
   2   4   0 493.099 19.0796   8
   2   4   0 451.428 18.9766   4
   2   4   0 446.124 18.9686  10
  -3  -4   0 260.626 10.9577   1
  -3  -4   0 245.256 10.8712   4
  -3  -4   0 246.009 11.0564   3
  -3  -4   0 240.887 10.9854   8
  -3  -4   0 252.996 10.9268   1
  -3  -4   0 263.350 10.9432   6
  -3  -4   0 246.527 10.8571  10
   3   4   0 252.235 10.9112   6
   3   4   0 248.114 10.9020   1
   3   4   0 250.285 11.0447   3
   3   4   0 250.040 10.9720   8
   3   4   0 261.499 10.9375   1
  -4  -4   0 79.1041 3.75221   6
  -4  -4   0 71.7034 3.90652   3
  -4  -4   0 73.5104 3.73334   4
  -4  -4   0 79.1128 3.80940   1
  -4  -4   0 71.1183 3.72371  10
  -4  -4   0 73.1029 3.67085   1
  -4  -4   0 73.1828 3.85931   8
   4   4   0 73.5246 3.76294   1
   4   4   0 80.8805 3.93609  12
   4   4   0 75.9419 3.74010   1
   4   4   0 77.2385 3.90961   3
   4   4   0 71.0450 3.69917   6
  -5  -4   0 -0.2537 0.85514   1
  -5  -4   0 1.75807 1.00639   9
  -5  -4   0 0.46412 0.98065   4
  -5  -4   0 0.75713 0.96168   6
  -5  -4   0 0.83273 1.13287   3
  -5  -4   0 -0.8736 1.05122  10
  -5  -4   0 0.18566 0.96184   8
  -5  -4   0 0.81785 1.08937   1
   5   4   0 -0.6108 0.89191   1
   5   4   0 0.21697 0.98571   1
   5   4   0 1.22162 1.14727  12
   5   4   0 0.43717 0.91801   6
  -6  -4   0 76.0805 4.18503   9
  -6  -4   0 69.2645 3.76497   6
  -6  -4   0 66.8832 3.83904   1
  -6  -4   0 76.2026 4.26636  11
  -6  -4   0 69.4716 4.10987   4
  -6  -4   0 60.2848 3.68316   1
  -6  -4   0 69.5485 3.97397   8
  -6  -4   0 64.7215 3.78412   2
  -6  -4   0 72.0962 4.29834   3
   6   4   0 65.2599 3.73159   1
   6   4   0 73.3888 3.70391   6
   6   4   0 67.9672 3.81477   1
   6   4   0 63.3480 3.61349   6
  -7  -4   0 73.0248 3.94864   6
  -7  -4   0 63.4245 3.81370   1
  -7  -4   0 66.3249 4.58126   3
  -7  -4   0 71.6328 4.56742   9
  -7  -4   0 57.9158 4.08287   2
  -7  -4   0 71.1181 4.05538   1
  -7  -4   0 68.5348 4.52197   4
  -7  -4   0 72.2363 4.66083  11
  -7  -4   0 66.9734 4.32082   8
   7   4   0 68.7715 3.80867   6
   7   4   0 69.8597 3.98902   1
   7   4   0 63.1442 3.86904   1
   7   4   0 59.3432 3.73631   6
  -8  -4   0 7.52592 1.79363   1
  -8  -4   0 8.50876 2.33413   9
  -8  -4   0 10.4049 2.08028   1
  -8  -4   0 10.0954 2.33251  11
  -8  -4   0 10.1692 2.42785   8
  -8  -4   0 9.33904 2.43888   4
  -8  -4   0 10.2393 2.65286   3
   8   4   0 10.0989 1.84875   1
   8   4   0 10.4168 1.66683   6
  -9  -4   0 -0.9905 2.82020   9
  -9  -4   0 1.47694 2.07023   1
  -9  -4   0 1.73628 2.27168   1
  -9  -4   0 3.90188 3.28797   3
  -9  -4   0 2.83970 2.80953  11
  -9  -4   0 0.80228 2.86813   8
  -9  -4   0 -1.0326 2.85682   5
  -9  -4   0 2.80789 3.18322   4
   9   4   0 0.55895 1.93863   6
   9   4   0 0.52546 1.89083   6
   9   4   0 0.02534 2.18690   1
   9   4   0 -3.7036 1.99549   1
   7  -5   0 7.22516 2.49851   1
   7  -5   0 5.18941 3.25093   2
   7  -5   0 6.52858 2.44401   6
   7  -5   0 7.07897 3.01809  11
   7  -5   0 3.45824 3.08254   9
   7  -5   0 4.41334 3.00561   1
  -7   5   0 3.52621 2.61629   1
  -7   5   0 2.90204 2.61414  11
  -7   5   0 5.78334 2.65790   1
  -7   5   0 3.40143 2.32415   4
  -7   5   0 3.84057 2.41397  10
  -7   5   0 5.07865 2.31973   7
  -7   5   0 3.28912 2.44330   5
  -7   5   0 8.02796 2.68752   8
  -7   5   0 2.43662 2.15651   6
   6  -5   0 18.7746 3.01372   2
   6  -5   0 15.2103 2.16313   6
   6  -5   0 17.5369 2.29401   1
   6  -5   0 25.4395 3.43777   5
   6  -5   0 16.5046 2.60986   1
  -6   5   0 13.4250 2.21914   4
  -6   5   0 19.8363 2.45032   8
  -6   5   0 17.3875 2.37762   6
  -6   5   0 16.6320 2.32124  10
  -6   5   0 19.6522 2.18184   7
  -6   5   0 15.1927 2.43175  11
  -6   5   0 16.6927 2.58213   1
  -6   5   0 20.9317 3.06321   1
  -6   5   0 14.7950 2.24161   5
   5  -5   0 50.1452 3.85373   2
   5  -5   0 41.9687 3.50717   5
   5  -5   0 41.1109 3.99312  11
   5  -5   0 49.8441 3.75665   1
   5  -5   0 46.4672 3.93209   9
   5  -5   0 44.5973 3.06012   6
   5  -5   0 46.6617 3.26605   1
  -5   5   0 49.4298 3.48661   4
  -5   5   0 46.4852 3.66191   1
  -5   5   0 42.6274 2.96023   6
  -5   5   0 48.0562 3.05152   7
  -5   5   0 46.6037 3.22432   1
  -5   5   0 34.8812 3.43588  11
  -5   5   0 44.5144 3.50268  10
  -5   5   0 46.3862 3.43701   5
  -5   5   0 46.7862 3.26058   8
   4  -5   0 61.3908 3.96777   9
   4  -5   0 53.4691 3.46852   5
   4  -5   0 57.2915 3.22660   6
   4  -5   0 59.9342 3.38256   1
   4  -5   0 53.9589 3.80221  11
   4  -5   0 55.6426 3.74900   1
   4  -5   0 57.1409 3.86836   2
  -4   5   0 51.7314 3.23265   1
  -4   5   0 60.1317 3.55753   5
  -4   5   0 53.8853 3.73582   1
  -4   5   0 57.1631 3.53791   4
  -4   5   0 62.1666 3.14079   7
  -4   5   0 54.0082 3.52091  10
  -4   5   0 48.5025 3.12094   6
  -4   5   0 58.3389 3.43406   8
  -4   5   0 57.3263 3.63748  11
   3  -5   0 33.6654 2.65190   5
   3  -5   0 38.3227 2.40243   6
   3  -5   0 36.7699 2.25460   7
   3  -5   0 38.7580 2.93829   2
   3  -5   0 38.8773 2.93791   9
   3  -5   0 34.1648 2.70260  11
   3  -5   0 37.2992 2.80121   1
   3  -5   0 37.7322 2.49250   1
  -3   5   0 39.3896 2.66723  11
  -3   5   0 34.6370 2.57699  10
  -3   5   0 39.1900 2.56517   8
  -3   5   0 36.6165 2.61590   5
  -3   5   0 36.4496 2.36843   1
  -3   5   0 36.1635 2.81390   1
  -3   5   0 42.6485 2.57635   3
  -3   5   0 34.9190 2.56381   4
  -3   5   0 32.1421 2.32040   6
  -3   5   0 42.6187 2.24110   7
   2  -5   0 37.2658 2.25544   6
   2  -5   0 32.4467 2.35917   4
   2  -5   0 32.3586 2.41439   1
   2  -5   0 33.1459 2.06780   7
   2  -5   0 35.6281 2.37391  11
   2  -5   0 38.5300 2.36351   1
   2  -5   0 30.4748 2.34247   5
  -2   5   0 31.6712 2.18008   1
  -2   5   0 35.9730 2.44646   1
  -2   5   0 31.4822 2.34526   5
  -2   5   0 28.2197 2.11367   6
  -2   5   0 33.3768 2.32893   4
  -2   5   0 30.9485 2.29454  10
  -2   5   0 33.8379 2.13587   8
  -2   5   0 34.1769 2.30985  11
  -2   5   0 36.3238 2.32294   3
  -2   5   0 34.0675 1.92665   7
   1  -5   0 101.375 4.59843   1
   1  -5   0 88.4983 4.54310   4
   1  -5   0 91.5092 4.59034   1
   1  -5   0 90.9504 4.62667  11
   1  -5   0 89.5839 4.51196   8
   1  -5   0 89.4940 4.58454   5
   1  -5   0 97.8703 4.56843   6
   1  -5   0 93.3413 4.34816   7
  -1   5   0 97.9108 4.61615  11
  -1   5   0 100.061 4.49981   8
  -1   5   0 98.3134 4.64838   1
  -1   5   0 98.7260 4.60827   5
  -1   5   0 86.4002 4.49190   6
  -1   5   0 95.1804 4.27824   7
  -1   5   0 97.8321 4.59387   3
  -1   5   0 95.3997 4.58296  10
  -1   5   0 84.9372 4.48424   1
  -1   5   0 100.056 4.56852   4
   0  -5   0 12.5556 1.49723   8
   0  -5   0 11.7154 1.57312   3
   0  -5   0 14.1432 1.57482   5
   0  -5   0 11.5011 1.54994  11
   0  -5   0 13.7800 1.41375   6
   0  -5   0 16.0757 1.47680   1
   0  -5   0 11.8556 1.30067   7
   0  -5   0 12.4707 1.45110  10
   0  -5   0 14.6011 1.53259   1
   0  -5   0 11.3991 1.37568   4
   0   5   0 11.2964 1.30178   6
   0   5   0 15.6416 1.44930   4
   0   5   0 12.9711 1.55093   1
   0   5   0 14.4687 1.24009   7
   0   5   0 16.8388 1.48358  10
   0   5   0 10.0230 1.44692   3
   0   5   0 13.9727 1.49000   8
   0   5   0 12.8293 1.38308   1
  -1  -5   0 0.01303 0.76610   6
  -1  -5   0 -0.4391 0.69498   1
  -1  -5   0 -0.9527 0.66821   1
  -1  -5   0 -0.0591 0.65084  10
  -1  -5   0 -0.0850 0.75214   8
  -1  -5   0 -0.2937 0.70028   7
  -1  -5   0 0.40949 0.56133   4
  -1  -5   0 0.09470 0.74367   3
   1   5   0 0.18506 0.61557   4
   1   5   0 0.83044 0.74775   1
   1   5   0 -0.5476 0.62449   1
   1   5   0 0.35460 0.74196   3
   1   5   0 0.19892 0.64241  10
   1   5   0 -0.4656 0.62891   6
   1   5   0 0.33691 0.67642   8
  -2  -5   0 420.868 18.2354   4
  -2  -5   0 418.381 18.2350  10
  -2  -5   0 416.876 18.3883   3
  -2  -5   0 451.298 18.3544   1
  -2  -5   0 452.410 18.3530   6
  -2  -5   0 414.048 18.3096   8
  -2  -5   0 413.080 18.2684   7
  -2  -5   0 411.806 18.3274   1
   2   5   0 433.511 18.3133   8
   2   5   0 394.445 18.2637   1
   2   5   0 444.751 18.4082   3
   2   5   0 431.484 18.3268   1
   2   5   0 451.926 18.2696  10
   2   5   0 458.615 18.2874   4
   2   5   0 403.122 18.2798   6
  -3  -5   0 192.508 7.98098   6
  -3  -5   0 173.434 7.90896   1
  -3  -5   0 171.567 8.02882   3
  -3  -5   0 193.752 8.01322   1
  -3  -5   0 174.854 7.84098  10
  -3  -5   0 167.908 7.82808   4
  -3  -5   0 165.345 7.95526   8
   3   5   0 183.640 7.88813  10
   3   5   0 170.159 7.90544   6
   3   5   0 176.063 7.85450   4
   3   5   0 172.233 7.92580   1
   3   5   0 179.126 7.94555   8
   3   5   0 179.359 8.02363   3
   3   5   0 177.432 7.90773   1
  -4  -5   0 5.83960 1.21373   1
  -4  -5   0 3.02881 1.11328   8
  -4  -5   0 2.44681 0.90208   4
  -4  -5   0 4.38801 1.06801   6
  -4  -5   0 1.78183 1.04057   3
  -4  -5   0 2.83515 0.81736   1
  -4  -5   0 2.52796 0.97197  10
   4   5   0 3.93756 0.91001   8
   4   5   0 4.17104 1.12274   1
   4   5   0 4.00160 0.97255   1
   4   5   0 4.20733 1.08286   3
   4   5   0 3.73793 1.00711   6
   4   5   0 4.88845 1.11016  12
  -5  -5   0 71.5287 3.96524   1
  -5  -5   0 76.7830 3.90594   6
  -5  -5   0 67.3833 3.85739   4
  -5  -5   0 68.6483 3.81374  10
  -5  -5   0 72.4200 3.73679   1
  -5  -5   0 67.4453 3.99108   8
  -5  -5   0 72.4254 4.10946   3
   5   5   0 75.4606 3.84557   1
   5   5   0 70.1572 3.84673   1
   5   5   0 74.7019 4.06291  12
   5   5   0 71.7034 3.98687   3
   5   5   0 69.5590 3.78655   6
  -6  -5   0 123.512 6.01398   1
  -6  -5   0 131.571 6.11937   1
  -6  -5   0 127.751 6.17512   4
  -6  -5   0 129.353 6.08187   6
  -6  -5   0 129.145 6.16505  10
  -6  -5   0 103.804 6.13585   8
  -6  -5   0 123.980 6.39924   9
  -6  -5   0 126.924 6.47434   3
   6   5   0 123.195 6.04099   1
   6   5   0 126.583 6.06844   1
   6   5   0 123.128 5.97262   6
   6   5   0 125.020 6.33479  12
  -7  -5   0 35.0832 3.46410   4
  -7  -5   0 30.8394 3.34967   9
  -7  -5   0 25.5671 2.80899   6
  -7  -5   0 26.8185 2.94085   1
  -7  -5   0 28.2250 3.35585  10
  -7  -5   0 31.0197 2.71081   1
  -7  -5   0 25.1637 2.84690   2
  -7  -5   0 20.3259 2.58417  11
  -7  -5   0 27.2161 2.98096   8
  -7  -5   0 25.5423 3.31700   3
   7   5   0 28.0271 2.89240   1
   7   5   0 28.7718 2.88512   1
   7   5   0 25.4983 2.60969   6
   7   5   0 26.0178 2.56290   6
  -8  -5   0 69.7144 5.41071   4
  -8  -5   0 67.4533 4.33681   1
  -8  -5   0 70.7872 4.87521   8
  -8  -5   0 74.8659 5.31157   3
  -8  -5   0 64.1645 5.23142  10
  -8  -5   0 70.9227 4.58972   1
  -8  -5   0 57.3276 5.08932   9
  -8  -5   0 71.0304 5.28832  11
   8   5   0 63.8246 4.14994   6
   8   5   0 53.6949 4.10828   6
   8   5   0 75.7146 4.50941   1
   8   5   0 65.4655 4.34830   1
  -9  -5   0 22.3535 3.60423   4
  -9  -5   0 15.8748 3.50346  11
  -9  -5   0 19.0851 3.32956   8
  -9  -5   0 19.1300 2.73312   1
  -9  -5   0 15.0197 3.50221   9
  -9  -5   0 21.4457 3.69758   3
  -9  -5   0 16.5268 2.69370   1
  -9  -5   0 20.7568 3.61074  10
   9   5   0 16.0056 2.78261   1
   9   5   0 14.4588 2.47442   6
   7  -6   0 4.76351 3.42075   1
   7  -6   0 6.58290 3.84928   9
   7  -6   0 4.24160 2.80867   1
   7  -6   0 3.38663 2.82111   6
   7  -6   0 6.35886 3.88259   2
   7  -6   0 8.89387 3.89592  11
  -7   6   0 1.27289 2.43070   6
  -7   6   0 7.69484 3.21939   1
  -7   6   0 3.34424 2.79390   4
  -7   6   0 4.01471 3.18529   8
  -7   6   0 6.37626 2.98902  11
  -7   6   0 -4.0761 2.79976   5
  -7   6   0 4.80889 2.70204  10
  -7   6   0 3.12532 2.79118   1
   6  -6   0 5.87256 3.74207   9
   6  -6   0 4.33558 3.02773  11
   6  -6   0 9.60346 2.47664   5
   6  -6   0 11.4599 2.25459   1
   6  -6   0 7.01500 2.07419   6
   6  -6   0 8.89706 2.77892   1
   6  -6   0 9.02472 2.93901   2
  -6   6   0 9.60143 2.64460   1
  -6   6   0 8.45824 2.13035  10
  -6   6   0 5.85612 2.19252   4
  -6   6   0 7.49222 2.21059   5
  -6   6   0 9.20744 2.36993   8
  -6   6   0 8.58574 2.38574  11
  -6   6   0 8.07175 1.96826   7
  -6   6   0 4.40832 1.82421   6
  -6   6   0 3.43283 2.18983   1
   5  -6   0 19.5621 2.54048   6
   5  -6   0 20.0266 2.84014   9
   5  -6   0 25.0769 2.84344   1
   5  -6   0 28.2874 3.72686   2
   5  -6   0 26.7299 3.60003   1
  -5   6   0 26.5169 2.50421   7
  -5   6   0 24.6643 3.05345  11
  -5   6   0 25.2066 2.59895   1
  -5   6   0 22.7558 3.44007   1
  -5   6   0 22.8519 2.43860   6
  -5   6   0 27.0931 2.92134   5
  -5   6   0 27.8371 3.18063   4
  -5   6   0 26.2651 3.15716   8
   4  -6   0 29.9795 3.33846   1
   4  -6   0 33.3716 3.49187   9
   4  -6   0 38.1307 2.74958   1
   4  -6   0 34.2877 2.53380   6
   4  -6   0 34.8020 3.36622   2
   4  -6   0 29.8864 2.86094   5
   4  -6   0 33.0882 3.37113  11
  -4   6   0 32.6600 2.77848   4
  -4   6   0 33.4745 2.98180   3
  -4   6   0 31.3335 2.50978   1
  -4   6   0 36.7370 3.35382   1
  -4   6   0 35.7858 2.44907   7
  -4   6   0 30.0473 2.86049   8
  -4   6   0 31.2265 2.37915   6
  -4   6   0 33.1022 2.78894   5
  -4   6   0 30.6286 3.03169  11
   3  -6   0 24.7210 2.09135   1
   3  -6   0 20.1683 2.45833   2
   3  -6   0 13.1869 1.88090  11
   3  -6   0 15.4658 2.05078   9
   3  -6   0 20.4613 1.94320   6
   3  -6   0 15.5597 2.16885   5
   3  -6   0 18.8553 1.89111   7
   3  -6   0 18.8645 2.50280   1
  -3   6   0 21.2768 2.66742   1
  -3   6   0 16.8615 1.67669   6
  -3   6   0 18.6802 2.19684   5
  -3   6   0 17.8578 1.72483   7
  -3   6   0 19.5595 2.18597  11
  -3   6   0 17.7141 2.12883   8
  -3   6   0 17.2104 1.72703   1
  -3   6   0 18.5923 2.16712  10
  -3   6   0 19.1235 2.16128   3
  -3   6   0 19.4619 2.21841   4
   2  -6   0 0.58166 0.87216   5
   2  -6   0 0.36588 0.96963   6
   2  -6   0 1.01409 0.94862  11
   2  -6   0 0.56751 0.95956   7
   2  -6   0 0.54421 0.87647   4
   2  -6   0 1.39528 1.23202   1
   2  -6   0 0.76960 0.89980   1
  -2   6   0 0.97078 0.92178   3
  -2   6   0 -0.9477 0.88135  11
  -2   6   0 1.32887 0.86861   1
  -2   6   0 0.28178 0.95620   5
  -2   6   0 -0.0303 0.81259   4
  -2   6   0 -0.3660 0.84372  10
  -2   6   0 0.31365 0.82608   7
  -2   6   0 0.25519 0.86578   6
  -2   6   0 0.57828 1.13937   1
  -2   6   0 0.30965 0.96897   8
   1  -6   0 14.6569 1.57881   7
   1  -6   0 15.5699 1.62585   6
   1  -6   0 13.5618 1.77002   5
   1  -6   0 12.6363 1.80968  11
   1  -6   0 14.7914 1.54264   4
   1  -6   0 15.4379 1.86593   1
   1  -6   0 15.1392 1.80387   8
   1  -6   0 16.5683 1.64864   1
  -1   6   0 15.0981 1.39160   7
  -1   6   0 10.8539 1.47867   1
  -1   6   0 14.5433 1.63161   3
  -1   6   0 14.1834 1.79438   1
  -1   6   0 12.8689 1.53023   8
  -1   6   0 13.7886 1.62759   4
  -1   6   0 14.3949 1.52501   6
  -1   6   0 15.1943 1.61819  10
   0  -6   0 2.47068 0.98415   1
   0  -6   0 1.86975 0.85463   5
   0  -6   0 2.81643 0.91385   7
   0  -6   0 2.11505 0.81741  10
   0  -6   0 1.26251 0.85632   6
   0  -6   0 2.65483 0.97030   1
   0  -6   0 1.78918 0.97355  11
   0  -6   0 3.19854 0.78228   4
   0  -6   0 1.77509 0.93381   8
   0  -6   0 2.74137 0.94771   3
   0   6   0 3.41635 0.82828   3
   0   6   0 2.15656 0.80747   8
   0   6   0 2.15083 0.91564   1
   0   6   0 2.30078 0.85434   6
   0   6   0 1.56796 0.76896   1
   0   6   0 3.55982 0.92852   4
   0   6   0 2.80928 0.84522  10
  -1  -6   0 43.7951 2.86040   3
  -1  -6   0 45.7514 2.71756  10
  -1  -6   0 48.6608 2.78587   1
  -1  -6   0 45.5539 2.67359   4
  -1  -6   0 49.2893 2.88243   1
  -1  -6   0 47.4856 2.65855   7
  -1  -6   0 47.6867 2.77128   8
  -1  -6   0 46.0313 2.78245   5
  -1  -6   0 46.1582 2.86390  11
  -1  -6   0 51.9876 2.92704   6
   1   6   0 50.7413 2.75156  10
   1   6   0 49.8715 2.82542   1
   1   6   0 42.5222 2.75787   1
   1   6   0 50.9176 2.69093   8
   1   6   0 54.6360 2.79132   4
   1   6   0 46.1404 2.71600   6
   1   6   0 52.1387 2.87127   3
  -2  -6   0 205.973 9.36183  10
  -2  -6   0 208.979 9.37749   7
  -2  -6   0 231.593 9.53741   1
  -2  -6   0 229.362 9.51336   6
  -2  -6   0 201.346 9.40558   8
  -2  -6   0 205.421 9.46631   1
  -2  -6   0 205.447 9.50284   3
  -2  -6   0 204.954 9.35548   4
   2   6   0 219.877 9.39351   4
   2   6   0 196.384 9.40734   1
   2   6   0 220.088 9.39826  10
   2   6   0 216.577 9.41496   8
   2   6   0 219.165 9.47195   1
   2   6   0 209.656 9.48618   3
   2   6   0 203.061 9.41285   6
  -3  -6   0 115.183 5.55466   4
  -3  -6   0 125.406 5.74562   1
  -3  -6   0 117.472 5.68434   8
  -3  -6   0 112.695 5.60914   7
  -3  -6   0 117.157 5.54845  10
  -3  -6   0 116.812 5.74217   3
  -3  -6   0 117.660 5.62979   1
  -3  -6   0 127.750 5.70587   6
   3   6   0 120.317 5.64570   1
   3   6   0 114.941 5.62741   6
   3   6   0 118.652 5.62894   8
   3   6   0 112.459 5.63940   1
   3   6   0 124.272 5.59412  10
   3   6   0 121.512 5.62101   4
   3   6   0 120.031 5.72232   3
  -4  -6   0 103.641 4.87942  10
  -4  -6   0 106.536 5.04640   1
  -4  -6   0 94.1628 4.80801   1
  -4  -6   0 92.8077 4.98671   3
  -4  -6   0 96.8039 4.85354   4
  -4  -6   0 92.9609 4.94380   8
  -4  -6   0 100.963 4.95379   6
   4   6   0 99.9943 4.87980   8
   4   6   0 91.4434 4.83355   6
   4   6   0 93.6119 4.91842   1
   4   6   0 102.371 4.87748   1
   4   6   0 104.161 5.01931   3
  -5  -6   0 222.483 10.1687  10
  -5  -6   0 229.817 10.4678   3
  -5  -6   0 222.449 10.3253   8
  -5  -6   0 217.256 10.1935   1
  -5  -6   0 250.886 10.3999   1
  -5  -6   0 237.100 10.3109   6
  -5  -6   0 221.110 10.1682   4
   5   6   0 214.423 10.1837   6
   5   6   0 232.075 10.2722   8
   5   6   0 220.000 10.2437   1
   5   6   0 228.601 10.2338   1
   5   6   0 225.808 10.3984   3
   5   6   0 240.657 10.4757  12
  -6  -6   0 2.97190 1.32767   1
  -6  -6   0 4.45962 1.33947   8
  -6  -6   0 1.77408 1.59434   3
  -6  -6   0 2.78628 1.58751   1
  -6  -6   0 0.37504 1.45010   6
  -6  -6   0 2.52226 1.43179   4
  -6  -6   0 2.50543 1.50093  10
   6   6   0 3.38592 1.42797   6
   6   6   0 3.90376 1.56098   1
   6   6   0 5.80891 1.50332   1
   6   6   0 0.90677 1.64539  12
   6   6   0 6.47780 1.75499   3
  -7  -6   0 26.1006 3.36736  10
  -7  -6   0 20.7425 2.92112   2
  -7  -6   0 25.0092 3.18029   1
  -7  -6   0 21.3387 2.38896   4
  -7  -6   0 24.9183 3.62836   3
  -7  -6   0 21.4304 2.79747   1
  -7  -6   0 20.9008 2.91803   8
  -7  -6   0 24.3661 3.09696   6
   7   6   0 21.0751 2.66441   6
   7   6   0 24.3968 3.03385   1
   7   6   0 20.2869 3.10671   1
   7   6   0 22.2473 2.66258   6
   7   6   0 28.0654 3.50891  12
  -8  -6   0 71.7504 4.79318   6
  -8  -6   0 61.1207 5.55411   3
  -8  -6   0 67.7248 5.11140   8
  -8  -6   0 78.8165 5.29206  10
  -8  -6   0 71.3223 4.68953   1
  -8  -6   0 75.4053 4.93298   1
  -8  -6   0 72.6181 5.44567   4
  -8  -6   0 72.6238 5.37358   9
  -8  -6   0 75.4440 5.65257  11
   8   6   0 62.7718 4.33132   6
   8   6   0 73.2010 4.51210   6
   8   6   0 67.9564 4.71379   1
   8   6   0 78.9288 4.93317   1
  -9  -6   0 41.7297 5.80298   3
  -9  -6   0 30.2417 4.46752   1
  -9  -6   0 44.6407 5.53529  10
  -9  -6   0 31.8926 4.01751   9
  -9  -6   0 30.7282 3.93302   8
  -9  -6   0 46.9529 6.00391  11
  -9  -6   0 26.5961 3.75265   4
   9   6   0 37.7058 4.18509   6
   9   6   0 40.4364 4.68034   1
   6  -7   0 0.17354 3.21734  11
   6  -7   0 0.58143 3.28301   9
   6  -7   0 -1.0083 3.36360   2
   6  -7   0 5.75171 3.06903   1
   6  -7   0 3.64996 2.64480   5
   6  -7   0 1.49877 2.32568   1
   6  -7   0 4.29286 2.39316   6
  -6   7   0 3.22572 2.02871   6
  -6   7   0 0.77957 3.04199   1
  -6   7   0 -2.1282 2.16002   5
  -6   7   0 -6.1577 2.72221   3
  -6   7   0 3.39589 2.68835  11
  -6   7   0 0.99129 2.20543   4
  -6   7   0 -4.8606 2.61764   8
  -6   7   0 4.38213 2.47380   1
   5  -7   0 2.03976 1.76059   1
   5  -7   0 8.55479 2.96185   2
   5  -7   0 3.91111 2.04928   5
   5  -7   0 2.45386 2.45656   1
   5  -7   0 4.53001 1.68965   6
  -5   7   0 6.25659 2.02602   8
  -5   7   0 1.54953 1.62366   1
  -5   7   0 3.37399 1.96335  11
  -5   7   0 2.90245 2.19861   3
  -5   7   0 0.77031 1.54681   6
  -5   7   0 5.24787 2.34295   1
  -5   7   0 6.00858 1.66615   7
   4  -7   0 17.5365 2.04311   1
   4  -7   0 18.9046 2.54377   6
   4  -7   0 13.8965 2.51271   1
   4  -7   0 21.0324 3.22024   2
   4  -7   0 18.8866 2.58234   9
   4  -7   0 11.5772 2.20384  11
  -4   7   0 16.7656 2.16072   7
  -4   7   0 21.1682 2.90969   3
  -4   7   0 19.8548 2.67493   8
  -4   7   0 20.1359 2.85501  11
  -4   7   0 17.1760 2.56426   5
  -4   7   0 18.4792 2.55365   1
   3  -7   0 27.5385 2.31088   6
   3  -7   0 24.4730 3.07950   9
   3  -7   0 22.9518 2.95578   1
   3  -7   0 24.5486 2.46783   5
   3  -7   0 26.1063 2.88437   2
   3  -7   0 24.1587 2.35041   1
   3  -7   0 16.9110 2.19098  11
   3  -7   0 24.7253 2.33018   7
  -3   7   0 21.0122 2.14232   1
  -3   7   0 30.9520 2.62454  11
  -3   7   0 22.4256 2.07615   7
  -3   7   0 25.0899 2.92797   1
  -3   7   0 26.1731 2.51771   5
  -3   7   0 27.0039 2.64106   3
  -3   7   0 22.5589 2.13522   6
  -3   7   0 24.5252 2.54008   8
  -3   7   0 24.4647 3.24108   4
   2  -7   0 -2.3138 1.02829  11
   2  -7   0 0.54398 0.99608   6
   2  -7   0 -1.2604 1.11274   7
   2  -7   0 -1.3640 1.03558   5
   2  -7   0 1.19696 0.95606   4
   2  -7   0 1.84425 1.37554   1
   2  -7   0 1.16480 0.97068   1
  -2   7   0 -0.7471 0.99456   4
  -2   7   0 0.11381 1.03025   5
  -2   7   0 -1.4755 1.28293   1
  -2   7   0 0.16742 0.95393   6
  -2   7   0 -0.2913 0.89679  10
  -2   7   0 1.01365 1.02884   3
  -2   7   0 0.33327 1.09265   8
  -2   7   0 -0.5957 1.00396  11
  -2   7   0 2.76672 1.10268   1
  -2   7   0 0.28293 0.89740   7
   1  -7   0 -0.6151 1.05526  11
   1  -7   0 -0.6477 0.79613   4
   1  -7   0 1.08928 1.23341   1
   1  -7   0 0.51562 0.84552   1
   1  -7   0 0.29553 0.99445   5
   1  -7   0 -2.1510 1.07613   8
   1  -7   0 -0.4700 0.82960   6
   1  -7   0 -0.9588 1.13971   7
  -1   7   0 1.24428 0.90476   1
  -1   7   0 -0.8296 0.85011   4
  -1   7   0 -0.4785 0.81057  10
  -1   7   0 1.13780 1.24487   1
  -1   7   0 0.48544 0.93780   8
  -1   7   0 -0.5578 0.86753   7
  -1   7   0 -0.9260 0.93571   3
  -1   7   0 0.31673 0.85294   6
   0  -7   0 23.5779 2.17466   6
   0  -7   0 22.1215 2.08577   3
   0  -7   0 19.8925 2.01491   7
   0  -7   0 26.8122 2.23030   1
   0  -7   0 18.2219 2.07269   5
   0  -7   0 17.1850 2.23179  11
   0  -7   0 17.8052 2.09595   8
   0  -7   0 19.4873 1.97567   4
   0  -7   0 24.8775 2.17799  10
   0  -7   0 22.4886 2.24105   1
   0   7   0 19.4489 2.13917   4
   0   7   0 23.1503 2.17674   1
   0   7   0 18.9626 1.95390   6
   0   7   0 20.7768 2.02016   3
   0   7   0 20.5724 2.03495   8
   0   7   0 21.1017 1.99995   1
   0   7   0 20.8450 2.17261  10
  -1  -7   0 7.38100 1.42278   1
  -1  -7   0 8.35116 1.28331   7
  -1  -7   0 5.68700 1.24718   3
  -1  -7   0 8.06931 1.20230   5
  -1  -7   0 7.48109 1.13815   4
  -1  -7   0 5.87239 1.30769   6
  -1  -7   0 6.89543 1.11116  10
  -1  -7   0 6.33294 1.17982   1
  -1  -7   0 5.85006 1.24372  11
  -1  -7   0 5.65975 1.25069   8
   1   7   0 6.73462 1.18391   8
   1   7   0 7.52222 1.08705   4
   1   7   0 8.04804 1.33471   1
   1   7   0 5.65621 1.16110   1
   1   7   0 5.42192 1.15803   6
   1   7   0 5.71396 1.04804  10
   1   7   0 6.09108 1.32020   3
  -2  -7   0 23.8986 2.01497   1
  -2  -7   0 23.7162 2.18442   3
  -2  -7   0 21.5991 2.11765   8
  -2  -7   0 26.6266 2.41285   1
  -2  -7   0 27.2026 2.29335   6
  -2  -7   0 24.0930 2.15247  10
  -2  -7   0 19.5217 1.96161   7
  -2  -7   0 22.1711 2.10608   4
   2   7   0 23.9158 2.06544   1
   2   7   0 21.4816 2.16729   1
   2   7   0 24.2969 2.12686   3
   2   7   0 23.7510 2.25643   4
   2   7   0 24.2415 2.20420  10
   2   7   0 25.6911 2.02547   8
   2   7   0 22.9772 2.11213   6
  -3  -7   0 79.1145 4.31442   8
  -3  -7   0 85.5143 4.53021   1
  -3  -7   0 77.7228 4.21892  10
  -3  -7   0 78.3479 4.23842   1
  -3  -7   0 81.4633 4.26273   4
  -3  -7   0 82.7873 4.22535   7
  -3  -7   0 91.5300 4.43373   6
   3   7   0 75.6517 4.34508   1
   3   7   0 83.3435 4.31839   4
   3   7   0 80.5063 4.22350   1
   3   7   0 77.4338 4.27441   6
   3   7   0 85.0238 4.27442   8
   3   7   0 78.6761 4.32377   3
   3   7   0 84.1962 4.25950  10
  -4  -7   0 53.6386 3.36389   8
  -4  -7   0 57.5227 3.53708   6
  -4  -7   0 55.8607 3.43195   3
  -4  -7   0 51.9989 3.30940   7
  -4  -7   0 47.7775 3.14708   1
  -4  -7   0 55.3722 3.31304  10
  -4  -7   0 59.7303 3.36312   4
  -4  -7   0 58.4758 3.71303   1
   4   7   0 60.8598 3.45852   3
   4   7   0 55.9848 3.29385   8
   4   7   0 58.0096 3.38043   4
   4   7   0 52.4761 3.32893   6
   4   7   0 50.9519 3.37522   1
   4   7   0 58.8318 3.27076   1
  -5  -7   0 20.9052 2.49496  10
  -5  -7   0 16.6357 2.26754   7
  -5  -7   0 18.9500 2.21673   8
  -5  -7   0 22.1034 2.08743   1
  -5  -7   0 22.6722 2.56697   4
  -5  -7   0 18.1560 2.46374   3
  -5  -7   0 23.7074 2.62120   6
  -5  -7   0 24.7822 2.94207   1
   5   7   0 18.8697 2.31864   6
   5   7   0 24.6089 2.46171   3
   5   7   0 17.8512 2.03390   1
   5   7   0 21.0287 2.20930   1
   5   7   0 23.4714 2.66506  12
   5   7   0 16.4962 2.07225   8
  -6  -7   0 13.8927 1.93469   4
  -6  -7   0 15.5466 2.08426   1
  -6  -7   0 19.3399 2.85177  10
  -6  -7   0 19.1545 2.80031   3
  -6  -7   0 22.9685 2.72513   6
  -6  -7   0 23.8134 3.07933   1
  -6  -7   0 18.0612 2.37238   8
   6   7   0 15.7372 2.15823   1
   6   7   0 20.4487 3.01147  12
   6   7   0 19.5795 2.62956   1
   6   7   0 16.7148 2.47543   6
   6   7   0 15.3879 2.03579   3
  -7  -7   0 53.1337 3.82278   8
  -7  -7   0 58.6279 4.40682   1
  -7  -7   0 47.3604 4.15883  10
  -7  -7   0 54.6491 4.21976   4
  -7  -7   0 59.8456 4.14599   6
  -7  -7   0 49.9841 4.45370   3
  -7  -7   0 54.2837 4.00232   1
   7   7   0 45.3602 3.74846   6
   7   7   0 62.1908 4.62865  12
   7   7   0 58.2998 4.06350   1
   7   7   0 48.6413 4.08349   1
  -8  -7   0 17.7319 2.94353   1
  -8  -7   0 14.9862 2.72863   4
  -8  -7   0 24.6724 3.69517   1
  -8  -7   0 16.1145 3.36739   3
  -8  -7   0 18.3876 2.76709   8
  -8  -7   0 20.2303 2.85036   6
  -8  -7   0 22.4230 3.12522  11
  -8  -7   0 19.1733 2.82263  10
   8   7   0 10.6104 2.46013   1
   8   7   0 19.0990 2.49152   6
   8   7   0 15.2621 2.36434   6
   8   7   0 17.6236 2.62394   1
   5  -8   0 0.90534 1.99253   6
   5  -8   0 2.49385 3.14924   2
   5  -8   0 2.20865 3.07590   9
   5  -8   0 -2.7393 2.98300   1
   5  -8   0 2.87565 1.92220   1
   5  -8   0 -3.0380 2.92991  11
  -5   8   0 -0.7441 1.81582   6
  -5   8   0 -2.4288 2.41951   3
  -5   8   0 -0.8877 2.29004   8
  -5   8   0 -1.4834 2.37768  11
  -5   8   0 -6.3658 2.65844   1
   4  -8   0 17.0772 2.89863   2
   4  -8   0 22.7848 2.99830   1
   4  -8   0 11.7475 2.81081   1
   4  -8   0 10.2970 3.76926  11
  -4   8   0 17.4654 2.28291  11
  -4   8   0 14.2126 2.46683   8
  -4   8   0 18.4899 2.39307   7
  -4   8   0 10.8047 2.67478   1
  -4   8   0 10.7941 2.18430   3
   3  -8   0 9.21177 2.33035   6
   3  -8   0 10.2891 2.24411   9
   3  -8   0 13.0965 1.80844   7
   3  -8   0 9.41502 2.31390   1
   3  -8   0 16.8348 2.26352   1
   3  -8   0 14.0657 2.17526   2
  -3   8   0 9.45137 1.58109   5
  -3   8   0 8.86702 1.73480   3
  -3   8   0 10.9189 2.21705   1
  -3   8   0 13.2962 1.61313   7
  -3   8   0 12.1794 1.86533   8
  -3   8   0 9.62049 1.86619  11
   2  -8   0 6.28553 1.37372   6
   2  -8   0 6.49544 1.68479   7
   2  -8   0 5.52907 1.81781   1
   2  -8   0 8.78098 1.64464  11
  -2   8   0 7.20766 1.54189   8
  -2   8   0 4.66130 1.31723   4
  -2   8   0 8.14065 1.46182   7
  -2   8   0 7.60702 1.48066   3
  -2   8   0 6.10275 1.82391   1
   1  -8   0 10.3824 1.34110   4
   1  -8   0 10.8825 1.73785   8
   1  -8   0 14.0110 2.06845   5
   1  -8   0 10.6624 1.51981   1
   1  -8   0 11.6167 1.79576  11
   1  -8   0 13.0163 1.64289   6
   1  -8   0 11.7223 1.92406   1
   1  -8   0 12.6127 1.76734   7
  -1   8   0 11.2029 1.55206   1
  -1   8   0 9.50077 1.42882   6
  -1   8   0 10.8748 1.53155   4
  -1   8   0 11.8451 1.95014   1
  -1   8   0 15.0694 2.07339  10
  -1   8   0 13.8855 1.69003   8
  -1   8   0 12.0189 1.67900   3
   0  -8   0 70.6214 3.87102   1
   0  -8   0 59.5290 3.59046   5
   0  -8   0 60.3855 3.55808   4
   0  -8   0 72.5574 3.84906   6
   0  -8   0 52.9688 3.69261  11
   0  -8   0 56.6131 3.75591  10
   0  -8   0 59.9298 3.67516   3
   0  -8   0 58.5845 3.57470   7
   0  -8   0 60.7434 3.69093   8
   0   8   0 56.6277 3.53649   1
   0   8   0 54.9545 3.47955   6
   0   8   0 67.0628 3.90828   1
   0   8   0 62.7815 3.54029   8
   0   8   0 65.8511 3.68377   4
   0   8   0 66.3189 3.62660   3
   0   8   0 61.1814 3.66230  10
  -1  -8   0 4.15938 1.13812   4
  -1  -8   0 3.32245 1.23184  10
  -1  -8   0 5.06458 1.32188   3
  -1  -8   0 5.27238 1.38905  11
  -1  -8   0 4.55527 1.26274   8
  -1  -8   0 3.22022 1.13969   5
  -1  -8   0 4.87457 1.48482   6
  -1  -8   0 5.44488 1.38689   7
  -1  -8   0 3.74818 1.38483   1
  -1  -8   0 5.16021 1.27219   1
   1   8   0 5.61174 1.24025  10
   1   8   0 6.30206 1.30340   3
   1   8   0 4.45713 1.12299   8
   1   8   0 4.99760 1.08186   4
   1   8   0 4.14990 1.22944   1
   1   8   0 5.41106 1.27472   1
   1   8   0 4.49982 1.33839   6
  -2  -8   0 4.73147 1.51586   1
  -2  -8   0 2.47989 1.23326   8
  -2  -8   0 2.71089 1.13850  10
  -2  -8   0 2.32352 1.20774  11
  -2  -8   0 0.88611 0.99052   1
  -2  -8   0 3.60069 1.16657   4
  -2  -8   0 1.87981 1.27957   7
  -2  -8   0 5.21784 1.42804   6
  -2  -8   0 3.53481 1.14273   3
   2   8   0 3.89296 1.27291   4
   2   8   0 2.56308 1.18007   6
   2   8   0 2.59843 1.26817  10
   2   8   0 3.68491 1.24022   3
   2   8   0 4.58498 1.11586   1
   2   8   0 3.29057 1.35441   1
   2   8   0 2.10457 0.99550   8
  -3  -8   0 -0.7192 1.01160   1
  -3  -8   0 2.00098 1.12073   3
  -3  -8   0 -1.5180 1.08622   8
  -3  -8   0 -2.4575 1.10072   7
  -3  -8   0 -2.2855 1.39714   1
  -3  -8   0 0.33988 1.39946   6
  -3  -8   0 -0.8508 1.19317  10
  -3  -8   0 -1.5242 1.11434   4
   3   8   0 0.69385 1.26219   4
   3   8   0 0.92460 1.17852   3
   3   8   0 -0.2707 1.14675   8
   3   8   0 -1.3603 1.03461  10
   3   8   0 -0.5067 1.05731   1
   3   8   0 -0.0648 1.19929   6
   3   8   0 -1.6514 1.21951   1
  -4  -8   0 21.4685 2.30288   8
  -4  -8   0 24.5876 2.89886   1
  -4  -8   0 21.9057 2.68382   6
  -4  -8   0 15.2139 2.27800   3
  -4  -8   0 19.4084 2.53009  10
  -4  -8   0 17.8205 2.11608   7
  -4  -8   0 20.8255 2.56093   4
  -4  -8   0 23.4087 2.11575   1
   4   8   0 21.2426 2.16697   8
   4   8   0 26.9002 2.69851  10
   4   8   0 23.1304 2.45647   4
   4   8   0 17.5246 2.64866   1
   4   8   0 21.2521 2.46103   6
   4   8   0 24.2929 2.19331   1
   4   8   0 21.8403 2.31090   3
  -5  -8   0 -0.3924 1.42655   4
  -5  -8   0 1.06090 1.46536  10
  -5  -8   0 1.65322 1.32293   1
  -5  -8   0 0.44714 1.56893   6
  -5  -8   0 3.44613 1.85410   1
  -5  -8   0 0.87153 1.45063   3
   5   8   0 2.49321 1.60209   1
   5   8   0 1.94888 1.45690   6
   5   8   0 2.68655 1.33589   1
   5   8   0 -0.8363 1.39278   3
  -6  -8   0 42.0096 3.75491  10
  -6  -8   0 45.2498 3.84811   3
  -6  -8   0 43.0488 3.79191   4
  -6  -8   0 47.7398 4.33764   1
  -6  -8   0 41.1694 3.42911   1
  -6  -8   0 47.1374 3.90227   6
   6   8   0 44.8802 3.63482   1
   6   8   0 46.5485 3.83405  12
   6   8   0 42.9140 3.64646   1
   6   8   0 38.8082 3.41507   6
   6   8   0 50.2496 3.65918   3
  -7  -8   0 22.1026 3.12255   1
  -7  -8   0 21.0878 2.82636   3
  -7  -8   0 21.2589 2.96628   8
  -7  -8   0 20.1566 2.68022   4
  -7  -8   0 18.8201 2.86829   6
  -7  -8   0 23.0229 3.44048   1
  -7  -8   0 25.7390 3.81697  10
   7   8   0 27.1670 3.54693   1
   7   8   0 20.6945 2.58478   1
   7   8   0 30.1430 3.86148   3
   7   8   0 17.8404 2.46497   6
   7   8   0 20.4449 3.23979  12
  -8  -8   0 42.1184 4.85815   6
  -8  -8   0 44.8637 4.96702  10
  -8  -8   0 36.9060 4.47394   1
  -8  -8   0 43.2811 5.19096   3
  -8  -8   0 38.4324 4.98148   1
  -8  -8   0 42.1809 5.00690   4
  -8  -8   0 44.9992 4.04978   8
   8   8   0 37.2036 4.05727  12
   8   8   0 38.2231 4.47286   1
   8   8   0 31.3887 3.98991   6
   8   8   0 37.2013 4.62440   1
   5  -9   0 2.58057 3.21535   6
   5  -9   0 8.34715 3.77964   9
   5  -9   0 7.38035 3.29724   1
   5  -9   0 -0.0150 3.70907   1
   5  -9   0 -2.4555 3.65026  11
  -5   9   0 0.97928 2.95998   8
  -5   9   0 -1.6928 3.03056   3
  -5   9   0 -0.7446 2.99811  11
  -5   9   0 2.39626 3.67300   1
   4  -9   0 -0.2545 3.02682   1
   4  -9   0 -3.9762 2.73081   2
   4  -9   0 -5.1619 2.53503  11
   4  -9   0 -3.2974 2.95320   9
  -4   9   0 2.94657 2.29654   8
  -4   9   0 -0.3800 2.26957   3
  -4   9   0 -0.7041 2.22545  11
  -4   9   0 0.25455 1.86710   7
  -4   9   0 3.05871 2.94697   1
   3  -9   0 4.35119 2.57747   1
   3  -9   0 3.13485 2.07879  11
   3  -9   0 5.48438 1.96036   7
  -3   9   0 5.93839 2.74101   1
  -3   9   0 10.0365 2.29043   3
  -3   9   0 6.03688 2.10825   8
  -3   9   0 4.42238 1.71722   7
   2  -9   0 11.8935 1.82770   1
   2  -9   0 11.0590 2.02165   7
   2  -9   0 9.75846 2.38792   1
  -2   9   0 16.6564 2.19072   8
  -2   9   0 13.4637 2.48762   1
   1  -9   0 8.89564 1.60050   1
   1  -9   0 9.78672 1.66137   6
   1  -9   0 5.31628 1.73769   7
   1  -9   0 5.36732 1.99517   1
   1  -9   0 7.34019 1.86897   8
  -1   9   0 8.84080 2.04681   1
  -1   9   0 8.13718 1.79679   1
  -1   9   0 4.44451 1.59959   6
  -1   9   0 8.95973 1.70261   8
   0  -9   0 29.3686 2.59923   3
   0  -9   0 31.0663 2.91962   1
   0  -9   0 29.3530 3.08202   1
   0  -9   0 28.5942 2.66660   5
   0  -9   0 30.4961 3.11574  10
   0  -9   0 26.2478 2.72544   8
   0  -9   0 39.2333 2.98481   6
   0  -9   0 28.1983 2.61546   4
   0  -9   0 28.5214 2.75270   7
   0   9   0 28.0154 2.72168   4
   0   9   0 27.7045 2.54324   6
   0   9   0 25.1639 2.58684   1
   0   9   0 30.3127 2.85741  10
   0   9   0 33.4645 3.18569   1
   0   9   0 33.3661 2.76673   8
  -1  -9   0 11.0137 1.74118   8
  -1  -9   0 18.9676 2.54856   6
  -1  -9   0 11.2961 1.64020   4
  -1  -9   0 18.5498 2.25786   5
  -1  -9   0 15.2837 2.00725  11
  -1  -9   0 18.1357 2.69183  10
  -1  -9   0 15.0475 1.85746   3
  -1  -9   0 16.5448 2.35880   1
  -1  -9   0 14.1360 2.08135   1
  -1  -9   0 15.3611 1.91940   7
   1   9   0 18.6904 2.10370   8
   1   9   0 16.1189 2.02113   6
   1   9   0 14.2183 1.81380  10
   1   9   0 11.5894 1.64163   1
   1   9   0 14.3034 1.85584   1
   1   9   0 13.6459 1.73680   4
  -2  -9   0 11.8750 1.70179   1
  -2  -9   0 13.7061 2.01788   1
  -2  -9   0 12.5647 1.76620  10
  -2  -9   0 10.9775 1.58117   5
  -2  -9   0 11.8213 1.86894   6
  -2  -9   0 12.8186 1.92024   7
  -2  -9   0 10.2831 1.61660  11
  -2  -9   0 11.3628 1.76629   8
  -2  -9   0 9.04735 1.58443   4
   2   9   0 8.71152 1.58296   3
   2   9   0 16.9910 2.49388  10
   2   9   0 11.9265 1.56952   1
   2   9   0 12.4130 1.82638   1
   2   9   0 9.95945 1.72538   6
   2   9   0 12.2938 1.88495   8
   2   9   0 11.0773 1.81991   4
  -3  -9   0 4.47463 1.50432   4
  -3  -9   0 5.11677 1.57307  10
  -3  -9   0 6.18960 1.66975   6
  -3  -9   0 7.21777 1.59767   7
  -3  -9   0 3.37272 1.35603   8
  -3  -9   0 7.18906 1.83833   1
   3   9   0 4.92882 1.54467   6
   3   9   0 2.86357 1.39705  10
   3   9   0 5.74422 1.53326   4
   3   9   0 4.65004 1.65410   1
   3   9   0 4.89072 1.42760   1
   3   9   0 2.43872 1.36076   3
  -4  -9   0 -0.6491 1.70406   6
  -4  -9   0 -0.6019 1.50636  10
  -4  -9   0 -0.7402 1.36759   3
  -4  -9   0 -2.8044 1.65247   7
  -4  -9   0 0.65190 1.88734   1
  -4  -9   0 -1.1045 1.35738   4
   4   9   0 -0.5708 1.55253   1
   4   9   0 -0.5457 1.53234  10
   4   9   0 -1.1338 1.43742   4
   4   9   0 -0.1596 1.50958   8
   4   9   0 0.37351 1.52427   6
  -5  -9   0 -0.6090 1.73282  10
  -5  -9   0 -2.3117 1.63874   4
  -5  -9   0 -3.1971 1.44902   3
  -5  -9   0 -0.8840 2.03421   1
  -5  -9   0 -0.0986 2.04985   6
   5   9   0 1.06322 1.76705   6
   5   9   0 -0.9231 1.39675   1
   5   9   0 -1.8086 1.83003   1
  -6  -9   0 11.0882 1.91865   8
  -6  -9   0 12.9028 2.25154   4
  -6  -9   0 14.0803 2.80887   1
  -6  -9   0 11.5751 2.03768   1
  -6  -9   0 16.2278 2.59466   6
  -6  -9   0 16.3530 2.29664   3
  -6  -9   0 12.0265 2.33661  10
   6   9   0 8.81416 2.44544   1
   6   9   0 13.3232 2.08946   1
   6   9   0 9.18192 2.53789  12
   6   9   0 12.3759 2.36847   3
   6   9   0 9.94850 2.23255   6
  -7  -9   0 8.55119 2.48254   4
  -7  -9   0 8.70312 2.36540  10
  -7  -9   0 10.3642 3.09456   1
  -7  -9   0 10.6986 2.48599   1
  -7  -9   0 7.30720 2.78703   6
  -7  -9   0 12.5090 2.72239   3
   7   9   0 8.26103 2.96168  12
   7   9   0 7.65632 2.27081   6
   7   9   0 5.47201 2.56605   3
   7   9   0 5.02127 2.52850   1
   7   9   0 9.04951 2.46686   1
  -8  -9   0 10.3079 3.67050   1
  -8  -9   0 9.11318 3.40283   6
  -8  -9   0 11.8048 3.02226  10
  -8  -9   0 7.79834 3.40076   3
  -8  -9   0 6.97220 3.10096   1
  -8  -9   0 8.74163 2.34540   8
  -8  -9   0 3.76792 2.99849   4
   8   9   0 20.5964 3.85835  12
   8   9   0 7.23016 3.06194   1
   8   9   0 3.07189 2.98451   1
   8   9   0 6.64603 2.79976   6
   4 -10   0 -0.4437 3.83810   9
   4 -10   0 -2.9047 3.47685   1
  -4  10   0 1.66313 2.73548   8
  -4  10   0 -1.4259 3.28084   1
  -4  10   0 -0.2822 2.82876   3
   3 -10   0 4.15655 2.99099   1
   3 -10   0 0.78354 2.50742  11
   3 -10   0 -0.4327 2.77333   9
   3 -10   0 4.59177 2.30634   7
  -3  10   0 4.84509 2.40603   8
  -3  10   0 3.96574 2.32535   3
  -3  10   0 0.96179 2.74056   1
  -3  10   0 -0.1732 2.71739   6
  -3  10   0 2.53832 2.67161   1
   2 -10   0 6.70946 2.63244   1
   2 -10   0 9.73502 3.17439  11
   2 -10   0 5.28120 2.26078   7
  -2  10   0 6.90840 2.62479   1
  -2  10   0 6.85448 2.22001   8
   1 -10   0 4.33529 1.71131   1
   1 -10   0 1.94171 2.00177   7
   1 -10   0 1.65781 2.12958   1
  -1  10   0 4.27490 1.99883   6
  -1  10   0 4.39451 2.17444   1
  -1  10   0 4.17271 2.64568   1
  -1  10   0 3.87706 2.01115   8
   0 -10   0 1.87208 1.78911   7
   0 -10   0 3.95911 1.93915   6
   0 -10   0 4.29506 1.77074   1
   0 -10   0 0.08437 1.54511   8
   0 -10   0 4.31277 1.53537   4
   0 -10   0 4.81977 1.82595   1
   0  10   0 2.59369 1.56522  10
   0  10   0 1.92740 1.86530   1
   0  10   0 -0.2835 1.39475   1
   0  10   0 1.06387 1.49128   4
   0  10   0 4.97302 1.82444   8
   0  10   0 0.71763 1.40381   6
  -1 -10   0 0.65012 1.82790   1
  -1 -10   0 0.63021 1.70630  10
  -1 -10   0 3.81773 1.93377   8
  -1 -10   0 1.12512 1.66987   6
  -1 -10   0 1.86037 1.79976   7
  -1 -10   0 -1.2129 1.57641   4
  -1 -10   0 -2.5098 1.30367   5
   1  10   0 0.64968 1.60470   6
   1  10   0 0.33519 1.45998   4
   1  10   0 0.00837 1.25074  10
   1  10   0 1.18783 1.53093   1
   1  10   0 -0.1497 1.57454   1
  -2 -10   0 3.62720 1.69230   5
  -2 -10   0 4.08095 1.65876   4
  -2 -10   0 3.19445 1.95018  10
  -2 -10   0 5.72138 2.02805   1
  -2 -10   0 6.15031 1.75681   6
  -2 -10   0 5.16587 1.80799   7
   2  10   0 5.48036 1.88023   6
   2  10   0 4.08657 1.78107   1
   2  10   0 3.72924 1.58689  10
   2  10   0 4.22631 1.79173   4
   2  10   0 8.70229 1.55068   1
  -3 -10   0 62.4158 4.27635   6
  -3 -10   0 53.9219 4.07200   4
  -3 -10   0 54.9244 4.27523  10
  -3 -10   0 66.7016 4.55001   1
  -3 -10   0 55.8546 3.87337   7
   3  10   0 66.7064 4.34286   4
   3  10   0 49.8936 4.12176   6
   3  10   0 58.7384 4.08905  10
   3  10   0 58.6032 4.24441   1
   3  10   0 59.8116 3.85200   1
  -4 -10   0 18.0404 2.27122   4
  -4 -10   0 18.3735 2.44803  10
  -4 -10   0 16.3885 2.62354   6
  -4 -10   0 19.9438 2.97187   1
   4  10   0 17.9987 2.36564   4
   4  10   0 23.3489 2.55409   1
   4  10   0 16.4225 2.38857   6
   4  10   0 17.5087 2.48585   1
   4  10   0 15.6452 2.22104  10
  -5 -10   0 17.2334 2.69753   6
  -5 -10   0 18.4253 2.46750   4
  -5 -10   0 16.0458 2.42089  10
  -5 -10   0 18.9577 2.95965   1
  -5 -10   0 14.3539 2.11498   7
  -5 -10   0 12.5920 2.79313   3
   5  10   0 13.6749 2.51782   1
   5  10   0 16.7141 2.29758   4
   5  10   0 14.4474 2.46078   6
   5  10   0 15.1009 2.53626   1
  -6 -10   0 11.8841 2.56641   4
  -6 -10   0 11.1059 2.10791   1
  -6 -10   0 8.08417 2.25470   3
  -6 -10   0 11.2380 2.85904   6
  -6 -10   0 9.78347 2.51496  10
  -6 -10   0 9.33861 3.10354   1
   6  10   0 10.3332 2.26555   1
   6  10   0 13.1798 2.69213   6
   6  10   0 14.2671 2.92152  12
   6  10   0 7.44476 2.63362   1
  -7 -10   0 -1.7058 2.72722  10
  -7 -10   0 3.56343 2.42178   1
  -7 -10   0 1.12227 2.94199   6
  -7 -10   0 5.81059 2.80243   4
  -7 -10   0 2.47497 2.78229   3
  -7 -10   0 7.02810 3.50772   1
   7  10   0 5.41182 2.71269   6
   7  10   0 4.38747 3.30223   3
   7  10   0 4.06898 2.75754   1
   7  10   0 2.58899 3.41145  12
   7  10   0 2.33230 2.56464   1
   3 -11   0 -2.4145 3.65276   9
   3 -11   0 1.06474 2.70096   7
   3 -11   0 2.47494 4.10454   1
  -3  11   0 7.66889 3.73798   1
  -3  11   0 1.50851 3.08954   8
   2 -11   0 -0.5879 2.60759   7
   2 -11   0 7.61127 2.57476  11
  -2  11   0 7.63448 3.27233   1
  -2  11   0 3.93288 3.13952   3
  -2  11   0 2.99780 2.57187   8
   1 -11   0 5.25615 2.52417   7
   1 -11   0 4.97708 2.11272   4
   1 -11   0 2.19139 2.44515   8
  -1  11   0 -0.1781 1.90652   6
  -1  11   0 8.76336 2.31570   8
  -1  11   0 3.76154 2.67912   1
  -1  11   0 7.30809 1.91461   1
   0 -11   0 0.59224 2.14098   1
   0 -11   0 2.30339 2.30479   7
   0 -11   0 -2.6278 1.70950   4
   0 -11   0 -0.0934 2.11970   6
   0 -11   0 -2.5773 2.01092   8
   0  11   0 -1.4256 1.71203   1
   0  11   0 -1.6997 1.87427   8
   0  11   0 1.70576 1.77165   4
   0  11   0 -1.4883 1.78374   6
   0  11   0 1.75081 1.69206  10
   0  11   0 -4.9403 2.17591   1
  -1 -11   0 -0.5035 1.84887   8
  -1 -11   0 -1.0770 2.01531   6
  -1 -11   0 -0.4951 2.22308  10
  -1 -11   0 1.48149 2.17782   1
  -1 -11   0 0.11569 1.73209   4
  -1 -11   0 -1.7710 1.99355   1
  -1 -11   0 -1.0310 2.07077   7
   1  11   0 -1.3315 1.74997   4
   1  11   0 -0.6514 1.65221  10
   1  11   0 -1.9002 1.92831   1
  -2 -11   0 5.69977 2.26497   6
  -2 -11   0 6.14515 1.93039   4
  -2 -11   0 7.79323 1.86424   8
  -2 -11   0 12.1519 2.47442   1
  -2 -11   0 3.20721 1.86896   5
  -2 -11   0 2.67924 1.81501   1
  -2 -11   0 4.26851 2.07437   7
  -2 -11   0 7.09356 2.18809  10
   2  11   0 1.36292 1.89405   1
   2  11   0 5.08043 1.87458  10
   2  11   0 7.82042 1.84437   1
   2  11   0 4.17350 1.93046   4
  -3 -11   0 8.66203 2.22073   4
  -3 -11   0 12.5616 2.65781   6
  -3 -11   0 9.98732 1.96620   8
  -3 -11   0 12.2996 2.74503   1
  -3 -11   0 12.9241 2.38514   5
  -3 -11   0 10.2030 2.41528  10
   3  11   0 10.5864 2.41794   1
   3  11   0 10.6222 2.33002   6
   3  11   0 10.3735 2.20173  10
   3  11   0 13.5507 2.42770   4
  -4 -11   0 7.47372 2.19290   4
  -4 -11   0 9.05477 3.01068   1
  -4 -11   0 4.17549 2.37315  10
  -4 -11   0 7.38130 1.92842   8
  -4 -11   0 8.44881 2.43426   1
  -4 -11   0 8.90202 2.32326   7
  -4 -11   0 9.94345 2.74183   6
   4  11   0 9.47744 2.43937   1
   4  11   0 7.25550 2.07181  10
   4  11   0 6.68731 2.41487   6
   4  11   0 3.63140 2.25631   4
  -5 -11   0 10.5069 2.41452   7
  -5 -11   0 5.28498 2.18658   8
  -5 -11   0 8.39956 3.02830   1
  -5 -11   0 7.94290 2.74425  10
  -5 -11   0 10.1096 2.78708   6
  -5 -11   0 6.27754 2.45430   4
   5  11   0 6.20759 2.66944   1
   5  11   0 7.11470 2.79475   6
   5  11   0 6.72975 2.35301   4
  -6 -11   0 2.44108 2.67529   1
  -6 -11   0 -0.3479 2.99977   6
  -6 -11   0 2.55908 2.78649   4
  -6 -11   0 1.88391 2.15054   8
  -6 -11   0 7.84976 2.68707   3
  -6 -11   0 -0.2359 2.67694  10
  -6 -11   0 -0.0917 3.50192   1
   6  11   0 -0.6060 3.22306  12
   6  11   0 1.36386 2.25609   1
   6  11   0 -0.8439 2.91948   1
   6  11   0 2.18072 2.77900   6
   1 -12   0 0.25738 2.90590   4
   1 -12   0 7.17550 3.00468   7
   1 -12   0 4.29379 3.19078   1
  -1  12   0 2.83107 2.41189   4
  -1  12   0 -2.1872 3.32730   1
  -1  12   0 1.98892 2.32596   1
  -1  12   0 -1.5745 2.02618   6
  -1  12   0 3.04984 3.13406   8
   0 -12   0 -2.2224 2.70133   1
   0 -12   0 3.03689 2.48780   8
   0 -12   0 -0.4978 2.79178   7
   0 -12   0 -2.9057 2.53177   4
   0 -12   0 0.99617 2.51849   6
   0  12   0 -0.8276 2.28554  10
   0  12   0 1.50477 2.17068   4
   0  12   0 -1.5529 2.03123   1
   0  12   0 -1.4936 2.24726   6
   0  12   0 -1.1211 2.48545   8
   0  12   0 0.08356 2.65829   1
  -1 -12   0 3.60221 2.47519   1
  -1 -12   0 1.97325 2.45643   7
  -1 -12   0 -2.2496 2.54177   6
  -1 -12   0 0.26366 2.58424   1
  -1 -12   0 0.86452 2.36932   4
  -1 -12   0 -0.6662 2.19689   8
  -1 -12   0 0.01641 2.51311   5
   1  12   0 2.17495 2.49006   1
   1  12   0 -0.0756 2.10412  10
   1  12   0 -1.2083 2.27714   1
   1  12   0 1.41741 2.36958   4
   1  12   0 2.53841 2.23172   6
  -2 -12   0 4.03707 2.40497   4
  -2 -12   0 5.85851 2.75921  10
  -2 -12   0 2.83053 2.04481   8
  -2 -12   0 -0.3973 2.35876   5
  -2 -12   0 8.12176 2.94783   1
  -2 -12   0 3.20506 2.47199   6
   2  12   0 -0.7906 2.39904   6
   2  12   0 4.95910 2.47939  10
   2  12   0 2.92410 2.60754   1
   2  12   0 0.98824 2.16275   4
   2  12   0 1.94262 2.21253   1
  -3 -12   0 4.11899 2.74131   7
  -3 -12   0 4.32452 2.09490   8
  -3 -12   0 0.93977 2.57586   4
  -3 -12   0 3.07170 3.06572   1
  -3 -12   0 1.42778 2.52788   5
  -3 -12   0 3.41304 2.82337  10
  -3 -12   0 6.12807 2.94159   6
   3  12   0 -0.6694 2.37601   4
   3  12   0 -0.0086 2.28180  10
  -4 -12   0 3.71623 2.84251   5
  -4 -12   0 3.21332 3.24933   1
  -4 -12   0 2.60479 2.69758   4
  -4 -12   0 -2.0462 3.00932   6
  -4 -12   0 -0.0507 2.80414  10
  -4 -12   0 0.04522 2.64969  11
  -4 -12   0 7.35780 2.78845   7
   4  12   0 0.12405 2.55156   4
   4  12   0 1.68732 2.39524  10
  -5 -12   0 4.45151 2.76718   7
  -5 -12   0 2.93440 3.12319   6
  -5 -12   0 0.29285 3.56568   1
  -5 -12   0 2.97510 3.00380  10
  -5 -12   0 0.08529 2.82548   4
   5  12   0 4.11235 3.05838   1
   5  12   0 -3.1845 2.59200   4
   5  12   0 1.30257 2.98548   6
  -1 -13   0 7.24118 3.38138   7
  -1 -13   0 1.54885 3.39411   1
  -1 -13   0 -3.1718 3.22400   6
  -1 -13   0 -1.2839 3.21634   4
  -1 -13   0 1.34811 2.86998   8
   1  13   0 0.35528 3.08354   1
   1  13   0 5.38569 2.70341   4
   1  13   0 -3.7208 2.92089   6
   1  13   0 -1.4113 2.89217   1
   1  13   0 -0.0333 2.78002  10
  -2 -13   0 3.23463 2.93208   4
  -2 -13   0 1.64323 3.24074   1
  -2 -13   0 0.00238 2.59665   8
  -2 -13   0 1.64893 3.28386   7
  -2 -13   0 1.01645 3.18629   6
   2  13   0 -4.0994 2.91213   1
   2  13   0 3.26555 2.88005   4
   2  13   0 -1.3468 2.71345  10
   2  13   0 5.11211 3.11824   6
   2  13   0 0.95791 2.66134   1
  -3 -13   0 -2.7684 3.20271   4
  -3 -13   0 0.08039 3.62864   1
  -3 -13   0 1.54789 2.71626   8
  -3 -13   0 -2.2887 3.70220  10
  -3 -13   0 0.84849 3.61152   6
  -3 -13   0 -2.7303 3.24278   7
   3  13   0 -4.3994 2.80659  10
   3  13   0 0.12495 3.12283   6
   3  13   0 -0.2215 3.00399   4
   3  13   0 1.63038 3.22468   1
   3  13  -1 -5.2314 2.66623  10
   3  13  -1 -0.1172 2.66283   1
   3  13  -1 -3.4713 3.05105   1
   3  13  -1 4.79843 3.13451   6
   3  13  -1 0.59341 3.15542   4
  -3 -13   1 -2.5327 2.98401   4
  -3 -13   1 -4.0577 3.47458  10
  -3 -13   1 3.37768 3.22415   8
  -3 -13   1 0.89708 3.70100   1
  -3 -13   1 2.92897 3.36250   7
  -3 -13   1 -3.0347 3.22636   6
   2  13  -1 -2.6701 2.78648   6
   2  13  -1 6.47294 3.02103   1
   2  13  -1 -1.9693 3.11426   1
   2  13  -1 -0.3420 2.70411   4
   2  13  -1 -2.3153 2.92266  10
  -2 -13   1 -3.5534 3.04219   8
  -2 -13   1 5.23711 3.35312   7
  -2 -13   1 7.18940 3.72039   1
  -2 -13   1 -0.7045 3.76309  10
  -2 -13   1 -4.3629 3.05131   6
  -2 -13   1 -3.3993 2.46818   3
   5  12  -1 -2.2831 2.50569   4
  -5 -12   1 1.59899 2.84338   7
  -5 -12   1 -0.9938 2.68917   4
  -5 -12   1 -0.3633 2.28548   8
  -5 -12   1 6.60627 3.14905  10
  -5 -12   1 -0.7108 3.13467   6
  -5 -12   1 -1.4941 3.22892   1
   4  12  -1 6.11853 2.43250   4
   4  12  -1 4.69324 2.40456  10
   4  12  -1 3.43898 2.77125   1
   4  12  -1 7.97311 2.68481   6
  -4 -12   1 6.59833 3.00962  10
  -4 -12   1 9.12312 3.15695   1
  -4 -12   1 10.6920 2.99728   6
  -4 -12   1 10.4935 2.56065   8
  -4 -12   1 7.57370 2.75332   4
  -4 -12   1 10.0950 2.86821   7
   3  12  -1 9.26316 2.73204   8
   3  12  -1 -0.1712 2.20042   1
   3  12  -1 4.86285 2.33449   4
   3  12  -1 4.56310 2.48244   1
   3  12  -1 4.22631 2.57745   6
   3  12  -1 0.06843 2.29034  10
  -3 -12   1 3.32382 2.43648   4
  -3 -12   1 1.45410 2.77096   6
  -3 -12   1 1.99943 2.50585  10
  -3 -12   1 5.98791 2.54626   8
  -3 -12   1 1.79452 3.03074   1
  -3 -12   1 1.47795 2.56765   1
  -3 -12   1 7.05177 4.47490   7
   2  12  -1 5.78489 2.75942   8
   2  12  -1 6.39489 2.28554   6
   2  12  -1 4.20147 2.60816   1
   2  12  -1 4.04848 2.49058   1
   2  12  -1 5.68518 2.42131  10
   2  12  -1 8.68509 2.44512   4
  -2 -12   1 9.22593 2.58977   8
  -2 -12   1 1.84990 2.37261   7
  -2 -12   1 6.78045 2.92783   1
  -2 -12   1 8.57953 2.65358   1
  -2 -12   1 6.53913 2.40078   4
  -2 -12   1 1.19544 2.12534   3
  -2 -12   1 4.66510 2.94448  10
  -2 -12   1 9.90963 2.76420   6
   1  12  -1 -2.7034 2.16431   6
   1  12  -1 -0.6347 2.30691   8
   1  12  -1 2.99289 2.29710   1
   1  12  -1 -1.3208 2.17280  10
   1  12  -1 4.93497 2.65780   1
  -1 -12   1 -1.1267 2.60873   7
  -1 -12   1 1.19490 2.46154   8
  -1 -12   1 2.45388 2.48978   1
  -1 -12   1 0.20560 2.59516   6
  -1 -12   1 2.41014 2.14152   4
  -1 -12   1 -5.4699 2.39293   3
  -1 -12   1 -6.2295 2.63186  10
   0  12  -1 0.63370 2.03852   6
   0  12  -1 -1.7217 2.93456   3
   0  12  -1 1.40447 3.15790   1
   0  12  -1 -2.6458 2.22810   1
   0  12  -1 3.58098 2.80797   8
   0 -12   1 -0.1437 2.91450   1
   0 -12   1 -2.7239 2.87093   8
   0 -12   1 -1.7345 3.04978  11
   0 -12   1 2.53427 2.70171   7
  -1  12  -1 5.53686 3.54739   1
  -1  12  -1 1.96467 3.12875   8
   1 -12   1 -0.4289 3.59648   1
   1 -12   1 3.61547 2.82842   7
   7  11  -1 -0.1192 3.00164   6
   7  11  -1 -3.6631 3.23880   1
  -7 -11   1 -2.5196 3.24468   4
  -7 -11   1 3.15071 3.36010   6
  -7 -11   1 -0.4980 3.24998  10
  -7 -11   1 2.75640 3.69495   1
   6  11  -1 1.22642 2.73900  12
   6  11  -1 6.73233 2.67182   6
   6  11  -1 -4.0967 2.69053   1
  -6 -11   1 4.45665 2.41437   7
  -6 -11   1 3.06867 2.74367   4
  -6 -11   1 -4.5521 3.13404   1
  -6 -11   1 -0.2439 2.87596  10
  -6 -11   1 3.48756 3.12119   6
   5  11  -1 9.16943 2.66979   6
   5  11  -1 8.04820 2.36174   4
   5  11  -1 4.79284 2.61098   1
  -5 -11   1 4.66708 2.51068   7
  -5 -11   1 8.16745 2.53974   4
  -5 -11   1 7.16340 2.60005   6
  -5 -11   1 8.02362 2.75422  10
  -5 -11   1 8.40599 3.11725   3
  -5 -11   1 11.7158 2.38510   8
  -5 -11   1 7.08357 2.35001   1
  -5 -11   1 13.8227 3.10157   1
   4  11  -1 -0.7811 2.00658   1
   4  11  -1 3.26502 1.96488   6
   4  11  -1 -0.8802 1.94229   4
   4  11  -1 -0.8625 1.83340  10
  -4 -11   1 0.81564 2.30546   6
  -4 -11   1 4.48827 2.48806  10
  -4 -11   1 -0.2286 2.10042   4
  -4 -11   1 2.66303 2.56539   1
  -4 -11   1 0.26214 1.83120   8
   3  11  -1 -1.5524 1.82980   1
   3  11  -1 5.04778 2.25978   4
   3  11  -1 5.49653 2.43031   8
   3  11  -1 -2.4398 1.81760  10
  -3 -11   1 5.27310 1.95007   4
  -3 -11   1 4.99692 2.27190  10
  -3 -11   1 0.97610 2.11954   6
  -3 -11   1 3.05201 2.33927   1
  -3 -11   1 2.36010 2.14981   8
  -3 -11   1 1.05716 1.96445   7
  -3 -11   1 6.73230 1.92649   1
   2  11  -1 11.3508 2.13413   4
   2  11  -1 8.68481 2.05734  10
   2  11  -1 8.46039 2.19432   1
   2  11  -1 11.4643 2.26148   8
  -2 -11   1 8.67604 2.26902   7
  -2 -11   1 11.7870 2.60477   1
  -2 -11   1 10.2516 2.77612   8
  -2 -11   1 12.9208 2.48590   6
  -2 -11   1 6.34526 2.21799  10
  -2 -11   1 12.6452 2.10828   3
  -2 -11   1 7.82595 2.23343   4
  -2 -11   1 12.0659 2.40524   1
   1  11  -1 2.45738 2.06130   8
   1  11  -1 0.74835 1.91118  10
   1  11  -1 0.95769 1.83742   1
   1  11  -1 3.22184 2.38001   1
   1  11  -1 0.77611 1.92125   4
   1  11  -1 1.70202 1.84449   6
  -1 -11   1 1.48539 1.91217   6
  -1 -11   1 3.12089 2.13898   1
  -1 -11   1 6.61336 2.07613  10
  -1 -11   1 3.14894 1.68876   4
  -1 -11   1 3.53229 2.07936   7
  -1 -11   1 3.94965 1.81011   3
   0  11  -1 0.14033 2.16097   3
   0  11  -1 1.65368 1.77894   1
   0  11  -1 0.93905 1.74277   6
   0  11  -1 3.07009 2.00406   8
   0  11  -1 8.34953 2.54361   1
   0 -11   1 2.71906 2.14845   7
   0 -11   1 0.71731 1.94777   5
   0 -11   1 1.70766 2.25318   8
   0 -11   1 -4.5124 2.63272  11
  -1  11  -1 4.95912 2.81294   8
  -1  11  -1 6.66570 2.51615   3
  -1  11  -1 1.13236 2.97838   1
   1 -11   1 -2.9363 2.57744  11
   1 -11   1 1.42649 2.22301   7
  -2  11  -1 -1.7294 3.34343   1
  -2  11  -1 0.28308 2.89513   3
  -2  11  -1 2.10253 2.81833   8
   2 -11   1 -2.9724 3.68790   9
   2 -11   1 3.52446 3.07139  11
   7  10  -1 18.8458 2.71028   1
   7  10  -1 15.8613 3.07389   6
   7  10  -1 17.4960 3.07278   1
   7  10  -1 24.0209 3.31961  12
  -7 -10   1 17.0793 3.05669  10
  -7 -10   1 19.5335 3.26897   6
  -7 -10   1 13.3706 2.48951   8
  -7 -10   1 20.7940 3.71114   1
  -7 -10   1 16.4552 3.08075   4
  -7 -10   1 17.3612 3.07532   1
   6  10  -1 6.50390 2.31497  12
   6  10  -1 5.22884 2.26084   6
   6  10  -1 7.75897 2.34611   1
  -6 -10   1 4.09814 2.85443   1
  -6 -10   1 4.77032 2.36867   4
  -6 -10   1 2.78400 1.89991   7
  -6 -10   1 4.89311 1.82002   8
  -6 -10   1 4.70958 2.56531   6
  -6 -10   1 6.37937 2.38437  10
   5  10  -1 11.4129 1.97190   1
   5  10  -1 7.13985 2.11840   4
   5  10  -1 11.4832 2.26154   6
   5  10  -1 13.2594 2.51757   1
  -5 -10   1 13.6154 2.54555   6
  -5 -10   1 14.9016 2.99825   1
  -5 -10   1 7.79673 2.28024  10
  -5 -10   1 7.81016 2.18515   4
  -5 -10   1 9.93994 1.85521   8
  -5 -10   1 14.4916 2.85268   7
   4  10  -1 -0.7668 1.88309   4
   4  10  -1 -0.1195 1.77251   6
   4  10  -1 -2.2087 1.82160   1
   4  10  -1 -0.5751 1.62211  10
  -4 -10   1 -0.0589 1.87939   6
  -4 -10   1 0.44781 1.59100   4
  -4 -10   1 -1.7127 2.05814   1
  -4 -10   1 -0.6179 1.65484   7
  -4 -10   1 0.49040 1.82189  10
   3  10  -1 2.58476 1.65864   1
   3  10  -1 1.78180 1.58820  10
   3  10  -1 2.24967 1.46231   1
   3  10  -1 1.24642 1.58790   6
   3  10  -1 2.62292 1.68301   4
  -3 -10   1 2.84131 1.82745   7
  -3 -10   1 0.94944 1.78436   6
  -3 -10   1 2.98762 2.11981   1
  -3 -10   1 0.13925 1.42133   8
  -3 -10   1 0.07553 1.66648   4
  -3 -10   1 3.10774 1.81476  10
   2  10  -1 1.16910 1.54510   6
   2  10  -1 2.61151 1.52722  10
   2  10  -1 0.06843 1.40177   4
   2  10  -1 0.63542 1.57645   1
   2  10  -1 0.91853 1.72695   1
   2  10  -1 2.55224 1.57158   8
  -2 -10   1 0.94331 1.58114   4
  -2 -10   1 4.73960 1.89060   7
  -2 -10   1 -0.0508 1.68998   1
  -2 -10   1 1.72318 1.66430  10
  -2 -10   1 -0.4156 1.60792   1
  -2 -10   1 2.21107 1.58870   8
  -2 -10   1 2.36252 1.73631   6
   1  10  -1 4.05603 1.95571   1
   1  10  -1 5.69423 1.86245   8
   1  10  -1 3.84004 1.82507  10
   1  10  -1 0.02441 1.29350   6
   1  10  -1 0.75761 1.48597   1
   1  10  -1 3.53610 1.49682   4
  -1 -10   1 2.13017 1.78296   7
  -1 -10   1 1.94007 1.35587   4
  -1 -10   1 4.26958 1.95457   1
  -1 -10   1 2.99317 1.64618  10
  -1 -10   1 4.13393 1.77238   6
  -1 -10   1 4.61952 1.64786   1
  -1 -10   1 3.97882 1.60987   8
   0  10  -1 6.80261 2.22795   1
   0  10  -1 4.52206 1.84712   3
   0  10  -1 2.32070 1.71504   8
   0 -10   1 6.99521 1.83352   7
   0 -10   1 4.38732 1.94018   8
   0 -10   1 3.75721 1.51778   1
  -1  10  -1 12.5681 2.34141   8
  -1  10  -1 10.3963 2.59169   1
  -1  10  -1 15.5558 2.49500   3
   1 -10   1 8.19713 2.49993  11
   1 -10   1 9.20240 2.70591   1
   1 -10   1 10.7299 2.03970   7
  -2  10  -1 0.61493 2.33024   8
  -2  10  -1 0.71748 2.70033   1
  -2  10  -1 -2.3575 2.13743   3
   2 -10   1 3.43501 2.81330   1
   2 -10   1 3.71824 2.55158  11
   2 -10   1 0.26341 1.91728   4
  -3  10  -1 -3.5810 2.60239   3
  -3  10  -1 1.51368 2.75778   8
  -3  10  -1 -3.2657 3.13585   1
   3 -10   1 -1.8912 2.93322  11
   3 -10   1 0.84005 3.20937   1
   3 -10   1 1.33565 3.31855   9
   8   9  -1 29.9370 4.33761   1
   8   9  -1 26.1777 3.37701   6
   8   9  -1 39.0241 5.03298  12
   8   9  -1 27.3885 3.67207   1
  -8  -9   1 33.8044 4.31514   3
  -8  -9   1 28.5523 3.99598   1
  -8  -9   1 43.1657 5.49561  10
  -8  -9   1 26.7175 3.34197   1
  -8  -9   1 38.8729 5.24198   4
   7   9  -1 21.5409 2.83377   1
   7   9  -1 17.8513 3.07346   1
   7   9  -1 19.1664 2.96557  12
   7   9  -1 15.3552 2.84329   6
  -7  -9   1 22.7070 2.99663   8
  -7  -9   1 16.9974 2.48814   1
  -7  -9   1 19.3355 2.93690  10
  -7  -9   1 19.0806 2.76619   4
  -7  -9   1 20.4388 3.28610   1
  -7  -9   1 24.6576 3.12710   6
   6   9  -1 30.6116 3.51478  12
   6   9  -1 29.4643 3.01165   1
   6   9  -1 26.2430 3.06237   1
   6   9  -1 34.5280 3.51176   6
  -6  -9   1 27.8141 3.74114   6
  -6  -9   1 31.6511 3.92778   4
  -6  -9   1 37.7905 4.23088   1
  -6  -9   1 34.6569 3.97545  10
   5   9  -1 36.3625 3.09442   1
   5   9  -1 39.1941 3.51706   4
   5   9  -1 28.9190 3.42482   1
   5   9  -1 35.6718 3.29664   6
  -5  -9   1 39.3024 3.67380  10
  -5  -9   1 41.2705 3.51366   6
  -5  -9   1 42.9310 4.03788   1
  -5  -9   1 36.5042 3.49802   4
   4   9  -1 0.17328 1.21352   1
   4   9  -1 0.64122 1.49104  10
   4   9  -1 -0.9014 1.27240   3
   4   9  -1 -2.7356 1.53326   6
   4   9  -1 0.20468 1.52689   1
   4   9  -1 -0.4982 1.50898   4
  -4  -9   1 -1.7847 1.60206  10
  -4  -9   1 1.39096 1.25758   8
  -4  -9   1 -0.2030 1.52532   4
  -4  -9   1 -0.8910 1.76936   1
  -4  -9   1 0.96911 1.61119   6
  -4  -9   1 -2.6830 1.52972   7
   3   9  -1 0.81542 1.35435   6
   3   9  -1 2.51882 1.44050   4
   3   9  -1 4.00287 1.34222   8
   3   9  -1 2.59738 1.40877  10
   3   9  -1 -0.5417 1.46199   1
   3   9  -1 2.13692 1.35893   1
  -3  -9   1 3.30327 1.70396   1
  -3  -9   1 2.48404 1.53307  10
  -3  -9   1 2.82173 1.45058   4
  -3  -9   1 2.89118 1.36200   8
  -3  -9   1 4.65468 1.35310   1
  -3  -9   1 2.47301 1.53459   7
  -3  -9   1 4.32324 1.32343   3
  -3  -9   1 0.75801 1.48933   6
   2   9  -1 2.97312 1.38392   4
   2   9  -1 2.61787 1.48758   6
   2   9  -1 3.56176 1.37441   8
   2   9  -1 3.22665 1.54875   1
   2   9  -1 3.92838 1.35761  10
   2   9  -1 3.65978 1.44517   1
  -2  -9   1 3.44436 1.64146   1
  -2  -9   1 3.25183 1.39511   4
  -2  -9   1 3.90878 1.53451   1
  -2  -9   1 0.11213 1.17450   3
  -2  -9   1 5.24307 1.70075   6
  -2  -9   1 1.29978 1.19511   5
  -2  -9   1 1.22179 1.42642   8
  -2  -9   1 3.62736 1.68685  11
  -2  -9   1 4.97269 1.60219   7
  -2  -9   1 3.96309 1.43393  10
   1   9  -1 2.14884 1.37955   8
   1   9  -1 2.27403 1.29381   3
   1   9  -1 1.53929 1.20854   1
   1   9  -1 2.20501 1.56296   1
   1   9  -1 0.10710 1.12271   4
   1   9  -1 1.17259 1.23087   6
   1   9  -1 2.14164 1.33519  10
  -1  -9   1 -0.8015 1.05958   4
  -1  -9   1 1.22483 1.46986   8
  -1  -9   1 0.12329 1.36184   6
  -1  -9   1 1.29854 1.20162  10
  -1  -9   1 1.81945 1.42870   7
  -1  -9   1 -1.5880 1.46397   1
  -1  -9   1 -0.7047 1.20014  11
  -1  -9   1 1.49809 1.23345   3
  -1  -9   1 1.39539 1.42161   1
   0   9  -1 2.08282 1.31925   4
   0   9  -1 3.15734 1.58271   8
   0   9  -1 -0.5076 1.35159   3
   0   9  -1 0.00604 1.18411   1
   0   9  -1 1.26196 1.09896   6
   0   9  -1 1.40223 1.75081   1
   0  -9   1 0.05624 1.27519  11
   0  -9   1 0.27771 1.24412   6
   0  -9   1 0.25828 1.41872   7
   0  -9   1 -1.5229 1.29263   3
   0  -9   1 1.31771 1.29392   1
   0  -9   1 0.97086 1.77125   1
   0  -9   1 2.86615 1.65146   8
  -1   9  -1 10.4196 1.83620   8
  -1   9  -1 10.7738 1.81734   3
  -1   9  -1 4.48254 2.15514   1
   1  -9   1 4.48230 1.65470   7
   1  -9   1 5.72898 1.54848   1
   1  -9   1 8.53753 1.87409   8
   1  -9   1 9.90017 1.67423   6
   1  -9   1 4.78350 1.79852  11
   1  -9   1 10.1093 2.24477   1
  -2   9  -1 0.65634 1.84214   8
  -2   9  -1 -0.3176 1.66736   3
  -2   9  -1 -3.0300 2.22437   1
   2  -9   1 -0.0563 2.27249   1
   2  -9   1 0.02579 1.98977   2
  -3   9  -1 -1.6680 2.14480   8
  -3   9  -1 0.84435 2.67475   1
  -3   9  -1 0.85254 2.27888   3
   3  -9   1 -1.0898 1.87424   5
   3  -9   1 -1.0348 2.48323  11
   3  -9   1 1.18944 2.77317   1
   3  -9   1 0.42627 3.09364   9
  -4   9  -1 4.93973 1.94445   6
  -4   9  -1 3.62233 2.05798   1
  -4   9  -1 4.96667 2.79278   3
  -4   9  -1 4.47904 3.42515   1
  -4   9  -1 3.84855 2.92050   8
   4  -9   1 -0.8625 3.32469   9
   4  -9   1 -5.1251 3.22676  11
   4  -9   1 4.97978 2.31733   1
   4  -9   1 -0.2766 3.27503   1
   4  -9   1 -0.2058 2.68755   5
   4  -9   1 7.83788 2.48358   6
   8   8  -1 20.1523 3.17071   1
   8   8  -1 15.2507 3.11498  12
   8   8  -1 14.4018 2.73832   6
   8   8  -1 14.5770 2.68819   1
  -8  -8   1 16.7017 3.09683   6
  -8  -8   1 17.9919 2.67271   3
  -8  -8   1 17.0790 2.71069   1
  -8  -8   1 20.0323 2.91200   4
  -8  -8   1 15.7487 3.13603   1
  -8  -8   1 17.1958 3.13227  10
   7   8  -1 37.6166 3.83403  12
   7   8  -1 28.8791 3.97834   1
   7   8  -1 26.7164 3.40720   6
   7   8  -1 37.2510 3.43000   1
  -7  -8   1 31.2573 3.88253   6
  -7  -8   1 34.0042 3.46136   3
  -7  -8   1 29.6983 4.09723  10
  -7  -8   1 35.7654 4.26330   1
  -7  -8   1 22.5551 2.80108   4
  -7  -8   1 25.5003 3.20732   1
   6   8  -1 41.3928 3.54742   6
   6   8  -1 47.2182 3.71662  12
   6   8  -1 50.5072 3.43680   1
   6   8  -1 47.8873 3.96969   1
  -6  -8   1 53.4703 4.25640   1
  -6  -8   1 48.9891 3.83463   6
  -6  -8   1 45.2480 3.89225  10
  -6  -8   1 42.4118 3.70264   1
  -6  -8   1 48.0589 3.96250   4
   5   8  -1 0.12514 1.37093   3
   5   8  -1 0.14162 1.58030   1
   5   8  -1 0.30677 1.13436   1
   5   8  -1 0.52825 1.37147   6
  -5  -8   1 0.20906 1.44626   4
  -5  -8   1 0.45410 1.49796  10
  -5  -8   1 -0.1458 1.80100   1
  -5  -8   1 0.56677 1.18734   8
  -5  -8   1 1.32432 1.56822   6
   4   8  -1 44.5263 3.28006   6
   4   8  -1 46.2044 3.08046   3
   4   8  -1 44.7848 3.10107   1
   4   8  -1 50.8998 3.42275   4
   4   8  -1 40.6040 3.39728   1
   4   8  -1 45.2583 2.96864   8
  -4  -8   1 44.6236 3.13964   7
  -4  -8   1 47.3742 3.15844   1
  -4  -8   1 48.0129 3.32022   4
  -4  -8   1 51.5773 3.23321   8
  -4  -8   1 48.9103 3.41889   6
  -4  -8   1 49.5478 3.41572  10
  -4  -8   1 42.3899 3.13439   3
  -4  -8   1 49.2977 3.61798   1
   3   8  -1 45.2010 3.02222   1
   3   8  -1 40.5527 3.01057   6
   3   8  -1 43.9621 3.10870  10
   3   8  -1 45.3989 2.91014   8
   3   8  -1 51.1393 3.35491   4
   3   8  -1 43.0158 2.95439   3
   3   8  -1 38.9576 3.08100   1
  -3  -8   1 48.6976 3.02126   1
  -3  -8   1 41.8968 3.07720   4
  -3  -8   1 39.9384 3.19411  10
  -3  -8   1 42.9523 3.01244   7
  -3  -8   1 43.5609 2.99342   8
  -3  -8   1 44.3081 2.97888   3
  -3  -8   1 48.8388 3.51700   1
  -3  -8   1 46.2473 3.26246   6
   2   8  -1 53.7621 3.14068   8
   2   8  -1 53.0915 3.14269   3
   2   8  -1 42.9511 3.26176   1
   2   8  -1 49.2172 3.18630   6
   2   8  -1 52.8724 3.36802   1
   2   8  -1 54.0282 3.35267  10
   2   8  -1 53.1517 3.30774   4
  -2  -8   1 47.8490 3.23166   3
  -2  -8   1 48.8744 3.24117   4
  -2  -8   1 54.2253 3.17226   7
  -2  -8   1 55.3423 3.41960   6
  -2  -8   1 48.0079 3.26515   8
  -2  -8   1 59.2943 3.57697   1
  -2  -8   1 47.7966 3.25452   1
  -2  -8   1 48.8283 3.29720  10
   1   8  -1 11.2185 1.53868  10
   1   8  -1 12.3281 1.61969   4
   1   8  -1 13.4557 1.88542   1
   1   8  -1 14.7201 1.95403   8
   1   8  -1 17.6974 2.32124   1
   1   8  -1 15.8471 1.74971   6
   1   8  -1 14.8623 1.99276   3
  -1  -8   1 14.8602 2.18322   1
  -1  -8   1 13.0963 1.57129   4
  -1  -8   1 16.4831 2.01207   7
  -1  -8   1 15.2028 1.79684   8
  -1  -8   1 18.0229 2.03716   6
  -1  -8   1 16.0394 2.26452   1
  -1  -8   1 15.1311 2.08644   5
  -1  -8   1 13.9359 2.03450   3
  -1  -8   1 13.2853 1.69498  11
  -1  -8   1 11.0324 1.51054  10
   0   8  -1 8.11577 1.27764   4
   0   8  -1 7.43533 1.50612   8
   0   8  -1 9.48454 1.47419   3
   0   8  -1 6.30095 1.21160   1
   0   8  -1 6.91289 1.17908   6
   0   8  -1 7.78454 1.77408   1
   0   8  -1 9.49874 1.41032  10
   0  -8   1 9.21879 1.41279   6
   0  -8   1 8.97833 1.44328   7
   0  -8   1 5.78547 1.39541   3
   0  -8   1 6.05822 1.35374   5
   0  -8   1 7.90550 1.37127  10
   0  -8   1 7.17245 1.21355   4
   0  -8   1 10.0298 1.69465   1
   0  -8   1 6.55506 1.61652   8
   0  -8   1 8.76849 1.53859   1
   0  -8   1 7.58619 1.50168  11
  -1   8  -1 2.48865 1.65787   1
  -1   8  -1 2.28289 1.49025   8
  -1   8  -1 2.59197 1.32332   1
  -1   8  -1 0.94769 1.32460   3
  -1   8  -1 2.02570 1.15822   6
  -1   8  -1 2.84073 1.17756   4
   1  -8   1 3.06200 1.60400   2
   1  -8   1 1.40911 1.12765   1
   1  -8   1 0.68898 1.41482  11
   1  -8   1 3.02106 1.26227   7
   1  -8   1 0.77699 1.30857   6
   1  -8   1 1.91176 1.37686  10
   1  -8   1 2.35590 1.27518   4
   1  -8   1 3.05381 1.27829   5
   1  -8   1 1.49067 1.58876   8
  -2   8  -1 1.86960 1.91314   1
  -2   8  -1 2.73929 1.59568   8
  -2   8  -1 2.81722 1.51830   3
   2  -8   1 2.46611 1.86642   2
   2  -8   1 2.34841 1.98238   1
   2  -8   1 1.85215 1.70595  11
   2  -8   1 -1.1122 1.89414   1
  -3   8  -1 1.83155 1.91672   3
  -3   8  -1 3.35136 1.79832   8
  -3   8  -1 1.86741 2.30489   1
   3  -8   1 -0.8979 2.19553   9
   3  -8   1 0.27594 2.15219   1
   3  -8   1 0.19344 1.50058   1
   3  -8   1 -1.4824 1.68605  11
  -4   8  -1 4.93769 2.51645   3
  -4   8  -1 1.21757 1.82184   5
  -4   8  -1 2.63003 2.32087  11
  -4   8  -1 6.49153 2.80553   1
  -4   8  -1 3.89220 1.77322   1
  -4   8  -1 5.60573 1.64280   6
  -4   8  -1 5.37420 2.12503   8
   4  -8   1 0.63207 2.20488   5
   4  -8   1 1.29401 2.58752   9
   4  -8   1 9.61217 2.58084   2
   4  -8   1 0.51230 3.20670  11
   4  -8   1 6.07807 1.99274   6
   4  -8   1 4.29204 1.98848   1
   4  -8   1 2.91994 2.80229   1
  -5   8  -1 4.73805 3.10068   3
  -5   8  -1 1.52529 2.26785   1
  -5   8  -1 5.73698 3.37273   1
  -5   8  -1 3.00809 2.33494   4
  -5   8  -1 2.44142 2.57359  11
  -5   8  -1 -1.0133 2.48784   5
  -5   8  -1 3.94879 2.99781   8
  -5   8  -1 -2.8972 2.09463   6
   5  -8   1 4.96584 3.10033   5
   5  -8   1 4.95851 2.60864   6
   5  -8   1 2.30822 2.59057   1
   5  -8   1 -1.3219 3.58111  11
   5  -8   1 -0.0642 3.53631   9
   5  -8   1 7.39355 3.50767   2
   5  -8   1 2.55198 3.10044   1
   9   7  -1 15.2998 2.65710   6
   9   7  -1 13.1930 2.90361   6
   9   7  -1 16.7604 3.13265   1
   9   7  -1 20.9018 3.22742   1
  -9  -7   1 16.0013 3.41889   4
  -9  -7   1 16.7943 3.40176   3
  -9  -7   1 19.0913 3.33750   1
  -9  -7   1 18.6925 3.45620  11
  -9  -7   1 21.2519 3.19044   1
  -9  -7   1 17.0149 3.15784   6
  -9  -7   1 18.1055 3.48529  10
   8   7  -1 43.0841 4.16692   6
   8   7  -1 53.5125 4.49226   1
   8   7  -1 49.5157 4.53892   1
   8   7  -1 48.3458 3.94718   6
   8   7  -1 44.3008 4.68903  12
  -8  -7   1 44.5565 4.81949   4
  -8  -7   1 48.0334 4.50975   6
  -8  -7   1 52.9656 4.07786   1
  -8  -7   1 46.6395 4.96961  10
  -8  -7   1 41.7673 4.29397   3
  -8  -7   1 51.7789 4.70520   1
   7   7  -1 148.478 7.28718  12
   7   7  -1 140.760 6.98479   1
   7   7  -1 130.759 6.94878   6
   7   7  -1 138.242 7.11995   1
  -7  -7   1 147.179 7.20018   6
  -7  -7   1 133.587 7.13967   3
  -7  -7   1 144.258 7.38239   1
  -7  -7   1 136.093 7.22608   4
  -7  -7   1 131.396 6.87963   1
  -7  -7   1 127.588 7.20301  10
   6   7  -1 7.67450 1.56153   1
   6   7  -1 8.91905 1.84055   1
   6   7  -1 8.32830 1.78574   6
   6   7  -1 11.1384 1.74819  12
  -6  -7   1 7.48154 1.64252   4
  -6  -7   1 8.04669 1.79362  10
  -6  -7   1 7.41520 1.97455   1
  -6  -7   1 6.94687 1.84137   6
  -6  -7   1 9.33424 1.59970   1
  -6  -7   1 9.54994 1.64046   3
   5   7  -1 13.7257 2.00560  12
   5   7  -1 12.7961 1.80969   1
   5   7  -1 11.8747 1.58591   1
   5   7  -1 12.6499 1.79416   6
   5   7  -1 9.78036 1.41888   8
   5   7  -1 15.3782 2.10091   3
  -5  -7   1 13.5275 1.65894   8
  -5  -7   1 13.7912 1.84697   1
  -5  -7   1 12.7158 1.81032   6
  -5  -7   1 11.2301 1.67378   4
  -5  -7   1 10.7786 1.74551  10
  -5  -7   1 15.6440 2.14577   3
  -5  -7   1 15.2425 2.06415   1
   4   7  -1 167.408 8.08489   6
   4   7  -1 179.228 8.04583   4
   4   7  -1 161.747 7.88479   8
   4   7  -1 166.774 8.12521   1
   4   7  -1 183.917 8.17316   3
   4   7  -1 173.666 8.06524   1
  -4  -7   1 170.282 8.01218   4
  -4  -7   1 160.114 8.02047   1
  -4  -7   1 173.672 8.06346  10
  -4  -7   1 185.873 8.26060   1
  -4  -7   1 172.152 8.02120   8
  -4  -7   1 169.486 8.13471   3
  -4  -7   1 179.317 8.18745   6
   3   7  -1 43.0609 2.57640   8
   3   7  -1 44.1252 2.93273   4
   3   7  -1 45.5210 2.85828  10
   3   7  -1 39.5717 2.81052   6
   3   7  -1 39.0993 2.92675   1
   3   7  -1 41.2750 2.68202   3
   3   7  -1 42.4593 2.72257   1
  -3  -7   1 40.7380 2.82773   3
  -3  -7   1 41.1913 3.01003   1
  -3  -7   1 42.8176 2.86654  10
  -3  -7   1 39.4975 2.78623   1
  -3  -7   1 43.4482 2.90873   6
  -3  -7   1 40.3218 2.74747   4
  -3  -7   1 41.1309 2.77193   8
   2   7  -1 74.1457 3.85501   4
   2   7  -1 73.9260 3.85049  10
   2   7  -1 68.7161 3.74145   3
   2   7  -1 69.9019 3.68028   8
   2   7  -1 64.3979 3.74266   1
   2   7  -1 66.6936 3.74711   6
   2   7  -1 69.8064 3.87987   1
  -2  -7   1 66.1573 3.78609  10
  -2  -7   1 68.3201 3.74634   8
  -2  -7   1 66.2312 3.79307   3
  -2  -7   1 67.3951 3.64887   7
  -2  -7   1 77.6809 3.92707   6
  -2  -7   1 72.2679 3.83036   1
  -2  -7   1 74.2143 3.97898   1
  -2  -7   1 65.2688 3.73446   4
   1   7  -1 111.475 5.71255   1
   1   7  -1 112.231 5.68582   6
   1   7  -1 123.644 5.82373   4
   1   7  -1 125.180 5.83901  10
   1   7  -1 121.430 5.84997   1
   1   7  -1 125.063 5.68297   8
   1   7  -1 121.065 5.78276   3
  -1  -7   1 116.476 5.53858   7
  -1  -7   1 115.061 5.84439  11
  -1  -7   1 114.581 5.83442   5
  -1  -7   1 118.135 5.72376   8
  -1  -7   1 117.355 5.79926   3
  -1  -7   1 117.849 5.85912   1
  -1  -7   1 127.050 5.84059   6
  -1  -7   1 113.264 5.70887   4
  -1  -7   1 113.175 5.73883  10
  -1  -7   1 126.498 5.87489   1
   0   7  -1 4.81580 1.14609  10
   0   7  -1 6.06040 1.24219   3
   0   7  -1 5.92612 1.43241   1
   0   7  -1 4.77760 1.09909   4
   0   7  -1 5.11009 1.09011   6
   0   7  -1 5.41645 1.15551   1
   0  -7   1 4.71609 0.98822   4
   0  -7   1 5.60711 1.08585  10
   0  -7   1 6.14927 1.12937   7
   0  -7   1 6.59601 1.54303   1
   0  -7   1 8.01396 1.39177   1
   0  -7   1 5.00941 1.21273   5
   0  -7   1 5.85141 1.35050   3
   0  -7   1 7.42416 1.41522   8
   0  -7   1 5.63853 1.30281  11
   0  -7   1 6.35634 1.24680   6
  -1   7  -1 3.62294 1.21643   8
  -1   7  -1 4.31552 1.10554   4
  -1   7  -1 2.73272 1.03729   3
  -1   7  -1 1.99985 0.99460   1
  -1   7  -1 3.08612 1.45428   1
  -1   7  -1 1.75335 0.87950   6
  -1   7  -1 3.93449 1.08343  10
   1  -7   1 4.09337 1.09835   4
   1  -7   1 2.25623 1.18669   6
   1  -7   1 3.19356 1.32527   8
   1  -7   1 2.77802 1.21103  10
   1  -7   1 2.25861 1.32303  11
   1  -7   1 3.10842 1.10337   1
   1  -7   1 3.24285 1.55524   2
   1  -7   1 3.02970 1.06122   5
   1  -7   1 2.12721 1.47935   1
   1  -7   1 3.11436 1.00305   7
  -2   7  -1 16.3791 2.30255   8
  -2   7  -1 12.3885 1.85488   3
  -2   7  -1 7.92086 1.25883   6
  -2   7  -1 10.7434 1.48249   4
  -2   7  -1 9.41281 1.35887   1
  -2   7  -1 13.8277 2.11392   1
   2  -7   1 7.06388 1.36894   5
   2  -7   1 11.4751 1.93456   1
   2  -7   1 11.8431 1.79958  11
   2  -7   1 8.93420 1.85893   9
   2  -7   1 12.1668 1.57791   6
   2  -7   1 11.7017 1.46603   4
   2  -7   1 15.1014 2.03416   2
   2  -7   1 10.0766 1.53946   1
  -3   7  -1 1.49276 1.50002   8
  -3   7  -1 0.47346 1.77135   1
  -3   7  -1 1.79649 1.01950   6
  -3   7  -1 1.79942 1.41005   5
  -3   7  -1 0.60044 1.33678  11
  -3   7  -1 1.34734 1.61125   3
  -3   7  -1 -1.2735 1.06373   1
  -3   7  -1 1.63621 1.54188   4
   3  -7   1 2.45967 1.73942   2
   3  -7   1 -0.1746 1.70358  11
   3  -7   1 1.72701 1.23505   6
   3  -7   1 0.43596 1.82692   1
   3  -7   1 -0.0223 1.22789   1
   3  -7   1 2.20991 1.50716   5
   3  -7   1 -0.2844 1.81905   9
  -4   7  -1 10.0211 2.34974   1
  -4   7  -1 6.40742 2.34224   3
  -4   7  -1 6.38473 1.75181   4
  -4   7  -1 7.52088 1.64540   1
  -4   7  -1 9.93145 1.59403   6
  -4   7  -1 5.58655 1.82602   5
  -4   7  -1 8.19298 1.94311   8
  -4   7  -1 7.36573 2.02511  11
   4  -7   1 3.58403 2.39923  11
   4  -7   1 8.73309 2.35629   9
   4  -7   1 13.2558 2.44925   2
   4  -7   1 10.9266 2.54718   1
   4  -7   1 6.03228 1.74063   1
   4  -7   1 10.3704 1.87661   6
  -5   7  -1 6.11397 2.10987   6
  -5   7  -1 7.99883 2.38071   8
  -5   7  -1 7.28372 2.13225  10
  -5   7  -1 4.35862 2.05039   1
  -5   7  -1 3.74300 2.49589   5
  -5   7  -1 5.27419 2.35719  11
  -5   7  -1 1.40085 2.17312   4
  -5   7  -1 6.42310 2.79849   1
  -5   7  -1 8.32276 2.67856   3
   5  -7   1 -0.8236 4.45939  11
   5  -7   1 11.1395 2.92345   2
   5  -7   1 6.86781 2.77683   1
   5  -7   1 5.66387 2.21770   6
   5  -7   1 4.03839 2.14518   1
   5  -7   1 -1.2949 4.06220   9
   5  -7   1 4.24877 2.59427   5
  -6   7  -1 6.65410 2.51617   6
  -6   7  -1 8.39329 2.72726  10
  -6   7  -1 12.2765 3.52188   3
  -6   7  -1 9.63446 3.43584   8
  -6   7  -1 8.36671 3.23642  11
  -6   7  -1 10.8020 3.47892   1
  -6   7  -1 7.16452 2.85646   1
  -6   7  -1 3.03679 2.79357   5
  -6   7  -1 3.09664 2.86840   4
   6  -7   1 6.88142 3.70731   2
   6  -7   1 6.99939 4.11462  11
   6  -7   1 9.42620 3.41493   1
   6  -7   1 5.89084 3.82511   9
   6  -7   1 2.16477 4.31869   5
   6  -7   1 9.89639 2.93686   6
   6  -7   1 8.77475 2.98960   1
   9   6  -1 24.3180 3.14638   1
   9   6  -1 20.8320 3.04787   1
   9   6  -1 20.0039 2.92078   6
   9   6  -1 22.7830 2.81367   6
  -9  -6   1 21.6014 2.64812   8
  -9  -6   1 19.1599 3.42231  10
  -9  -6   1 22.8299 3.40802   3
  -9  -6   1 25.4424 3.29863   4
  -9  -6   1 31.2917 4.56149   6
  -9  -6   1 24.3072 3.35825   1
  -9  -6   1 20.8211 2.99304   1
  -9  -6   1 20.8759 3.41268  11
   8   6  -1 24.4438 2.89815   6
   8   6  -1 17.9260 2.42531   6
   8   6  -1 19.4122 2.56683   1
   8   6  -1 19.0646 2.55504   1
  -8  -6   1 20.7284 2.69336   1
  -8  -6   1 23.1808 2.98175   8
  -8  -6   1 18.5855 2.80863  11
  -8  -6   1 20.8388 2.85371  10
  -8  -6   1 17.2504 2.38237   1
  -8  -6   1 21.0265 2.68440   4
  -8  -6   1 21.2211 2.58884   6
  -8  -6   1 22.8486 3.46766   3
   7   6  -1 51.0793 3.82297  12
   7   6  -1 49.2914 3.75290   1
   7   6  -1 45.3059 3.57762   1
   7   6  -1 44.5811 3.50906   6
  -7  -6   1 49.3731 3.92996   4
  -7  -6   1 48.0821 3.88929   1
  -7  -6   1 48.1764 3.64290   3
  -7  -6   1 52.5158 4.06133  10
  -7  -6   1 47.2186 3.43750   1
  -7  -6   1 51.0569 3.78410   6
   6   6  -1 48.1710 3.09563   1
   6   6  -1 49.5117 3.26849  12
   6   6  -1 43.3680 3.38567   1
   6   6  -1 40.7721 3.16611   6
   6   6  -1 47.1758 3.14847   3
  -6  -6   1 50.6235 3.20688   9
  -6  -6   1 41.6212 3.40001   4
  -6  -6   1 41.5561 3.34385   6
  -6  -6   1 44.2143 3.31163   3
  -6  -6   1 54.3207 3.88036   8
  -6  -6   1 51.0526 3.51445   1
  -6  -6   1 37.4181 2.88708   1
  -6  -6   1 44.0626 3.43453  10
   5   6  -1 179.513 8.05779   1
   5   6  -1 166.799 8.03124   6
   5   6  -1 170.878 8.09385   3
   5   6  -1 173.145 8.12393   1
  -5  -6   1 167.549 8.21161   3
  -5  -6   1 162.193 7.96328   1
  -5  -6   1 171.063 8.04994   4
  -5  -6   1 190.585 8.26227   1
  -5  -6   1 184.255 8.15012   6
  -5  -6   1 173.564 8.11726  10
  -5  -6   1 165.475 8.07296   8
   4   6  -1 47.9836 3.01763   3
   4   6  -1 44.4058 3.06446   1
   4   6  -1 46.3950 2.83613   1
   4   6  -1 45.2354 2.97944   4
   4   6  -1 43.4136 3.00019   6
   4   6  -1 44.9550 2.74998   8
  -4  -6   1 46.4233 3.02603  10
  -4  -6   1 49.0595 3.15032   1
  -4  -6   1 44.9951 2.97203   3
  -4  -6   1 47.1308 2.87563   8
  -4  -6   1 43.0419 2.89081   4
  -4  -6   1 47.7480 2.96589   6
  -4  -6   1 46.2411 2.85506   1
   3   6  -1 1.78120 0.80204   8
   3   6  -1 2.64841 0.93387   1
   3   6  -1 2.46440 1.08219   1
   3   6  -1 3.10332 1.02893   6
   3   6  -1 5.01524 1.06149   3
   3   6  -1 2.39896 0.92181   4
   3   6  -1 3.41978 0.95302  10
  -3  -6   1 2.76564 0.96862   8
  -3  -6   1 3.94439 1.13703   6
  -3  -6   1 3.30140 1.01820  10
  -3  -6   1 3.13132 1.13319   1
  -3  -6   1 2.34304 1.00160   1
  -3  -6   1 3.39551 1.01989   3
  -3  -6   1 3.17442 0.89565   4
   2   6  -1 130.624 6.02394   1
   2   6  -1 122.563 5.96927   6
   2   6  -1 131.514 6.02232   3
   2   6  -1 134.211 6.00908   4
   2   6  -1 118.384 5.96520   1
   2   6  -1 128.193 5.88546   8
   2   6  -1 131.961 6.00237  10
  -2  -6   1 133.552 6.09620   1
  -2  -6   1 121.085 5.98167   3
  -2  -6   1 131.032 6.03573   6
  -2  -6   1 122.977 5.95196  10
  -2  -6   1 122.112 5.93308   4
  -2  -6   1 126.150 6.03723   1
  -2  -6   1 125.986 5.91330   8
   1   6  -1 181.270 7.66298   4
   1   6  -1 177.547 7.53204   8
   1   6  -1 174.240 7.68007   1
   1   6  -1 172.758 7.64283   3
   1   6  -1 172.958 7.66048  10
   1   6  -1 154.273 7.55223   1
   1   6  -1 153.068 7.53407   6
  -1  -6   1 170.438 7.65723   1
  -1  -6   1 163.441 7.39484   7
  -1  -6   1 162.963 7.53391   8
  -1  -6   1 157.787 7.58826  10
  -1  -6   1 174.209 7.65518   6
  -1  -6   1 165.321 7.64598   3
  -1  -6   1 162.482 7.66347   1
  -1  -6   1 165.030 7.59785   4
   0   6  -1 4.44781 1.17720   1
   0   6  -1 6.08514 1.06808   8
   0   6  -1 6.95320 1.11712  10
   0   6  -1 5.86424 1.02704   4
   0   6  -1 5.97754 0.94924   6
   0   6  -1 4.25792 0.96226   1
   0   6  -1 5.60195 1.00381   3
   0  -6   1 5.18398 1.01806   1
   0  -6   1 5.53927 1.06423  11
   0  -6   1 5.40145 0.94742   7
   0  -6   1 6.04224 1.21790   3
   0  -6   1 5.51429 1.06499  10
   0  -6   1 5.70519 1.07618   6
   0  -6   1 6.12585 1.14185   8
   0  -6   1 5.00024 1.15029   1
   0  -6   1 6.19221 1.10950   4
   0  -6   1 5.18467 1.08389   5
  -1   6  -1 25.6212 2.12249  10
  -1   6  -1 26.4573 2.12524   4
  -1   6  -1 18.7511 1.86800   1
  -1   6  -1 29.4400 2.20329   3
  -1   6  -1 23.4984 1.85845   6
  -1   6  -1 26.1872 2.39478   1
  -1   6  -1 24.3437 2.09001   8
   1  -6   1 22.4196 2.10590   5
   1  -6   1 27.6290 2.14686   6
   1  -6   1 21.7131 2.07614   4
   1  -6   1 24.6007 2.17438   8
   1  -6   1 24.3486 2.08842   1
   1  -6   1 20.9002 2.21425  10
   1  -6   1 24.6974 2.42508   2
   1  -6   1 24.3524 2.32160  11
   1  -6   1 24.7541 2.40597   1
   1  -6   1 19.0210 1.68204   7
  -2   6  -1 8.95147 1.38998   5
  -2   6  -1 12.0927 1.79988  10
  -2   6  -1 10.8083 1.40715   1
  -2   6  -1 11.7469 1.58861  11
  -2   6  -1 9.72656 1.68954   1
  -2   6  -1 12.2044 1.46291   8
  -2   6  -1 9.64646 1.26183   4
  -2   6  -1 11.1208 1.55150   3
   2  -6   1 11.3955 1.67210   1
   2  -6   1 8.19416 1.67497   9
   2  -6   1 6.68022 1.30557   5
   2  -6   1 10.5089 1.39360   6
   2  -6   1 11.3812 1.71626   1
   2  -6   1 9.73167 1.56023  11
   2  -6   1 8.71577 1.34459   4
   2  -6   1 11.7204 1.82620   2
  -3   6  -1 25.6545 2.46147   8
  -3   6  -1 24.4441 2.55776  11
  -3   6  -1 25.2733 2.87862   1
  -3   6  -1 19.0835 1.93782   6
  -3   6  -1 21.3739 2.64844   3
  -3   6  -1 20.6850 2.46430   4
  -3   6  -1 23.8398 2.40070  10
  -3   6  -1 21.4133 2.02542   1
  -3   6  -1 27.6636 2.55124   5
   3  -6   1 31.6905 2.76311   2
   3  -6   1 21.2892 2.17291   6
   3  -6   1 23.3544 2.24761   1
   3  -6   1 21.3158 2.76276   1
   3  -6   1 16.1575 2.19703  11
   3  -6   1 26.7239 2.60928   5
   3  -6   1 24.4634 3.01110   9
   3  -6   1 20.5025 2.35924   4
  -4   6  -1 3.46732 1.37086  10
  -4   6  -1 1.95117 1.60175   8
  -4   6  -1 3.08852 1.61809  11
  -4   6  -1 1.40688 1.46799   5
  -4   6  -1 5.68902 1.99806   1
  -4   6  -1 6.34891 1.77116   3
  -4   6  -1 4.61436 1.41934   1
  -4   6  -1 1.23611 1.41254   4
  -4   6  -1 5.69738 1.36983   6
   4  -6   1 1.93099 1.89000   2
   4  -6   1 3.62173 1.71246   5
   4  -6   1 3.56236 1.92491   9
   4  -6   1 2.55869 1.42487   1
   4  -6   1 5.59293 1.98287  11
   4  -6   1 4.45429 1.94518   1
   4  -6   1 3.08350 1.46602   6
  -5   6  -1 12.9593 2.29894   8
  -5   6  -1 11.4952 1.94975   6
  -5   6  -1 13.4253 2.16253  11
  -5   6  -1 14.0574 2.18681  10
  -5   6  -1 8.74656 1.98885   1
  -5   6  -1 14.8787 2.30649   5
  -5   6  -1 9.00232 2.08657   4
  -5   6  -1 14.2622 2.59219   1
  -5   6  -1 13.1615 2.39369   3
   5  -6   1 15.0697 2.22665   6
   5  -6   1 12.6287 2.63771   9
   5  -6   1 12.2234 2.73668   5
   5  -6   1 12.7373 2.14502   1
   5  -6   1 17.6752 3.00159   2
   5  -6   1 11.9186 2.45531   1
   5  -6   1 6.02520 2.70391  11
  -6   6  -1 9.78634 2.68697   4
  -6   6  -1 10.9282 2.52729  10
  -6   6  -1 11.7541 2.86000   5
  -6   6  -1 10.6911 2.71520  11
  -6   6  -1 15.7801 2.99785   8
  -6   6  -1 9.09933 2.77832   1
  -6   6  -1 8.05756 2.93694   1
  -6   6  -1 9.89072 2.36387   6
  -6   6  -1 9.00660 2.96971   3
   6  -6   1 14.1623 2.67105   1
   6  -6   1 15.8380 3.38683   2
   6  -6   1 10.6201 3.15727   1
   6  -6   1 9.68242 2.56556   6
   6  -6   1 12.0650 3.55339  11
   6  -6   1 12.0649 3.14117   5
   9   5  -1 7.70261 2.25846   6
   9   5  -1 11.7704 2.29515   6
   9   5  -1 8.19278 2.47775   1
   9   5  -1 11.0109 2.65823   1
  -9  -5   1 8.68570 2.39569   1
  -9  -5   1 9.86227 2.93119   1
  -9  -5   1 7.08523 2.92639   4
  -9  -5   1 13.1049 2.57464   8
  -9  -5   1 15.1328 2.98763  11
  -9  -5   1 7.38315 2.90668   3
  -9  -5   1 7.24362 3.38339  10
   8   5  -1 3.83838 1.65953   6
   8   5  -1 3.89431 1.94618   1
   8   5  -1 2.20720 1.89766   1
   8   5  -1 1.60939 1.78719   6
  -8  -5   1 4.01385 2.03887   3
  -8  -5   1 5.47809 2.04901  11
  -8  -5   1 2.22525 2.07160   1
  -8  -5   1 3.38195 2.09339   4
  -8  -5   1 4.36306 1.91004   6
  -8  -5   1 5.18733 1.81625   1
  -8  -5   1 5.43049 1.66522   8
  -8  -5   1 2.53824 2.42220  10
   7   5  -1 5.05943 1.53321   6
   7   5  -1 4.54940 1.62391   1
   7   5  -1 5.07936 1.52161   1
   7   5  -1 3.04139 1.36865   6
  -7  -5   1 6.60731 1.96195  10
  -7  -5   1 6.55272 1.75469   3
  -7  -5   1 8.64219 1.75966   6
  -7  -5   1 8.08363 1.62956   8
  -7  -5   1 6.56057 1.59763   1
  -7  -5   1 6.96979 1.82849   1
  -7  -5   1 7.76321 1.76952  11
  -7  -5   1 5.79757 1.82377   4
   6   5  -1 152.043 7.12309  12
   6   5  -1 149.892 6.92655   1
   6   5  -1 139.492 6.93565   1
   6   5  -1 138.991 6.88849   6
  -6  -5   1 140.329 6.97286   8
  -6  -5   1 135.529 6.82049   1
  -6  -5   1 137.990 7.06766  10
  -6  -5   1 152.824 7.00615   6
  -6  -5   1 146.938 7.07817   4
  -6  -5   1 153.569 7.21894   9
  -6  -5   1 154.151 7.06210   1
  -6  -5   1 142.867 7.12689   3
   5   5  -1 74.1878 3.81146   1
   5   5  -1 71.0355 3.87324  12
   5   5  -1 66.8911 3.73602   6
   5   5  -1 66.9247 3.84235   3
   5   5  -1 66.0929 3.81360   1
  -5  -5   1 65.8850 3.65229   1
  -5  -5   1 67.7917 3.90100  10
  -5  -5   1 66.4965 3.81913   4
  -5  -5   1 72.9359 3.94600   1
  -5  -5   1 68.2934 3.92262   3
  -5  -5   1 71.7232 3.84285   8
  -5  -5   1 71.2554 3.85311   6
   4   5  -1 3.16256 1.01662   6
   4   5  -1 3.15977 1.00402   1
   4   5  -1 4.32161 1.10370   1
   4   5  -1 2.09370 0.85950   8
   4   5  -1 4.19527 1.04935   3
   4   5  -1 4.84221 0.99220  12
  -4  -5   1 3.42035 0.91967   1
  -4  -5   1 4.29601 1.23336   3
  -4  -5   1 2.89276 0.93470   4
  -4  -5   1 2.92427 1.13937   1
  -4  -5   1 3.73134 1.08302   8
  -4  -5   1 4.03793 1.12853   6
  -4  -5   1 4.34974 1.06313  10
   3   5  -1 91.8797 4.46973   6
   3   5  -1 94.9152 4.56129   3
   3   5  -1 93.2524 4.49343   4
   3   5  -1 96.8849 4.52366  10
   3   5  -1 85.4587 4.46831   1
   3   5  -1 90.4735 4.39556   8
   3   5  -1 87.5040 4.50357   1
  -3  -5   1 89.2719 4.45212  10
  -3  -5   1 87.3869 4.42673   8
  -3  -5   1 89.7991 4.49055   1
  -3  -5   1 88.3083 4.41785   4
  -3  -5   1 90.6921 4.55377   3
  -3  -5   1 97.7294 4.53104   6
  -3  -5   1 98.7664 4.56677   1
   2   5  -1 254.633 10.7721   3
   2   5  -1 252.114 10.6551   8
   2   5  -1 251.901 10.7291  10
   2   5  -1 231.953 10.7077   1
   2   5  -1 258.674 10.7406   4
   2   5  -1 245.573 10.7434   1
   2   5  -1 232.203 10.6994   6
  -2  -5   1 235.855 10.6926  10
  -2  -5   1 234.522 10.7405   1
  -2  -5   1 240.501 10.6595   8
  -2  -5   1 253.474 10.7494   6
  -2  -5   1 258.932 10.7842   1
  -2  -5   1 239.220 10.7422   3
  -2  -5   1 228.868 10.6438   4
   1   5  -1 236.159 11.2654   1
   1   5  -1 245.116 11.2897   6
   1   5  -1 277.760 11.3678  10
   1   5  -1 268.239 11.3711   1
   1   5  -1 266.386 11.3298   3
   1   5  -1 271.984 11.2317   8
   1   5  -1 267.399 11.3296   4
  -1  -5   1 275.208 11.3586   6
  -1  -5   1 246.439 11.2917  10
  -1  -5   1 259.367 11.1329   7
  -1  -5   1 273.243 11.3629   1
  -1  -5   1 251.264 11.2196   8
  -1  -5   1 244.296 11.2974   3
  -1  -5   1 252.788 11.3486   1
  -1  -5   1 248.467 11.2866   4
   0   5  -1 86.3970 4.12438  10
   0   5  -1 74.3942 4.01975   1
   0   5  -1 87.0041 4.10315   4
   0   5  -1 85.4905 4.07679   3
   0   5  -1 88.1987 4.19687   1
   0   5  -1 78.5707 4.01248   6
   0   5  -1 85.5219 3.98746   8
   0  -5   1 78.4831 4.12743  10
   0  -5   1 90.2531 4.16058   6
   0  -5   1 80.4061 3.97656   8
   0  -5   1 81.7726 4.14879   5
   0  -5   1 80.6108 4.10047   3
   0  -5   1 79.1707 4.12215   1
   0  -5   1 80.8393 4.10094   4
   0  -5   1 85.2410 3.80879   7
   0  -5   1 83.9119 4.12505  11
   0  -5   1 83.8233 4.10721   1
  -1   5  -1 16.1284 1.63539   3
  -1   5  -1 16.3566 1.62219  10
  -1   5  -1 15.1041 1.55305   8
  -1   5  -1 13.7310 1.46097   1
  -1   5  -1 14.3174 1.84440   1
  -1   5  -1 13.8052 1.59380   4
  -1   5  -1 11.3744 1.36996   6
   1  -5   1 12.6486 1.74086  10
   1  -5   1 14.8175 1.60250   1
   1  -5   1 11.5288 1.58600   4
   1  -5   1 15.1466 1.57995   6
   1  -5   1 11.8139 1.66145   5
   1  -5   1 14.1916 1.90226   2
   1  -5   1 14.4618 1.81013   1
   1  -5   1 12.3183 1.60695   8
   1  -5   1 11.8527 1.71203  11
  -2   5  -1 35.8011 2.25990   8
  -2   5  -1 29.3032 2.35115   5
  -2   5  -1 29.6552 2.04101   1
  -2   5  -1 27.6095 1.99044   6
  -2   5  -1 28.3129 2.30706   4
  -2   5  -1 30.4578 2.36162  11
  -2   5  -1 30.7259 2.25992  10
  -2   5  -1 30.9606 2.59477   1
  -2   5  -1 28.9636 2.40372   3
   2  -5   1 31.7375 2.51066   2
   2  -5   1 27.8075 2.44609   1
   2  -5   1 31.0631 2.52364   9
   2  -5   1 27.8830 2.28066   5
   2  -5   1 25.1208 2.25795   4
   2  -5   1 32.1310 2.22173   1
   2  -5   1 31.0243 2.49406  11
   2  -5   1 33.4458 2.21896   6
  -3   5  -1 32.1575 2.77037   1
  -3   5  -1 31.1261 2.57194  11
  -3   5  -1 30.8142 2.54501   5
  -3   5  -1 34.1803 2.48918   8
  -3   5  -1 28.7556 2.43320   4
  -3   5  -1 27.9033 2.49883   3
  -3   5  -1 28.8046 2.41931  10
  -3   5  -1 28.6154 2.06698   6
  -3   5  -1 25.6242 2.08148   1
   3  -5   1 23.6070 2.47224   2
   3  -5   1 26.8862 2.64241  11
   3  -5   1 31.9972 2.28725   1
   3  -5   1 32.3513 2.87114   9
   3  -5   1 32.4225 2.64863   5
   3  -5   1 24.8005 2.33414   4
   3  -5   1 25.3941 2.58760   1
   3  -5   1 30.1040 2.29335   6
  -4   5  -1 3.02075 1.43041   4
  -4   5  -1 3.12691 1.48903   5
  -4   5  -1 8.80403 1.63877   8
  -4   5  -1 2.77671 1.61169   1
  -4   5  -1 5.75024 1.62751  11
  -4   5  -1 2.64228 1.41944  10
  -4   5  -1 6.58748 1.34119   6
  -4   5  -1 6.72701 1.29056   1
   4  -5   1 3.29990 1.81754   2
   4  -5   1 3.45496 1.62909   1
   4  -5   1 5.91559 1.42850   6
   4  -5   1 4.06229 1.51150   5
   4  -5   1 3.21024 1.65127  11
   4  -5   1 3.05967 1.72574   9
  -5   5  -1 15.1739 2.22717  10
  -5   5  -1 16.8164 2.32262   6
  -5   5  -1 16.3043 2.02147   1
  -5   5  -1 10.9739 2.04847   4
  -5   5  -1 12.4940 2.20070   1
  -5   5  -1 21.8266 2.94159   8
  -5   5  -1 15.8588 2.20202  11
  -5   5  -1 15.6284 2.26713   5
   5  -5   1 16.7711 2.62414  11
   5  -5   1 23.0608 2.57524   1
   5  -5   1 14.3169 2.42556   9
   5  -5   1 15.4143 2.00269   6
   5  -5   1 20.1330 2.69237   2
   5  -5   1 17.2007 2.30461   1
  -6   5  -1 3.30993 2.20688   4
  -6   5  -1 4.87572 1.81950   6
  -6   5  -1 7.56072 2.25091   1
  -6   5  -1 3.59993 2.43358   1
  -6   5  -1 0.18913 2.04872  10
  -6   5  -1 4.75136 2.20042  11
  -6   5  -1 5.67770 2.36687   8
  -6   5  -1 -0.8606 2.18959   5
   6  -5   1 4.17708 2.06423   6
   6  -5   1 5.31508 2.57180   5
   6  -5   1 3.81759 2.37265   1
   6  -5   1 -2.3613 2.44918   9
   6  -5   1 8.10711 2.86679   2
   6  -5   1 4.90876 2.03155   1
   6  -5   1 2.25966 2.76200  11
  -7   5  -1 -5.5683 2.68031  10
  -7   5  -1 -4.9154 3.36029   1
  -7   5  -1 0.19714 2.86010   1
  -7   5  -1 -0.4345 2.49635   6
  -7   5  -1 -0.9681 2.89226   4
  -7   5  -1 1.21552 3.01743   8
  -7   5  -1 2.97525 2.87675  11
  -7   5  -1 -3.6809 2.91493   5
   7  -5   1 -1.5245 3.85331  11
   7  -5   1 1.04999 3.65411   2
   7  -5   1 1.86272 2.63387   1
   7  -5   1 -0.2535 2.58221   6
   7  -5   1 1.75430 4.67241   1
   7  -5   1 -0.9835 3.61165   9
   9   4  -1 11.5514 2.61190   1
   9   4  -1 7.97286 2.13801   6
   9   4  -1 5.31378 2.38937   1
   9   4  -1 7.96212 2.29446   6
  -9  -4   1 11.9929 2.45159   1
  -9  -4   1 9.92278 2.75890  11
  -9  -4   1 9.53731 2.58869   1
  -9  -4   1 11.2339 3.07712   4
  -9  -4   1 15.1760 2.56962   8
  -9  -4   1 11.2062 3.12544   3
   8   4  -1 0.41241 1.83386   1
   8   4  -1 -0.3635 1.83661   1
   8   4  -1 0.85953 1.60011   6
   8   4  -1 2.41820 1.74531   6
  -8  -4   1 0.53037 2.03994   3
  -8  -4   1 0.73972 1.65804   8
  -8  -4   1 3.47568 1.93681  11
  -8  -4   1 0.81786 1.61900   1
  -8  -4   1 2.77163 1.97756   1
   7   4  -1 0.85143 1.47976   1
   7   4  -1 0.08973 1.07507   6
   7   4  -1 1.58020 1.36949   6
   7   4  -1 1.74796 1.32981   1
  -7  -4   1 0.94756 1.56138  11
  -7  -4   1 -1.7625 1.39008   3
  -7  -4   1 0.16534 1.48652   4
  -7  -4   1 -0.2523 1.96541   9
  -7  -4   1 0.00430 1.32025   1
  -7  -4   1 0.69225 1.53511   1
  -7  -4   1 0.31852 1.40079   6
  -7  -4   1 2.59117 1.28881   8
   6   4  -1 206.343 9.47186   1
   6   4  -1 210.720 9.37768   6
   6   4  -1 205.687 9.42997   6
   6   4  -1 209.489 9.43548   1
  -6  -4   1 199.762 9.68157   3
  -6  -4   1 203.230 9.57391   4
  -6  -4   1 203.689 9.54872   8
  -6  -4   1 196.963 9.39960   1
  -6  -4   1 222.352 9.79514   9
  -6  -4   1 225.037 9.51313   6
  -6  -4   1 216.286 9.51786   1
   5   4  -1 83.0218 4.33811   1
   5   4  -1 88.5199 4.35083  12
   5   4  -1 84.1256 4.26804   6
   5   4  -1 82.9827 4.23708   1
  -5  -4   1 81.4367 4.40415   3
  -5  -4   1 88.9388 4.48434   9
  -5  -4   1 81.3560 4.15223   1
  -5  -4   1 87.0759 4.37597   1
  -5  -4   1 76.6018 4.37743  10
  -5  -4   1 80.0330 4.34229   4
  -5  -4   1 82.3787 4.34372   8
  -5  -4   1 88.0340 4.29166   6
   4   4  -1 105.356 5.03431   6
   4   4  -1 110.403 5.17085   3
   4   4  -1 103.552 5.05950   1
   4   4  -1 107.129 5.06219   1
   4   4  -1 112.942 5.14715  12
  -4  -4   1 108.302 5.10126   1
  -4  -4   1 104.495 5.18137   3
  -4  -4   1 102.493 5.06506  10
  -4  -4   1 102.923 5.04578   4
  -4  -4   1 104.547 5.02334   1
  -4  -4   1 109.826 5.06039   6
  -4  -4   1 101.726 5.07626   8
   3   4  -1 183.103 8.11642   3
   3   4  -1 181.893 8.03795   1
   3   4  -1 174.436 8.00481   6
   3   4  -1 180.917 8.01554   4
   3   4  -1 182.617 7.99620   8
   3   4  -1 178.211 8.03006   1
  -3  -4   1 174.985 7.99274   4
  -3  -4   1 194.357 8.10383   1
  -3  -4   1 173.119 8.01260   8
  -3  -4   1 172.021 8.03250   1
  -3  -4   1 174.311 8.10988   3
  -3  -4   1 195.874 8.06748   6
  -3  -4   1 176.933 8.01986  10
   2   4  -1 293.294 12.1961   8
   2   4  -1 290.478 12.2508  10
   2   4  -1 293.397 12.2528   4
   2   4  -1 286.806 12.2734   1
   2   4  -1 287.343 12.2752   3
   2   4  -1 270.624 12.2451   1
   2   4  -1 276.578 12.2453   6
  -2  -4   1 270.439 12.1861   8
  -2  -4   1 294.646 12.2735   6
  -2  -4   1 276.831 12.2204   4
  -2  -4   1 278.008 12.2341  10
  -2  -4   1 292.121 12.2765   1
  -2  -4   1 275.525 12.2774   3
  -2  -4   1 277.671 12.2817   1
   1   4  -1 149.113 6.66577   3
   1   4  -1 154.184 6.59311   8
   1   4  -1 144.354 6.65650   6
   1   4  -1 157.608 6.70912   4
   1   4  -1 154.153 6.69649  10
   1   4  -1 153.396 6.72714   1
   1   4  -1 138.992 6.64974   1
  -1  -4   1 157.725 6.70840   6
  -1  -4   1 141.937 6.58088   8
  -1  -4   1 143.812 6.65514   3
  -1  -4   1 144.419 6.67157  10
  -1  -4   1 154.500 6.71934   1
  -1  -4   1 145.048 6.70095   1
  -1  -4   1 146.633 6.66812   4
   0   4  -1 125.171 5.49460   1
   0   4  -1 109.986 5.39432   1
   0   4  -1 122.099 5.41449   3
   0   4  -1 127.549 5.35533   8
   0   4  -1 125.272 5.48506  10
   0   4  -1 109.319 5.36862   6
   0  -4   1 118.786 5.45708  11
   0  -4   1 113.843 5.31878   8
   0  -4   1 115.968 5.48158  10
   0  -4   1 119.295 5.46409   1
   0  -4   1 121.062 5.47443   1
   0  -4   1 116.693 5.16978   7
   0  -4   1 118.000 5.42736   3
   0  -4   1 113.311 5.44287   4
   0  -4   1 116.734 5.46145   5
   0  -4   1 119.214 5.54814   2
   0  -4   1 127.921 5.49697   6
  -1   4  -1 22.4751 1.59128   8
  -1   4  -1 22.1444 1.82228   1
  -1   4  -1 22.5349 1.76758   5
  -1   4  -1 24.5156 1.74402  10
  -1   4  -1 23.6199 1.74697  11
  -1   4  -1 21.2151 1.56806   1
  -1   4  -1 23.8695 1.69981   4
  -1   4  -1 21.0555 1.54333   6
  -1   4  -1 21.4386 1.74241   3
   1  -4   1 23.3598 1.76267   5
   1  -4   1 18.3587 1.64652   4
   1  -4   1 24.8621 1.72626   1
   1  -4   1 22.2057 2.05775   2
   1  -4   1 21.8993 1.83418  11
   1  -4   1 24.0782 1.70359   6
   1  -4   1 20.9379 1.78436   1
   1  -4   1 19.8255 1.75873  10
  -2   4  -1 3.83438 0.87942   8
  -2   4  -1 2.56072 1.04120   1
  -2   4  -1 2.74651 0.83253  11
  -2   4  -1 2.37896 0.75108  10
  -2   4  -1 2.37869 0.92167   3
  -2   4  -1 2.88880 0.81618   4
  -2   4  -1 4.31654 0.76153   1
  -2   4  -1 2.39303 0.85365   5
  -2   4  -1 2.39484 0.71552   6
   2  -4   1 2.53230 0.85696   1
   2  -4   1 3.71684 1.11684   2
   2  -4   1 2.76419 0.86002   5
   2  -4   1 2.37324 0.93684  11
   2  -4   1 4.10818 0.89779   6
   2  -4   1 1.60494 0.74559   4
   2  -4   1 3.27209 1.03782   1
   2  -4   1 1.88986 0.94395   9
  -3   4  -1 22.4568 2.03405   4
  -3   4  -1 22.0220 2.14085  11
  -3   4  -1 19.0270 2.08612   1
  -3   4  -1 23.8944 2.04240   8
  -3   4  -1 23.1416 2.07586  10
  -3   4  -1 22.2220 2.07595   5
  -3   4  -1 19.7983 1.66172   6
  -3   4  -1 20.1301 1.72159   1
   3  -4   1 22.3360 2.24904   2
   3  -4   1 20.0307 2.12160   5
   3  -4   1 23.1502 2.33565   9
   3  -4   1 20.8610 1.80802   1
   3  -4   1 15.7751 2.18021  11
   3  -4   1 18.8353 1.98866   1
   3  -4   1 19.5893 1.78158   6
  -4   4  -1 40.1658 2.98112   5
  -4   4  -1 36.0904 2.90640   1
  -4   4  -1 39.9077 2.98607  10
  -4   4  -1 39.7821 2.67065   1
  -4   4  -1 39.5459 2.97882  11
  -4   4  -1 37.0006 2.52811   6
  -4   4  -1 43.3306 3.03781   4
   4  -4   1 41.0163 2.70420   6
   4  -4   1 40.5576 2.93960   1
   4  -4   1 36.9853 3.06550   5
   4  -4   1 34.2103 3.24563  11
   4  -4   1 39.6539 2.70242   1
   4  -4   1 41.8270 3.19338   9
   4  -4   1 37.9835 3.17432   2
  -5   4  -1 5.29620 1.46007   4
  -5   4  -1 6.41174 1.82804  11
  -5   4  -1 6.37830 1.33191   6
  -5   4  -1 7.48406 1.56112   1
  -5   4  -1 7.66186 1.60521  10
  -5   4  -1 7.96977 1.72853   1
  -5   4  -1 7.11137 1.70069   5
   5  -4   1 6.11023 2.02848   9
   5  -4   1 7.43542 2.08138   2
   5  -4   1 8.24119 1.53304   6
   5  -4   1 6.45037 1.49180   1
   5  -4   1 5.99935 1.72103   1
   5  -4   1 6.72073 1.76867   5
   5  -4   1 6.50101 1.94236  11
  -6   4  -1 6.41666 1.85834   1
  -6   4  -1 8.52534 2.12695   5
  -6   4  -1 7.93343 2.07240  10
  -6   4  -1 9.15905 2.14515   4
  -6   4  -1 6.77652 2.01978   1
  -6   4  -1 7.46608 1.70559   6
  -6   4  -1 9.86665 2.17377  11
   6  -4   1 11.3544 2.58200  11
   6  -4   1 8.61792 2.16892   1
   6  -4   1 10.1728 2.47869   9
   6  -4   1 6.55156 1.84972   6
   6  -4   1 11.5254 2.63664   2
  -7   4  -1 -2.7323 2.20346   1
  -7   4  -1 -0.3204 2.24789  10
  -7   4  -1 -1.1256 2.70130  11
  -7   4  -1 2.96495 2.33464   4
  -7   4  -1 -2.0765 2.60850   5
  -7   4  -1 -0.8730 2.49626   1
  -7   4  -1 1.83306 2.04918   6
   7  -4   1 0.86819 3.25483   2
   7  -4   1 0.69929 2.15984   6
   7  -4   1 4.28457 2.18275   1
   7  -4   1 -3.8592 3.53198   9
   7  -4   1 -2.6945 2.27313   6
   7  -4   1 0.18425 2.41810   1
   9   3  -1 41.1820 3.59409   6
   9   3  -1 36.8303 4.04456   6
   9   3  -1 46.6597 4.30630   1
   9   3  -1 48.6919 4.12465   1
  -9  -3   1 48.7216 4.90598  11
  -9  -3   1 42.8011 4.06192   1
  -9  -3   1 48.1885 4.45003   1
  -9  -3   1 46.4326 4.79930   5
  -9  -3   1 49.5759 5.00657   3
  -9  -3   1 43.7392 4.53021   8
   8   3  -1 -0.3680 1.54404   1
   8   3  -1 1.07695 1.86341   1
   8   3  -1 -0.8377 1.32023   6
   8   3  -1 1.06906 1.72013   6
  -8  -3   1 -1.4960 1.93489   1
  -8  -3   1 4.64800 2.03977   3
  -8  -3   1 -0.8885 1.72770   1
  -8  -3   1 0.73765 1.83419  11
  -8  -3   1 -0.0528 2.17013  12
  -8  -3   1 -1.0847 1.50882   8
   7   3  -1 6.30435 1.50617   6
   7   3  -1 5.24935 1.31104   6
   7   3  -1 5.28641 1.47574   1
   7   3  -1 7.44540 1.64202   1
  -7  -3   1 5.79570 1.63140   3
  -7  -3   1 6.68846 1.74236   1
  -7  -3   1 4.09750 1.35104   1
  -7  -3   1 5.99701 1.34889   8
  -7  -3   1 6.74594 1.94627  12
  -7  -3   1 7.08634 1.45051  11
  -7  -3   1 4.92056 1.49491   9
   6   3  -1 141.466 6.71466   1
   6   3  -1 141.476 6.65264   6
   6   3  -1 140.901 6.59798   6
   6   3  -1 139.081 6.67479   1
  -6  -3   1 137.186 6.94535  12
  -6  -3   1 137.918 6.63462   1
  -6  -3   1 147.408 6.76798   1
  -6  -3   1 145.152 6.69503   6
  -6  -3   1 145.830 6.90304  11
  -6  -3   1 140.384 6.95108   3
  -6  -3   1 140.683 6.79878   8
  -6  -3   1 150.900 6.98007   9
   5   3  -1 272.620 12.0927   1
   5   3  -1 282.394 12.0648   6
   5   3  -1 277.580 12.1182   1
   5   3  -1 276.984 12.0808   6
  -5  -3   1 269.752 12.2877  12
  -5  -3   1 268.797 12.0771   1
  -5  -3   1 283.378 12.1285   1
  -5  -3   1 285.220 12.3325   9
  -5  -3   1 267.974 12.1868   8
  -5  -3   1 270.387 12.2876   3
  -5  -3   1 285.755 12.1032   6
   4   3  -1 602.826 24.9032  12
   4   3  -1 585.132 24.7584   6
   4   3  -1 570.659 24.7569   1
   4   3  -1 596.322 24.9039   3
   4   3  -1 590.802 24.7830   1
  -4  -3   1 553.702 24.7893   8
  -4  -3   1 550.355 24.8748   3
  -4  -3   1 550.581 24.7663   4
  -4  -3   1 609.823 24.8147   1
  -4  -3   1 598.547 24.7763   6
  -4  -3   1 566.168 24.7687   1
  -4  -3   1 621.074 24.9531   9
   3   3  -1 583.914 22.3290   3
   3   3  -1 538.014 22.2459   1
   3   3  -1 509.332 22.1946   6
   3   3  -1 500.254 22.1951   1
   3   3  -1 537.780 22.3047  12
  -3  -3   1 503.638 22.2153   1
  -3  -3   1 510.964 22.2164   8
  -3  -3   1 501.772 22.2079   4
  -3  -3   1 528.026 22.2328   1
  -3  -3   1 514.581 22.2895   3
  -3  -3   1 504.001 22.2146  10
  -3  -3   1 546.407 22.2317   6
   2   3  -1 611.019 25.8740   4
   2   3  -1 616.717 25.8835  10
   2   3  -1 582.944 25.8668   1
   2   3  -1 596.998 25.8667   6
   2   3  -1 636.809 25.9224   3
   2   3  -1 618.867 25.8265   8
   2   3  -1 635.762 25.9109   1
  -2  -3   1 592.928 25.8946   1
  -2  -3   1 641.967 25.9196   1
  -2  -3   1 640.340 25.9018   6
  -2  -3   1 602.014 25.8368   8
  -2  -3   1 601.004 25.9059   3
  -2  -3   1 602.620 25.8760  10
  -2  -3   1 590.426 25.8615   4
   1   3  -1 17.2183 1.48332   1
   1   3  -1 18.6536 1.51664   1
   1   3  -1 20.1578 1.51434   4
   1   3  -1 18.6047 1.37575   8
   1   3  -1 19.5346 1.48505  10
   1   3  -1 17.1041 1.41210   6
   1   3  -1 18.6722 1.47105   3
  -1  -3   1 16.6843 1.42525   4
  -1  -3   1 17.1900 1.37327   8
  -1  -3   1 18.3730 1.48414   3
  -1  -3   1 17.9173 1.43556  10
  -1  -3   1 18.4293 1.51208   1
  -1  -3   1 18.3869 1.50532   1
  -1  -3   1 18.2608 1.43700   6
   0   3  -1 57.7118 2.96048   6
   0   3  -1 65.8618 3.05467   4
   0   3  -1 61.6488 3.06779   1
   0   3  -1 65.1391 3.06494  10
   0   3  -1 61.2759 2.98913   3
   0   3  -1 54.4113 2.96452   1
   0   3  -1 62.5326 2.91829   8
   0  -3   1 57.0254 3.01443  10
   0  -3   1 60.1496 3.03588   1
   0  -3   1 64.4365 3.06816   1
   0  -3   1 59.7969 2.99628   3
   0  -3   1 57.5983 2.89613   8
   0  -3   1 60.9859 3.01544  11
   0  -3   1 61.3675 3.02308   4
   0  -3   1 59.5542 2.71657   7
   0  -3   1 62.1250 3.04930   5
   0  -3   1 60.3687 3.18249   2
   0  -3   1 65.3010 3.03521   6
  -1   3  -1 9.62491 1.30104   3
  -1   3  -1 8.15424 1.04516   6
  -1   3  -1 7.62204 1.10637   1
  -1   3  -1 9.96445 1.32554   1
  -1   3  -1 12.4892 1.40349   5
  -1   3  -1 11.4910 1.29584  11
  -1   3  -1 10.1669 1.13093   8
  -1   3  -1 11.0452 1.31122  10
  -1   3  -1 10.4727 1.31903   4
   1  -3   1 10.2738 1.29726   4
   1  -3   1 8.22412 1.23534   6
   1  -3   1 11.9022 1.36013   5
   1  -3   1 8.54743 1.32446   1
   1  -3   1 9.65388 1.28392   2
   1  -3   1 8.04142 0.98260  10
   1  -3   1 11.8526 1.31876  11
   1  -3   1 9.24299 1.27678   1
  -2   3  -1 12.5870 1.19139   1
  -2   3  -1 15.4001 1.45224  11
  -2   3  -1 11.4597 1.15551   6
  -2   3  -1 15.8575 1.53108   5
  -2   3  -1 13.2523 1.46235   1
  -2   3  -1 16.5277 1.50221   4
  -2   3  -1 14.5959 1.37955   8
  -2   3  -1 12.9369 1.43149  10
   2  -3   1 12.9433 1.43804   1
   2  -3   1 13.6053 1.56027   9
   2  -3   1 14.9477 1.29916   6
   2  -3   1 14.6040 1.68233   2
   2  -3   1 12.1490 1.45287   5
   2  -3   1 15.6818 1.29463   1
   2  -3   1 12.2255 1.47489  11
   2  -3   1 13.6814 1.47197   4
  -3   3  -1 21.2375 1.84827   4
  -3   3  -1 20.6444 1.86939  11
  -3   3  -1 18.3548 1.46589   6
  -3   3  -1 18.6472 1.56283   1
  -3   3  -1 18.6866 1.78584   1
  -3   3  -1 20.6412 1.85929  10
  -3   3  -1 19.4413 1.89782   5
   3  -3   1 18.5121 1.77084   1
   3  -3   1 17.4251 1.90902   5
   3  -3   1 19.5304 1.92894  11
   3  -3   1 19.6593 1.57191   6
   3  -3   1 21.6007 2.07057   2
   3  -3   1 19.4164 2.03561   9
   3  -3   1 18.2015 1.61758   1
  -4   3  -1 20.2199 2.15757  11
  -4   3  -1 19.0721 2.19164   4
  -4   3  -1 22.3056 2.06384   1
  -4   3  -1 17.8615 1.75852   1
  -4   3  -1 19.3252 2.13743  10
  -4   3  -1 20.5224 2.29745   5
  -4   3  -1 19.2635 1.68313   6
   4  -3   1 22.0897 2.06101   1
   4  -3   1 22.1777 1.91283   1
   4  -3   1 18.5694 2.49530   9
   4  -3   1 20.3708 2.46908  11
   4  -3   1 21.0418 2.39254   2
   4  -3   1 18.8949 1.77812   6
   4  -3   1 18.9902 2.32773   5
  -5   3  -1 30.9513 2.26768   6
  -5   3  -1 29.4504 2.66057   1
  -5   3  -1 32.3282 2.50663   1
  -5   3  -1 28.0599 2.93661  10
  -5   3  -1 30.6894 2.96763   4
  -5   3  -1 31.8479 2.86634  11
  -5   3  -1 27.9579 2.98557   5
  -5   3  -1 31.8999 2.43418   7
   5  -3   1 30.2418 2.41851   6
   5  -3   1 33.6916 3.17008   2
   5  -3   1 31.5506 2.53745   1
   5  -3   1 32.3399 3.27251  11
   5  -3   1 31.0531 3.08186   5
   5  -3   1 30.7767 2.65607   1
   5  -3   1 32.1861 3.29280   9
  -6   3  -1 13.9565 2.00866   1
  -6   3  -1 14.3096 1.85832   6
  -6   3  -1 19.8854 3.01556  10
  -6   3  -1 18.1630 2.02704   7
  -6   3  -1 15.8305 2.37708   9
  -6   3  -1 15.4686 2.24474   5
  -6   3  -1 15.7416 2.17744  11
  -6   3  -1 15.2726 2.03129   1
  -6   3  -1 14.6942 2.07568   4
   6  -3   1 15.0350 2.54662   9
   6  -3   1 16.1071 1.90333   1
   6  -3   1 14.6867 1.87032   6
   6  -3   1 14.7087 2.50905  11
   6  -3   1 19.2798 2.67510   2
   6  -3   1 16.4359 2.05408   1
  -7   3  -1 0.86874 2.34619   7
  -7   3  -1 1.22342 2.48372   5
  -7   3  -1 -0.3163 2.17755   4
  -7   3  -1 -1.1556 2.40879  11
  -7   3  -1 -0.2289 2.16458  10
  -7   3  -1 -1.1126 1.75615   6
  -7   3  -1 3.46514 1.98017   1
  -7   3  -1 1.33230 1.93020   1
   7  -3   1 -1.4230 2.89859   2
   7  -3   1 2.88696 2.84506  11
   7  -3   1 1.75668 1.84835   6
   7  -3   1 3.68983 1.78386   1
   9   2  -1 31.4146 4.26195   1
   9   2  -1 40.4689 3.67128   6
   9   2  -1 36.6395 4.02766   6
   9   2  -1 47.0087 3.90081   1
  -9  -2   1 42.5792 4.06660   1
  -9  -2   1 40.8088 4.75015  11
  -9  -2   1 42.8601 4.76980   9
  -9  -2   1 45.7239 4.18820   8
  -9  -2   1 40.2539 4.85690   3
  -9  -2   1 32.4935 4.02953  12
  -9  -2   1 36.7867 4.80399   5
  -9  -2   1 43.9980 4.37942   1
   8   2  -1 3.21916 1.55986   6
   8   2  -1 7.58055 1.80257   1
   8   2  -1 5.50779 1.83304   6
   8   2  -1 5.43851 1.98139   1
  -8  -2   1 5.96563 1.75175   8
  -8  -2   1 7.09530 2.30228   3
  -8  -2   1 8.00360 1.87871   9
  -8  -2   1 6.76849 2.35891  12
  -8  -2   1 3.15862 1.94698   1
  -8  -2   1 6.73389 1.91433   5
  -8  -2   1 4.88702 1.81342   1
  -8  -2   1 3.57656 1.94569  11
   7   2  -1 11.7713 1.49831   6
   7   2  -1 12.1998 1.69390   6
   7   2  -1 12.1317 1.80459   1
   7   2  -1 13.1047 1.68216   1
  -7  -2   1 13.7123 1.91060   3
  -7  -2   1 11.8985 1.62136   1
  -7  -2   1 15.6047 2.44249   9
  -7  -2   1 11.5082 1.73214   8
  -7  -2   1 14.5464 2.06719  12
  -7  -2   1 13.3736 1.86197   1
  -7  -2   1 13.6800 1.94380  11
   6   2  -1 15.7442 1.99958   1
   6   2  -1 17.3988 2.16486   1
   6   2  -1 18.1428 1.89578   6
   6   2  -1 19.2567 2.07916   6
  -6  -2   1 19.9521 2.16714  11
  -6  -2   1 17.7458 2.26524   3
  -6  -2   1 20.1212 2.23612  12
  -6  -2   1 16.1050 1.93995   1
  -6  -2   1 17.5086 2.25844   1
  -6  -2   1 19.2574 2.27704   9
   5   2  -1 249.959 11.3837   1
   5   2  -1 265.950 11.3911   1
   5   2  -1 261.419 11.3746   6
   5   2  -1 267.430 11.3594   6
  -5  -2   1 273.551 11.6354   9
  -5  -2   1 245.898 11.5682   3
  -5  -2   1 265.728 11.4228   1
  -5  -2   1 245.731 11.3524   1
  -5  -2   1 265.741 11.5723  11
  -5  -2   1 246.597 11.5407  12
  -5  -2   1 274.284 11.4090   6
   4   2  -1 118.704 5.46074   6
   4   2  -1 114.710 5.48474   1
   4   2  -1 120.871 5.46204   6
   4   2  -1 121.486 5.49647   1
  -4  -2   1 115.424 5.59146  12
  -4  -2   1 121.014 5.51800   1
  -4  -2   1 113.539 5.45058   1
  -4  -2   1 122.390 5.61573  11
  -4  -2   1 112.058 5.60079   3
  -4  -2   1 123.120 5.49298   6
  -4  -2   1 130.879 5.69556   9
   3   2  -1 140.643 6.16795   1
   3   2  -1 133.212 6.12894   1
   3   2  -1 136.922 6.12053   6
   3   2  -1 139.594 6.22182  12
  -3  -2   1 146.574 6.28132   9
  -3  -2   1 129.824 6.21283   3
  -3  -2   1 134.493 6.22072  12
  -3  -2   1 144.594 6.14847   6
  -3  -2   1 132.335 6.15004   8
  -3  -2   1 130.352 6.12997   1
  -3  -2   1 140.516 6.17339   1
   2   2  -1 332.072 14.2892   1
   2   2  -1 349.340 14.3128   1
   2   2  -1 357.612 14.3436  12
   2   2  -1 343.677 14.3157   3
   2   2  -1 338.186 14.2820   6
  -2  -2   1 330.027 14.3135   3
  -2  -2   1 332.145 14.2990   1
  -2  -2   1 336.373 14.2916   1
  -2  -2   1 313.679 14.2753   4
  -2  -2   1 313.952 14.2864  10
  -2  -2   1 327.464 14.2437   8
  -2  -2   1 347.921 14.2901   6
   1   2  -1 313.615 12.9455   3
   1   2  -1 312.942 12.9781  10
   1   2  -1 324.350 12.8990   8
   1   2  -1 304.034 12.9638   6
   1   2  -1 308.195 12.9894   1
   1   2  -1 291.475 12.9620   1
  -1  -2   1 295.675 12.9324   3
  -1  -2   1 305.313 12.9777   1
  -1  -2   1 289.366 12.9056   2
  -1  -2   1 302.571 12.9593   4
  -1  -2   1 301.899 12.9789   1
  -1  -2   1 309.240 12.9724   6
  -1  -2   1 305.110 12.9763  10
  -1  -2   1 303.261 12.8874   8
   0   2  -1 257.978 10.8059  10
   0   2  -1 231.384 10.8228   2
   0   2  -1 262.291 10.7788   6
   0   2  -1 258.038 10.7380   3
   0   2  -1 255.817 10.7921   1
   0   2  -1 242.503 10.7576   1
   0   2  -1 264.236 10.6812   8
   0  -2   1 248.855 10.7780   1
   0  -2   1 248.719 10.7314   3
   0  -2   1 246.093 10.6739   8
   0  -2   1 254.744 10.7801   1
   0  -2   1 262.129 10.7779   6
   0  -2   1 256.916 10.7921   4
   0  -2   1 249.418 10.8402   2
   0  -2   1 243.579 10.7942  10
   0  -2   1 256.730 10.7783   5
  -1   2  -1 2563.91 110.690   3
  -1   2  -1 2598.19 110.775   2
  -1   2  -1 2764.32 110.816   5
  -1   2  -1 2556.81 110.579   8
  -1   2  -1 2754.06 111.096   4
  -1   2  -1 2596.31 110.814   6
  -1   2  -1 2683.55 111.052  10
  -1   2  -1 2575.83 110.820   1
  -1   2  -1 2751.42 110.805  11
  -1   2  -1 2762.01 110.831   1
   1  -2   1 2522.32 110.768   1
   1  -2   1 2918.75 110.827   6
   1  -2   1 2584.71 110.722   5
   1  -2   1 2582.34 110.625   9
   1  -2   1 2615.19 110.650  11
   1  -2   1 2601.01 110.762   2
   1  -2   1 2577.96 110.881   4
   1  -2   1 2560.51 110.710  10
   1  -2   1 2746.97 110.789   1
  -2   2  -1 458.904 19.1293  11
  -2   2  -1 463.958 19.2133  10
  -2   2  -1 470.617 19.1834   5
  -2   2  -1 464.513 19.1849   4
  -2   2  -1 467.429 19.0849   1
  -2   2  -1 445.191 19.2934   2
  -2   2  -1 435.301 19.0437   6
  -2   2  -1 431.157 19.0450   1
   2  -2   1 435.350 19.1718   5
   2  -2   1 463.604 19.0605   1
   2  -2   1 433.030 19.1429   9
   2  -2   1 460.630 19.2944   2
   2  -2   1 487.273 19.0786   6
   2  -2   1 425.888 19.0417   1
   2  -2   1 436.008 19.1768   4
   2  -2   1 434.031 19.1290  11
  -3   2  -1 1.48594 0.91147   9
  -3   2  -1 -0.2992 0.72923   1
  -3   2  -1 0.40245 0.79184   5
  -3   2  -1 1.64294 0.83491  11
  -3   2  -1 -0.9473 0.67655  10
  -3   2  -1 0.51820 0.71302   4
  -3   2  -1 -0.6219 0.53360   6
  -3   2  -1 -0.3678 1.04858   2
  -3   2  -1 0.23426 0.62038   1
   3  -2   1 -0.3767 0.72101   1
   3  -2   1 0.36456 0.81022   5
   3  -2   1 -0.2737 0.72805   1
   3  -2   1 -0.7072 0.66490   6
   3  -2   1 0.95345 0.83567  11
   3  -2   1 0.45596 0.82479   9
   3  -2   1 0.64217 1.00146   2
  -4   2  -1 14.4112 1.63397   1
  -4   2  -1 16.3424 2.00564   4
  -4   2  -1 17.2384 1.96327  11
  -4   2  -1 18.2717 1.98621   5
  -4   2  -1 17.4602 2.25019   9
  -4   2  -1 16.0002 2.03085  10
  -4   2  -1 18.1148 2.10094   2
  -4   2  -1 16.9421 1.46731   6
  -4   2  -1 17.7158 1.71593   1
   4  -2   1 16.3662 1.48233   6
   4  -2   1 16.7028 2.21459   2
   4  -2   1 14.8253 2.19595   9
   4  -2   1 12.2618 1.58576   1
   4  -2   1 17.8919 1.56245   1
   4  -2   1 18.5725 2.16962  11
   4  -2   1 18.7650 2.07105   5
  -5   2  -1 23.9901 2.24924   1
  -5   2  -1 24.2165 2.15750   1
  -5   2  -1 27.8909 2.89555   9
  -5   2  -1 25.2857 2.03084   6
  -5   2  -1 27.5708 2.65123   5
  -5   2  -1 25.8279 2.65018  10
  -5   2  -1 24.5807 2.66491  11
  -5   2  -1 25.1335 2.57559   4
  -5   2  -1 26.2976 2.28908   7
   5  -2   1 24.5358 1.97548   6
   5  -2   1 24.6635 2.05899   1
   5  -2   1 24.5261 2.88147   2
   5  -2   1 24.1449 2.85254  11
   5  -2   1 22.5535 2.84075   9
  -6   2  -1 7.78248 1.74232   7
  -6   2  -1 5.94129 1.73479   5
  -6   2  -1 5.48259 1.42256   1
  -6   2  -1 5.40037 1.89960   9
  -6   2  -1 7.21041 1.46187   1
  -6   2  -1 4.24977 1.61637   4
  -6   2  -1 5.93829 1.68123  10
  -6   2  -1 6.99618 1.30627   6
  -6   2  -1 3.46189 1.74840  11
   6  -2   1 4.10824 1.98206   9
   6  -2   1 6.70106 1.37391   1
   6  -2   1 4.37351 1.27723   6
   6  -2   1 4.76955 2.11578  11
   6  -2   1 9.07253 2.06098   2
  -7   2  -1 12.2099 1.85573   6
  -7   2  -1 12.7096 2.36723   7
  -7   2  -1 9.57214 2.15215   4
  -7   2  -1 10.3625 2.23434   5
  -7   2  -1 10.5107 1.96275   1
  -7   2  -1 10.5241 2.63872   9
  -7   2  -1 7.50326 2.33788  11
  -7   2  -1 11.4485 2.38396  10
  -7   2  -1 9.38679 1.82126   1
   7  -2   1 11.0626 1.74192   1
   7  -2   1 12.5990 1.98772   1
   7  -2   1 11.8292 1.77618   6
   7  -2   1 11.2347 1.83746   6
  -8   2  -1 0.43830 3.08923   7
  -8   2  -1 5.74714 3.01734   5
  -8   2  -1 1.29567 2.62851  10
  -8   2  -1 9.15825 3.50784  12
  -8   2  -1 5.25411 3.54391   9
  -8   2  -1 6.21517 2.93466  11
  -8   2  -1 3.11361 2.87375   4
   9   1  -1 2.95771 2.02108   1
   9   1  -1 5.08926 2.54980   1
   9   1  -1 5.80423 2.37998   6
   9   1  -1 -0.0207 2.11668   6
  -9  -1   1 3.08522 2.45806   5
  -9  -1   1 4.21150 3.13646  12
  -9  -1   1 -2.7933 2.27612   9
  -9  -1   1 5.56163 2.50316   8
  -9  -1   1 6.38079 2.47850   1
  -9  -1   1 6.82502 2.30722   1
  -9  -1   1 2.83558 2.59317  11
  -9  -1   1 3.49018 2.95566   3
   8   1  -1 21.2555 3.24792   1
   8   1  -1 26.3905 2.77846   1
   8   1  -1 21.1051 2.65095   6
   8   1  -1 22.8290 3.00960   6
  -8  -1   1 23.7908 3.38298   1
  -8  -1   1 19.8743 3.05400   1
  -8  -1   1 22.6004 2.96816  12
  -8  -1   1 29.5973 3.61058  11
  -8  -1   1 30.0119 3.42953   5
  -8  -1   1 25.2560 3.36486   9
  -8  -1   1 28.1617 3.64082   3
   7   1  -1 47.4550 3.35973   1
   7   1  -1 43.1151 2.81734   6
   7   1  -1 46.4918 3.05564   1
   7   1  -1 49.0796 3.23538   6
  -7  -1   1 41.8644 3.36846   1
  -7  -1   1 45.1593 3.62883  12
  -7  -1   1 46.7468 3.54265   9
  -7  -1   1 40.4184 3.55105   3
  -7  -1   1 40.1759 3.14644   1
  -7  -1   1 48.1064 3.37810   5
  -7  -1   1 49.9586 3.49069  11
   6   1  -1 49.9429 3.10805   1
   6   1  -1 53.7092 3.27705   1
   6   1  -1 52.8079 3.21168   6
   6   1  -1 54.8257 2.93848   6
  -6  -1   1 49.6352 3.18695   1
  -6  -1   1 48.4142 3.33391   3
  -6  -1   1 57.6007 3.32861  11
  -6  -1   1 55.8883 3.29563   5
  -6  -1   1 51.2850 3.22745   1
  -6  -1   1 51.6706 3.40288  12
  -6  -1   1 54.5798 3.37993   9
   5   1  -1 45.7297 2.96028   9
   5   1  -1 52.6383 2.78114   1
   5   1  -1 53.0060 2.70749   6
   5   1  -1 51.2297 2.84062   6
   5   1  -1 48.1423 2.89290   1
  -5  -1   1 49.9329 2.95246  11
  -5  -1   1 50.7886 2.74160   1
  -5  -1   1 50.0278 2.90867   1
  -5  -1   1 43.5993 2.92153  12
  -5  -1   1 47.1704 2.96280   9
   4   1  -1 0.56747 0.80229   1
   4   1  -1 0.25747 0.67305   6
   4   1  -1 0.56191 0.74956   1
   4   1  -1 0.81076 0.72796   6
   4   1  -1 -0.2365 0.77268   9
  -4  -1   1 0.65498 0.81534   9
  -4  -1   1 0.62109 0.73214   6
  -4  -1   1 0.59185 0.78168  12
  -4  -1   1 0.60390 0.73972  11
  -4  -1   1 1.11774 0.67486   1
  -4  -1   1 0.37591 0.79891   1
   3   1  -1 49.1872 2.80878   9
   3   1  -1 55.0691 2.69237   6
   3   1  -1 51.0109 2.68484   6
   3   1  -1 49.4694 2.71419   1
   3   1  -1 54.4409 2.74801   1
  -3  -1   1 53.0159 2.79692  12
  -3  -1   1 54.3612 2.69685   6
  -3  -1   1 51.7871 2.70683   1
  -3  -1   1 55.5016 2.83258  11
  -3  -1   1 52.2755 2.72218   1
  -3  -1   1 56.9197 2.88206   9
   2   1  -1 115.020 5.34379   9
   2   1  -1 123.451 5.31993   6
   2   1  -1 124.459 5.34379   1
   2   1  -1 135.265 5.38882  12
   2   1  -1 114.646 5.31802   1
   2   1  -1 116.962 5.30662   6
  -2  -1   1 119.395 5.37300  12
  -2  -1   1 118.044 5.32485   1
  -2  -1   1 121.627 5.32397   6
  -2  -1   1 122.325 5.36183   9
  -2  -1   1 117.513 5.35191   3
  -2  -1   1 113.885 5.32220   1
   1   1  -1 125.517 5.36102   3
   1   1  -1 131.547 5.42899   1
   1   1  -1 118.595 5.30054   2
   1   1  -1 130.449 5.38890  12
   1   1  -1 117.909 5.38599   4
   1   1  -1 119.531 5.39148   1
   1   1  -1 121.825 5.38138   6
  -1  -1   1 123.849 5.31583   8
  -1  -1   1 125.809 5.40725  10
  -1  -1   1 126.494 5.40406   1
  -1  -1   1 124.921 5.39739   4
  -1  -1   1 123.290 5.35871   3
  -1  -1   1 122.517 5.40152   1
  -1  -1   1 120.061 5.29626   2
  -1  -1   1 129.818 5.39952   6
   0   1  -1 1017.24 43.6467   2
   0   1  -1 970.173 43.5810   1
   0   1  -1 1028.82 43.5971   1
   0   1  -1 1088.36 43.6949   4
   0   1  -1 1082.78 43.8272  10
   0   1  -1 1004.17 43.5833   6
   0   1  -1 1128.01 43.6351   3
   0   1  -1 1120.89 43.5556   8
   0  -1   1 1055.84 43.5905   3
   0  -1   1 1049.73 43.7319   4
   0  -1   1 995.166 43.5882   1
   0  -1   1 1036.08 43.6520   2
   0  -1   1 1034.19 43.5912   6
   0  -1   1 1024.28 43.5103   7
   0  -1   1 988.553 43.5884   1
   0  -1   1 1050.54 43.7336  10
  -1   1  -1 9546.72 392.264  10
  -1   1  -1 9776.66 392.117   5
  -1   1  -1 9513.42 391.893   9
  -1   1  -1 9066.55 391.782   1
  -1   1  -1 9557.43 391.862   6
  -1   1  -1 8920.57 392.405   2
  -1   1  -1 9663.11 392.229   4
  -1   1  -1 9479.13 391.876   1
  -1   1  -1 9921.28 391.975  11
   1  -1   1 9999.99 391.862   6
   1  -1   1 8464.34 391.780   9
   1  -1   1 9586.85 392.477   2
   1  -1   1 8983.57 391.813  11
   1  -1   1 9118.45 392.139   4
   1  -1   1 9492.49 391.827   1
   1  -1   1 9082.62 391.986   5
   1  -1   1 9325.66 392.227  10
  -2   1  -1 855.754 35.1526   5
  -2   1  -1 861.590 35.1150  11
  -2   1  -1 811.782 35.0097   6
  -2   1  -1 850.632 35.1539   9
  -2   1  -1 863.252 35.0307   1
  -2   1  -1 857.676 35.1736  10
  -2   1  -1 816.374 35.2615   2
  -2   1  -1 858.049 35.1579   4
  -2   1  -1 788.790 35.0067   1
   2  -1   1 787.272 35.1419   5
   2  -1   1 863.923 35.0187   1
   2  -1   1 891.739 35.0245   6
   2  -1   1 851.301 35.2634   2
   2  -1   1 791.146 35.1097  11
   2  -1   1 792.691 35.1405   9
  -3   1  -1 26.3518 1.80106  11
  -3   1  -1 26.7188 1.74166   4
  -3   1  -1 21.8317 1.98675   2
  -3   1  -1 24.9763 1.89016   9
  -3   1  -1 27.5989 1.81574   5
  -3   1  -1 22.8287 1.46183   1
  -3   1  -1 24.3826 1.46410   1
  -3   1  -1 23.9833 1.77271  10
  -3   1  -1 21.6869 1.37943   6
   3  -1   1 24.9855 1.85427  11
   3  -1   1 22.2576 1.86631   9
   3  -1   1 26.0214 1.37332   6
   3  -1   1 23.2532 1.82050   5
   3  -1   1 23.1962 1.93437   2
   3  -1   1 24.1782 1.41508   1
  -4   1  -1 46.0249 2.67878  11
  -4   1  -1 44.8576 2.67825   4
  -4   1  -1 40.1818 2.23250   6
  -4   1  -1 37.5666 2.30344   1
  -4   1  -1 45.3166 2.87747   9
  -4   1  -1 44.4151 2.66834   5
  -4   1  -1 41.4874 2.28812   1
  -4   1  -1 41.7589 2.71820  10
  -4   1  -1 42.5792 2.91885   2
   4  -1   1 42.1770 2.77047  11
   4  -1   1 45.1752 2.85798   2
   4  -1   1 38.9954 2.77322   9
   4  -1   1 44.0212 2.22384   6
   4  -1   1 41.2890 2.25496   1
  -5   1  -1 17.8349 1.73416   1
  -5   1  -1 18.8618 1.66069   6
  -5   1  -1 21.4695 1.82702   1
  -5   1  -1 24.3462 2.47144  11
  -5   1  -1 22.8485 2.58900   9
  -5   1  -1 18.6089 2.75330   2
  -5   1  -1 21.6760 2.39252   5
  -5   1  -1 19.5239 2.39547  10
  -5   1  -1 23.3667 2.34455   4
   5  -1   1 18.3495 1.72438   1
   5  -1   1 16.4592 1.79447   1
   5  -1   1 21.8623 2.58699  11
   5  -1   1 19.4497 1.66350   6
   5  -1   1 21.7688 1.68981   6
   5  -1   1 22.5685 2.58356   2
   5  -1   1 16.6866 2.51705   9
  -6   1  -1 21.0900 3.17810   9
  -6   1  -1 27.4665 2.22229   1
  -6   1  -1 25.6750 2.81013   4
  -6   1  -1 25.1196 2.86963   2
  -6   1  -1 22.8454 2.18329   1
  -6   1  -1 25.4312 2.82444  10
  -6   1  -1 20.9378 3.00303  11
  -6   1  -1 26.4464 2.90119   5
   6  -1   1 24.8111 2.23624   1
   6  -1   1 24.7239 3.11499   9
   6  -1   1 24.7231 2.11368   1
  -7   1  -1 18.4312 2.61390  11
  -7   1  -1 16.8379 2.35267   5
  -7   1  -1 16.0811 2.33476   4
  -7   1  -1 14.3042 2.70502   9
  -7   1  -1 20.2004 2.75461  12
  -7   1  -1 14.6789 2.36176  10
  -8   1  -1 4.57094 2.62146  10
  -8   1  -1 5.44460 2.74340   4
  -8   1  -1 2.93633 3.41631  12
  -8   1  -1 6.58958 3.14585   3
  -8   1  -1 -0.2567 2.88205  11
  -8   1  -1 2.07121 3.16504   9
  -8   1  -1 5.23174 2.70170   5
  -8   1  -1 4.73638 2.89853   7
   9   0  -1 -3.8811 2.09110   6
   9   0  -1 1.70292 2.42937   6
   9   0  -1 1.06705 2.26703   1
   9   0  -1 1.66081 2.63954   1
  -9   0   1 6.03857 2.95204  11
  -9   0   1 5.83871 2.38863   1
  -9   0   1 -0.1992 2.89082   3
  -9   0   1 0.88715 2.54284   4
  -9   0   1 4.18412 3.06619   7
  -9   0   1 0.95528 2.41832   5
  -9   0   1 4.45177 3.12918  12
  -9   0   1 -1.8672 2.43783   1
  -9   0   1 -2.1015 2.53217   9
   8   0  -1 22.4097 3.27651   6
   8   0  -1 24.3987 3.52308   1
   8   0  -1 24.3323 2.93907   1
   8   0  -1 22.4665 3.39218   9
   8   0  -1 20.9726 2.74312   6
  -8   0   1 27.1792 3.39652   1
  -8   0   1 22.9795 2.98493  12
  -8   0   1 24.3362 3.55234   3
  -8   0   1 30.5952 3.57782   7
  -8   0   1 20.9991 2.52543   9
  -8   0   1 25.5487 3.31828   5
  -8   0   1 25.8596 2.87933  11
  -8   0   1 23.3713 2.52120   1
   7   0  -1 59.9359 4.15598   9
   7   0  -1 50.2387 3.60018   1
   7   0  -1 66.3310 4.08383   1
   7   0  -1 66.4344 3.89704   6
   7   0  -1 52.8441 3.52366   6
  -7   0   1 64.5784 3.99050   1
  -7   0   1 71.8933 4.19208  11
  -7   0   1 64.5353 4.13407   9
  -7   0   1 69.7720 4.06790   5
  -7   0   1 61.2720 3.85663   1
  -7   0   1 62.7190 4.25379  12
   6   0  -1 23.5401 2.49138   1
   6   0  -1 26.1613 2.13344   1
   6   0  -1 22.6616 2.33037   6
   6   0  -1 25.5645 2.00101   6
   6   0  -1 24.0832 2.22077   2
   6   0  -1 23.1694 2.51533   9
  -6   0   1 24.6669 2.12352   6
  -6   0   1 21.0931 2.46124   9
  -6   0   1 28.6445 2.46439  11
  -6   0   1 26.3462 2.48356  12
  -6   0   1 24.2619 2.23769   1
  -6   0   1 27.2813 2.43587   1
  -6   0   1 23.8094 2.40085   5
   5   0  -1 5.33019 0.98080   1
   5   0  -1 3.69042 0.98485   9
   5   0  -1 4.70485 1.19315  11
   5   0  -1 5.40886 0.89380   6
   5   0  -1 4.95759 1.20868   1
   5   0  -1 5.96608 1.10311   2
   5   0  -1 4.11355 1.07004   6
  -5   0   1 5.03828 0.88764   6
  -5   0   1 3.94776 1.09287   1
  -5   0   1 5.79399 1.09301  11
  -5   0   1 4.44932 0.88275   1
  -5   0   1 4.04606 0.95517   5
  -5   0   1 5.76462 1.24411   9
   4   0  -1 293.619 12.7343   1
   4   0  -1 278.320 12.8792   9
   4   0  -1 284.446 12.7205   6
   4   0  -1 292.499 12.8814  11
   4   0  -1 304.164 12.7246   6
   4   0  -1 315.873 12.6144   2
   4   0  -1 288.482 12.7487   1
  -4   0   1 307.947 12.9338   9
  -4   0   1 279.397 12.7231   1
  -4   0   1 308.495 12.8799  11
  -4   0   1 280.718 12.7081   6
  -4   0   1 298.531 12.7537   1
  -4   0   1 307.105 12.8484   5
   3   0  -1 108.328 5.01908   1
   3   0  -1 106.296 5.12040   9
   3   0  -1 105.568 5.09568  11
   3   0  -1 111.059 5.00185   1
   3   0  -1 107.455 4.98324   6
   3   0  -1 115.899 4.99810   6
  -3   0   1 119.060 5.14052  11
  -3   0   1 106.229 4.98323   6
  -3   0   1 106.945 5.01535   1
  -3   0   1 117.484 5.17307   9
  -3   0   1 110.586 5.01717   1
   2   0  -1 16.1690 1.35237   9
   2   0  -1 15.9866 1.28600   1
   2   0  -1 16.4380 1.22962   6
   2   0  -1 15.9987 1.29860  11
   2   0  -1 16.2164 1.18120   6
   2   0  -1 15.7737 1.26227   1
  -2   0   1 16.3991 1.39662   9
  -2   0   1 15.9969 1.31600  11
  -2   0   1 15.3743 1.26535   1
  -2   0   1 16.0684 1.19339   6
  -2   0   1 15.5920 1.28882   7
  -2   0   1 16.4160 1.29411   1
   1   0  -1 18.4316 1.09367   6
   1   0  -1 19.9276 1.10915   6
   1   0  -1 19.0837 1.10572  11
   1   0  -1 20.3109 1.10038   7
   1   0  -1 19.7697 1.14410   1
   1   0  -1 19.2380 1.12899   1
  -1   0   1 21.0519 1.12795  11
  -1   0   1 20.1603 1.14332   1
  -1   0   1 20.1108 1.11676   6
  -1   0   1 19.5565 1.10390   6
  -1   0   1 20.8529 1.11597   9
  -1   0   1 20.3009 1.10488   7
  -1   0   1 19.3528 1.14150   1
   0   0  -1 800.083 32.2926  10
   0   0  -1 786.689 32.3110   7
   0   0  -1 757.191 32.2835   6
   0   0  -1 789.314 32.2774   4
   0   0  -1 801.634 32.2905   1
   0   0  -1 737.371 32.2831   1
   0   0   1 765.767 32.2812   6
   0   0   1 798.669 32.3159   7
   0   0   1 762.341 32.2728   4
   0   0   1 753.794 32.2831   1
   0   0   1 739.563 32.2817  10
  -1   0  -1 508.537 21.6878   9
  -1   0  -1 494.468 21.8009   2
  -1   0  -1 529.353 21.6698   5
  -1   0  -1 549.688 21.6746  10
  -1   0  -1 532.150 21.6738   7
  -1   0  -1 555.859 21.6696   4
   1   0   1 508.484 21.6687  10
   1   0   1 499.964 21.6579   4
   1   0   1 472.271 21.6572   5
  -2   0  -1 96.3298 4.29773   5
  -2   0  -1 93.7459 4.47777   2
  -2   0  -1 92.9830 4.26602  11
  -2   0  -1 93.5131 4.35898   9
  -2   0  -1 100.097 4.25380   4
  -2   0  -1 99.8036 4.27238  10
   2   0   1 91.3725 4.27263  11
  -3   0  -1 68.0146 3.18394   5
  -3   0  -1 62.9983 3.17395  11
  -3   0  -1 65.0276 3.10978   4
  -3   0  -1 62.6681 3.23855   9
  -3   0  -1 63.3495 3.38029   2
   3   0   1 59.4215 3.23744   9
  -4   0  -1 132.467 6.32494   9
  -4   0  -1 128.272 6.26731  12
  -4   0  -1 133.302 6.37035   2
  -4   0  -1 142.308 6.26719   5
  -4   0  -1 135.241 6.21859  11
  -4   0  -1 140.160 6.18150   4
  -5   0  -1 100.910 5.11621  11
  -5   0  -1 105.898 5.15207   5
  -5   0  -1 102.566 5.01245   4
  -5   0  -1 96.0648 5.27787   2
  -5   0  -1 90.8829 5.14251  12
  -5   0  -1 110.367 5.38467   9
  -6   0  -1 84.2306 4.52595   4
  -6   0  -1 87.4901 5.08275   9
  -6   0  -1 87.0038 4.60332  10
  -6   0  -1 85.1964 4.82219   5
  -6   0  -1 75.9382 4.86627   2
  -6   0  -1 74.1413 4.84014   3
  -6   0  -1 80.8622 4.84203  12
  -6   0  -1 87.7110 4.72754  11
  -7   0  -1 43.7687 4.22701   9
  -7   0  -1 41.5556 4.25600  12
  -7   0  -1 41.8816 3.78096  10
  -7   0  -1 45.0115 4.34607   3
  -7   0  -1 43.6764 4.36698   2
  -7   0  -1 39.8701 3.63678   4
  -7   0  -1 43.3761 3.98389   5
  -7   0  -1 45.7440 4.06653  11
  -8   0  -1 20.5328 3.08499   5
  -8   0  -1 22.7150 3.60497  12
  -8   0  -1 20.3890 2.84684  10
  -8   0  -1 16.6398 3.41707   9
  -8   0  -1 21.6617 3.22277   8
  -8   0  -1 19.9223 3.61153   3
  -8   0  -1 21.6976 3.33287  11
  -8   0  -1 27.9689 4.15697   4
   9  -1  -1 17.1057 3.27214   9
   9  -1  -1 14.0787 2.83258   6
   9  -1  -1 17.5407 3.29748   1
   9  -1  -1 13.4932 2.97911   6
   9  -1  -1 15.7936 2.77066   1
  -9   1   1 13.2525 3.09183   1
  -9   1   1 18.0269 3.06234   5
  -9   1   1 10.8728 3.41838  12
  -9   1   1 13.9364 2.64599   4
  -9   1   1 10.8498 2.89674   1
  -9   1   1 15.3629 3.39006   7
  -9   1   1 10.8554 3.09813   9
  -9   1   1 11.4705 3.34836  11
   8  -1  -1 37.0527 4.18058   1
   8  -1  -1 43.5759 3.93502   6
   8  -1  -1 37.3227 4.30080   9
   8  -1  -1 36.2729 3.50877   1
  -8   1   1 40.4051 3.90562   7
  -8   1   1 41.5095 4.16046  11
  -8   1   1 31.1035 4.04708   9
  -8   1   1 31.0200 3.77606   5
  -8   1   1 35.9018 4.11933  12
  -8   1   1 41.9040 3.83375   1
  -8   1   1 37.8317 3.70834   1
  -8   1   1 43.2690 3.94151   4
   7  -1  -1 80.2617 5.04706   9
   7  -1  -1 82.8907 4.56715   1
   7  -1  -1 81.0366 4.93789   1
   7  -1  -1 86.7530 4.76180   6
   7  -1  -1 87.6090 4.49010   6
   7  -1  -1 91.1621 4.74958   2
  -7   1   1 82.1057 4.81191   1
  -7   1   1 85.6834 4.80931   5
  -7   1   1 82.4573 4.58590   1
  -7   1   1 77.7754 4.48425   6
  -7   1   1 88.6379 5.03693  11
  -7   1   1 84.0487 5.02817   9
  -7   1   1 77.4832 4.78037   7
   6  -1  -1 0.33246 1.06276   9
   6  -1  -1 1.57541 1.33892   2
   6  -1  -1 2.21495 1.07929   1
   6  -1  -1 0.52199 1.07828   6
   6  -1  -1 2.71090 1.39022  11
   6  -1  -1 1.17241 1.36318   1
   6  -1  -1 2.82668 1.21422   6
  -6   1   1 0.39451 1.30463  11
  -6   1   1 1.34562 1.16820   1
  -6   1   1 1.29017 0.99535   5
  -6   1   1 -0.9371 1.15150   9
  -6   1   1 1.08934 1.07598   6
  -6   1   1 2.36138 1.35513   1
  -6   1   1 1.41142 1.44462   7
   5  -1  -1 1.15319 1.00450   6
   5  -1  -1 0.93587 0.76873   6
   5  -1  -1 1.25726 1.09355   2
   5  -1  -1 1.90952 1.12174   1
   5  -1  -1 1.48529 0.85920   1
   5  -1  -1 0.43883 1.04181  11
   5  -1  -1 1.68135 1.00757   9
  -5   1   1 0.12409 1.03622   1
  -5   1   1 0.30835 0.86685  11
  -5   1   1 0.49633 1.10147   7
  -5   1   1 0.94321 0.98934   9
  -5   1   1 0.99331 0.71450   6
  -5   1   1 1.00616 0.86069   5
  -5   1   1 0.66071 0.77321   1
   4  -1  -1 71.8986 3.66851  11
   4  -1  -1 68.9681 3.59771   1
   4  -1  -1 62.8097 3.67316   9
   4  -1  -1 70.6441 3.48757   2
   4  -1  -1 73.0121 3.48763   6
   4  -1  -1 74.0732 3.50115   1
  -4   1   1 74.9840 3.63805  11
  -4   1   1 73.8066 3.54267   7
  -4   1   1 67.8677 3.68899   9
  -4   1   1 72.5785 3.62737   5
  -4   1   1 69.8290 3.56956   1
  -4   1   1 66.1718 3.41729   6
  -4   1   1 65.4115 3.45477   1
   3  -1  -1 53.6143 2.76206   1
   3  -1  -1 56.3257 2.73132   6
   3  -1  -1 52.5211 2.90278  11
   3  -1  -1 52.1168 2.82820   1
   3  -1  -1 49.6917 2.89027   9
  -3   1   1 50.0010 2.70639   6
  -3   1   1 53.3055 2.74491   7
  -3   1   1 49.5978 2.77291   1
  -3   1   1 59.8431 2.87013  11
  -3   1   1 54.1486 2.91034   9
  -3   1   1 62.0977 2.86635   5
  -3   1   1 53.3610 2.80046   1
   2  -1  -1 532.505 23.3765   5
   2  -1  -1 527.810 23.4083  11
   2  -1  -1 589.981 23.3968   1
   2  -1  -1 530.101 23.3743   1
   2  -1  -1 522.015 23.3397   7
   2  -1  -1 606.719 23.4022   6
   2  -1  -1 528.712 23.4249   9
  -2   1   1 556.767 23.3855   5
  -2   1   1 610.274 23.4588   9
  -2   1   1 530.754 23.3754   1
  -2   1   1 554.899 23.3529   7
  -2   1   1 546.343 23.3772   6
  -2   1   1 565.083 23.3892   1
   1  -1  -1 172.451 7.37513   5
   1  -1  -1 174.601 7.41038  11
   1  -1  -1 167.048 7.41675   9
   1  -1  -1 167.887 7.41685   1
   1  -1  -1 178.327 7.41629   6
   1  -1  -1 170.980 7.38910   7
  -1   1   1 170.781 7.40570   6
  -1   1   1 176.018 7.39131   7
  -1   1   1 177.659 7.37445   5
  -1   1   1 164.816 7.40634   1
  -1   1   1 178.910 7.40749  11
  -1   1   1 170.314 7.41258   1
   0  -1  -1 7.09128 0.68010   7
   0  -1  -1 7.10984 0.65135   3
   0  -1  -1 6.40406 0.69124   1
   0  -1  -1 7.65858 0.65350   8
   0  -1  -1 7.39549 0.61212  11
   0  -1  -1 6.89589 0.63932   6
   0  -1  -1 7.37866 0.50883   5
   0  -1  -1 6.87766 0.66824   1
   0   1   1 6.59933 0.67224   1
   0   1   1 7.21762 0.63053   8
   0   1   1 7.52275 0.64070   3
   0   1   1 8.49319 0.68749   7
   0   1   1 7.99795 0.61021  11
   0   1   1 5.23528 0.63753   1
   0   1   1 7.22723 0.51154   5
   0   1   1 6.60068 0.61333   6
  -1  -1  -1 58.2977 2.76435   3
  -1  -1  -1 62.8993 2.63813   1
  -1  -1  -1 63.6966 2.79959   7
  -1  -1  -1 55.9089 2.63658   1
  -1  -1  -1 58.7322 2.76456   8
   1   1   1 57.7922 2.75761   3
   1   1   1 66.6954 2.80365   7
   1   1   1 58.2165 2.76533   8
   1   1   1 64.3991 2.64536   1
  -2  -1  -1 134.363 6.01758  12
  -2  -1  -1 133.671 6.06641   3
  -2  -1  -1 147.958 6.13434   9
  -2  -1  -1 134.770 6.05358   8
  -3  -1  -1 38.6530 2.10424   5
  -3  -1  -1 36.5078 2.20311   9
  -3  -1  -1 33.7338 2.12769   3
  -3  -1  -1 35.8173 2.09945  11
  -3  -1  -1 35.3994 2.14687   8
  -3  -1  -1 35.4027 2.14676  12
  -3  -1  -1 35.6441 2.24549   2
  -4  -1  -1 107.638 5.26348   8
  -4  -1  -1 117.305 5.25457   5
  -4  -1  -1 118.668 5.40504   9
  -4  -1  -1 105.698 5.32911   3
  -4  -1  -1 110.254 5.23979  11
  -4  -1  -1 110.734 5.35632   2
  -4  -1  -1 105.817 5.28243  12
  -5  -1  -1 144.665 6.62061  11
  -5  -1  -1 137.684 6.65979   8
  -5  -1  -1 133.871 6.69197  12
  -5  -1  -1 136.173 6.70913   2
  -5  -1  -1 143.283 6.64933   5
  -5  -1  -1 145.090 6.80819   9
  -5  -1  -1 142.895 6.44509   4
  -5  -1  -1 133.788 6.74324   3
  -6  -1  -1 90.1960 5.09451   9
  -6  -1  -1 84.0926 4.95004  12
  -6  -1  -1 89.2804 4.83400   8
  -6  -1  -1 82.9713 4.58291   4
  -6  -1  -1 88.8169 4.86894   5
  -6  -1  -1 95.9332 4.86269  11
  -6  -1  -1 81.6466 4.95620   2
  -6  -1  -1 80.4005 5.02468   3
  -7  -1  -1 69.1886 4.60195  11
  -7  -1  -1 67.1430 4.51149   8
  -7  -1  -1 68.2185 4.77444  12
  -7  -1  -1 61.0153 4.76200   3
  -7  -1  -1 70.7861 4.99848   9
  -7  -1  -1 60.2812 4.55722   5
  -7  -1  -1 59.2778 4.61634   2
  -7  -1  -1 67.5647 4.24204   4
  -8  -1  -1 36.4984 4.98651  12
  -8  -1  -1 35.5602 4.52833   8
  -8  -1  -1 37.0303 5.22499   3
  -8  -1  -1 37.3144 4.89400   5
  -8  -1  -1 31.8237 5.09131   9
  -8  -1  -1 39.9004 4.27246  10
  -8  -1  -1 33.9732 5.06499   2
  -8  -1  -1 40.0328 4.71940  11
  -8  -1  -1 49.9951 4.18288   4
   9  -2  -1 53.8254 4.99847   1
   9  -2  -1 51.8918 6.40167   9
   9  -2  -1 64.5308 6.61570   6
   9  -2  -1 44.7003 4.82376   6
   9  -2  -1 55.1166 7.36622   1
  -9   2   1 53.6423 6.07722  11
  -9   2   1 56.9073 6.00349  12
  -9   2   1 53.4140 5.50201   4
  -9   2   1 51.4194 6.11120   1
  -9   2   1 54.3636 5.57248   5
  -9   2   1 62.7418 5.51290   1
  -9   2   1 64.4917 5.95615   7
  -9   2   1 51.7389 5.89812   9
   8  -2  -1 36.1393 5.21015  11
   8  -2  -1 40.8220 4.15427   6
   8  -2  -1 33.0040 4.24558   2
   8  -2  -1 39.3940 3.61782   6
   8  -2  -1 39.2602 3.67970   1
   8  -2  -1 47.1278 4.70347   1
   8  -2  -1 42.9982 4.63241   9
  -8   2   1 38.2603 4.24338   4
  -8   2   1 40.1958 3.61946   6
  -8   2   1 48.5809 4.51808   7
  -8   2   1 41.9850 4.07316   5
  -8   2   1 38.8021 4.33011   9
  -8   2   1 42.7465 3.76535   1
  -8   2   1 35.9756 4.13099   1
  -8   2   1 46.4702 4.54288  11
   7  -2  -1 62.4766 3.89594   6
   7  -2  -1 69.2242 4.40044   2
   7  -2  -1 73.2764 4.56946   1
   7  -2  -1 69.7622 4.24992   6
   7  -2  -1 67.8131 4.87468  11
   7  -2  -1 71.7493 4.03986   1
  -7   2   1 63.8978 4.58185  11
  -7   2   1 70.7695 4.34128   1
  -7   2   1 68.8789 4.29209   5
  -7   2   1 63.9432 4.33580   7
  -7   2   1 66.7384 4.31724   4
  -7   2   1 58.6462 4.11886   1
  -7   2   1 62.8527 3.98165   6
  -7   2   1 67.6994 4.50593   9
   6  -2  -1 16.5270 1.99929   6
   6  -2  -1 19.7953 2.89784  11
   6  -2  -1 19.3180 2.57667   9
   6  -2  -1 18.5382 2.60366   2
   6  -2  -1 20.3759 2.19170   1
   6  -2  -1 20.3463 2.84783   1
   6  -2  -1 20.9450 2.52896   6
  -6   2   1 18.1590 2.21681   1
  -6   2   1 18.0363 2.28054   5
  -6   2   1 20.5726 2.44665   4
  -6   2   1 21.7848 2.50054   7
  -6   2   1 21.8877 2.07281   6
  -6   2   1 24.6459 2.51424   1
  -6   2   1 16.0399 2.34043   9
  -6   2   1 21.6547 2.58069  11
   5  -2  -1 3.67204 1.35258   2
   5  -2  -1 2.02591 1.23498   1
   5  -2  -1 3.97130 0.94710   6
   5  -2  -1 3.86496 1.21120  11
   5  -2  -1 3.83785 1.13640   9
   5  -2  -1 2.93949 0.98425   1
  -5   2   1 3.63067 1.24587   9
  -5   2   1 2.22660 1.18689   1
  -5   2   1 2.49112 1.04541   1
  -5   2   1 3.47130 0.98812   5
  -5   2   1 2.21563 1.17675   7
  -5   2   1 3.63165 1.06867  11
  -5   2   1 2.22094 0.87204   6
   4  -2  -1 37.4807 2.67596   9
   4  -2  -1 45.0156 2.42905   6
   4  -2  -1 41.0081 2.62674   1
   4  -2  -1 40.8577 2.60057  11
   4  -2  -1 43.8874 2.64449   2
   4  -2  -1 43.1047 2.47448   1
  -4   2   1 40.8740 2.43939   1
  -4   2   1 43.4668 2.56297   5
  -4   2   1 44.6799 2.59264   1
  -4   2   1 40.0824 2.34864   6
  -4   2   1 42.2257 2.49311   7
  -4   2   1 47.3505 2.75780   9
  -4   2   1 46.2945 2.57936  11
   3  -2  -1 115.623 5.63525   5
   3  -2  -1 128.185 5.61544   1
   3  -2  -1 121.859 5.71217  11
   3  -2  -1 126.555 5.58995   6
   3  -2  -1 120.093 5.73199   9
   3  -2  -1 121.103 5.63520   1
  -3   2   1 119.053 5.55846   6
  -3   2   1 123.371 5.53740   7
  -3   2   1 126.248 5.68030  11
  -3   2   1 121.291 5.65059   5
  -3   2   1 127.996 5.74477   9
  -3   2   1 126.911 5.63435   1
  -3   2   1 116.944 5.58166   1
   2  -2  -1 4.51721 0.85845   1
   2  -2  -1 5.43712 0.87360   7
   2  -2  -1 4.73753 0.91694   9
   2  -2  -1 3.86800 0.81697   6
   2  -2  -1 5.15251 0.82724  11
   2  -2  -1 4.93249 0.83885   1
   2  -2  -1 4.52401 0.79492   5
  -2   2   1 4.88688 0.82668   7
  -2   2   1 4.25801 0.86212   1
  -2   2   1 4.97649 0.79539   5
  -2   2   1 5.00456 0.81548   1
  -2   2   1 5.06184 0.87744  11
  -2   2   1 5.11858 0.80344   6
   1  -2  -1 393.998 16.7765   5
   1  -2  -1 373.297 16.7602   7
   1  -2  -1 389.005 16.8167  11
   1  -2  -1 417.237 16.8328   6
   1  -2  -1 388.495 16.8201   1
   1  -2  -1 400.805 16.8230   1
  -1   2   1 409.201 16.8276  11
  -1   2   1 400.483 16.8216   1
  -1   2   1 400.591 16.8234   6
  -1   2   1 407.337 16.7808   5
  -1   2   1 398.730 16.7934   4
  -1   2   1 382.891 16.8119   1
  -1   2   1 388.952 16.7825   8
  -1   2   1 402.838 16.7670   7
   0  -2  -1 0.59794 0.50992   1
   0  -2  -1 0.89848 0.55546   8
   0  -2  -1 1.63396 0.58673   3
   0  -2  -1 1.36269 0.50826   6
   0  -2  -1 1.42244 0.43915   5
   0  -2  -1 1.88083 0.61673   7
   0  -2  -1 0.31969 0.51871   1
   0  -2  -1 0.98673 0.50451  11
   0   2   1 1.33995 0.55281   1
   0   2   1 0.70639 0.48716   6
   0   2   1 0.93993 0.39330   4
   0   2   1 1.31968 0.58821   3
   0   2   1 1.51324 0.59077   8
   0   2   1 1.03947 0.50904   1
   0   2   1 1.57229 0.55714  11
   0   2   1 1.42724 0.60098   7
  -1  -2  -1 108.018 4.36967   1
  -1  -2  -1 109.624 4.35939   6
  -1  -2  -1 90.7762 4.40672   8
  -1  -2  -1 97.7959 4.43104   7
  -1  -2  -1 98.4260 4.21521   4
  -1  -2  -1 92.8186 4.41269   3
  -1  -2  -1 95.8838 4.20828  10
   1   2   1 98.0918 4.41811   8
   1   2   1 104.969 4.35971   1
   1   2   1 98.3015 4.37167   6
   1   2   1 97.9300 4.22496   4
   1   2   1 104.427 4.44171   7
   1   2   1 90.9385 4.43131   1
   1   2   1 96.1449 4.42726   3
  -2  -2  -1 166.951 7.43984   3
  -2  -2  -1 152.284 7.22324   4
  -2  -2  -1 172.513 7.25780   6
  -2  -2  -1 172.063 7.26401   1
  -2  -2  -1 169.905 7.26484   1
  -2  -2  -1 175.126 7.45034   7
  -2  -2  -1 166.345 7.42937   8
   2   2   1 170.415 7.44388   3
   2   2   1 173.889 7.39021  12
   2   2   1 174.250 7.27004   1
   2   2   1 174.984 7.43703   8
  -3  -2  -1 311.809 13.1205   1
  -3  -2  -1 306.442 13.1278   1
  -3  -2  -1 305.614 13.3967   3
  -3  -2  -1 298.764 13.3487   8
   3   2   1 321.428 13.3281  12
   3   2   1 313.079 13.1268   1
   3   2   1 315.676 13.1074   1
  -4  -2  -1 233.708 10.5324   2
  -4  -2  -1 230.230 10.1684   1
  -4  -2  -1 231.027 10.5697   3
  -4  -2  -1 259.678 10.6696   9
  -4  -2  -1 243.759 10.4953  11
  -4  -2  -1 234.180 10.5097   8
  -5  -2  -1 44.1415 3.17198   2
  -5  -2  -1 46.0152 3.20284  12
  -5  -2  -1 50.1851 3.04007  11
  -5  -2  -1 49.0679 3.24768   9
  -5  -2  -1 44.0106 3.02002   5
  -5  -2  -1 48.0832 3.22670   3
  -5  -2  -1 46.3914 3.09930   8
  -6  -2  -1 13.4229 2.06267   2
  -6  -2  -1 13.9416 2.06138  12
  -6  -2  -1 13.6283 1.77488   5
  -6  -2  -1 12.4360 2.02137   9
  -6  -2  -1 13.3484 1.82465  11
  -6  -2  -1 16.5196 2.20907   3
  -6  -2  -1 13.6220 1.98732   8
  -7  -2  -1 39.7916 4.01484   9
  -7  -2  -1 39.4628 3.80836   8
  -7  -2  -1 34.1941 3.75131   2
  -7  -2  -1 42.0351 3.99436   3
  -7  -2  -1 35.9498 3.78674   5
  -7  -2  -1 38.5863 3.66119  11
  -7  -2  -1 39.5014 3.29585   4
  -8  -2  -1 45.3731 4.71861   8
  -8  -2  -1 42.9379 5.37923   3
  -8  -2  -1 43.8023 4.63952   5
  -8  -2  -1 34.6113 4.01280   4
  -8  -2  -1 43.2738 4.70029  11
  -8  -2  -1 31.2827 4.76899   2
  -8  -2  -1 38.0943 5.06260   9
   8  -3  -1 7.60918 2.95439   1
   8  -3  -1 6.16798 2.88602   9
   8  -3  -1 13.3036 3.09708   2
   8  -3  -1 6.12372 2.31547   6
   8  -3  -1 10.4339 3.25277  11
   8  -3  -1 8.02923 2.65905   6
   8  -3  -1 11.0954 2.30670   1
  -8   3   1 5.37392 2.42157   1
  -8   3   1 2.59827 2.45055   9
  -8   3   1 5.40559 2.33889   6
  -8   3   1 9.50394 2.33077   5
  -8   3   1 5.42281 2.58628  11
  -8   3   1 7.26811 2.91521   7
  -8   3   1 6.39174 2.61712   1
  -8   3   1 10.6603 2.22748   4
   7  -3  -1 48.9620 3.65765   1
   7  -3  -1 53.3730 4.04962   6
   7  -3  -1 55.3635 4.40783   1
   7  -3  -1 49.2807 3.57371   6
   7  -3  -1 48.7134 4.15982   2
  -7   3   1 50.9477 3.91609   4
  -7   3   1 50.7373 4.28244   9
  -7   3   1 50.9053 3.74106   1
  -7   3   1 50.9650 4.03020   7
  -7   3   1 52.3774 3.75330   5
  -7   3   1 54.8979 4.17595   1
  -7   3   1 50.6145 3.52873   6
  -7   3   1 47.4643 4.15969  11
   6  -3  -1 33.7811 3.27977   2
   6  -3  -1 37.9459 3.40236  11
   6  -3  -1 39.9036 3.48670   1
   6  -3  -1 36.7337 3.43316   9
   6  -3  -1 37.6611 2.78771   1
   6  -3  -1 41.2686 2.75441   6
  -6   3   1 35.4892 2.82441   6
  -6   3   1 36.8685 3.11975   1
  -6   3   1 37.3318 3.07912   1
  -6   3   1 37.4781 3.27881  11
  -6   3   1 36.4162 3.01895   4
  -6   3   1 39.6151 3.03573   7
  -6   3   1 34.0663 3.33391   9
  -6   3   1 36.4381 2.84750   5
   5  -3  -1 48.4362 3.26380   9
   5  -3  -1 49.8001 2.90356   6
   5  -3  -1 50.7508 3.34282   1
   5  -3  -1 48.0306 3.29463  11
   5  -3  -1 48.7149 2.92735   1
   5  -3  -1 51.3544 3.39822   2
  -5   3   1 47.3178 2.93271   1
  -5   3   1 50.9210 3.32832   9
  -5   3   1 49.3722 3.11900   7
  -5   3   1 51.7966 3.24484  11
  -5   3   1 50.3614 3.19414   1
  -5   3   1 48.6611 3.06365   5
  -5   3   1 51.2512 3.14031   4
  -5   3   1 45.3869 2.79613   6
   4  -3  -1 208.086 9.64448  11
   4  -3  -1 207.744 9.68591   9
   4  -3  -1 212.846 9.56639   2
   4  -3  -1 215.357 9.59859   1
   4  -3  -1 220.974 9.48920   6
   4  -3  -1 218.395 9.48535   1
   4  -3  -1 202.395 9.57667   5
  -4   3   1 225.510 9.55151   1
  -4   3   1 221.946 9.58009   5
  -4   3   1 217.717 9.60182   4
  -4   3   1 200.543 9.42852   6
  -4   3   1 216.635 9.41672   7
  -4   3   1 199.341 9.46277   1
  -4   3   1 220.263 9.60639  11
   3  -3  -1 135.714 6.33984   5
   3  -3  -1 141.040 6.28094   6
   3  -3  -1 132.485 6.18252   7
   3  -3  -1 135.883 6.40907   9
   3  -3  -1 135.596 6.33190   1
   3  -3  -1 141.513 6.28767   1
   3  -3  -1 132.376 6.34687  11
  -3   3   1 141.700 6.32023   5
  -3   3   1 142.341 6.31099   1
  -3   3   1 144.503 6.36621  11
  -3   3   1 128.405 6.24612   6
  -3   3   1 147.731 6.37815   4
  -3   3   1 125.099 6.23843   1
  -3   3   1 143.842 6.18342   7
   2  -3  -1 181.418 7.69129   6
   2  -3  -1 162.825 7.69624  11
   2  -3  -1 180.594 7.69769   1
   2  -3  -1 164.620 7.74102   9
   2  -3  -1 170.096 7.68232   1
   2  -3  -1 167.566 7.56705   7
   2  -3  -1 168.232 7.67324   5
  -2   3   1 176.257 7.68215   4
  -2   3   1 173.281 7.65632   1
  -2   3   1 176.543 7.55001   7
  -2   3   1 168.226 7.65038   6
  -2   3   1 177.624 7.66663   5
  -2   3   1 170.369 7.63887   8
  -2   3   1 166.217 7.66619   1
  -2   3   1 190.287 7.73852  11
   1  -3  -1 188.571 8.46214   7
   1  -3  -1 198.355 8.55433   1
   1  -3  -1 182.718 8.52976   1
   1  -3  -1 206.277 8.55826   6
   1  -3  -1 194.580 8.56827  11
   1  -3  -1 190.568 8.52995   8
   1  -3  -1 184.715 8.47674   5
  -1   3   1 200.601 8.56245  11
  -1   3   1 200.259 8.55120   1
  -1   3   1 199.185 8.50802   4
  -1   3   1 181.482 8.51941   1
  -1   3   1 193.090 8.55973   3
  -1   3   1 203.108 8.51873   5
  -1   3   1 188.974 8.52368   6
  -1   3   1 212.437 8.53343   8
  -1   3   1 203.559 8.46637   7
   0  -3  -1 34.8368 1.96228   4
   0  -3  -1 36.7436 2.08293   1
   0  -3  -1 37.9400 2.13875   8
   0  -3  -1 36.0896 2.08405   1
   0  -3  -1 37.4608 2.10185  11
   0  -3  -1 39.5167 2.07678   7
   0  -3  -1 38.6873 2.04929   5
   0  -3  -1 37.9410 2.19123   3
   0  -3  -1 38.4019 2.05350   6
   0   3   1 37.0736 2.04202   6
   0   3   1 35.5961 2.10360   1
   0   3   1 39.4216 1.98372   4
   0   3   1 38.8343 2.16606   3
   0   3   1 35.4344 2.07576   1
   0   3   1 39.4128 1.99357  10
   0   3   1 39.3154 2.11956  11
   0   3   1 39.5653 2.05244   7
   0   3   1 38.2114 2.13666   8
  -1  -3  -1 208.802 9.06969   7
  -1  -3  -1 201.274 9.05706   8
  -1  -3  -1 207.386 8.90656  10
  -1  -3  -1 219.550 9.03033   6
  -1  -3  -1 204.151 9.03466   1
  -1  -3  -1 206.616 8.90128   4
  -1  -3  -1 214.267 9.03433   1
  -1  -3  -1 199.304 9.06379   3
   1   3   1 208.616 8.90606   4
   1   3   1 210.201 9.06568   8
   1   3   1 191.719 9.00046   1
   1   3   1 210.514 8.90214  10
   1   3   1 232.766 9.09480   7
   1   3   1 201.241 9.00514   6
   1   3   1 217.645 9.04140   1
   1   3   1 213.597 9.09225   3
  -2  -3  -1 10.3655 1.03289   1
  -2  -3  -1 9.15670 1.21570   7
  -2  -3  -1 9.73068 1.15334   1
  -2  -3  -1 12.0064 1.06910   6
  -2  -3  -1 9.48715 0.82870  10
  -2  -3  -1 8.38822 0.86218   4
  -2  -3  -1 9.36074 1.10344   3
  -2  -3  -1 9.00931 1.04120   8
   2   3   1 9.49813 1.29269   3
   2   3   1 8.90793 1.05542   1
   2   3   1 10.2879 1.26342   8
   2   3   1 10.9325 1.10608   1
   2   3   1 9.49162 0.94794   6
  -3  -3  -1 403.548 17.0722   7
  -3  -3  -1 382.212 16.8006  10
  -3  -3  -1 384.514 16.8293   4
  -3  -3  -1 400.746 17.0913   3
  -3  -3  -1 377.912 16.8697   1
  -3  -3  -1 394.658 17.0625   8
  -3  -3  -1 379.279 16.8570   6
  -3  -3  -1 397.626 16.8698   1
   3   3   1 419.780 17.0630   8
   3   3   1 419.819 17.0465  12
   3   3   1 416.128 16.8828   1
   3   3   1 402.713 17.0758   3
  -4  -3  -1 168.613 7.45326   1
  -4  -3  -1 166.075 7.84648   3
  -4  -3  -1 168.741 7.44951   6
  -4  -3  -1 170.427 7.47841   1
  -4  -3  -1 163.778 7.75774   8
  -4  -3  -1 179.935 7.88994   9
   4   3   1 174.294 7.73207  12
   4   3   1 176.300 7.47425   1
  -5  -3  -1 22.3622 2.39289  11
  -5  -3  -1 23.9486 1.76977   1
  -5  -3  -1 21.0289 2.43064   2
  -5  -3  -1 25.0549 2.44849   8
  -5  -3  -1 25.4202 1.84781   1
  -5  -3  -1 23.7329 2.53712   3
  -5  -3  -1 26.7858 2.57654   9
   5   3   1 25.2922 1.83544   1
   5   3   1 24.2113 1.73037   1
  -6  -3  -1 8.51548 1.87572   9
  -6  -3  -1 10.0061 1.95234   8
  -6  -3  -1 9.19039 1.70790  11
  -6  -3  -1 10.1071 1.96889   2
  -6  -3  -1 10.1733 1.99757   3
  -7  -3  -1 40.9515 4.19696   3
  -7  -3  -1 52.5223 4.01200  11
  -7  -3  -1 47.5405 4.23118   9
  -7  -3  -1 46.5621 4.03489   8
  -7  -3  -1 46.5912 3.96821   5
  -7  -3  -1 42.6600 3.86648   2
  -8  -3  -1 26.5873 3.35100   8
  -8  -3  -1 26.6884 3.16874  11
  -8  -3  -1 27.7981 3.35521   9
  -8  -3  -1 33.0439 3.74316   4
  -8  -3  -1 26.6520 3.63851   3
  -8  -3  -1 31.0413 4.45912   5
  -8  -3  -1 28.3499 3.48134   2
   8  -4  -1 9.87775 2.72170   6
   8  -4  -1 5.43290 2.91472   6
   8  -4  -1 9.07789 2.50825   1
   8  -4  -1 7.69659 3.59995   2
   8  -4  -1 7.76461 3.74720  11
   8  -4  -1 12.1257 3.45297   1
   8  -4  -1 1.89581 3.15524   9
  -8   4   1 6.56648 2.60330   1
  -8   4   1 6.24654 2.53095   5
  -8   4   1 7.19943 2.46587   6
  -8   4   1 11.1836 2.72633   4
  -8   4   1 5.08981 2.83704  10
  -8   4   1 9.98230 2.86387   1
  -8   4   1 1.78630 2.77806  11
  -8   4   1 8.19846 3.12840   7
   7  -4  -1 6.41957 2.51118   9
   7  -4  -1 12.8917 2.00506   1
   7  -4  -1 11.0382 2.79071   2
   7  -4  -1 11.2593 1.94812   6
   7  -4  -1 8.38299 2.70174   1
  -7   4   1 7.64675 1.97437   6
  -7   4   1 10.5428 2.23116  11
  -7   4   1 5.42295 1.94635   4
  -7   4   1 12.5716 2.48778   7
  -7   4   1 5.96587 2.02577  10
  -7   4   1 11.1959 2.21425   1
   6  -4  -1 23.1802 3.37672   1
   6  -4  -1 22.1027 3.30809   2
   6  -4  -1 18.6165 2.40177   6
   6  -4  -1 22.1864 3.17080   9
   6  -4  -1 27.0960 2.49890   1
   6  -4  -1 23.5590 3.40404  11
  -6   4   1 20.4162 2.62665   1
  -6   4   1 20.5351 3.11414   1
  -6   4   1 25.3187 2.93336   7
  -6   4   1 27.1351 2.56777   5
  -6   4   1 25.5442 2.64549   4
  -6   4   1 20.4123 2.26705   6
  -6   4   1 22.9331 2.76967  11
   5  -4  -1 73.9296 3.84208   6
   5  -4  -1 71.2173 4.04350   5
   5  -4  -1 68.9218 4.28533   1
   5  -4  -1 71.1254 3.86615   1
   5  -4  -1 70.7993 4.24272  11
   5  -4  -1 69.4060 4.28913   9
   5  -4  -1 77.6812 4.36337   2
  -5   4   1 75.1016 4.23067   1
  -5   4   1 70.5758 3.88168   7
  -5   4   1 72.2841 4.02289   5
  -5   4   1 60.7336 3.66419   6
  -5   4   1 68.4547 4.04499  11
  -5   4   1 71.6371 3.98674   4
  -5   4   1 64.9262 3.85521   1
   4  -4  -1 115.793 5.51874   1
   4  -4  -1 111.309 5.63831   5
   4  -4  -1 109.817 5.66439  11
   4  -4  -1 118.596 5.51194   6
   4  -4  -1 111.062 5.73139   9
   4  -4  -1 115.851 5.68888   1
  -4   4   1 119.303 5.57419   4
  -4   4   1 107.980 5.41188   6
  -4   4   1 107.653 5.45142   1
  -4   4   1 117.972 5.41499   7
  -4   4   1 117.090 5.65951   1
  -4   4   1 120.353 5.60873   5
  -4   4   1 115.146 5.61839  11
   3  -4  -1 158.625 7.44835   1
   3  -4  -1 163.654 7.36949   6
   3  -4  -1 152.910 7.41771   5
   3  -4  -1 157.257 7.43654  11
   3  -4  -1 162.433 7.24799   7
   3  -4  -1 165.970 7.38823   1
   3  -4  -1 157.501 7.51671   9
  -3   4   1 151.979 7.32224   6
  -3   4   1 163.917 7.32923   8
  -3   4   1 167.617 7.44601  11
  -3   4   1 153.816 7.35656   1
  -3   4   1 167.939 7.43920   5
  -3   4   1 166.930 7.43093   1
  -3   4   1 168.725 7.42077   4
  -3   4   1 169.596 7.22496   7
   2  -4  -1 146.931 7.14188   5
   2  -4  -1 152.392 7.21762  11
   2  -4  -1 167.236 7.20554   1
   2  -4  -1 151.951 7.04120   7
   2  -4  -1 154.954 7.19912   1
   2  -4  -1 162.785 7.18826   6
  -2   4   1 162.783 7.21404  10
  -2   4   1 164.102 7.17627   4
  -2   4   1 162.756 7.01593   7
  -2   4   1 151.678 7.16542   1
  -2   4   1 162.518 7.20241   1
  -2   4   1 149.221 7.13568   6
  -2   4   1 167.249 7.23318  11
  -2   4   1 162.697 7.17054   5
  -2   4   1 163.928 7.14022   8
   1  -4  -1 1.16897 0.76593   7
   1  -4  -1 0.33217 0.60945   5
   1  -4  -1 1.13169 0.76852   8
   1  -4  -1 1.94451 0.71163   1
   1  -4  -1 1.37126 0.70142   6
   1  -4  -1 1.79683 0.82657  11
   1  -4  -1 0.78791 0.67997   1
   1  -4  -1 1.15582 0.60680   4
  -1   4   1 1.49648 0.72419   5
  -1   4   1 1.18093 0.61641   4
  -1   4   1 1.64275 0.69190   6
  -1   4   1 1.86327 0.72247  11
  -1   4   1 1.86709 0.74628   8
  -1   4   1 1.15281 0.68842   7
  -1   4   1 0.49149 0.71958   1
  -1   4   1 0.54172 0.67449   1
  -1   4   1 0.45037 0.63182  10
  -1   4   1 0.78359 0.80080   3
   0  -4  -1 591.211 25.3089   4
   0  -4  -1 589.609 25.3283   7
   0  -4  -1 637.635 25.4197   6
   0  -4  -1 594.031 25.3977  11
   0  -4  -1 560.857 25.3668   1
   0  -4  -1 595.664 25.3402   5
   0  -4  -1 578.128 25.3598   8
   0  -4  -1 599.573 25.4228   3
   0   4   1 609.486 25.3619   8
   0   4   1 564.851 25.3579   6
   0   4   1 626.641 25.3344   7
   0   4   1 621.768 25.4189   3
   0   4   1 625.739 25.3170   4
   0   4   1 633.850 25.3379  10
   0   4   1 608.793 25.4099   1
   0   4   1 552.163 25.3556   1
  -1  -4  -1 1.81140 0.76294   3
  -1  -4  -1 2.55167 0.85728   7
  -1  -4  -1 2.45842 0.57495   4
  -1  -4  -1 3.33388 0.76740   6
  -1  -4  -1 1.70771 0.58477  10
  -1  -4  -1 1.06742 0.74267   8
  -1  -4  -1 2.51396 0.74603   1
  -1  -4  -1 1.77062 0.73611   1
   1   4   1 2.42698 0.59451  10
   1   4   1 2.20033 0.70629   1
   1   4   1 1.32907 0.55484   4
   1   4   1 1.16364 0.77996   3
   1   4   1 2.65876 0.75669   6
   1   4   1 2.49136 0.74230   1
   1   4   1 1.79462 0.72598   7
   1   4   1 2.31447 0.75798   8
  -2  -4  -1 1.98332 0.55029  10
  -2  -4  -1 1.19990 0.75586   7
  -2  -4  -1 2.20386 0.79311   6
  -2  -4  -1 2.40476 0.83865   3
  -2  -4  -1 2.22402 0.76456   8
  -2  -4  -1 2.25263 0.69205   1
  -2  -4  -1 2.28231 0.78483   1
  -2  -4  -1 1.41077 0.53799   4
   2   4   1 2.39905 0.72819   1
   2   4   1 1.39661 0.56828   4
   2   4   1 2.18349 0.70591   1
   2   4   1 2.52277 0.57662  10
   2   4   1 2.80272 0.85471   8
   2   4   1 1.08777 0.72494   3
   2   4   1 2.32839 0.69702   6
  -3  -4  -1 307.470 13.7843   7
  -3  -4  -1 311.565 13.5334   4
  -3  -4  -1 316.875 13.6459   1
  -3  -4  -1 311.686 13.5044  10
  -3  -4  -1 342.772 13.6861   1
  -3  -4  -1 313.074 13.8091   3
  -3  -4  -1 308.613 13.7809   8
  -3  -4  -1 336.745 13.6671   6
   3   4   1 316.952 13.8266   3
   3   4   1 330.274 13.6502   1
   3   4   1 308.134 13.6168   1
   3   4   1 310.556 13.6173   6
   3   4   1 321.980 13.7699   8
  -4  -4  -1 163.318 7.67404   8
  -4  -4  -1 179.472 7.48308   1
  -4  -4  -1 162.805 7.65955   7
  -4  -4  -1 161.258 7.34990  10
  -4  -4  -1 164.260 7.41768   1
  -4  -4  -1 180.925 7.45792   6
  -4  -4  -1 165.415 7.76518   3
  -4  -4  -1 158.721 7.40403   4
   4   4   1 172.499 7.45254   1
   4   4   1 169.188 7.74683   3
   4   4   1 155.090 7.36777   6
   4   4   1 174.270 7.65596   8
   4   4   1 179.783 7.70200  12
   4   4   1 160.472 7.38425   1
  -5  -4  -1 15.7921 1.91441  10
  -5  -4  -1 18.3680 1.74740   1
  -5  -4  -1 18.1878 2.32618   9
  -5  -4  -1 14.1017 1.81293   8
  -5  -4  -1 16.5678 2.01974   4
  -5  -4  -1 15.5268 1.74914   6
  -5  -4  -1 15.5853 2.41104   3
  -5  -4  -1 15.4507 1.83343   1
   5   4   1 14.8863 2.15831  12
   5   4   1 14.0040 1.77266   1
  -6  -4  -1 76.0787 4.42204   9
  -6  -4  -1 68.4764 3.62022   6
  -6  -4  -1 69.5797 4.46530   3
  -6  -4  -1 69.4985 3.64671   1
  -6  -4  -1 63.5114 4.00019   4
  -6  -4  -1 70.1187 3.68589   1
  -6  -4  -1 72.7463 4.34451  11
  -6  -4  -1 67.5480 4.28180   8
  -6  -4  -1 64.2565 4.22699   2
   6   4   1 70.2325 3.56566   6
   6   4   1 74.2759 3.71057   1
   6   4   1 60.1469 3.45089   6
   6   4   1 69.0651 3.49932   1
  -7  -4  -1 42.1506 3.72791   4
  -7  -4  -1 35.6869 3.70408   2
  -7  -4  -1 30.0068 3.58402   8
  -7  -4  -1 38.6469 4.00880   9
  -7  -4  -1 39.9575 4.11601   3
  -7  -4  -1 39.3982 3.96088  11
  -8  -4  -1 22.7292 3.61234   3
  -8  -4  -1 21.3008 2.86801   5
  -8  -4  -1 13.7194 3.20300   9
  -8  -4  -1 30.9901 4.54761   4
  -8  -4  -1 18.9527 3.06345   2
  -8  -4  -1 16.2485 3.12196   8
  -8  -4  -1 20.9022 3.03588  11
   8  -5  -1 6.22152 3.41435   6
   8  -5  -1 3.13844 3.95987  11
   8  -5  -1 6.41611 2.94369   6
   8  -5  -1 6.64416 3.72895   1
   8  -5  -1 12.2031 3.87185   9
   8  -5  -1 7.01946 4.03118   2
   8  -5  -1 5.26192 2.84877   1
  -8   5   1 6.99940 3.27123   7
  -8   5   1 3.94339 2.99662   1
  -8   5   1 9.74398 2.76245   6
  -8   5   1 11.2918 3.40172   8
  -8   5   1 4.60775 3.08236   4
  -8   5   1 4.04783 2.67745  10
  -8   5   1 0.66013 2.62575   5
  -8   5   1 5.56907 3.10231  11
  -8   5   1 8.40271 3.41946   1
   7  -5  -1 3.32409 1.96274   1
   7  -5  -1 3.74183 2.95665   2
   7  -5  -1 3.25748 1.99594   6
   7  -5  -1 1.89993 2.55306   9
   7  -5  -1 0.80059 2.81552   1
   7  -5  -1 3.22465 2.83075  11
  -7   5   1 4.05164 2.22297  10
  -7   5   1 0.06835 1.88851   6
  -7   5   1 2.29149 2.54162   1
  -7   5   1 -1.1444 1.85581   4
  -7   5   1 -0.0687 2.32004   1
  -7   5   1 1.40802 2.26222  11
  -7   5   1 -0.0218 2.33413   7
  -7   5   1 4.38436 2.10320   8
   6  -5  -1 25.4902 3.79456   2
   6  -5  -1 23.7675 2.62000   1
   6  -5  -1 21.6065 2.83251   1
   6  -5  -1 21.3555 2.55111   6
  -6   5   1 20.2179 2.35818   6
  -6   5   1 25.5518 3.41493   1
  -6   5   1 23.0209 3.04320   7
  -6   5   1 27.4120 2.97035   8
  -6   5   1 25.0271 2.73571   1
  -6   5   1 18.7818 2.37986  11
  -6   5   1 20.7972 2.43540   5
   5  -5  -1 12.3984 1.92136   9
   5  -5  -1 14.8721 2.28268   2
   5  -5  -1 11.8951 1.54960   6
   5  -5  -1 12.0188 1.65262   1
   5  -5  -1 12.6946 2.07382   1
   5  -5  -1 11.8104 1.90891  11
   5  -5  -1 8.16844 1.48804   5
  -5   5   1 14.5175 1.74122  11
  -5   5   1 12.3149 1.74051   7
  -5   5   1 12.1142 1.63945   6
  -5   5   1 12.0247 1.98776   1
  -5   5   1 13.0555 1.92421   1
  -5   5   1 8.47747 1.49000   4
  -5   5   1 9.80302 1.49589   8
  -5   5   1 8.94522 1.55046   5
   4  -5  -1 49.5282 3.33554  11
   4  -5  -1 55.5092 3.09583   6
   4  -5  -1 47.8446 3.42136   9
   4  -5  -1 48.5941 3.49450   1
   4  -5  -1 50.7713 3.35986   5
   4  -5  -1 49.8556 3.08067   7
   4  -5  -1 57.1337 3.15410   1
  -4   5   1 53.2730 3.36855  10
  -4   5   1 45.0372 2.92728   6
  -4   5   1 57.2471 3.30202  11
  -4   5   1 55.8608 3.05852   7
  -4   5   1 44.5738 2.95547   1
  -4   5   1 45.3519 2.99216   8
  -4   5   1 51.8225 3.22353   4
  -4   5   1 55.5341 3.25613   5
   3  -5  -1 156.599 6.96666   6
   3  -5  -1 141.311 6.98852   5
   3  -5  -1 159.784 6.97915   1
   3  -5  -1 139.266 6.94824  11
   3  -5  -1 143.822 7.06932   9
   3  -5  -1 148.879 7.06150   1
   3  -5  -1 146.113 6.78443   7
  -3   5   1 152.400 6.94710   5
  -3   5   1 152.236 6.85138   8
  -3   5   1 148.547 6.99675  10
  -3   5   1 156.250 7.04851   1
  -3   5   1 148.513 6.96083  11
  -3   5   1 139.897 6.89845   1
  -3   5   1 148.001 6.93346   4
  -3   5   1 136.761 6.87031   6
  -3   5   1 151.496 6.71749   7
   2  -5  -1 32.8502 2.20390   1
   2  -5  -1 32.6734 2.22381   5
   2  -5  -1 33.7605 2.39421   1
   2  -5  -1 33.5563 2.17445   6
   2  -5  -1 32.9724 2.21266   7
   2  -5  -1 35.1436 2.40915  11
  -2   5   1 33.4137 2.14000   8
  -2   5   1 32.6600 2.38601   1
  -2   5   1 32.5492 2.06291   7
  -2   5   1 34.3965 2.26112   5
  -2   5   1 30.0136 2.09662   6
  -2   5   1 35.6477 2.33134  11
  -2   5   1 33.1035 2.15624   1
  -2   5   1 35.8391 2.27113   3
  -2   5   1 36.2199 2.26607   4
  -2   5   1 34.8292 2.30391  10
   1  -5  -1 6.35980 1.02397   1
   1  -5  -1 7.48117 1.00672   4
   1  -5  -1 9.41727 1.34337   6
   1  -5  -1 6.00326 1.00346   5
   1  -5  -1 7.02640 1.16120  11
   1  -5  -1 6.92923 1.03084   1
  -1   5   1 7.19480 0.99699   4
  -1   5   1 5.73119 0.92282   6
  -1   5   1 7.80983 1.12973   3
  -1   5   1 6.20989 0.95637  10
  -1   5   1 6.02581 1.03036  11
  -1   5   1 8.88361 1.17972   1
  -1   5   1 6.31109 0.99922   1
  -1   5   1 6.20651 0.99737   5
   0  -5  -1 10.0799 1.42945   1
   0  -5  -1 6.09050 0.97212   5
   0  -5  -1 8.07945 1.05240   7
   0  -5  -1 7.37253 1.03830  11
   0  -5  -1 8.38141 1.10040   1
   0  -5  -1 7.90290 1.16718   4
   0  -5  -1 7.25524 1.07969   3
   0  -5  -1 6.01915 1.02397   8
   0  -5  -1 7.66502 1.01349   6
   0   5   1 8.22370 1.19845  10
   0   5   1 5.96339 0.89604   4
   0   5   1 7.05458 1.01084   1
   0   5   1 7.45834 1.07208   1
   0   5   1 7.47420 1.07724   3
   0   5   1 6.24337 0.96122   6
   0   5   1 7.77937 1.09826   7
   0   5   1 9.08311 1.10683   8
  -1  -5  -1 0.56300 0.80028   7
  -1  -5  -1 1.13897 0.62209   4
  -1  -5  -1 1.40775 0.80471   1
  -1  -5  -1 0.36402 0.72795   3
  -1  -5  -1 1.10694 0.84102   6
  -1  -5  -1 0.20921 0.74370   1
  -1  -5  -1 0.18702 0.65124  10
  -1  -5  -1 -0.0421 0.82535   8
   1   5   1 -0.0228 0.74996   6
   1   5   1 0.13206 0.80882   3
   1   5   1 0.32193 0.63658  10
   1   5   1 -0.0457 0.73197   1
   1   5   1 0.98967 0.66420   7
   1   5   1 0.14511 0.67772   1
   1   5   1 -0.2865 0.72379   8
   1   5   1 0.64632 0.59869   4
  -2  -5  -1 108.774 5.33954   7
  -2  -5  -1 111.173 5.30945   1
  -2  -5  -1 112.814 5.17880   4
  -2  -5  -1 119.346 5.38825   1
  -2  -5  -1 109.146 5.38447   8
  -2  -5  -1 112.741 5.42063   3
  -2  -5  -1 125.220 5.42267   6
  -2  -5  -1 115.475 5.18105  10
   2   5   1 115.729 5.33230   1
   2   5   1 109.256 5.33802   1
   2   5   1 116.097 5.37252   8
   2   5   1 119.509 5.45625   3
   2   5   1 117.263 5.19246  10
   2   5   1 118.007 5.21603   4
   2   5   1 112.786 5.33766   6
  -3  -5  -1 171.639 8.11627   8
  -3  -5  -1 175.731 8.20022   3
  -3  -5  -1 177.947 8.15887   7
  -3  -5  -1 174.404 7.84950  10
  -3  -5  -1 175.779 7.87461   4
  -3  -5  -1 193.801 8.07520   6
  -3  -5  -1 170.321 7.98763   1
  -3  -5  -1 196.803 8.11439   1
   3   5   1 173.280 8.01116   1
   3   5   1 185.145 8.11904   8
   3   5   1 175.972 8.00526   6
   3   5   1 189.611 8.04122   1
   3   5   1 183.309 8.19586   3
  -4  -5  -1 125.504 5.66898  10
  -4  -5  -1 121.085 5.99428   8
  -4  -5  -1 128.939 5.72129   4
  -4  -5  -1 122.968 5.79760   1
  -4  -5  -1 129.172 5.83849   6
  -4  -5  -1 116.535 5.95082   7
  -4  -5  -1 136.348 5.91549   1
  -4  -5  -1 122.688 6.08626   3
   4   5   1 124.298 5.97936   8
   4   5   1 118.898 5.79559   1
   4   5   1 130.306 6.04782  12
   4   5   1 130.045 6.10865   3
   4   5   1 116.437 5.74447   6
   4   5   1 128.964 5.82057   1
  -5  -5  -1 109.075 5.31524   4
  -5  -5  -1 118.033 5.40865   1
  -5  -5  -1 108.242 5.81533   3
  -5  -5  -1 107.234 5.28707   1
  -5  -5  -1 107.948 5.22529  10
  -5  -5  -1 117.183 5.34788   6
  -5  -5  -1 107.352 5.54082   7
  -5  -5  -1 108.668 5.65406   8
   5   5   1 124.758 5.73989  12
   5   5   1 119.753 5.39737   1
   5   5   1 100.114 5.20429   6
   5   5   1 103.407 5.27326   1
   5   5   1 112.003 5.72244   3
  -6  -5  -1 119.230 5.93490   6
  -6  -5  -1 117.075 6.32840   7
  -6  -5  -1 123.740 5.98037  10
  -6  -5  -1 118.125 6.08814   4
  -6  -5  -1 139.726 6.70360   9
  -6  -5  -1 124.045 6.46242   8
  -6  -5  -1 123.394 5.91948   1
  -6  -5  -1 122.929 5.99114   1
  -6  -5  -1 125.398 6.66467   3
   6   5   1 128.323 6.00737   1
   6   5   1 130.917 6.48751  12
  -7  -5  -1 9.17168 2.54416   3
  -7  -5  -1 5.90121 1.57886   1
  -7  -5  -1 5.67630 2.12486  11
  -7  -5  -1 5.02230 2.11204   9
  -7  -5  -1 7.18403 2.24634   7
  -7  -5  -1 5.77099 1.78072  10
  -7  -5  -1 6.72502 2.51064   8
  -7  -5  -1 5.66584 1.73841   1
  -7  -5  -1 5.28572 1.64545   6
  -7  -5  -1 7.71215 2.16954   2
  -7  -5  -1 6.23464 1.83225   4
   7   5   1 4.51357 1.36841   6
   7   5   1 8.37919 1.53727   1
   7   5   1 9.01244 1.75103   1
   7   5   1 6.74610 1.51092   6
  -8  -5  -1 23.5587 3.56648   9
  -8  -5  -1 29.6510 4.15926   7
  -8  -5  -1 38.8323 4.90190  11
  -8  -5  -1 38.6677 4.83656   8
  -8  -5  -1 29.0662 3.64337   2
  -8  -5  -1 37.1417 4.12447  10
  -8  -5  -1 33.2556 4.96350   3
  -8  -5  -1 39.1978 4.29944   4
   7  -6  -1 3.69025 2.23453   6
   7  -6  -1 4.55767 3.20080   9
   7  -6  -1 3.81641 3.31273   1
   7  -6  -1 7.09006 3.65017   2
   7  -6  -1 2.16294 3.27044  11
   7  -6  -1 5.94206 2.26053   1
  -7   6   1 6.00645 2.55336   1
  -7   6   1 7.74348 2.69705   7
  -7   6   1 6.99399 3.93487   4
  -7   6   1 1.72163 2.14311   6
  -7   6   1 -2.1167 2.49761  11
  -7   6   1 4.81281 2.49606   8
  -7   6   1 7.38551 3.10961   1
   6  -6  -1 3.56689 1.73918   1
   6  -6  -1 0.60329 2.38893   9
   6  -6  -1 3.03677 3.00979   2
   6  -6  -1 1.91124 2.57039   1
   6  -6  -1 4.34032 2.33098  11
   6  -6  -1 2.81613 1.72756   6
  -6   6   1 1.80790 1.76231   1
  -6   6   1 -1.0537 1.92714  11
  -6   6   1 3.78232 2.33905   1
  -6   6   1 3.73977 2.00149   7
  -6   6   1 2.28423 1.86604   8
  -6   6   1 3.93931 1.46940   6
   5  -6  -1 -0.6816 1.69505  11
   5  -6  -1 4.28798 1.31951   1
   5  -6  -1 3.33801 1.86315   9
   5  -6  -1 7.47613 2.15636   1
   5  -6  -1 7.38215 2.23803   2
   5  -6  -1 2.23425 1.63467   6
  -5   6   1 2.36606 1.35846   8
  -5   6   1 1.51995 1.51744  11
  -5   6   1 3.58482 1.72894   7
  -5   6   1 2.02938 1.24179   5
  -5   6   1 3.35637 1.97136   1
   4  -6  -1 12.2025 1.80140   5
   4  -6  -1 13.7176 1.73939   1
   4  -6  -1 15.8002 2.36564  11
   4  -6  -1 13.9283 1.82601   6
   4  -6  -1 14.3568 2.00651   9
   4  -6  -1 12.9540 2.10469   1
   4  -6  -1 18.6103 2.27047   7
  -4   6   1 16.7026 1.82037   8
  -4   6   1 16.2381 2.21614   5
  -4   6   1 16.6513 2.13500   4
  -4   6   1 18.2677 2.03239   3
  -4   6   1 18.9226 2.48513  10
  -4   6   1 15.8986 2.15939   1
  -4   6   1 13.4529 1.62327   1
  -4   6   1 10.3347 1.48379   6
  -4   6   1 19.3188 2.11520   7
   3  -6  -1 69.4012 4.57470   9
   3  -6  -1 83.9092 4.51652  11
   3  -6  -1 84.3121 4.51322   5
   3  -6  -1 80.6792 4.69702   1
   3  -6  -1 92.9567 4.47519   1
   3  -6  -1 91.7197 4.44408   6
   3  -6  -1 84.9352 4.39264   7
  -3   6   1 87.5644 4.49080   5
  -3   6   1 89.6426 4.55632  10
  -3   6   1 86.8916 4.74114  11
  -3   6   1 89.6229 4.22876   7
  -3   6   1 76.9595 4.30941   3
  -3   6   1 86.0948 4.72541   1
  -3   6   1 88.1089 4.50982   4
  -3   6   1 73.6503 4.32317   1
  -3   6   1 71.5067 4.29127   6
  -3   6   1 88.1816 4.32474   8
   2  -6  -1 65.9347 3.79081  11
   2  -6  -1 62.2094 3.79403   1
   2  -6  -1 65.0003 3.62550   5
   2  -6  -1 67.7525 3.64392   6
   2  -6  -1 66.1403 3.61850   7
  -2   6   1 66.9904 3.86048   1
  -2   6   1 69.2168 3.47518   7
  -2   6   1 69.4520 3.60118   8
  -2   6   1 72.4231 3.75751   5
  -2   6   1 60.7191 3.56405   1
  -2   6   1 61.1423 3.54389   6
  -2   6   1 67.2580 3.80548   3
  -2   6   1 69.5995 3.73058  11
  -2   6   1 67.7994 3.69186  10
  -2   6   1 67.5060 3.68161   4
   1  -6  -1 1.18907 0.72239   4
   1  -6  -1 1.20979 0.87566   1
   1  -6  -1 1.91415 1.07285   7
   1  -6  -1 2.79706 1.07461   1
   1  -6  -1 1.37944 1.01626  11
   1  -6  -1 1.03316 0.80477   6
   1  -6  -1 2.22683 1.02409   8
   1  -6  -1 0.69469 0.83847   5
  -1   6   1 0.48527 0.74277  10
  -1   6   1 0.83202 0.79413   7
  -1   6   1 2.48502 0.95798   5
  -1   6   1 1.03167 0.86320   6
  -1   6   1 2.21956 0.88985   8
  -1   6   1 1.72617 0.80643   1
  -1   6   1 1.57080 0.83742  11
  -1   6   1 2.39298 1.01339   1
  -1   6   1 0.91883 0.77139   4
  -1   6   1 1.29522 0.88930   3
   0  -6  -1 -0.1037 0.91146   1
   0  -6  -1 0.04376 0.77280   5
   0  -6  -1 -0.3661 0.88775   7
   0  -6  -1 -0.1444 0.77271  11
   0  -6  -1 0.43215 0.83636   1
   0  -6  -1 0.58181 0.91654   6
   0  -6  -1 0.69395 0.85088   8
   0  -6  -1 -0.3594 0.94246   3
   0  -6  -1 0.93051 0.79354   4
   0   6   1 0.98730 0.90142   1
   0   6   1 0.00410 0.69262   7
   0   6   1 -0.1188 0.77718   1
   0   6   1 0.25928 0.78551   8
   0   6   1 -0.3339 0.72620   4
   0   6   1 -0.2193 0.81509   6
   0   6   1 1.04201 0.76387  10
   0   6   1 -0.9948 0.81607   3
  -1  -6  -1 116.004 5.66793   3
  -1  -6  -1 117.853 5.56016  10
  -1  -6  -1 115.684 5.65422   8
  -1  -6  -1 117.002 5.57918   7
  -1  -6  -1 112.298 5.64761   1
  -1  -6  -1 115.180 5.49989   4
  -1  -6  -1 132.609 5.74274   6
  -1  -6  -1 113.966 5.63438  11
  -1  -6  -1 117.186 5.59457   5
  -1  -6  -1 128.763 5.73492   1
   1   6   1 127.619 5.53098  10
   1   6   1 120.906 5.50394   4
   1   6   1 124.559 5.53823   7
   1   6   1 111.535 5.58353   6
   1   6   1 124.081 5.63469   8
   1   6   1 106.659 5.59067   1
   1   6   1 118.051 5.65297   3
   1   6   1 124.331 5.68776   1
  -2  -6  -1 1.86390 0.87605   3
  -2  -6  -1 -0.2299 0.98665   1
  -2  -6  -1 1.07782 0.76461   4
  -2  -6  -1 0.58381 0.76071  10
  -2  -6  -1 1.11370 0.90571   7
  -2  -6  -1 0.02218 1.01200   8
  -2  -6  -1 0.28547 1.01373   6
  -2  -6  -1 1.95854 0.80075   1
   2   6   1 -0.8858 0.75965   8
   2   6   1 0.82085 0.92088   6
   2   6   1 0.63249 0.98971   1
   2   6   1 0.48036 0.86247   3
   2   6   1 -1.3666 0.77138   1
   2   6   1 1.13261 0.75263  10
   2   6   1 0.15546 0.75149   4
  -3  -6  -1 11.8799 1.54541  10
  -3  -6  -1 10.7806 1.43933   8
  -3  -6  -1 12.6467 1.82723   6
  -3  -6  -1 15.4024 1.87638   3
  -3  -6  -1 11.9853 1.60580   4
  -3  -6  -1 12.2636 1.57876   1
  -3  -6  -1 11.4361 1.66694   7
  -3  -6  -1 14.5287 2.01249   1
   3   6   1 12.1367 1.65777   8
   3   6   1 12.4015 1.71266   6
   3   6   1 14.1435 1.88584   3
   3   6   1 15.4646 1.63962  10
   3   6   1 13.8585 1.69841   4
   3   6   1 12.3607 1.86776   1
   3   6   1 12.1472 1.70647   1
  -4  -6  -1 64.8331 3.71483   7
  -4  -6  -1 63.2375 3.49256   1
  -4  -6  -1 68.9403 3.66102   6
  -4  -6  -1 64.4712 3.41120   4
  -4  -6  -1 64.6887 3.37064  10
  -4  -6  -1 62.6598 3.70577   8
  -4  -6  -1 66.7134 3.92316   3
  -4  -6  -1 67.5059 3.78580   1
   4   6   1 70.3074 3.56143   1
   4   6   1 61.5191 3.51668   6
   4   6   1 70.4971 3.90592   3
   4   6   1 62.3142 3.56307   8
   4   6   1 61.8491 3.56918   1
  -5  -6  -1 31.3719 2.81439   1
  -5  -6  -1 33.2616 2.74170   8
  -5  -6  -1 26.5873 2.50058   7
  -5  -6  -1 30.5840 2.37571  10
  -5  -6  -1 28.5430 2.53864   1
  -5  -6  -1 32.6328 2.50566   4
  -5  -6  -1 31.2837 2.60395   6
  -5  -6  -1 34.8992 3.02714   3
   5   6   1 30.0273 2.58041   1
   5   6   1 34.0044 2.55507   8
   5   6   1 34.3430 3.00811   3
   5   6   1 34.3387 2.98485  12
   5   6   1 26.6818 2.36763   6
   5   6   1 26.4281 2.52324   1
  -6  -6  -1 5.21257 2.06219   3
  -6  -6  -1 6.14270 1.54697   6
  -6  -6  -1 4.18998 2.05485   8
  -6  -6  -1 5.71428 1.52797   1
  -6  -6  -1 3.84364 1.41027   4
  -6  -6  -1 5.12380 1.46533  10
  -6  -6  -1 5.00083 1.65952   1
  -6  -6  -1 7.00847 1.68790   7
   6   6   1 4.11484 1.39987   6
   6   6   1 7.86352 1.89778   3
   6   6   1 4.16922 1.51670   1
   6   6   1 8.69369 1.85237  12
   6   6   1 8.57995 1.67294   1
  -7  -6  -1 31.3976 3.80044   8
  -7  -6  -1 29.2980 3.23488  10
  -7  -6  -1 25.4242 3.50366   4
  -7  -6  -1 24.9449 3.06538   1
  -7  -6  -1 25.9804 3.67073   2
  -7  -6  -1 26.8814 3.29957   3
  -7  -6  -1 28.4925 3.11782   6
  -7  -6  -1 37.9085 4.26773   9
  -7  -6  -1 30.0911 3.41157   7
  -7  -6  -1 37.1890 4.15214  11
  -7  -6  -1 30.9565 3.28966   1
   7   6   1 32.1527 2.87371   6
   7   6   1 29.3324 3.21066   1
  -8  -6  -1 31.2981 4.36100   7
  -8  -6  -1 39.4641 4.93086   8
  -8  -6  -1 37.9197 5.17874   9
  -8  -6  -1 31.5550 4.69475   2
  -8  -6  -1 31.2399 4.44437   4
  -8  -6  -1 44.4931 5.36156  11
  -8  -6  -1 30.7496 4.13784   3
  -8  -6  -1 33.6324 3.86360   1
  -8  -6  -1 27.8827 4.11566  10
  -8  -6  -1 31.4932 3.54287   1
   8   6   1 31.6333 3.36276   1
   8   6   1 42.4372 3.79210   1
   7  -7  -1 3.14380 4.10382   2
   7  -7  -1 4.61208 3.92895   9
   7  -7  -1 5.40472 3.87091   1
   7  -7  -1 13.2279 3.02970   1
   7  -7  -1 2.13286 2.73113   6
  -7   7   1 2.69296 4.06583   8
  -7   7   1 4.16038 3.58785   1
   6  -7  -1 -0.4409 1.99161   1
   6  -7  -1 -0.3996 2.72154   6
   6  -7  -1 0.71735 2.99425   1
   6  -7  -1 1.27344 2.95456   9
   6  -7  -1 0.93859 3.27497   2
   6  -7  -1 -2.2023 2.71028  11
  -6   7   1 0.52712 2.09775   6
  -6   7   1 2.20250 2.22526   7
  -6   7   1 3.01309 2.21279  11
  -6   7   1 1.43908 2.74287   1
  -6   7   1 0.02251 2.16669   8
   5  -7  -1 0.68260 1.54503   1
   5  -7  -1 -4.9760 3.02426  11
   5  -7  -1 -1.8777 2.39439   1
   5  -7  -1 4.31897 2.55356   2
  -5   7   1 -3.3500 1.69212   8
  -5   7   1 0.64059 1.83946   7
  -5   7   1 -2.4574 2.01042   1
   4  -7  -1 2.14047 1.89903   9
   4  -7  -1 2.55729 1.98272   1
   4  -7  -1 1.75345 1.29105   6
   4  -7  -1 2.04071 1.35357   1
   4  -7  -1 2.20982 1.62291   7
  -4   7   1 7.09810 1.56722   7
  -4   7   1 4.55853 1.30501   5
  -4   7   1 1.09581 1.83235   1
  -4   7   1 5.56874 1.42858   8
   3  -7  -1 33.9090 3.26578   1
   3  -7  -1 30.6422 2.64766   5
   3  -7  -1 34.8046 2.71490   1
   3  -7  -1 28.6818 3.02915   9
   3  -7  -1 31.6344 2.47954   6
   3  -7  -1 31.8112 2.81991  11
   3  -7  -1 32.0312 2.74874   7
  -3   7   1 29.3616 2.46415   1
  -3   7   1 32.8344 2.51520   8
  -3   7   1 31.9468 3.03262   1
  -3   7   1 35.7780 2.49293   7
  -3   7   1 29.1818 2.35808   6
  -3   7   1 26.1690 2.58786   5
  -3   7   1 28.8703 2.67435   4
   2  -7  -1 36.2814 2.80484   5
   2  -7  -1 50.6708 2.96340   1
   2  -7  -1 42.3501 3.14056   1
   2  -7  -1 47.6123 2.86721   6
   2  -7  -1 45.3607 3.04393   7
   2  -7  -1 45.3868 3.11869  11
  -2   7   1 37.4398 2.77953   1
  -2   7   1 44.2324 2.97130   5
  -2   7   1 44.6082 2.97875   4
  -2   7   1 38.0313 2.80183   6
  -2   7   1 43.7804 2.95213  11
  -2   7   1 46.4428 2.95365  10
  -2   7   1 44.8910 2.77097   8
  -2   7   1 44.4916 2.72726   7
  -2   7   1 44.6964 3.19710   1
  -2   7   1 46.4604 3.01710   3
   1  -7  -1 26.6014 2.44874   7
   1  -7  -1 27.4154 2.43765   8
   1  -7  -1 31.3686 2.36389   4
   1  -7  -1 30.7077 2.33196   6
   1  -7  -1 26.3172 2.55728  11
   1  -7  -1 35.8454 2.52812   1
   1  -7  -1 25.7586 2.34505   5
   1  -7  -1 30.5106 2.48729   1
  -1   7   1 30.7557 2.47427   3
  -1   7   1 26.3076 2.32584   1
  -1   7   1 29.3997 2.40598   4
  -1   7   1 30.1842 2.35931  10
  -1   7   1 31.0408 2.50086   1
  -1   7   1 29.1112 2.14956   7
  -1   7   1 31.1239 2.27574   8
  -1   7   1 26.3676 2.30827   6
   0  -7  -1 82.3063 4.24148   7
   0  -7  -1 75.3551 4.22535  11
   0  -7  -1 80.2494 4.35408   3
   0  -7  -1 88.3376 4.41855   6
   0  -7  -1 82.6026 4.27543   5
   0  -7  -1 91.1942 4.44697   1
   0  -7  -1 78.8583 4.28030   8
   0  -7  -1 77.7817 4.21398   4
   0  -7  -1 77.6943 4.27389   1
   0   7   1 83.4165 4.29918   1
   0   7   1 80.3388 4.25298   8
   0   7   1 76.2367 4.23087   6
   0   7   1 74.2504 4.26490   1
   0   7   1 81.2671 4.32158   3
   0   7   1 83.1316 4.24941   4
   0   7   1 86.3893 4.26319  10
   0   7   1 85.2736 4.12452   7
  -1  -7  -1 201.323 8.60038   6
  -1  -7  -1 184.431 8.45033  10
  -1  -7  -1 177.399 8.34818   7
  -1  -7  -1 179.343 8.36809   4
  -1  -7  -1 198.992 8.60316   1
  -1  -7  -1 175.746 8.44332   8
  -1  -7  -1 187.409 8.49879  11
  -1  -7  -1 184.335 8.45703   5
  -1  -7  -1 176.326 8.48843   3
   1   7   1 173.055 8.45509   1
   1   7   1 188.900 8.51219   3
   1   7   1 188.533 8.49169   1
   1   7   1 195.129 8.37677   4
   1   7   1 193.976 8.38815  10
   1   7   1 181.729 8.42578   8
   1   7   1 174.160 8.44079   6
  -2  -7  -1 25.4388 2.29866   3
  -2  -7  -1 29.9153 2.26743   1
  -2  -7  -1 31.4116 2.26908   7
  -2  -7  -1 31.1063 2.53949   6
  -2  -7  -1 27.2210 2.24740   4
  -2  -7  -1 26.5184 2.40883   8
  -2  -7  -1 30.2092 2.58968   1
  -2  -7  -1 27.2181 2.31255  10
   2   7   1 27.8526 2.20008   1
   2   7   1 25.4827 2.46440   1
   2   7   1 32.0360 2.27620   8
   2   7   1 26.2191 2.29989   6
   2   7   1 30.3598 2.32088   4
   2   7   1 26.4785 2.23143   3
   2   7   1 32.1626 2.27103  10
  -3  -7  -1 15.8050 1.80487   7
  -3  -7  -1 17.2642 2.06486   8
  -3  -7  -1 18.9281 2.23031   6
  -3  -7  -1 17.0870 2.11136   3
  -3  -7  -1 17.6285 1.93399   4
  -3  -7  -1 18.5503 1.96986  10
  -3  -7  -1 16.0866 1.82065   1
  -3  -7  -1 18.0505 2.43168   1
   3   7   1 16.2724 2.09191   6
   3   7   1 16.1672 2.09135   3
   3   7   1 17.3927 1.88728  10
   3   7   1 18.7192 1.93664   1
   3   7   1 18.3825 2.20365   1
   3   7   1 18.0033 2.02067   4
   3   7   1 18.6236 2.03194   8
  -4  -7  -1 3.62306 1.10309   1
  -4  -7  -1 3.30922 1.52497   1
  -4  -7  -1 3.48379 1.46115   3
  -4  -7  -1 2.53014 1.10656  10
  -4  -7  -1 3.30041 1.52575   8
  -4  -7  -1 1.43081 1.37682   6
  -4  -7  -1 0.79678 1.22107   7
  -4  -7  -1 2.66892 1.11225   4
   4   7   1 3.82802 1.15435   1
   4   7   1 1.03344 1.28877   1
   4   7   1 1.04721 1.19228   6
   4   7   1 1.99714 1.31447   3
   4   7   1 1.15201 1.07721   8
  -5  -7  -1 21.2457 2.60681   8
  -5  -7  -1 25.3960 2.65143   6
  -5  -7  -1 26.7329 2.48813   1
  -5  -7  -1 22.8032 2.47710   4
  -5  -7  -1 24.2141 2.97226   3
  -5  -7  -1 24.8878 2.36296  10
  -5  -7  -1 31.6323 3.03885   1
   5   7   1 25.6210 3.03013   3
   5   7   1 24.5918 2.60189   1
   5   7   1 26.6800 2.68264   1
   5   7   1 29.0160 3.09625  12
   5   7   1 24.4760 2.41101   6
   5   7   1 22.4247 2.45860   8
  -6  -7  -1 -0.7744 1.45444   4
  -6  -7  -1 3.39261 1.56119   1
  -6  -7  -1 0.38836 1.87232   1
  -6  -7  -1 2.01156 1.66865   6
  -6  -7  -1 3.66475 2.19527   3
  -6  -7  -1 2.40320 1.66578   8
  -6  -7  -1 4.41105 1.46197  10
  -6  -7  -1 1.46264 1.50499   7
   6   7   1 2.51023 2.06096  12
   6   7   1 2.37851 1.48325   6
   6   7   1 2.93448 1.68169   1
   6   7   1 0.00825 1.60591   1
   6   7   1 -0.7692 1.87937   3
  -7  -7  -1 27.4631 3.68621   1
  -7  -7  -1 33.1946 4.37290   3
  -7  -7  -1 28.5066 3.57349   7
  -7  -7  -1 34.4690 3.69119   8
  -7  -7  -1 24.2220 3.22831  10
  -7  -7  -1 28.7432 3.55235   4
  -7  -7  -1 28.5468 3.35693   1
  -7  -7  -1 33.3455 4.09029   9
  -7  -7  -1 24.3417 3.48095   6
   7   7   1 25.7988 2.91288   6
   7   7   1 27.5078 3.31321  12
   7   7   1 22.4410 2.58079   1
   7   7   1 21.7324 3.32080   1
  -8  -7  -1 11.0115 3.11741   7
  -8  -7  -1 9.80536 2.65191   4
  -8  -7  -1 17.9886 3.38631   8
  -8  -7  -1 12.0935 2.66512   1
  -8  -7  -1 8.84482 3.17597   9
  -8  -7  -1 8.69348 2.58485   1
  -8  -7  -1 17.9232 3.32242   2
  -8  -7  -1 11.4679 3.35624  11
  -8  -7  -1 22.5629 3.59846   3
  -8  -7  -1 15.1782 2.48274  10
  -8  -7  -1 13.3620 2.50194   6
   8   7   1 14.0675 2.51957   6
   8   7   1 17.1158 2.91433   1
   6  -8  -1 4.86798 4.15563   2
   6  -8  -1 0.77745 3.47606   9
   6  -8  -1 7.35485 3.82363   1
   6  -8  -1 3.77234 3.41811  11
   6  -8  -1 9.52132 3.68340   1
  -6   8   1 5.79261 2.68070   7
  -6   8   1 8.19740 2.75031   8
  -6   8   1 1.87061 3.18688   1
  -6   8   1 4.59253 2.78590   3
  -6   8   1 0.63569 2.46732  11
   5  -8  -1 8.30240 3.09704   2
   5  -8  -1 0.11902 2.52975   9
   5  -8  -1 0.69640 2.56067  11
   5  -8  -1 7.84669 2.82348   1
  -5   8   1 6.55453 2.27962   7
  -5   8   1 3.41971 2.14719   8
  -5   8   1 6.25821 2.70116   1
  -5   8   1 5.31481 2.26730   3
   4  -8  -1 10.6054 1.91790   1
   4  -8  -1 7.14890 2.00893   7
   4  -8  -1 11.0245 2.36384   1
  -4   8   1 8.79934 1.95720   8
  -4   8   1 8.29005 1.93782   7
  -4   8   1 10.8242 2.44900   1
   3  -8  -1 0.87703 1.21248   6
   3  -8  -1 1.41723 1.61333   7
   3  -8  -1 -0.2424 1.74334   1
   3  -8  -1 -0.5004 1.77457   9
   3  -8  -1 3.74265 1.37025   1
  -3   8   1 -1.0902 1.19245   8
  -3   8   1 -0.7989 1.41189   7
  -3   8   1 2.46740 1.73043   1
   2  -8  -1 16.6692 2.19544   1
   2  -8  -1 14.8818 1.77748   5
   2  -8  -1 20.9578 2.16496   6
   2  -8  -1 18.6745 2.50847  11
   2  -8  -1 19.1460 2.13412   7
  -2   8   1 20.0310 2.21082   4
  -2   8   1 14.3983 2.14723  10
  -2   8   1 17.7799 2.06449   6
  -2   8   1 22.7579 2.82570   1
  -2   8   1 13.6539 2.05310   1
  -2   8   1 17.0849 2.09522   7
  -2   8   1 19.9612 2.09940   8
  -2   8   1 24.4395 2.35206   5
   1  -8  -1 37.3780 3.07286  11
   1  -8  -1 37.3481 3.02442   1
   1  -8  -1 36.1312 2.85932   1
   1  -8  -1 35.3983 2.75455   8
   1  -8  -1 41.1916 2.83653   6
   1  -8  -1 34.7958 2.84721   4
   1  -8  -1 33.3341 2.74368   5
   1  -8  -1 34.2356 2.97720   7
  -1   8   1 36.3303 2.77517   3
  -1   8   1 37.5660 2.63500   8
  -1   8   1 39.1230 2.99791   1
  -1   8   1 37.0347 2.63538   7
  -1   8   1 31.9182 2.67177   6
  -1   8   1 34.3940 2.73298   1
  -1   8   1 38.3618 2.76622   4
  -1   8   1 35.5466 2.78631  10
   0  -8  -1 36.8638 2.86103  11
   0  -8  -1 37.5388 2.88691   1
   0  -8  -1 39.5572 2.99292   7
   0  -8  -1 37.3724 2.87429   5
   0  -8  -1 40.4800 2.95494   3
   0  -8  -1 34.7749 2.92542   8
   0  -8  -1 45.5417 3.14895   6
   0  -8  -1 47.7758 3.18821   1
   0  -8  -1 38.2208 2.83166   4
   0   8   1 40.7770 3.00191   4
   0   8   1 43.0187 2.80414   8
   0   8   1 41.7405 2.87063   1
   0   8   1 44.0641 2.78209   7
   0   8   1 43.7131 2.98088  10
   0   8   1 39.2529 2.88655   3
   0   8   1 35.8398 2.92862   1
   0   8   1 33.4198 2.83029   6
  -1  -8  -1 46.7146 3.31640   1
  -1  -8  -1 45.2985 3.15541   5
  -1  -8  -1 43.6685 2.90925   1
  -1  -8  -1 42.5100 3.07866   8
  -1  -8  -1 46.6833 3.03235   7
  -1  -8  -1 46.7529 3.22781  10
  -1  -8  -1 50.9531 3.30262   6
  -1  -8  -1 45.6515 2.98742   4
  -1  -8  -1 42.3567 3.07532   3
  -1  -8  -1 43.6004 2.96855  11
   1   8   1 44.1998 2.94729   3
   1   8   1 38.5000 3.14529   1
   1   8   1 46.9998 3.09571   4
   1   8   1 48.5372 2.95334   8
   1   8   1 47.1316 2.99421   1
   1   8   1 40.0418 3.05524   6
   1   8   1 46.6670 3.07105  10
  -2  -8  -1 22.0790 2.40514  11
  -2  -8  -1 22.0062 2.29689   1
  -2  -8  -1 26.8913 2.58220  10
  -2  -8  -1 24.2896 2.46418   4
  -2  -8  -1 23.7357 2.35512   7
  -2  -8  -1 21.6088 2.58916   5
  -2  -8  -1 28.7828 2.84190   1
  -2  -8  -1 28.6705 2.79287   6
  -2  -8  -1 22.6145 2.38482   3
  -2  -8  -1 24.5274 2.44971   8
   2   8   1 28.5096 2.54846   4
   2   8   1 23.8980 2.52112   6
   2   8   1 24.8922 2.65014   1
   2   8   1 25.6512 2.41024  10
   2   8   1 31.9041 2.42988   8
   2   8   1 21.9123 2.25083   1
   2   8   1 28.2972 2.36159   3
  -3  -8  -1 12.1729 1.54010   4
  -3  -8  -1 14.3845 2.11715   3
  -3  -8  -1 13.6897 1.93219   1
  -3  -8  -1 13.1306 1.88795   6
  -3  -8  -1 12.2454 1.69939   7
  -3  -8  -1 10.3626 1.72090   8
  -3  -8  -1 13.3191 1.57568  10
  -3  -8  -1 16.0103 1.83972   1
   3   8   1 10.3827 1.56109   4
   3   8   1 12.8390 1.82874   3
   3   8   1 10.5556 1.72729   6
   3   8   1 10.4606 1.49660  10
   3   8   1 10.8071 1.55850   8
   3   8   1 11.9578 1.83257   1
   3   8   1 15.0329 1.93704   1
  -4  -8  -1 30.9976 2.85532   3
  -4  -8  -1 30.4780 2.61454   4
  -4  -8  -1 28.4109 2.60173  10
  -4  -8  -1 27.6527 2.93924   6
  -4  -8  -1 28.7287 2.39841   1
  -4  -8  -1 28.7245 3.31829   1
  -4  -8  -1 24.5174 2.56286   8
   4   8   1 27.3160 2.85243   1
   4   8   1 21.0782 2.40580   1
   4   8   1 30.6948 2.98353   3
   4   8   1 28.6194 2.67947   4
   4   8   1 23.6870 2.71454   6
  -5  -8  -1 -1.6154 1.37882  10
  -5  -8  -1 1.89735 1.58347   8
  -5  -8  -1 1.54003 1.50711   4
  -5  -8  -1 1.06663 1.88552   6
  -5  -8  -1 2.63387 1.99241   1
  -5  -8  -1 -0.5291 1.87291   3
  -5  -8  -1 0.77512 1.59777   1
   5   8   1 1.62749 1.65634   1
   5   8   1 1.08582 1.66926   6
   5   8   1 -0.9111 1.82891   3
   5   8   1 3.16873 2.05354  12
   5   8   1 2.79617 1.56125   1
  -6  -8  -1 2.14988 1.91084   8
  -6  -8  -1 3.73906 2.01815   6
  -6  -8  -1 2.90653 2.22680   1
  -6  -8  -1 2.10330 1.79286   4
  -6  -8  -1 1.49801 1.85603   1
  -6  -8  -1 -0.9408 1.60884  10
  -6  -8  -1 5.90818 2.21632   3
   6   8   1 2.92855 1.79397   6
   6   8   1 -1.4153 1.93030   1
   6   8   1 0.14213 2.42857   3
   6   8   1 1.07957 1.87811   1
   6   8   1 5.01533 2.39156  12
   6   8   1 4.34920 1.90867   8
  -7  -8  -1 6.07327 2.38673   1
  -7  -8  -1 9.38862 2.71598   1
  -7  -8  -1 6.63542 2.02116  10
  -7  -8  -1 8.97995 2.59675   8
  -7  -8  -1 9.16510 2.19094   4
  -7  -8  -1 9.78374 3.24601   3
  -7  -8  -1 9.43524 2.56593   6
   7   8   1 8.87794 2.88543   3
   7   8   1 12.3319 2.43375   1
   7   8   1 8.70889 2.36076   1
   7   8   1 7.78150 2.35631   6
   7   8   1 15.6344 3.10517  12
  -8  -8  -1 5.59888 4.00871   3
   5  -9  -1 10.3654 3.95697   2
   5  -9  -1 8.42205 3.48859   1
   5  -9  -1 1.37706 3.39022   9
   5  -9  -1 0.67876 2.97445  11
  -5   9   1 6.31192 2.76235   3
  -5   9   1 -0.6301 2.51294   8
  -5   9   1 4.31541 3.02106   1
  -5   9   1 3.78791 2.36704   7
   4  -9  -1 2.54364 2.57981   9
   4  -9  -1 4.60683 3.04319   2
   4  -9  -1 7.14830 2.66665   1
   4  -9  -1 2.20500 2.23804   7
  -4   9   1 2.94858 1.93206   7
  -4   9   1 5.70330 2.11722   8
  -4   9   1 0.86375 1.94967   6
  -4   9   1 5.53863 2.65753   1
  -4   9   1 4.29653 2.12396   1
   3  -9  -1 0.64868 1.86888   7
   3  -9  -1 1.50957 2.27218   1
  -3   9   1 0.51330 1.62763   7
  -3   9   1 0.38858 1.76571   8
  -3   9   1 2.23929 2.15619   1
   2  -9  -1 17.3201 2.32434   6
   2  -9  -1 13.9336 2.24269   7
   2  -9  -1 13.3553 2.21260   1
   2  -9  -1 13.6359 1.90140   1
  -2   9   1 10.7960 1.67742   4
  -2   9   1 15.0816 2.43988   1
  -2   9   1 14.7376 2.07240   7
   1  -9  -1 20.1144 2.45627   5
   1  -9  -1 30.5731 2.82722   1
   1  -9  -1 23.3846 2.92002   1
   1  -9  -1 23.6380 2.98001   7
   1  -9  -1 25.0380 2.84394   4
   1  -9  -1 20.7139 2.53860   8
   1  -9  -1 30.8801 2.77582   6
  -1   9   1 22.0834 2.64599   1
  -1   9   1 23.2957 2.52039   7
  -1   9   1 24.4999 2.77497   4
  -1   9   1 24.3935 2.52015   6
  -1   9   1 23.6588 2.90889   1
  -1   9   1 26.1703 2.76747  10
   0  -9  -1 23.1422 2.76075   6
   0  -9  -1 22.2521 2.73181   7
   0  -9  -1 22.8731 2.62132   1
   0  -9  -1 21.0580 2.96873   1
   0  -9  -1 19.6957 2.59400   4
   0  -9  -1 23.3382 2.65288   5
   0  -9  -1 25.1616 2.65859  11
   0  -9  -1 24.3322 2.62809   8
   0   9   1 22.7039 2.66714   4
   0   9   1 22.2590 2.71116  10
   0   9   1 28.3447 2.59729   3
   0   9   1 19.2519 2.54847   6
   0   9   1 22.8719 2.63820   1
   0   9   1 25.2360 2.69517   1
  -1  -9  -1 7.94502 1.49250   1
  -1  -9  -1 6.78852 1.77278   6
  -1  -9  -1 4.28734 1.54351   5
  -1  -9  -1 2.54532 1.33056   4
  -1  -9  -1 4.90725 1.53253   3
  -1  -9  -1 6.09874 1.79036   1
  -1  -9  -1 6.83281 1.62002   8
  -1  -9  -1 4.06690 1.55957   7
   1   9   1 5.93009 1.57507   6
   1   9   1 3.70213 1.58977   1
   1   9   1 5.65996 1.44452   4
   1   9   1 4.91984 1.35241   3
   1   9   1 7.11013 1.43943  10
   1   9   1 6.49610 1.35476   1
  -2  -9  -1 2.06396 1.67619   1
  -2  -9  -1 1.45578 1.31003   4
  -2  -9  -1 3.16625 1.25607   3
  -2  -9  -1 0.81966 1.46393  10
  -2  -9  -1 -0.7761 1.40142   7
  -2  -9  -1 2.50391 1.62681   6
  -2  -9  -1 0.23440 1.43651   5
  -2  -9  -1 0.35453 1.29800  11
   2   9   1 4.25915 1.37206   8
   2   9   1 0.91698 1.21542  10
   2   9   1 -2.0638 1.24388   1
   2   9   1 2.83186 1.35009   4
   2   9   1 -0.1950 1.42591   6
   2   9   1 2.14378 1.58987   1
  -3  -9  -1 20.3637 2.84340   6
  -3  -9  -1 16.7738 2.31327  11
  -3  -9  -1 22.0914 2.40846   7
  -3  -9  -1 21.1508 3.10759   1
  -3  -9  -1 19.1387 2.80501  10
  -3  -9  -1 19.1205 2.62173   4
  -3  -9  -1 18.5460 2.42539   3
   3   9   1 17.0596 2.29780   1
   3   9   1 20.4649 2.63390   3
   3   9   1 17.3050 2.49470  10
   3   9   1 18.3341 2.74256   4
   3   9   1 21.8471 2.38631   1
   3   9   1 16.2954 2.28231   6
  -4  -9  -1 89.3875 4.93845  10
  -4  -9  -1 98.4286 5.49156   1
  -4  -9  -1 91.8823 5.08882   3
  -4  -9  -1 89.8961 4.81172   1
  -4  -9  -1 85.4597 5.18055   6
  -4  -9  -1 88.8972 4.87246   4
   4   9   1 85.6962 4.84241   4
   4   9   1 84.1166 5.14089   1
   4   9   1 86.8582 4.83733   1
   4   9   1 77.2831 4.98656   6
   4   9   1 93.9098 5.23066   3
  -5  -9  -1 39.9399 4.24888   1
  -5  -9  -1 34.6852 3.77389   3
  -5  -9  -1 36.2151 3.41428   4
  -5  -9  -1 36.1864 3.36644   1
  -5  -9  -1 35.0323 3.35146  10
  -5  -9  -1 28.1336 3.12568   8
  -5  -9  -1 38.1120 3.71684   6
   5   9   1 36.6808 3.30863   1
   5   9   1 36.1348 4.02203   3
   5   9   1 31.6718 3.45592   6
   5   9   1 38.7635 3.76234   1
  -6  -9  -1 39.6716 3.78997   8
  -6  -9  -1 33.0432 4.69117   1
  -6  -9  -1 37.3308 3.91663   1
  -6  -9  -1 39.2149 3.82446   4
  -6  -9  -1 37.5387 4.36461   3
  -6  -9  -1 36.8285 4.21523   6
  -6  -9  -1 38.0521 3.63777  10
   6   9   1 33.4218 3.83407   6
   6   9   1 39.9633 4.11322   1
   6   9   1 40.4054 3.82744   1
   6   9   1 39.0961 4.39448   3
   6   9   1 39.8256 4.66478  12
  -7  -9  -1 10.0927 2.75307   8
  -7  -9  -1 3.11031 2.45059   4
  -7  -9  -1 4.50625 3.09419   1
  -7  -9  -1 8.81294 2.87948   1
  -7  -9  -1 3.80379 2.14385  10
  -7  -9  -1 7.68457 2.94348   6
  -7  -9  -1 9.13561 3.16728   3
   7   9   1 7.04002 2.61650   6
   7   9   1 10.5188 2.73252   1
   7   9   1 6.58790 3.01429   3
   7   9   1 8.39437 3.41516  12
   7   9   1 10.4816 2.89672   1
   4 -10  -1 -8.0769 3.42171   2
   4 -10  -1 -3.2384 2.73311   7
   4 -10  -1 -0.0873 3.07420   9
  -4  10   1 2.03506 2.37355   7
  -4  10   1 -2.5326 2.57606   8
  -4  10   1 -7.0392 2.80100   1
   3 -10  -1 0.76596 2.32558   7
   3 -10  -1 -3.0455 2.68302   9
  -3  10   1 -3.5814 2.51638   1
  -3  10   1 1.13738 2.01501   7
  -3  10   1 0.02873 1.96368   8
   2 -10  -1 -3.0453 2.17096   1
   2 -10  -1 4.66887 1.78209   6
   2 -10  -1 4.51963 2.18617   7
  -2  10   1 1.25966 2.18223   1
  -2  10   1 1.09702 1.55394   1
  -2  10   1 1.25722 1.65730   4
  -2  10   1 -0.2673 2.05374  10
  -2  10   1 2.14958 1.48915   6
  -2  10   1 4.20279 1.93450   7
   1 -10  -1 26.5196 3.15856   6
   1 -10  -1 24.7343 3.29111   1
   1 -10  -1 21.8398 2.73071   7
   1 -10  -1 18.0632 2.33393   5
   1 -10  -1 23.4305 3.17940   4
  -1  10   1 23.5295 3.49181   1
  -1  10   1 24.7138 3.10408   4
  -1  10   1 19.5159 3.00765  10
   0 -10  -1 24.7850 3.19627   4
   0 -10  -1 27.0187 3.29674   7
   0 -10  -1 28.4303 3.13850   5
   0 -10  -1 32.9951 3.51024   1
   0 -10  -1 32.6313 3.34300   6
   0  10   1 30.6955 3.17130   1
   0  10   1 28.1952 3.21356   1
   0  10   1 30.0412 3.10344   4
   0  10   1 26.0481 3.08071   6
   0  10   1 28.4281 3.08778  10
  -1 -10  -1 0.97817 1.83641   6
  -1 -10  -1 0.63761 1.67941   7
  -1 -10  -1 1.95726 1.87963   1
  -1 -10  -1 -0.5022 1.56307   5
  -1 -10  -1 -2.4250 1.49535   4
   1  10   1 -0.3308 1.65853   1
   1  10   1 1.14322 1.41166   1
   1  10   1 1.37087 1.48112   4
   1  10   1 -1.7108 1.79774   6
   1  10   1 1.91849 1.49469  10
  -2 -10  -1 1.10421 1.67024   4
  -2 -10  -1 -1.9904 1.58111   7
  -2 -10  -1 -0.7019 1.64269   3
  -2 -10  -1 0.45303 1.94635  10
  -2 -10  -1 -0.2217 1.90831   5
  -2 -10  -1 2.83941 1.88552   6
  -2 -10  -1 -2.5337 1.86788   1
  -2 -10  -1 -0.9377 1.44735  11
   2  10   1 0.48596 1.55324   4
   2  10   1 0.68047 1.43800  10
   2  10   1 -1.9441 1.72117   1
   2  10   1 -0.8723 1.66669   6
   2  10   1 1.45216 1.46289   1
  -3 -10  -1 25.4396 3.40593   6
  -3 -10  -1 24.2686 3.34926  10
  -3 -10  -1 28.1765 3.49363   5
  -3 -10  -1 31.0118 3.82883   1
  -3 -10  -1 24.0299 2.81521   3
  -3 -10  -1 27.8697 3.24578   4
  -3 -10  -1 23.7712 3.19406  11
   3  10   1 25.4492 2.72609   1
   3  10   1 26.3257 3.39888   1
   3  10   1 25.3974 3.33902   4
   3  10   1 20.5120 2.68402   6
   3  10   1 25.5587 3.12179  10
  -4 -10  -1 17.9944 2.71842   6
  -4 -10  -1 20.1376 3.01922   3
  -4 -10  -1 22.8854 2.94229   1
  -4 -10  -1 17.7791 2.50007  10
  -4 -10  -1 18.2301 2.35793   4
  -4 -10  -1 23.7679 2.74286   7
   4  10   1 19.8399 2.33512   4
   4  10   1 17.9013 2.24854   1
   4  10   1 25.2674 3.27833  10
   4  10   1 17.6336 2.67464   6
   4  10   1 20.9016 2.67766   3
   4  10   1 17.1856 2.64112   1
  -5 -10  -1 21.4149 2.94132   6
  -5 -10  -1 18.8996 2.41710   4
  -5 -10  -1 22.8764 3.40939   1
  -5 -10  -1 20.5822 3.25824   1
  -5 -10  -1 25.2748 3.58695  10
  -5 -10  -1 26.2168 3.64237   3
  -5 -10  -1 19.8033 2.37231   8
   5  10   1 17.1398 2.46660   1
   5  10   1 16.5642 2.71841   6
   5  10   1 16.3638 2.88751   3
   5  10   1 13.4550 2.79948   1
  -6 -10  -1 3.76414 2.82539   6
  -6 -10  -1 2.09028 2.16979   4
  -6 -10  -1 4.64096 3.28285   1
  -6 -10  -1 3.29064 2.81476   3
  -6 -10  -1 3.26340 2.29845   8
  -6 -10  -1 -0.1545 2.21594  10
  -6 -10  -1 4.63445 2.54944   1
   6  10   1 -0.0365 2.76216   3
   6  10   1 0.29517 2.37049   1
   6  10   1 1.50181 2.99706  12
   6  10   1 3.12855 2.50611   6
   6  10   1 -2.4681 2.65930   1
   3 -11  -1 1.35678 2.97030   7
   3 -11  -1 -6.8143 3.21692   9
   3 -11  -1 2.82506 3.56303   1
  -3  11   1 0.57359 3.32976   1
  -3  11   1 -0.4776 2.63032   8
  -3  11   1 0.59527 2.56404   7
   2 -11  -1 4.04039 2.66749   7
   2 -11  -1 -1.5602 2.53666   1
   2 -11  -1 -0.7830 2.65325   1
  -2  11   1 -0.5155 1.99440   1
  -2  11   1 0.53203 2.09883  10
  -2  11   1 -3.5649 1.78427   6
  -2  11   1 -0.7034 2.67649   1
  -2  11   1 -1.6696 1.95129   4
   1 -11  -1 8.62813 2.27159   1
   1 -11  -1 7.47114 2.65384   7
   1 -11  -1 6.78514 2.42726   1
   1 -11  -1 4.54276 2.05750   5
   1 -11  -1 7.38932 2.16491   4
   1 -11  -1 11.0310 2.56804   6
   1 -11  -1 5.04137 1.99401   8
  -1  11   1 6.19535 2.09913  10
  -1  11   1 7.06394 2.24487   1
  -1  11   1 8.10200 2.38685   1
  -1  11   1 6.74297 2.04105   6
  -1  11   1 3.96804 2.11196   4
   0 -11  -1 8.62165 2.14959   1
   0 -11  -1 6.80889 2.32646   6
   0 -11  -1 5.29362 2.05256   5
   0 -11  -1 5.98026 2.31736   7
   0 -11  -1 4.98557 2.08144   4
   0 -11  -1 2.90800 1.75567   8
   0 -11  -1 6.94295 2.53987   1
   0  11   1 3.39191 1.84261  10
   0  11   1 4.31159 3.14785   6
   0  11   1 4.12669 2.04656   4
   0  11   1 5.94850 2.18452   1
   0  11   1 3.19244 3.42177   1
  -1 -11  -1 -0.1800 1.78798   7
  -1 -11  -1 -1.9999 1.75264   1
  -1 -11  -1 2.90812 2.06797   5
  -1 -11  -1 2.94162 1.74445   8
  -1 -11  -1 1.19149 2.33290   6
  -1 -11  -1 2.95183 1.83266   4
  -1 -11  -1 1.56103 2.36460   1
   1  11   1 1.48842 1.77853   4
   1  11   1 -0.5584 1.74492  10
   1  11   1 -2.5468 1.93551   6
   1  11   1 -1.6060 2.24061   1
   1  11   1 2.35600 1.75011   1
  -2 -11  -1 -0.6547 2.57342   8
  -2 -11  -1 2.02213 2.30578   6
  -2 -11  -1 -0.8392 1.94753  11
  -2 -11  -1 -0.2901 1.88138   4
  -2 -11  -1 6.13012 2.61562   1
  -2 -11  -1 0.55675 2.20841   5
   2  11   1 4.83960 2.10697  10
   2  11   1 -1.5073 2.07563   1
   2  11   1 0.66826 2.02136   6
   2  11   1 0.21015 1.86418   4
  -3 -11  -1 6.88520 2.34884   5
  -3 -11  -1 7.20164 2.45146   6
  -3 -11  -1 7.36714 2.33946  11
  -3 -11  -1 9.97634 2.57893  10
  -3 -11  -1 7.56559 2.46182   1
  -3 -11  -1 7.85370 2.33448   7
  -3 -11  -1 7.31545 2.14934   4
  -3 -11  -1 2.42578 1.88817   8
   3  11   1 6.14612 2.32060   1
   3  11   1 6.87938 2.37230   6
   3  11   1 5.50281 2.09955  10
   3  11   1 5.33328 2.14528   4
  -4 -11  -1 4.15253 2.56711   6
  -4 -11  -1 5.85473 2.33278   4
  -4 -11  -1 8.09860 2.15182   7
  -4 -11  -1 2.64009 1.97671   3
  -4 -11  -1 7.24571 2.86282   1
  -4 -11  -1 4.65179 2.62180  11
  -4 -11  -1 6.68041 2.42935  10
   4  11   1 6.61308 2.61434   1
   4  11   1 1.14856 2.13893   4
   4  11   1 2.52965 2.34032   6
   4  11   1 1.83764 2.10760  10
  -5 -11  -1 4.85369 2.94296   6
  -5 -11  -1 0.05430 3.22051   1
  -5 -11  -1 0.87566 2.34958   4
  -5 -11  -1 2.92417 2.58296  10
  -5 -11  -1 1.77818 2.53978   3
  -5 -11  -1 -1.4999 2.27364   1
   5  11   1 -0.3033 2.67888   6
   5  11   1 6.30358 2.96568   1
   5  11   1 2.30801 2.14524   1
   5  11   1 5.68996 2.87556   3
  -6 -11  -1 -0.1826 2.75635  10
  -6 -11  -1 2.81385 3.64179   1
  -6 -11  -1 -2.1637 2.77783   1
  -6 -11  -1 4.66304 2.68283   4
  -6 -11  -1 2.54286 3.24838   6
  -6 -11  -1 11.0871 3.05114   3
   6  11   1 3.49715 3.18183   1
   6  11   1 -2.3683 2.75321   1
   6  11   1 -1.5486 3.03631   6
   6  11   1 2.47834 3.77216  12
   2 -12  -1 -0.5233 2.99137   1
   2 -12  -1 2.35876 2.85325   6
   2 -12  -1 -2.0086 3.10193   7
   2 -12  -1 4.24052 3.77730   1
  -2  12   1 3.25965 3.35635   1
  -2  12   1 -5.5076 2.39346  10
  -2  12   1 -5.8273 2.42908   4
   1 -12  -1 -0.6539 3.05404   1
   1 -12  -1 0.06596 2.87428   1
   1 -12  -1 -4.1708 2.60066   5
   1 -12  -1 -5.3873 2.41409   8
   1 -12  -1 4.09128 2.68589   4
   1 -12  -1 4.76895 2.77727   6
   1 -12  -1 1.90286 3.58519   7
  -1  12   1 -0.4363 2.19590   6
  -1  12   1 0.59176 2.21445   4
  -1  12   1 1.00672 2.38940   1
  -1  12   1 1.01851 2.38744  10
  -1  12   1 4.37052 3.08276   1
   0 -12  -1 -2.0328 2.60870   1
   0 -12  -1 -1.4539 2.66733   6
   0 -12  -1 1.93981 2.51719   1
   0 -12  -1 1.08321 2.53475   4
   0 -12  -1 2.43438 2.44321   5
   0 -12  -1 -1.3221 2.11768   8
   0  12   1 1.15504 2.34048   4
   0  12   1 -2.5145 2.28239   6
   0  12   1 1.35445 2.43871   1
   0  12   1 3.32632 2.32505  10
   0  12   1 -1.0117 2.29213   1
  -1 -12  -1 2.09162 2.65450   6
  -1 -12  -1 0.61935 2.51370   4
  -1 -12  -1 2.11625 2.68702   7
  -1 -12  -1 -0.8863 2.36001   5
  -1 -12  -1 -1.7038 2.36469   8
  -1 -12  -1 -3.4100 2.80762   1
  -1 -12  -1 1.14651 2.26440   1
   1  12   1 -2.9050 2.47157   1
   1  12   1 0.66040 2.52203   6
   1  12   1 1.48397 2.50410   1
   1  12   1 -0.8518 2.32924   4
   1  12   1 -1.4914 2.25319  10
  -2 -12  -1 6.69832 2.61867   7
  -2 -12  -1 3.84287 2.87169   1
  -2 -12  -1 0.60815 2.70983   6
  -2 -12  -1 -0.4567 2.31927   4
  -2 -12  -1 0.56265 2.62101   5
   2  12   1 0.73907 2.21814  10
   2  12   1 -1.2038 2.20695   4
  -3 -12  -1 2.48912 2.80004   5
  -3 -12  -1 3.53225 2.90434   6
  -3 -12  -1 7.05360 2.70157   7
  -3 -12  -1 5.60547 2.62186   4
  -3 -12  -1 5.03760 2.14225   8
  -3 -12  -1 2.27951 2.64720  11
  -3 -12  -1 7.71847 3.13274   1
   3  12   1 3.46500 2.59819   4
   3  12   1 1.85060 2.87238   6
   3  12   1 1.35965 2.44571  10
   3  12   1 1.43597 2.90136   1
  -4 -12  -1 3.99048 2.73631   7
  -4 -12  -1 -3.0340 3.20423   1
  -4 -12  -1 1.29456 3.18541  10
  -4 -12  -1 -4.5627 2.31112   8
  -4 -12  -1 2.32424 3.20976   5
  -4 -12  -1 2.04468 2.72042   4
  -4 -12  -1 -0.0394 2.94234  11
  -4 -12  -1 -2.9638 2.98366   6
  -4 -12  -1 -0.8174 2.24305   3
   4  12   1 -3.2444 2.57815   4
   4  12   1 1.77428 2.84156   6
   4  12   1 -1.9621 2.92890   1
   4  12   1 -1.8879 2.44122  10
  -5 -12  -1 2.32777 2.72517   3
  -5 -12  -1 -1.4512 2.91001   4
  -5 -12  -1 6.13099 2.77780   7
  -5 -12  -1 1.11891 3.95220   1
  -1 -13  -1 0.51991 3.29593   8
  -1 -13  -1 5.34542 3.56347   7
  -1 -13  -1 3.00214 3.60409   6
  -1 -13  -1 7.01312 3.68277   1
  -1 -13  -1 2.34208 3.17621   4
   1  13   1 0.29369 2.95612   1
   1  13   1 -0.9972 2.90156  10
   1  13   1 4.11676 3.10754   1
   1  13   1 -1.0322 3.02939   4
   1  13   1 -1.8082 3.10612   6
  -2 -13  -1 5.62133 3.61930   6
  -2 -13  -1 9.67209 4.32012   5
  -2 -13  -1 3.65912 3.59554   1
  -2 -13  -1 0.07096 2.96760   4
  -2 -13  -1 0.31523 3.17164   7
   2  13   1 1.03909 2.89785   4
   2  13   1 1.58840 3.29165   6
   2  13   1 2.52440 3.04173  10
   2  13   1 0.34199 3.28450   1
   5  12  -2 4.03537 2.73937   8
   5  12  -2 2.51785 2.87160   6
   5  12  -2 0.89493 2.54025   4
   5  12  -2 -0.5222 2.84506   1
   5  12  -2 2.59691 2.97869  10
  -5 -12   2 1.39799 2.87771   6
  -5 -12   2 5.04042 3.41989   1
  -5 -12   2 0.99549 3.10295  10
  -5 -12   2 0.77588 3.05603   4
  -5 -12   2 2.71629 3.11054   7
  -5 -12   2 -1.2917 2.67623   8
   4  12  -2 1.11759 2.44957   1
   4  12  -2 -0.3459 2.73011   1
   4  12  -2 3.40871 2.67804   6
   4  12  -2 -0.6566 2.22750  10
   4  12  -2 -3.7487 2.36666   4
  -4 -12   2 -1.8391 2.80170   4
  -4 -12   2 -2.0216 2.34522   3
  -4 -12   2 0.93999 2.50642   1
  -4 -12   2 -1.2710 3.74582   2
  -4 -12   2 0.62263 2.77561   7
  -4 -12   2 -0.7294 2.82801   8
  -4 -12   2 3.41545 3.17351   1
  -4 -12   2 5.45884 3.16616  10
  -4 -12   2 0.12020 2.96422   6
   3  12  -2 0.00081 2.59100   1
   3  12  -2 -0.9600 2.46243   4
   3  12  -2 0.83738 2.21281   6
   3  12  -2 -1.9076 2.57941   1
   3  12  -2 7.68427 2.77980   8
   3  12  -2 -3.2220 2.17032  10
  -3 -12   2 -3.5606 2.77926   1
  -3 -12   2 4.93799 2.80170   7
  -3 -12   2 -0.0743 2.46750   4
  -3 -12   2 -2.5675 3.55176   2
  -3 -12   2 0.26394 2.74374  10
  -3 -12   2 -0.7634 2.76674   1
  -3 -12   2 3.74957 2.72367   8
  -3 -12   2 1.95684 2.75805   6
  -3 -12   2 -0.5622 2.41297   3
   2  12  -2 0.14109 2.77604   8
   2  12  -2 -2.5176 2.42556   6
   2  12  -2 2.81875 2.80418   1
   2  12  -2 0.67622 2.30722   1
   2  12  -2 1.99884 2.49149   4
   2  12  -2 0.61380 2.69408   3
   2  12  -2 -0.0362 2.33833  10
  -2 -12   2 -1.7137 2.56473   6
  -2 -12   2 -1.0563 2.34917   4
  -2 -12   2 1.70711 2.74910   1
  -2 -12   2 -1.8809 3.50780   2
  -2 -12   2 0.35999 2.49950   7
  -2 -12   2 0.25704 2.71334  11
  -2 -12   2 -0.0650 3.01308   1
  -2 -12   2 -2.6189 2.51641   3
  -2 -12   2 0.23223 2.72467   8
  -2 -12   2 1.06130 2.54845  10
   1  12  -2 -5.8323 3.04521   1
   1  12  -2 -4.9248 2.81363   8
   1  12  -2 -3.9693 2.27872   1
   1  12  -2 0.06808 2.76685   3
   1  12  -2 -0.8724 2.10518   6
  -1 -12   2 -4.9590 2.75070   8
  -1 -12   2 2.43785 3.57886   2
  -1 -12   2 -0.0124 2.62310   7
  -1 -12   2 0.37549 2.83093  11
  -1 -12   2 1.67834 3.34741   1
   0  12  -2 -2.6580 3.05417   8
   0  12  -2 5.16773 3.74506   1
   0  12  -2 1.37834 3.04750   3
   0 -12   2 -5.5562 3.25499   8
   0 -12   2 -0.5340 3.83398   1
   0 -12   2 1.38395 2.63172   7
   7  11  -2 1.75727 5.17487   6
  -7 -11   2 4.45003 3.18392   6
  -7 -11   2 11.9834 3.91379   1
  -7 -11   2 6.06907 3.21669   4
  -7 -11   2 5.68145 2.66855   8
  -7 -11   2 6.68583 2.93153   7
  -7 -11   2 5.50151 3.48304  10
  -6 -11   2 10.8465 3.13862  10
  -6 -11   2 18.0483 3.59760   1
  -6 -11   2 11.5957 3.00032   4
  -6 -11   2 13.6622 2.65657   8
  -6 -11   2 13.2384 3.18324   7
  -6 -11   2 14.8018 3.11701   6
   5  11  -2 2.15638 2.11280   8
   5  11  -2 -0.8848 2.21706   4
  -5 -11   2 1.84756 2.53743   8
  -5 -11   2 1.88970 2.38618   4
  -5 -11   2 2.94862 2.96356   1
  -5 -11   2 0.90908 2.54275   6
  -5 -11   2 1.58573 2.54465  10
  -5 -11   2 -0.3923 2.49641   7
   4  11  -2 5.54562 2.11526   1
   4  11  -2 5.82973 2.03694  10
   4  11  -2 11.3003 2.15985   8
   4  11  -2 3.89710 2.12957   4
  -4 -11   2 9.33075 1.97015   3
  -4 -11   2 7.73210 2.91667   6
  -4 -11   2 6.69477 2.52773   8
  -4 -11   2 3.52191 2.33448   4
  -4 -11   2 5.44803 2.48233  10
  -4 -11   2 9.16907 2.23962   1
  -4 -11   2 11.2333 2.81557   1
   3  11  -2 0.54257 1.93224   6
   3  11  -2 2.88227 2.03860   8
   3  11  -2 -1.0823 1.92170   4
   3  11  -2 -2.3411 1.84624  10
   3  11  -2 -3.0586 2.08753   1
   3  11  -2 0.54707 2.04266   1
  -3 -11   2 -1.6223 1.79881   3
  -3 -11   2 -0.1866 2.44728   8
  -3 -11   2 -0.1095 2.15001   1
  -3 -11   2 0.26283 1.91698   4
  -3 -11   2 -4.6786 2.96810   2
  -3 -11   2 1.96897 2.04850  10
  -3 -11   2 1.82325 2.16355   7
  -3 -11   2 -1.5991 2.24682   1
  -3 -11   2 3.82444 2.17813   6
   2  11  -2 2.33651 1.94673   1
   2  11  -2 5.74255 2.49318   1
   2  11  -2 2.60985 1.64624   6
   2  11  -2 1.93150 2.25390   8
   2  11  -2 4.24678 2.19490   3
  -2 -11   2 0.62821 2.02212  10
  -2 -11   2 2.35090 2.88015   2
  -2 -11   2 1.96385 2.34240   5
  -2 -11   2 2.31198 2.41105   1
  -2 -11   2 1.75304 2.34153   7
  -2 -11   2 1.21764 2.21789   6
  -2 -11   2 3.68796 2.17289   3
  -2 -11   2 4.73517 2.26448   1
   1  11  -2 2.65880 2.11765   3
   1  11  -2 5.75543 1.82095   1
   1  11  -2 4.86923 2.41412   8
   1  11  -2 1.64896 2.71799   1
   1  11  -2 5.54686 2.34602   6
  -1 -11   2 1.66686 3.02229   2
  -1 -11   2 -3.4744 2.20368   3
  -1 -11   2 1.32700 2.08147   7
  -1 -11   2 1.36658 2.38844  11
   0  11  -2 3.62678 2.40759   8
   0  11  -2 0.15659 2.88699   1
   0  11  -2 5.54822 2.79843   3
   0 -11   2 1.86420 2.80221  11
   0 -11   2 1.22453 2.14553   7
  -1  11  -2 3.29169 3.30325   1
  -1  11  -2 -0.0285 2.72358   8
  -1  11  -2 2.07867 2.95004   3
   1 -11   2 0.20590 3.67265   1
   1 -11   2 -2.6084 3.18898  11
   8  10  -2 6.34658 3.04047   6
   8  10  -2 0.11341 3.41073   1
  -8 -10   2 0.95353 3.42253   6
  -8 -10   2 -2.8191 3.31132   4
  -8 -10   2 -2.2147 3.53220   1
  -8 -10   2 -0.5012 3.43000  10
   7  10  -2 33.1726 4.22040   6
   7  10  -2 29.5063 3.66672   1
  -7 -10   2 34.1332 3.48797   8
  -7 -10   2 27.0620 3.62371  10
  -7 -10   2 30.7657 3.94498   1
  -7 -10   2 25.4798 3.46809   4
  -7 -10   2 34.2338 4.80485   6
   6  10  -2 4.33147 2.41440   6
   6  10  -2 7.79137 2.65836   1
  -6 -10   2 5.46157 2.29076  10
  -6 -10   2 6.58051 2.53556   6
  -6 -10   2 6.92995 1.93122   1
  -6 -10   2 8.19959 2.95956   1
  -6 -10   2 2.60205 2.30321   4
  -6 -10   2 2.04600 2.00555   8
   5  10  -2 18.4566 2.74333   1
   5  10  -2 27.3392 3.11500   8
   5  10  -2 17.6756 2.55727   6
   5  10  -2 20.7017 2.53263   4
  -5 -10   2 18.3975 2.40684   4
  -5 -10   2 29.4559 4.38793   1
  -5 -10   2 19.2648 2.74490   6
  -5 -10   2 20.5357 2.73089  10
  -5 -10   2 19.2851 2.45448   8
  -5 -10   2 19.4912 2.74158   3
   4  10  -2 13.4138 2.20847  10
   4  10  -2 10.0395 2.11118   4
   4  10  -2 15.9276 2.13643   8
   4  10  -2 16.6262 2.44612   6
   4  10  -2 13.3880 2.12124   1
   4  10  -2 12.2114 2.18872   1
  -4 -10   2 14.6920 2.46438   7
  -4 -10   2 13.2091 2.39271   6
  -4 -10   2 14.1488 2.39592   1
  -4 -10   2 11.8808 2.18392   4
  -4 -10   2 9.77388 2.19619  10
   3  10  -2 2.08337 1.47105   6
   3  10  -2 0.27507 1.76123   4
   3  10  -2 -2.7356 1.52360  10
   3  10  -2 -1.0550 1.45783   1
   3  10  -2 3.06276 1.82582   8
   3  10  -2 4.19108 1.72423   1
  -3 -10   2 -0.0235 2.46171   2
  -3 -10   2 2.70161 1.87841   6
  -3 -10   2 2.45218 1.74880   8
  -3 -10   2 -0.0668 1.97572   1
  -3 -10   2 2.70269 1.87914   7
  -3 -10   2 1.38428 1.57929   4
  -3 -10   2 1.68654 1.77446  10
   2  10  -2 2.34633 1.94222   3
   2  10  -2 1.81920 1.80019   1
   2  10  -2 -0.9658 1.79985   8
  -2 -10   2 -0.2855 1.77385   1
  -2 -10   2 -1.2929 1.55712   6
  -2 -10   2 0.56700 2.37996   2
  -2 -10   2 -0.7739 1.65492   1
  -2 -10   2 -0.4422 1.86477   8
  -2 -10   2 2.00990 1.71740   7
   1  10  -2 1.59658 2.10275   1
   1  10  -2 5.98865 1.78276   8
   1  10  -2 5.96717 2.50962   1
   1  10  -2 2.09603 1.81213   3
   1  10  -2 4.69661 2.33175   6
  -1 -10   2 3.18080 1.94600   8
  -1 -10   2 2.54220 1.77255   7
  -1 -10   2 3.80897 1.63872   1
  -1 -10   2 0.39354 2.27362   1
  -1 -10   2 5.20050 2.43024   2
   0  10  -2 3.10690 2.02155   3
   0  10  -2 1.88446 1.99529   8
   0  10  -2 -0.1491 2.40916   1
   0 -10   2 3.20841 3.41539  11
   0 -10   2 1.70035 1.70196   7
   0 -10   2 -1.4813 2.07069   8
   0 -10   2 2.93291 2.37876   1
  -1  10  -2 1.54726 2.78458   1
  -1  10  -2 2.96146 2.39961   3
  -1  10  -2 3.53301 2.28352   8
   1 -10   2 0.48897 2.77535  11
   1 -10   2 2.26251 2.90270   1
  -2  10  -2 1.32963 2.49036   8
  -2  10  -2 -1.9484 3.25503   1
  -2  10  -2 1.01718 2.46998   3
   2 -10   2 -1.4080 2.99494   1
   2 -10   2 1.51879 3.06598  11
   2 -10   2 -2.0006 2.24019   5
  -3  10  -2 0.55884 3.43722   8
  -3  10  -2 -2.8884 2.89677   3
  -3  10  -2 -4.6383 3.83831   1
   3 -10   2 -3.6224 2.64498   1
   3 -10   2 -4.6462 3.79226  11
   3 -10   2 -3.1474 3.81192   9
   3 -10   2 -0.6893 3.81378   1
   8   9  -2 26.0377 3.18080  12
   8   9  -2 15.6509 2.58720   1
   8   9  -2 16.9975 3.49733   1
   8   9  -2 11.1016 3.07917   6
  -8  -9   2 22.5279 3.71524   1
  -8  -9   2 18.3065 4.13718   1
  -8  -9   2 22.0292 3.40123   6
  -8  -9   2 17.4235 3.41307  10
  -8  -9   2 13.6427 3.23737   4
   7   9  -2 11.5962 2.74228   1
   7   9  -2 7.06825 2.35488   6
  -7  -9   2 9.46903 2.19164   8
  -7  -9   2 6.97754 2.31290   4
  -7  -9   2 11.1808 2.89943   1
  -7  -9   2 10.5280 2.80883  10
  -7  -9   2 6.81339 2.61925   6
   6   9  -2 39.7011 3.76642   6
   6   9  -2 44.3041 3.51580   1
   6   9  -2 44.4163 4.34124   1
  -6  -9   2 52.8165 4.67851   1
  -6  -9   2 37.8178 3.95419   4
  -6  -9   2 41.5527 4.33470  10
  -6  -9   2 40.5607 3.37065   8
  -6  -9   2 49.2422 4.16063   6
   5   9  -2 12.8809 2.32840   1
   5   9  -2 15.4925 2.09053   4
   5   9  -2 16.2839 2.41479   1
   5   9  -2 12.8409 2.14442   6
  -5  -9   2 18.5037 2.41292  10
  -5  -9   2 15.0232 2.14942   4
  -5  -9   2 16.2173 2.37068   6
  -5  -9   2 13.6063 2.40836   1
   4   9  -2 -0.3438 1.45939  10
   4   9  -2 0.75101 1.59026   1
   4   9  -2 -0.3114 1.15646   1
   4   9  -2 -1.9053 1.28922   8
   4   9  -2 -1.3077 1.45056   4
   4   9  -2 0.95425 1.65615   6
  -4  -9   2 -2.1807 1.78547   1
  -4  -9   2 -0.8347 1.61112   6
  -4  -9   2 -0.5073 1.40637   8
  -4  -9   2 0.60437 1.58620  10
  -4  -9   2 1.33197 1.54374   4
   3   9  -2 28.5610 2.76946   8
   3   9  -2 28.2739 2.84471  10
   3   9  -2 23.7703 2.83131   1
   3   9  -2 33.6222 2.94152   1
   3   9  -2 27.5013 2.69379   6
   3   9  -2 28.0164 3.00495   4
   3   9  -2 30.4925 2.69840   3
  -3  -9   2 32.3961 2.80469   3
  -3  -9   2 37.4913 3.06095   1
  -3  -9   2 28.0962 2.91103   4
  -3  -9   2 32.7047 2.99185   6
  -3  -9   2 32.0456 3.25366   1
  -3  -9   2 30.2009 2.95702  10
  -3  -9   2 27.2095 2.98053   8
  -3  -9   2 29.6713 2.82896   7
   2   9  -2 13.1133 1.76169   1
   2   9  -2 13.1331 2.11132   1
   2   9  -2 14.3288 2.09352   4
   2   9  -2 14.3852 1.93738   8
   2   9  -2 15.4966 2.04412   3
   2   9  -2 12.1831 1.73106   6
  -2  -9   2 12.0231 1.80406  11
  -2  -9   2 11.4035 1.86288   6
  -2  -9   2 11.5718 1.94205   3
  -2  -9   2 13.2907 1.93540   1
  -2  -9   2 14.5906 1.87426   7
  -2  -9   2 11.7116 1.99979   8
  -2  -9   2 15.7069 2.36680   2
  -2  -9   2 9.60032 1.89330   1
   1   9  -2 22.7031 3.25842   1
   1   9  -2 17.8719 2.71362   3
   1   9  -2 18.5495 2.14884   8
  -1  -9   2 23.3398 2.57699   1
  -1  -9   2 20.3026 2.81269  11
  -1  -9   2 20.8307 2.76112   8
  -1  -9   2 26.5705 3.21194   2
  -1  -9   2 21.1306 2.41781   7
  -1  -9   2 18.8034 2.31115   3
  -1  -9   2 22.0599 2.44354   6
  -1  -9   2 18.8829 2.59768   1
   0   9  -2 9.92892 2.18802   1
   0   9  -2 6.20166 1.78356   3
   0   9  -2 8.20709 1.70640   8
   0  -9   2 11.1048 1.80355   6
   0  -9   2 7.62033 1.57434   1
   0  -9   2 4.48032 1.81894  11
   0  -9   2 7.40327 1.85367   8
   0  -9   2 5.34662 2.11452   1
   0  -9   2 8.06511 1.46693   7
  -1   9  -2 0.76778 1.86242   8
  -1   9  -2 -0.6914 2.30610   1
  -1   9  -2 0.89956 1.77631   3
   1  -9   2 0.03564 1.95442  11
   1  -9   2 -0.0508 1.48326   1
  -2   9  -2 3.21885 2.63977   1
  -2   9  -2 1.25873 2.12383   3
  -2   9  -2 0.52447 2.02810   8
   2  -9   2 0.90813 1.80992   1
   2  -9   2 -2.9973 1.83033   5
   2  -9   2 -0.5628 2.91920   2
   2  -9   2 -4.4865 2.45533   1
   2  -9   2 -2.2819 2.52367   9
  -3   9  -2 -2.3816 2.32328   3
  -3   9  -2 0.18477 2.51098   8
  -3   9  -2 3.39847 2.97634   1
  -3   9  -2 2.69930 1.85143   1
  -3   9  -2 3.76774 1.86569   6
   3  -9   2 2.41224 2.09460   4
   3  -9   2 -1.6280 2.95514   1
   3  -9   2 -2.3187 2.98213  11
   3  -9   2 -3.3819 2.02691   6
   3  -9   2 0.83214 2.92455   9
   3  -9   2 2.24599 2.79687   5
   3  -9   2 -1.4326 2.13772   1
  -4   9  -2 3.05648 3.67126   1
  -4   9  -2 -2.7355 2.61715   4
  -4   9  -2 -0.6302 3.29654   3
  -4   9  -2 0.53656 3.08708   8
  -4   9  -2 1.05934 2.89163   1
  -4   9  -2 1.62565 2.38894   6
   4  -9   2 3.17581 3.59917   1
   4  -9   2 -1.5250 4.00905  11
   4  -9   2 -3.1608 2.76067   6
   4  -9   2 -0.1182 4.77584   9
   4  -9   2 -1.1335 2.84408   1
   9   8  -2 11.8248 2.58622   6
   9   8  -2 11.5375 3.17793   6
   9   8  -2 10.4007 3.35433   1
   9   8  -2 15.3184 2.85338   1
  -9  -8   2 19.9380 3.06576   1
  -9  -8   2 9.97058 3.56790   1
  -9  -8   2 12.5347 3.22236   4
  -9  -8   2 15.1170 3.89223  10
  -9  -8   2 16.5007 3.19956  11
  -9  -8   2 10.0181 3.36209   6
   8   8  -2 14.6652 2.81412   6
   8   8  -2 20.2265 2.96145  12
   8   8  -2 18.0741 2.56913   1
   8   8  -2 20.7002 3.14292   1
  -8  -8   2 18.5349 3.20696   6
  -8  -8   2 17.8571 3.29368   1
  -8  -8   2 16.9257 3.12478   4
  -8  -8   2 22.7956 3.30596   1
  -8  -8   2 20.7362 3.27730  10
   7   8  -2 47.0914 3.70237   1
   7   8  -2 43.2920 3.96987   6
   7   8  -2 49.0482 4.46651   1
  -7  -8   2 44.1293 4.44692  10
  -7  -8   2 51.7656 4.43275   1
  -7  -8   2 41.9454 4.11609   4
  -7  -8   2 43.0434 4.25508   6
  -7  -8   2 44.8143 3.38668   8
   6   8  -2 129.220 6.62942   1
   6   8  -2 125.301 6.86461   1
   6   8  -2 126.378 6.73637   6
  -6  -8   2 133.981 6.82931   6
  -6  -8   2 139.220 7.05359   1
  -6  -8   2 120.921 6.77181   4
  -6  -8   2 128.936 6.98007  10
   5   8  -2 1.81342 1.13035   1
   5   8  -2 2.71326 1.62673   1
   5   8  -2 0.19096 1.15886   8
   5   8  -2 0.61813 1.47511   6
   5   8  -2 3.19239 1.67109  12
  -5  -8   2 2.35445 1.80237   1
  -5  -8   2 0.40712 1.19095   8
  -5  -8   2 1.21434 1.43287   4
  -5  -8   2 0.76529 1.49974   6
  -5  -8   2 1.71939 1.57391  10
  -5  -8   2 1.42452 1.32870   3
   4   8  -2 24.2245 2.68216   4
   4   8  -2 22.8585 2.26703   8
   4   8  -2 23.3341 2.50176   3
   4   8  -2 21.7222 2.87320   1
   4   8  -2 19.5818 2.51269   6
   4   8  -2 26.5819 2.77427  10
   4   8  -2 21.3025 2.27308   1
  -4  -8   2 20.1676 2.64284   6
  -4  -8   2 16.2682 2.24803   3
  -4  -8   2 20.7555 2.53089   4
  -4  -8   2 23.5884 3.04072   1
  -4  -8   2 20.5509 2.56065   8
  -4  -8   2 24.8780 2.76088  10
  -4  -8   2 18.4663 2.30765   1
   3   8  -2 64.5392 3.71270   3
   3   8  -2 59.1535 3.74414   6
   3   8  -2 63.0032 3.92179   4
   3   8  -2 63.1409 3.83071  10
   3   8  -2 52.7367 3.65341   8
   3   8  -2 58.0163 3.88256   1
   3   8  -2 63.1160 3.83194   1
  -3  -8   2 71.1278 4.10511   1
  -3  -8   2 59.6968 3.83205  10
  -3  -8   2 65.4530 3.79632   3
  -3  -8   2 63.4272 3.84766   8
  -3  -8   2 69.8613 3.90887   6
  -3  -8   2 66.9533 3.87356   1
  -3  -8   2 61.7842 3.73503   4
   2   8  -2 9.21832 1.37991   1
   2   8  -2 10.2470 1.53110   3
   2   8  -2 10.7306 1.58042   8
   2   8  -2 9.90776 1.34531  10
   2   8  -2 7.76507 1.44330   4
   2   8  -2 12.4605 1.83072   1
   2   8  -2 7.93961 1.22647   6
  -2  -8   2 10.3164 2.10883   2
  -2  -8   2 11.1665 1.78002   1
  -2  -8   2 9.46214 1.58220   6
  -2  -8   2 8.99979 1.57425   3
  -2  -8   2 8.74559 1.26034   4
  -2  -8   2 10.4578 1.52890   7
  -2  -8   2 8.12522 1.32624  10
  -2  -8   2 9.73269 1.59949   1
  -2  -8   2 9.77137 1.66190   8
   1   8  -2 22.2858 2.43009   8
   1   8  -2 25.7348 2.36971   4
   1   8  -2 21.3253 2.52860   3
   1   8  -2 19.6216 2.11896   1
   1   8  -2 21.2241 1.99233   6
   1   8  -2 26.2683 2.98864   1
   1   8  -2 26.4301 2.37195  10
  -1  -8   2 23.9464 2.90910   1
  -1  -8   2 26.2195 2.83418   2
  -1  -8   2 24.6912 2.12389   7
  -1  -8   2 25.3479 2.35353   1
  -1  -8   2 20.1150 2.49249  11
  -1  -8   2 24.3676 2.60820  10
  -1  -8   2 21.2965 2.29544   4
  -1  -8   2 23.1010 2.66802   8
  -1  -8   2 23.6738 2.70049   3
  -1  -8   2 22.7320 2.47152   5
  -1  -8   2 22.7613 2.21212   6
   0   8  -2 32.7162 3.24012   6
   0   8  -2 32.2542 2.85327   8
   0   8  -2 33.7956 2.76948   4
   0   8  -2 37.3284 3.45071   1
   0   8  -2 34.3507 3.01828   3
   0  -8   2 38.3680 2.94976   2
   0  -8   2 33.0415 2.65970   6
   0  -8   2 32.0350 3.01887   3
   0  -8   2 31.9845 3.21379  11
   0  -8   2 33.4401 3.30759   1
   0  -8   2 42.4901 2.82381   1
   0  -8   2 30.6886 2.90613   8
   0  -8   2 26.2553 3.98036   4
   0  -8   2 28.9580 2.30499   7
   0  -8   2 32.1150 2.78890   5
  -1   8  -2 0.67058 1.45554   8
  -1   8  -2 1.03750 1.83820   1
  -1   8  -2 0.60592 1.59844   3
   1  -8   2 1.15413 1.72994  11
   1  -8   2 3.40582 1.66130   2
   1  -8   2 -2.0065 2.19976   1
   1  -8   2 1.02797 1.85351   1
   1  -8   2 1.53780 1.42248   5
  -2   8  -2 5.42029 2.24460   1
  -2   8  -2 4.00530 1.87671   3
  -2   8  -2 2.85427 1.79373   8
   2  -8   2 2.28233 2.05981   9
   2  -8   2 3.17060 1.82650   2
   2  -8   2 2.21158 1.47303   1
   2  -8   2 2.66479 1.45296   6
   2  -8   2 1.32226 2.10551  11
   2  -8   2 -0.1047 2.03452   1
  -3   8  -2 5.56520 2.64632   1
  -3   8  -2 2.69369 1.92252   4
  -3   8  -2 3.33450 1.74735   1
  -3   8  -2 5.06916 1.57113   6
  -3   8  -2 6.47105 2.37628   3
  -3   8  -2 1.28423 2.11736   8
   3  -8   2 6.72326 1.93908   4
   3  -8   2 5.42723 2.56071   9
   3  -8   2 3.95064 2.25120   5
   3  -8   2 -0.8827 2.27831  11
   3  -8   2 2.88989 1.86327   1
   3  -8   2 4.15184 2.61146   1
   3  -8   2 4.79399 1.90878   6
  -4   8  -2 3.38437 2.15889   4
  -4   8  -2 -1.5979 2.11660  10
  -4   8  -2 6.84613 2.63064   8
  -4   8  -2 1.89044 1.99075   6
  -4   8  -2 5.41969 3.16685   1
  -4   8  -2 3.97481 2.23083   1
  -4   8  -2 1.90570 2.63346   3
   4  -8   2 -2.0091 3.00837   9
   4  -8   2 2.90823 3.34292  11
   4  -8   2 -3.1331 2.70862   5
   4  -8   2 2.15508 2.95661   1
   4  -8   2 2.97027 2.53614   6
   4  -8   2 3.38405 2.52550   1
   9   7  -2 4.66232 2.76502   1
   9   7  -2 4.33283 2.92351   1
   9   7  -2 8.60249 2.28219   6
   9   7  -2 2.85665 2.68809   6
  -9  -7   2 1.31316 2.25067   1
  -9  -7   2 3.11423 2.90590   6
  -9  -7   2 -0.1000 2.25230   8
  -9  -7   2 2.93799 3.01083   1
  -9  -7   2 2.30337 2.98571   4
  -9  -7   2 -0.0076 2.66103  11
  -9  -7   2 3.20666 3.09896  10
   8   7  -2 22.8364 2.74648   6
   8   7  -2 25.3029 3.00837   6
   8   7  -2 31.3175 3.50817   1
   8   7  -2 27.2583 4.07297   1
   8   7  -2 24.2200 2.77405  12
  -8  -7   2 19.2804 2.44226   1
  -8  -7   2 33.4170 4.43536  10
  -8  -7   2 26.4586 2.99423   4
  -8  -7   2 27.9498 4.01996   6
  -8  -7   2 29.1686 4.28561   1
  -8  -7   2 25.1765 3.09809   8
   7   7  -2 9.55812 1.84228   1
   7   7  -2 13.5020 2.10331  12
   7   7  -2 13.0399 2.01307   6
   7   7  -2 12.8666 2.23658   1
  -7  -7   2 10.7579 2.18947   4
  -7  -7   2 12.2186 2.55117   1
  -7  -7   2 13.1015 2.32976  10
  -7  -7   2 12.8466 2.32426   6
   6   7  -2 16.3855 2.18223   6
   6   7  -2 20.0975 2.35110   1
   6   7  -2 21.3938 2.44026   3
   6   7  -2 17.8174 2.21460   1
  -6  -7   2 18.9595 2.81038   6
  -6  -7   2 21.0756 3.16862  10
  -6  -7   2 17.0058 2.07871   4
  -6  -7   2 20.7263 2.48603   1
  -6  -7   2 19.8824 2.35953   8
   5   7  -2 53.6043 3.19866   8
   5   7  -2 56.5642 3.83419   3
   5   7  -2 56.8745 3.46019  12
   5   7  -2 55.6333 3.64929   6
   5   7  -2 53.5893 3.79860   1
   5   7  -2 54.7377 3.46005   1
  -5  -7   2 51.9106 3.41517   1
  -5  -7   2 49.6205 3.55887   4
  -5  -7   2 57.7793 3.66996   6
  -5  -7   2 53.4754 3.40961   8
  -5  -7   2 55.1028 3.45136   3
  -5  -7   2 62.0094 3.93674   1
  -5  -7   2 47.6141 3.65989  10
   4   7  -2 103.005 5.49162   6
   4   7  -2 114.415 5.59155  10
   4   7  -2 108.836 5.44541   4
   4   7  -2 106.800 5.39311   1
   4   7  -2 109.405 5.28078   8
   4   7  -2 101.989 5.33543   3
   4   7  -2 105.349 5.54937   1
  -4  -7   2 101.511 5.34318   8
  -4  -7   2 109.029 5.56370   6
  -4  -7   2 113.785 5.72342   1
  -4  -7   2 103.617 5.47683   3
  -4  -7   2 109.055 5.55115  10
  -4  -7   2 103.871 5.42407   4
   3   7  -2 18.4502 2.22796   1
   3   7  -2 18.6328 2.16829   4
   3   7  -2 10.9372 1.56872   6
   3   7  -2 14.0598 2.04435   1
   3   7  -2 16.6418 1.88016   8
   3   7  -2 18.1835 2.06262  10
   3   7  -2 17.8127 1.92437   3
  -3  -7   2 17.6093 1.97831  10
  -3  -7   2 17.4066 2.23650   1
  -3  -7   2 13.8296 2.00031   3
  -3  -7   2 12.0717 1.63984   1
  -3  -7   2 15.5753 2.03338   6
  -3  -7   2 14.5857 2.06119   8
  -3  -7   2 19.8901 1.91095   4
   2   7  -2 8.82686 1.32083  10
   2   7  -2 7.19278 1.27582   1
   2   7  -2 7.79244 1.39991   1
   2   7  -2 7.96575 1.37774   3
   2   7  -2 9.74228 1.46956   4
   2   7  -2 10.4982 1.44757   8
   2   7  -2 8.55096 1.31261   6
  -2  -7   2 8.85042 1.26761   4
  -2  -7   2 6.18184 1.11299  10
  -2  -7   2 7.63580 1.36451   3
  -2  -7   2 7.10755 1.35134   6
  -2  -7   2 5.55966 1.42151   8
  -2  -7   2 7.05826 1.72244   2
  -2  -7   2 8.54131 1.50444   1
  -2  -7   2 7.85016 1.42033   1
   1   7  -2 56.4658 3.26969   1
   1   7  -2 65.2627 3.84960   1
   1   7  -2 59.1086 3.44796   3
   1   7  -2 51.3908 3.22241   6
   1   7  -2 64.8709 3.46760   4
   1   7  -2 59.1513 3.34331   8
   1   7  -2 60.8446 3.44314  10
  -1  -7   2 56.3048 3.07574   7
  -1  -7   2 62.4071 3.66954   2
  -1  -7   2 57.3138 3.41192   8
  -1  -7   2 61.4838 3.46094   1
  -1  -7   2 60.0585 3.49740   5
  -1  -7   2 58.4297 3.54311  11
  -1  -7   2 56.7767 3.56301   3
  -1  -7   2 56.1374 3.73403   1
  -1  -7   2 50.7783 3.43246  10
  -1  -7   2 61.6187 3.39635   6
   0   7  -2 48.9715 3.24345  10
   0   7  -2 55.3935 3.67174   1
   0   7  -2 44.4030 2.95007   6
   0   7  -2 50.4066 3.30878   3
   0   7  -2 54.3837 3.25446   4
   0   7  -2 56.1111 3.22671   8
   0   7  -2 45.7781 2.99298   1
   0  -7   2 48.8408 3.27269   5
   0  -7   2 54.2734 3.22259   6
   0  -7   2 48.5612 3.31077  10
   0  -7   2 50.1643 3.26856   4
   0  -7   2 49.3042 3.19939   8
   0  -7   2 52.8894 3.38594   3
   0  -7   2 57.3903 3.27496   1
   0  -7   2 50.9964 3.46839   1
   0  -7   2 53.7438 3.39002   2
   0  -7   2 52.4820 3.49571  11
  -1   7  -2 9.98755 1.62999   3
  -1   7  -2 10.0959 1.43505   6
  -1   7  -2 8.52903 1.22245   1
  -1   7  -2 8.98205 1.43687   4
  -1   7  -2 12.9512 1.61608   8
  -1   7  -2 11.0658 1.95361   1
   1  -7   2 10.2727 1.46044   1
   1  -7   2 8.07928 1.86524  11
   1  -7   2 9.59153 1.83768   1
   1  -7   2 7.85507 1.57006  10
   1  -7   2 8.69980 1.42267   6
   1  -7   2 13.0522 1.78045   2
   1  -7   2 8.95439 1.55985   4
   1  -7   2 7.53639 1.48234   5
  -2   7  -2 3.98451 1.29760   4
  -2   7  -2 9.60055 1.63316   8
  -2   7  -2 5.89942 1.28678   6
  -2   7  -2 5.43762 1.98825   1
  -2   7  -2 7.13056 1.74612   3
  -2   7  -2 5.32343 1.25540   1
   2  -7   2 7.22993 1.95451  11
   2  -7   2 3.87373 1.45992   4
   2  -7   2 8.73012 1.54647   1
   2  -7   2 4.72346 1.85068   9
   2  -7   2 7.72401 1.87616   2
   2  -7   2 8.24498 1.50850   6
   2  -7   2 4.69329 1.53617   5
   2  -7   2 7.76641 1.89662   1
  -3   7  -2 0.37670 1.44912  10
  -3   7  -2 2.36017 1.93768   3
  -3   7  -2 0.25148 1.47605   4
  -3   7  -2 1.05914 1.30338   1
  -3   7  -2 1.02340 1.20478   6
  -3   7  -2 2.18940 2.32891   1
  -3   7  -2 3.60662 1.72791   8
   3  -7   2 -0.9388 2.15277  11
   3  -7   2 1.48140 1.96050   1
   3  -7   2 2.49605 1.63603   6
   3  -7   2 0.48379 1.87513   5
   3  -7   2 3.24243 1.61097   1
   3  -7   2 2.26476 1.96598   9
  -4   7  -2 2.46138 2.14698   5
  -4   7  -2 8.41542 2.18136  10
  -4   7  -2 6.22672 2.16881   8
  -4   7  -2 5.89834 2.41975   3
  -4   7  -2 5.04887 1.86955   6
  -4   7  -2 8.57639 2.06856   1
  -4   7  -2 5.03343 2.73242   1
  -4   7  -2 0.61395 2.00787   4
   4  -7   2 6.34201 2.04243   6
   4  -7   2 4.93066 2.11436   1
   4  -7   2 2.73977 2.62592   5
   4  -7   2 8.28854 2.48407   1
   4  -7   2 4.05140 2.60601  11
   4  -7   2 5.94862 2.70917   9
   4  -7   2 9.65161 2.51788   2
  -5   7  -2 3.03477 3.08210   1
  -5   7  -2 -1.0029 2.71126   4
  -5   7  -2 0.02318 2.88448   3
  -5   7  -2 0.19904 2.67042   8
  -5   7  -2 -5.0504 2.69579   5
  -5   7  -2 -0.0640 2.54681  10
  -5   7  -2 -1.5389 2.29119   6
  -5   7  -2 -2.6978 2.25478   1
   5  -7   2 5.33733 3.41481   2
   5  -7   2 1.36228 3.05955   5
   5  -7   2 -2.1646 2.71643   1
   5  -7   2 -1.4128 3.10311   9
   5  -7   2 1.15721 2.50396   6
   5  -7   2 -1.2745 2.54072   1
   9   6  -2 44.7512 4.53096   1
   9   6  -2 31.3378 4.31048   6
   9   6  -2 36.8990 3.82338   6
   9   6  -2 26.2958 3.54042   1
  -9  -6   2 42.0992 5.00382   1
  -9  -6   2 43.3639 5.23273   4
  -9  -6   2 41.2364 5.41825  10
  -9  -6   2 42.6629 4.68488  11
  -9  -6   2 40.1324 4.70069   6
  -9  -6   2 29.2619 4.05571   1
   8   6  -2 11.6345 2.37929   6
   8   6  -2 17.3171 2.45512   1
   8   6  -2 12.9425 2.44363   1
   8   6  -2 10.5681 1.88482   6
  -8  -6   2 12.0478 2.55128  10
  -8  -6   2 11.6273 2.31351   4
  -8  -6   2 17.2523 3.25139   3
  -8  -6   2 14.2333 2.06987   1
  -8  -6   2 16.3650 2.50719   6
  -8  -6   2 13.5525 2.56719   1
   7   6  -2 8.54790 1.66626  12
   7   6  -2 7.72916 1.83520   1
   7   6  -2 11.3392 2.11380   1
   7   6  -2 8.05068 2.00734   6
  -7  -6   2 8.71471 1.92752   6
  -7  -6   2 10.0104 2.07728  10
  -7  -6   2 9.51308 1.41313   1
  -7  -6   2 9.09624 2.04972   1
  -7  -6   2 7.59886 1.91778   4
   6   6  -2 0.35170 1.31381   6
   6   6  -2 0.32657 1.40405   1
   6   6  -2 -0.4338 1.19761   1
   6   6  -2 2.00604 1.24962   3
  -6  -6   2 2.21418 1.43376   6
  -6  -6   2 1.37908 1.42686  10
  -6  -6   2 -0.5286 1.14196   3
  -6  -6   2 0.35749 1.23656   4
  -6  -6   2 -2.1692 1.00833   1
  -6  -6   2 -0.3144 1.48936   1
  -6  -6   2 2.85693 1.12424   9
  -6  -6   2 -1.2230 1.10065   8
   5   6  -2 180.139 8.52172   1
   5   6  -2 177.785 8.46358   6
   5   6  -2 185.682 8.51074   3
   5   6  -2 187.431 8.51640   1
   5   6  -2 180.444 8.48964  12
  -5  -6   2 181.112 8.43204   8
  -5  -6   2 173.787 8.48153   4
  -5  -6   2 182.030 8.59949   3
  -5  -6   2 195.042 8.59294   6
  -5  -6   2 187.435 8.58686  10
  -5  -6   2 155.151 8.37709   1
  -5  -6   2 201.213 8.66861   1
   4   6  -2 37.8466 2.61526   1
   4   6  -2 35.7104 2.78903   1
   4   6  -2 35.0448 2.64404   6
   4   6  -2 40.3497 2.47495   8
   4   6  -2 35.5388 2.49056   3
   4   6  -2 41.2260 2.75755   4
  -4  -6   2 33.8418 2.60772   4
  -4  -6   2 40.9435 2.88826   1
  -4  -6   2 35.9314 2.59878   1
  -4  -6   2 40.9306 2.69042   3
  -4  -6   2 40.3173 2.74572   6
  -4  -6   2 39.2668 2.78687  10
  -4  -6   2 41.3956 2.64009   8
   3   6  -2 0.45272 0.95214   1
   3   6  -2 0.91823 0.94367   1
   3   6  -2 0.84804 0.90039   3
   3   6  -2 -1.7669 0.79782   8
   3   6  -2 -0.0263 0.85803  10
   3   6  -2 -1.0352 0.81444   4
   3   6  -2 -0.7041 0.83018   6
  -3  -6   2 1.01699 0.88803  10
  -3  -6   2 -0.5628 0.88368   6
  -3  -6   2 0.06090 0.96551   3
  -3  -6   2 -0.2429 0.93931   1
  -3  -6   2 0.88124 0.99704   8
  -3  -6   2 0.78060 0.97246   1
  -3  -6   2 -2.8638 1.24284   2
  -3  -6   2 0.21397 0.87929   4
   2   6  -2 26.7076 2.22532   1
   2   6  -2 24.7029 2.00173   6
   2   6  -2 27.3120 2.00152   8
   2   6  -2 25.1989 2.10971   3
   2   6  -2 27.0175 2.05721  10
   2   6  -2 30.7955 2.27930   4
   2   6  -2 25.2120 2.08216   1
  -2  -6   2 26.4125 2.05920   6
  -2  -6   2 25.6440 2.35241   2
  -2  -6   2 24.2981 2.23351   1
  -2  -6   2 25.2801 2.05425   8
  -2  -6   2 24.5729 1.98666   4
  -2  -6   2 26.6834 2.16461   1
  -2  -6   2 25.3234 2.00421  10
  -2  -6   2 24.8435 2.13314   3
   1   6  -2 100.880 4.69055   8
   1   6  -2 94.6457 4.78352   6
   1   6  -2 102.374 4.91428  10
   1   6  -2 109.124 4.95673   4
   1   6  -2 102.363 4.82163   3
   1   6  -2 97.1470 4.99620   1
   1   6  -2 93.9039 4.79257   1
  -1  -6   2 90.9727 4.88897  10
  -1  -6   2 93.0407 4.71611   8
  -1  -6   2 90.3266 4.83125   4
  -1  -6   2 96.6063 4.53911   7
  -1  -6   2 101.386 4.85515   6
  -1  -6   2 97.4186 5.01636   1
  -1  -6   2 90.2812 4.83281   3
  -1  -6   2 102.586 4.89800   1
  -1  -6   2 100.587 4.99189   2
   0   6  -2 75.6812 3.95849   3
   0   6  -2 78.0876 3.94762   4
   0   6  -2 80.6581 4.20013   1
   0   6  -2 75.8690 3.79192   8
   0   6  -2 66.0520 3.74330   6
   0   6  -2 64.9494 3.77433   1
   0  -6   2 71.0901 3.99629  10
   0  -6   2 69.4072 3.94557   5
   0  -6   2 75.6282 4.12189   2
   0  -6   2 69.7204 4.02528  11
   0  -6   2 71.4614 3.79225   8
   0  -6   2 72.3445 4.10632   1
   0  -6   2 70.0478 3.92814   3
   0  -6   2 80.5430 3.97554   1
   0  -6   2 77.1880 3.92060   6
   0  -6   2 70.7364 3.94729   4
  -1   6  -2 44.5079 3.10710   1
  -1   6  -2 44.3398 2.66347   8
  -1   6  -2 40.0540 2.76061   3
  -1   6  -2 37.1691 2.40052   6
  -1   6  -2 37.7361 2.73863  10
  -1   6  -2 40.8493 2.72214   4
  -1   6  -2 34.1230 2.37115   1
   1  -6   2 39.4081 2.99626   1
   1  -6   2 37.3030 2.90316   2
   1  -6   2 42.4143 2.62845   6
   1  -6   2 43.0125 2.66548   1
   1  -6   2 32.4343 2.75628  10
   1  -6   2 39.2115 2.83301   5
   1  -6   2 39.2340 3.01241  11
   1  -6   2 33.4172 2.61153   4
  -2   6  -2 4.63982 1.39203   3
  -2   6  -2 4.39444 1.35970   8
  -2   6  -2 3.46608 1.19695  10
  -2   6  -2 2.70073 1.04285   6
  -2   6  -2 3.55150 1.29980   4
  -2   6  -2 3.42479 1.70611   1
  -2   6  -2 0.81890 0.93733   1
   2  -6   2 3.86616 1.15294   1
   2  -6   2 3.03568 1.20309   6
   2  -6   2 3.32425 1.38015   5
   2  -6   2 3.02370 1.51943  11
   2  -6   2 2.73455 1.23979   4
   2  -6   2 3.75895 1.35675  10
   2  -6   2 2.50823 1.56073   1
   2  -6   2 4.30563 1.60680   2
   2  -6   2 4.45154 1.45846   9
  -3   6  -2 2.48470 1.22792   6
  -3   6  -2 4.18866 1.86771   1
  -3   6  -2 2.74332 1.35367  10
  -3   6  -2 4.60295 1.57408   8
  -3   6  -2 3.10115 1.41258   4
  -3   6  -2 4.94109 1.32234   1
  -3   6  -2 5.37886 1.60421   5
  -3   6  -2 5.31244 1.84625   3
   3  -6   2 4.29026 1.65241   2
   3  -6   2 5.63160 1.76018   1
   3  -6   2 5.99893 1.55249   6
   3  -6   2 8.54914 1.93374   9
   3  -6   2 4.20182 1.54546   4
   3  -6   2 1.97805 1.77043  11
   3  -6   2 5.16058 1.71925   5
   3  -6   2 7.70529 1.63005   1
  -4   6  -2 3.18142 2.29737   3
  -4   6  -2 5.65228 1.93779  10
  -4   6  -2 5.20365 1.89139  11
  -4   6  -2 0.69451 1.87640   5
  -4   6  -2 7.24077 2.25354   1
  -4   6  -2 6.53546 1.61266   6
  -4   6  -2 3.21757 1.89360   8
  -4   6  -2 6.78715 1.73784   1
  -4   6  -2 6.52453 2.02438   4
   4  -6   2 8.09477 2.11577   2
   4  -6   2 8.89365 2.15983   1
   4  -6   2 8.58667 1.89004   6
   4  -6   2 7.22828 2.24287   9
   4  -6   2 2.12928 2.21797  11
   4  -6   2 7.28797 1.95726   1
  -5   6  -2 1.60448 2.17438   4
  -5   6  -2 0.70745 2.39544   5
  -5   6  -2 8.23739 2.35183  10
  -5   6  -2 3.32613 2.69482   3
  -5   6  -2 4.84416 2.49001   8
  -5   6  -2 -2.9385 1.94836   1
  -5   6  -2 0.15106 1.89819   6
  -5   6  -2 3.71094 2.31420  11
  -5   6  -2 0.54248 2.45327   1
   5  -6   2 1.51602 2.87864  11
   5  -6   2 1.43549 2.71591   2
   5  -6   2 0.01489 2.13890   1
   5  -6   2 5.97538 2.83948   5
   5  -6   2 0.36611 2.36871   1
   5  -6   2 1.48755 2.14031   6
   5  -6   2 1.22339 2.86055   9
  -6   6  -2 6.60861 2.84755  10
  -6   6  -2 0.69582 2.52751   4
  -6   6  -2 -1.9463 2.25186   6
  -6   6  -2 -1.6473 2.82885   1
  -6   6  -2 -2.1003 3.17302   5
  -6   6  -2 6.94642 3.38705   3
  -6   6  -2 1.24077 3.19825   8
   6  -6   2 0.78757 2.85222   1
   6  -6   2 2.95601 4.22265  11
   6  -6   2 2.95441 3.60100   5
   9   5  -2 46.1550 4.34266   6
   9   5  -2 41.6884 4.72914   1
   9   5  -2 49.1452 3.93276   6
   9   5  -2 53.8956 4.44850   1
  -9  -5   2 53.3326 5.08346   1
  -9  -5   2 45.9940 4.27910   3
  -9  -5   2 53.1766 4.82382  11
  -9  -5   2 45.8672 5.23397   4
  -9  -5   2 45.6426 4.22182   1
  -9  -5   2 45.9833 5.71897  10
  -9  -5   2 47.5586 4.71074   6
   8   5  -2 26.4757 3.80699   1
   8   5  -2 32.6652 3.18319   1
   8   5  -2 28.3668 2.75074   6
   8   5  -2 28.0888 3.36517   6
  -8  -5   2 29.0382 4.15074  10
  -8  -5   2 28.3752 3.59877   1
  -8  -5   2 26.0504 3.03500   3
  -8  -5   2 24.2847 2.97209   1
  -8  -5   2 27.9210 3.37441   6
  -8  -5   2 26.2045 3.78684   4
   7   5  -2 2.11158 1.54571   6
   7   5  -2 3.60129 1.31591   6
   7   5  -2 3.89189 1.73294   1
   7   5  -2 1.64155 1.37054   1
  -7  -5   2 0.77621 1.29496   1
  -7  -5   2 3.18360 1.72037  10
  -7  -5   2 2.06988 1.52023   4
  -7  -5   2 3.87092 1.71775   6
  -7  -5   2 1.99467 1.70411   1
   6   5  -2 2.02359 1.36079   6
   6   5  -2 1.72088 1.44988   1
   6   5  -2 1.83688 1.07949  12
   6   5  -2 1.72854 1.06232   1
  -6  -5   2 1.65324 1.14317   8
  -6  -5   2 1.67924 1.34109   4
  -6  -5   2 2.05569 1.41417   6
  -6  -5   2 -0.0874 0.95937   1
  -6  -5   2 0.90193 1.24260   9
  -6  -5   2 0.89023 1.44339   1
  -6  -5   2 -0.5701 1.17162   3
  -6  -5   2 0.34017 1.34028  10
   5   5  -2 250.972 11.2513  12
   5   5  -2 243.412 11.1622   6
   5   5  -2 255.083 11.1863   1
   5   5  -2 242.058 11.2138   1
   5   5  -2 254.223 11.2352   3
  -5  -5   2 238.004 11.1425   4
  -5  -5   2 261.876 11.2833   1
  -5  -5   2 254.898 11.2663   9
  -5  -5   2 246.809 11.1405   8
  -5  -5   2 241.751 11.1486   1
  -5  -5   2 257.658 11.2281   6
  -5  -5   2 244.137 11.2393   3
  -5  -5   2 249.179 11.2274  10
   4   5  -2 104.197 5.10683   1
   4   5  -2 97.8018 5.04709   6
   4   5  -2 104.390 5.04270   3
   4   5  -2 97.8644 5.04796  12
   4   5  -2 99.0811 5.10271   1
  -4  -5   2 103.277 5.11265   1
  -4  -5   2 112.121 5.21628   1
  -4  -5   2 99.7525 5.01957   4
  -4  -5   2 102.382 5.01228   8
  -4  -5   2 101.031 5.12338   3
  -4  -5   2 107.715 5.12582   6
  -4  -5   2 104.336 5.11094  10
   3   5  -2 118.465 5.48348   4
   3   5  -2 116.485 5.48238   1
   3   5  -2 105.792 5.42253   1
   3   5  -2 117.612 5.31424   8
   3   5  -2 119.246 5.43133   3
   3   5  -2 123.587 5.54471  10
   3   5  -2 107.863 5.39577   6
  -3  -5   2 108.414 5.45223   1
  -3  -5   2 108.006 5.43058   3
  -3  -5   2 116.000 5.51676   1
  -3  -5   2 118.281 5.48917   6
  -3  -5   2 108.971 5.32137   8
  -3  -5   2 108.472 5.42501  10
  -3  -5   2 108.324 5.40207   4
  -3  -5   2 121.553 5.35688   2
   2   5  -2 159.172 7.15328   8
   2   5  -2 166.982 7.35853  10
   2   5  -2 163.122 7.40218   1
   2   5  -2 169.928 7.37855   4
   2   5  -2 153.463 7.29278   6
   2   5  -2 159.503 7.26346   3
   2   5  -2 152.087 7.31312   1
  -2  -5   2 166.781 7.35250   6
  -2  -5   2 166.800 7.37402   1
  -2  -5   2 156.432 7.30027   3
  -2  -5   2 167.128 7.30800   2
  -2  -5   2 158.176 7.37853   1
  -2  -5   2 154.409 7.17911   8
  -2  -5   2 155.708 7.31929   4
   1   5  -2 163.925 6.79380   4
   1   5  -2 152.948 6.78173   1
   1   5  -2 151.532 6.74914  10
   1   5  -2 136.402 6.67404   1
   1   5  -2 146.651 6.63587   3
   1   5  -2 134.867 6.64308   6
   1   5  -2 150.483 6.51433   8
  -1  -5   2 150.609 6.74686   1
  -1  -5   2 138.048 6.52263   8
  -1  -5   2 143.230 6.72512   4
  -1  -5   2 152.485 6.73653   6
  -1  -5   2 146.859 6.75454   2
  -1  -5   2 137.376 6.62218   3
  -1  -5   2 141.539 6.77661   1
  -1  -5   2 140.502 6.75595  10
   0   5  -2 18.4749 1.95648   1
   0   5  -2 15.3486 1.65756  10
   0   5  -2 14.2822 1.56128   8
   0   5  -2 16.0857 1.66077   4
   0   5  -2 13.9163 1.46718   6
   0   5  -2 14.1634 1.65346   3
   0   5  -2 11.6945 1.46787   1
   0  -5   2 17.7001 1.75185   5
   0  -5   2 15.2808 1.55196   8
   0  -5   2 12.5335 1.60013   4
   0  -5   2 18.9689 1.61765   6
   0  -5   2 15.7896 1.67542  10
   0  -5   2 17.0344 1.87404   2
   0  -5   2 16.2101 1.78605  11
   0  -5   2 12.3679 1.68660   3
   0  -5   2 16.9590 1.85312   1
   0  -5   2 13.1712 1.64968   1
  -1   5  -2 37.3253 2.49632  10
  -1   5  -2 38.7690 2.27703   8
  -1   5  -2 36.9535 2.69848   1
  -1   5  -2 34.1994 2.40899   4
  -1   5  -2 34.9894 2.45451   3
  -1   5  -2 33.9409 2.11172   6
  -1   5  -2 32.5805 2.18032   1
   1  -5   2 38.9648 2.33192   6
   1  -5   2 32.2911 2.54280   1
   1  -5   2 34.9437 2.67500   2
   1  -5   2 32.3693 2.51501   5
   1  -5   2 31.5639 2.64169  11
   1  -5   2 33.8685 2.43935   4
   1  -5   2 39.0669 2.38480   1
   1  -5   2 30.7016 2.43949  10
  -2   5  -2 3.94982 1.44165   1
  -2   5  -2 2.17761 1.07467  10
  -2   5  -2 2.58175 0.91735   1
  -2   5  -2 6.03273 1.27705   5
  -2   5  -2 3.85348 1.16858   8
  -2   5  -2 6.45671 1.35489   3
  -2   5  -2 2.97633 0.90053   6
  -2   5  -2 4.46866 1.13131   4
   2  -5   2 3.83348 1.29163   9
   2  -5   2 2.60291 1.08856   4
   2  -5   2 3.11964 1.30569   2
   2  -5   2 3.45006 1.03001   1
   2  -5   2 0.93225 1.08465   5
   2  -5   2 4.26201 1.34858  10
   2  -5   2 6.23258 1.39823  11
   2  -5   2 5.43130 1.10466   6
  -3   5  -2 4.56473 1.36790   5
  -3   5  -2 1.64330 1.47046   3
  -3   5  -2 3.31450 1.11330   1
  -3   5  -2 3.10589 1.37064  10
  -3   5  -2 5.71223 1.36965   8
  -3   5  -2 4.04375 1.42080   4
  -3   5  -2 2.79584 1.39278  11
  -3   5  -2 3.93916 1.61197   1
  -3   5  -2 1.78927 1.10316   6
   3  -5   2 4.92832 1.37789   1
   3  -5   2 6.18624 1.54471   5
   3  -5   2 -0.1313 1.49006  11
   3  -5   2 6.07927 1.62060   2
   3  -5   2 5.13658 1.51881   9
   3  -5   2 5.44397 1.39871   6
   3  -5   2 4.09077 1.45816   1
   3  -5   2 2.23699 1.42795   4
  -4   5  -2 6.10537 1.72227  11
  -4   5  -2 6.83919 1.67491   4
  -4   5  -2 4.93683 1.56982   1
  -4   5  -2 3.09562 1.95586   1
  -4   5  -2 6.40253 1.53742   6
  -4   5  -2 6.04607 1.82658   5
  -4   5  -2 5.74023 1.70108   8
  -4   5  -2 4.11312 1.69769   3
  -4   5  -2 6.98225 1.71842  10
   4  -5   2 7.23680 2.08372   5
   4  -5   2 5.36181 1.87043   1
   4  -5   2 8.37040 1.99559   2
   4  -5   2 5.30457 1.66517   6
   4  -5   2 7.03822 1.78151   9
   4  -5   2 2.61475 1.95787  11
   4  -5   2 4.01332 1.64264   1
  -5   5  -2 7.91213 1.70388   6
  -5   5  -2 5.23591 2.19807   1
  -5   5  -2 7.41585 2.34325   3
  -5   5  -2 5.46205 2.24421   5
  -5   5  -2 8.04578 1.87167   1
  -5   5  -2 10.2839 2.30017   8
  -5   5  -2 7.69786 2.16484  11
  -5   5  -2 8.88748 2.20113  10
  -5   5  -2 5.97732 2.21490   4
   5  -5   2 5.68777 2.03594   1
   5  -5   2 11.3697 2.67363   2
   5  -5   2 6.09081 1.99522   1
   5  -5   2 8.38272 2.55094  11
   5  -5   2 7.76132 2.00458   6
   5  -5   2 9.48243 2.48413   9
  -6   5  -2 3.88319 2.67189   5
  -6   5  -2 4.43062 2.85802   8
  -6   5  -2 0.94674 2.35986   4
  -6   5  -2 6.98574 2.33076   1
  -6   5  -2 5.08036 2.64058  11
  -6   5  -2 4.31817 2.61331   1
  -6   5  -2 4.96426 2.05591   6
  -6   5  -2 6.18093 2.83983   3
  -6   5  -2 2.69957 2.56029  10
   6  -5   2 6.12413 3.37838   2
   6  -5   2 6.03672 2.26866   6
   6  -5   2 1.74226 3.03632  11
   6  -5   2 3.66633 2.36928   1
   6  -5   2 2.58894 2.28557   1
   6  -5   2 -0.2262 3.05418   9
 -10  -4   2 30.6810 3.98070   3
 -10  -4   2 28.5088 3.65356  11
   9   4  -2 71.1965 5.42056   1
   9   4  -2 60.5891 5.03435   6
   9   4  -2 76.0604 5.16319   1
   9   4  -2 74.7193 4.74277   6
  -9  -4   2 83.6630 6.31795   8
  -9  -4   2 72.1077 5.40156  11
  -9  -4   2 78.0975 5.68308   1
  -9  -4   2 70.8288 5.28848   3
  -9  -4   2 70.1080 4.95557   1
  -9  -4   2 67.2116 5.71994   4
   8   4  -2 79.2346 4.48040   6
   8   4  -2 78.0659 4.94290   1
   8   4  -2 72.7168 4.81399   6
   8   4  -2 79.3014 4.69634   1
  -8  -4   2 74.5305 5.17420   4
  -8  -4   2 74.8521 4.68233   1
  -8  -4   2 79.1746 5.18305   1
  -8  -4   2 83.5911 5.02047   6
  -8  -4   2 76.9595 4.79223   3
  -8  -4   2 87.7646 5.60339  11
   7   4  -2 0.99905 1.55869   1
   7   4  -2 -0.1750 1.46662   6
   7   4  -2 0.90755 1.14741   6
   7   4  -2 0.17411 1.28469   1
  -7  -4   2 2.01613 1.45207   4
  -7  -4   2 0.30469 1.34217   3
  -7  -4   2 1.97267 1.62031   1
  -7  -4   2 -1.2489 1.20885   9
  -7  -4   2 -0.2792 1.13630   1
  -7  -4   2 1.08056 1.57815   6
   6   4  -2 10.0265 1.41237   1
   6   4  -2 11.9311 1.57828   6
   6   4  -2 9.71451 1.56297   6
   6   4  -2 9.88887 1.61047   1
   6   4  -2 8.37025 1.43207  12
  -6  -4   2 10.5591 1.56080   4
  -6  -4   2 9.87079 1.34746   1
  -6  -4   2 9.22450 1.56198   3
  -6  -4   2 12.6726 1.73058   6
  -6  -4   2 12.9117 1.81349   1
  -6  -4   2 8.32048 1.35273   8
  -6  -4   2 10.2741 1.55825   9
   5   4  -2 108.967 5.35232   1
   5   4  -2 102.708 5.32284   1
   5   4  -2 112.988 5.37825  12
   5   4  -2 104.667 5.30250   6
  -5  -4   2 103.497 5.37546  10
  -5  -4   2 113.420 5.47962   9
  -5  -4   2 104.049 5.39968   3
  -5  -4   2 112.930 5.37609   6
  -5  -4   2 107.063 5.30198   1
  -5  -4   2 116.934 5.43578   1
  -5  -4   2 104.793 5.31917   4
  -5  -4   2 104.888 5.23739   8
   4   4  -2 351.904 15.9096   1
   4   4  -2 353.123 15.8945   6
   4   4  -2 379.561 15.9743   3
   4   4  -2 389.403 16.0049   1
  -4  -4   2 358.940 15.9461   1
  -4  -4   2 394.860 16.0190   1
  -4  -4   2 355.221 15.9024   4
  -4  -4   2 370.233 15.9775   9
  -4  -4   2 359.837 15.9742   3
  -4  -4   2 360.590 15.8610   8
  -4  -4   2 386.960 15.9766   6
  -4  -4   2 349.697 15.9181  10
   3   4  -2 511.523 21.2117   8
   3   4  -2 511.083 21.3805  12
   3   4  -2 519.214 21.3473   3
   3   4  -2 513.987 21.3439   4
   3   4  -2 465.947 21.3114   1
   3   4  -2 470.676 21.3028   6
   3   4  -2 516.339 21.3800   1
  -3  -4   2 484.725 21.3161   4
  -3  -4   2 496.838 21.3502   3
  -3  -4   2 507.858 21.0968   2
  -3  -4   2 515.348 21.3635   6
  -3  -4   2 499.311 21.2374   8
  -3  -4   2 468.967 21.3240   1
  -3  -4   2 484.993 21.3353  10
  -3  -4   2 512.258 21.3806   1
   2   4  -2 365.965 17.0584   1
   2   4  -2 409.752 17.1086   4
   2   4  -2 402.152 16.9282   8
   2   4  -2 404.565 17.1290   1
   2   4  -2 378.342 17.0652   6
   2   4  -2 407.817 17.0462   3
   2   4  -2 416.166 17.1344  10
  -2  -4   2 383.199 17.0783   4
  -2  -4   2 409.243 16.9993   2
  -2  -4   2 413.902 17.1133   6
  -2  -4   2 378.647 17.1053   1
  -2  -4   2 395.667 16.9439   8
  -2  -4   2 390.470 17.0462   3
  -2  -4   2 413.080 17.1394   1
   1   4  -2 163.250 7.06211   4
   1   4  -2 149.456 7.00121   6
   1   4  -2 159.883 6.84084   8
   1   4  -2 157.284 7.08374  10
   1   4  -2 148.513 7.01671   1
   1   4  -2 160.014 6.94831   3
   1   4  -2 161.683 7.08480   1
  -1  -4   2 164.078 7.07580   1
  -1  -4   2 156.732 7.07758   1
  -1  -4   2 145.664 7.05031  10
  -1  -4   2 160.677 7.08929   2
  -1  -4   2 149.023 6.83265   8
  -1  -4   2 168.102 7.05544   6
  -1  -4   2 146.813 7.01059   4
  -1  -4   2 148.927 6.94165   3
   0   4  -2 58.0270 2.94005   4
   0   4  -2 56.7197 2.96851  10
   0   4  -2 49.2954 2.80497   1
   0   4  -2 52.1181 2.78024   6
   0   4  -2 55.2251 2.71138   8
   0   4  -2 58.5878 2.85615   3
   0   4  -2 55.6040 3.03562   1
   0  -4   2 52.1256 2.93711   5
   0  -4   2 52.4801 2.91134  11
   0  -4   2 53.2626 3.05603   2
   0  -4   2 51.4423 2.68836   8
   0  -4   2 51.7898 2.90749   4
   0  -4   2 57.4461 2.90657   1
   0  -4   2 53.7636 2.96581   1
   0  -4   2 51.6726 2.91628  10
   0  -4   2 52.4879 2.85813   3
   0  -4   2 57.7719 2.87117   6
  -1   4  -2 27.2518 1.93423   3
  -1   4  -2 27.0694 2.17212   1
  -1   4  -2 23.8848 1.72409   1
  -1   4  -2 24.1949 1.65094   6
  -1   4  -2 25.8615 1.94920  10
  -1   4  -2 26.2468 1.96381   4
  -1   4  -2 26.6311 1.75508   8
   1  -4   2 25.2513 1.93225   4
   1  -4   2 30.1611 2.23551   2
   1  -4   2 25.8915 1.98673  10
   1  -4   2 25.8096 1.98057   5
   1  -4   2 28.2948 1.82454   6
   1  -4   2 28.8764 1.87275   1
   1  -4   2 26.4377 1.97050   9
   1  -4   2 25.4406 2.05095  11
   1  -4   2 24.0554 2.01358   1
  -2   4  -2 77.5830 4.11661   5
  -2   4  -2 82.5641 4.14481  10
  -2   4  -2 72.7388 3.81283   1
  -2   4  -2 82.0229 3.86246   8
  -2   4  -2 87.3959 4.12201   1
  -2   4  -2 78.4588 4.08729   4
  -2   4  -2 78.8246 4.01979   3
  -2   4  -2 72.5846 3.79218   6
   2  -4   2 77.4487 4.11351   5
   2  -4   2 78.1267 4.26473   2
   2  -4   2 81.7204 3.91273   6
   2  -4   2 74.0302 4.10020   4
   2  -4   2 75.5723 4.01440   9
   2  -4   2 78.3797 4.09602  11
   2  -4   2 81.9725 3.94383   1
   2  -4   2 77.0836 4.24678  10
  -3   4  -2 12.9428 1.71813   5
  -3   4  -2 10.9205 1.33989   1
  -3   4  -2 16.0902 2.13262  10
  -3   4  -2 13.4343 1.62027   6
  -3   4  -2 15.4733 2.13360   3
  -3   4  -2 14.8970 1.68579   1
  -3   4  -2 12.2445 1.55387   4
  -3   4  -2 14.4287 2.02731  11
  -3   4  -2 15.1153 1.93406   8
   3  -4   2 14.4889 1.55432   1
   3  -4   2 12.4806 1.76260   5
   3  -4   2 14.2055 1.70884  11
   3  -4   2 15.0557 2.26068   9
   3  -4   2 10.5239 1.60868   4
   3  -4   2 14.0945 2.13605   2
   3  -4   2 12.7182 1.57792   1
   3  -4   2 14.2575 1.85199   6
  -4   4  -2 -0.3397 1.50606   1
  -4   4  -2 -0.9107 1.16604   6
  -4   4  -2 1.64281 1.55068   5
  -4   4  -2 3.19241 1.41279   8
  -4   4  -2 2.49802 1.32932  10
  -4   4  -2 1.32692 1.42521   4
  -4   4  -2 -1.4619 1.21539   1
  -4   4  -2 0.98115 1.25598  11
   4  -4   2 3.85465 1.69686   2
   4  -4   2 2.55467 1.66666   9
   4  -4   2 -0.1854 1.30582   1
   4  -4   2 0.36770 1.61778   5
   4  -4   2 -0.0948 1.38754   1
   4  -4   2 -0.7432 1.30808   6
   4  -4   2 2.53005 1.70433  11
  -5   4  -2 6.79142 1.93090  11
  -5   4  -2 9.75793 2.04399   8
  -5   4  -2 6.29388 1.90086   4
  -5   4  -2 5.78774 1.67835   1
  -5   4  -2 5.51171 1.99634   5
  -5   4  -2 4.22926 1.83605   1
  -5   4  -2 6.05474 1.89991  10
  -5   4  -2 5.63584 1.44761   6
   5  -4   2 8.30945 2.20828  11
   5  -4   2 4.81826 1.62908   6
   5  -4   2 6.72635 2.09602   5
   5  -4   2 5.89420 1.69183   1
   5  -4   2 8.64510 2.20284   9
   5  -4   2 7.22884 2.28135   2
   5  -4   2 3.91200 1.61477   1
  -6   4  -2 5.93203 1.88180   6
  -6   4  -2 4.48545 2.17755   1
  -6   4  -2 6.99015 2.49641  11
  -6   4  -2 8.33898 2.43899  10
  -6   4  -2 8.61607 2.59211   5
  -6   4  -2 4.31627 2.07511   1
  -6   4  -2 8.69877 2.27757   4
   6  -4   2 6.47257 1.92539   6
   6  -4   2 6.74050 2.86069   9
   6  -4   2 10.0640 2.49374   1
   6  -4   2 6.38636 2.97424  11
   6  -4   2 7.94381 2.93493   2
   6  -4   2 11.4247 2.05458   1
  10   3  -2 27.3230 3.89856   6
  10   3  -2 33.0635 5.88115   1
  10   3  -2 31.3667 4.66679   6
  10   3  -2 33.6083 4.69658   1
 -10  -3   2 45.0828 5.38382   3
 -10  -3   2 30.0544 4.01693   1
 -10  -3   2 27.3378 3.67345   1
 -10  -3   2 24.8099 3.16192   8
 -10  -3   2 29.9399 4.53653  12
 -10  -3   2 28.4233 3.70083  11
 -10  -3   2 38.0235 5.26204   5
   9   3  -2 61.4881 4.59141   1
   9   3  -2 57.3693 4.20263   6
   9   3  -2 62.0057 5.08719   1
   9   3  -2 61.4775 4.76292   6
  -9  -3   2 64.4342 4.87720   3
  -9  -3   2 60.6083 5.09924   1
  -9  -3   2 71.8847 4.86523   5
  -9  -3   2 63.5884 4.68521   1
  -9  -3   2 69.2543 5.12946  11
  -9  -3   2 61.4103 5.20225  12
  -9  -3   2 60.0183 4.34115   8
   8   3  -2 48.1130 3.56390   1
   8   3  -2 43.6155 3.68027   6
   8   3  -2 46.9987 3.24166   6
   8   3  -2 45.3453 3.88509   1
  -8  -3   2 43.4876 3.97013   1
  -8  -3   2 40.6355 3.36923   1
  -8  -3   2 38.6660 3.57471  11
  -8  -3   2 36.8353 3.47317   3
  -8  -3   2 38.9509 3.79648  12
   7   3  -2 19.4751 2.06570   6
   7   3  -2 22.7008 2.60992   6
   7   3  -2 26.0559 2.84537   1
   7   3  -2 27.6103 2.35565   1
  -7  -3   2 22.2500 2.54748   3
  -7  -3   2 19.5531 2.80194   1
  -7  -3   2 21.4147 2.20799   1
  -7  -3   2 23.9544 2.57104   9
  -7  -3   2 17.2849 2.52177  12
  -7  -3   2 21.2564 2.36705  11
  -7  -3   2 23.2248 2.67612   6
   6   3  -2 40.4770 2.71353   6
   6   3  -2 43.4539 3.04529   1
   6   3  -2 44.3799 2.98370   6
   6   3  -2 43.0398 2.86729   1
  -6  -3   2 43.9804 3.08640   3
  -6  -3   2 43.0432 2.99812   6
  -6  -3   2 44.6421 2.85388   8
  -6  -3   2 38.3814 2.98797  12
  -6  -3   2 45.1162 2.98341   9
  -6  -3   2 43.5794 3.05295   1
  -6  -3   2 43.4502 2.72691   1
  -6  -3   2 45.7812 2.97241  11
   5   3  -2 6.71070 1.30614   1
   5   3  -2 5.71673 1.13686   1
   5   3  -2 5.22843 0.98709   6
   5   3  -2 5.23561 1.13097   6
   5   3  -2 5.60686 1.13019  12
  -5  -3   2 5.71708 1.17497   9
  -5  -3   2 5.17034 1.21795  12
  -5  -3   2 6.75318 1.06743   8
  -5  -3   2 5.53643 1.13591   6
  -5  -3   2 5.26682 1.19631   1
  -5  -3   2 6.60882 1.12399   1
  -5  -3   2 4.37656 1.21458   3
   4   3  -2 347.996 15.4832   6
   4   3  -2 387.790 15.6137  12
   4   3  -2 310.039 15.4678   1
   4   3  -2 342.825 15.4936   1
  -4  -3   2 380.758 15.5574   1
  -4  -3   2 381.652 15.5329   6
  -4  -3   2 353.888 15.5600   3
  -4  -3   2 343.008 15.5013   1
  -4  -3   2 354.038 15.5183   4
  -4  -3   2 355.999 15.4549   8
  -4  -3   2 383.965 15.6125   9
   3   3  -2 47.9285 2.67775   1
   3   3  -2 46.7955 2.59122   3
   3   3  -2 48.2010 2.71184   1
   3   3  -2 47.9219 2.61264   6
   3   3  -2 48.0075 2.66112  12
  -3  -3   2 44.5936 2.51871   8
  -3  -3   2 47.5211 2.66086   6
  -3  -3   2 48.7777 2.70827   1
  -3  -3   2 46.4106 2.64739   9
  -3  -3   2 46.4736 2.65869   1
  -3  -3   2 47.2404 2.71943  10
  -3  -3   2 47.7033 2.68799   4
  -3  -3   2 45.1049 2.66019   3
   2   3  -2 28.5488 1.97685   1
   2   3  -2 26.4030 1.83480   1
   2   3  -2 29.5593 1.81085   3
   2   3  -2 26.3878 1.79379   6
   2   3  -2 27.9492 1.68714   8
   2   3  -2 29.9912 1.99692  10
  -2  -3   2 29.5508 1.94608   1
  -2  -3   2 29.0132 1.86637   6
  -2  -3   2 26.9906 1.92145   4
  -2  -3   2 27.7199 1.72788   8
  -2  -3   2 28.0564 1.86410   3
  -2  -3   2 27.9253 1.98401  10
  -2  -3   2 25.5023 1.88712   1
  -2  -3   2 26.2680 1.79974   2
   1   3  -2 279.000 11.7228  10
   1   3  -2 277.057 11.4879   8
   1   3  -2 271.809 11.5757   3
   1   3  -2 277.601 11.7188   1
   1   3  -2 288.814 11.7266   4
   1   3  -2 252.507 11.6701   2
   1   3  -2 255.146 11.6405   6
   1   3  -2 249.830 11.6481   1
  -1  -3   2 265.251 11.4796   8
  -1  -3   2 285.483 11.6881   6
  -1  -3   2 274.280 11.6889   2
  -1  -3   2 259.903 11.6656   4
  -1  -3   2 265.523 11.7115  10
  -1  -3   2 283.770 11.7127   1
  -1  -3   2 270.026 11.5845   3
  -1  -3   2 262.774 11.6878   1
   0   3  -2 16.1174 1.32413   1
   0   3  -2 15.1334 1.74670   2
   0   3  -2 16.9345 1.48991   4
   0   3  -2 16.3469 1.18444   8
   0   3  -2 15.3222 1.31814   3
   0   3  -2 15.8348 1.48019  10
   0   3  -2 16.0475 1.31626   6
   0   3  -2 16.4899 1.52517   1
   0  -3   2 15.4694 1.33881   3
   0  -3   2 16.4043 1.49049  10
   0  -3   2 16.3562 1.42487  11
   0  -3   2 14.6241 1.15849   8
   0  -3   2 16.3231 1.49136   1
   0  -3   2 15.3449 1.46201   4
   0  -3   2 15.6768 1.43668   5
   0  -3   2 14.1615 1.65328   2
   0  -3   2 17.2322 1.44468   1
   0  -3   2 18.5732 1.39653   6
  -1   3  -2 189.878 9.06916   1
  -1   3  -2 194.738 9.07569   6
  -1   3  -2 204.502 9.41121   2
  -1   3  -2 217.768 9.24194   4
  -1   3  -2 213.228 8.99442   8
  -1   3  -2 221.753 9.11164   3
  -1   3  -2 210.393 9.25683  10
  -1   3  -2 218.188 9.19732   1
   1  -3   2 198.949 9.20274   4
   1  -3   2 223.865 9.15315   6
   1  -3   2 201.521 9.14315   1
   1  -3   2 219.088 9.16190   1
   1  -3   2 201.909 9.05092   9
   1  -3   2 196.831 9.23747  10
   1  -3   2 206.164 9.12954  11
   1  -3   2 206.680 9.19060   5
   1  -3   2 239.245 9.46803   2
  -2   3  -2 1035.65 41.6812  11
  -2   3  -2 912.977 41.5786   1
  -2   3  -2 1044.60 41.7619   5
  -2   3  -2 971.336 41.9559   2
  -2   3  -2 1002.21 41.6285   3
  -2   3  -2 1026.38 41.6540   1
  -2   3  -2 934.516 41.5895   6
  -2   3  -2 1026.37 41.5567   8
  -2   3  -2 1009.85 41.8049  10
  -2   3  -2 1033.20 41.7937   4
   2  -3   2 1020.66 41.9498   2
   2  -3   2 1060.43 41.6422   6
   2  -3   2 941.281 41.7914  10
   2  -3   2 927.822 41.7493   4
   2  -3   2 952.411 41.6504  11
   2  -3   2 942.867 41.7099   5
   2  -3   2 945.886 41.6151   9
   2  -3   2 1021.35 41.6318   1
  -3   3  -2 108.298 5.27416   4
  -3   3  -2 113.172 5.08864   1
  -3   3  -2 111.022 5.13275  11
  -3   3  -2 109.934 5.27030  10
  -3   3  -2 100.785 4.89950   6
  -3   3  -2 105.860 5.49616   2
  -3   3  -2 110.851 5.26805   5
  -3   3  -2 95.6332 4.90559   1
   3  -3   2 100.696 5.27410   5
   3  -3   2 99.2745 4.94473   1
   3  -3   2 99.8510 5.26715   4
   3  -3   2 108.215 5.37103   2
   3  -3   2 108.467 5.18864   9
   3  -3   2 114.355 4.97833   6
   3  -3   2 98.9187 5.22916  11
   3  -3   2 108.836 4.97555   1
  -4   3  -2 7.39102 1.33565   1
  -4   3  -2 7.82696 1.57854   4
  -4   3  -2 5.38263 1.12376   6
  -4   3  -2 8.55079 1.50592  10
  -4   3  -2 4.85439 1.15756   1
  -4   3  -2 10.7500 1.95258   2
  -4   3  -2 7.95295 1.43086  11
  -4   3  -2 8.17233 1.62338   5
   4  -3   2 7.21273 1.60312   5
   4  -3   2 6.52493 1.23232   6
   4  -3   2 7.56069 1.73963   2
   4  -3   2 6.10749 1.24897   1
   4  -3   2 7.25992 1.56434  11
   4  -3   2 7.15737 1.56282   9
  -5   3  -2 7.19266 1.33011   6
  -5   3  -2 8.41907 1.48310   1
  -5   3  -2 6.02180 1.64251  10
  -5   3  -2 4.38380 1.53121   4
  -5   3  -2 7.28331 1.50627   1
  -5   3  -2 7.42845 1.74395  11
  -5   3  -2 8.28867 1.79092   5
   5  -3   2 7.96382 1.34568   6
   5  -3   2 6.70611 1.47654   1
   5  -3   2 9.42120 2.22601   2
   5  -3   2 6.26685 1.32763   1
   5  -3   2 5.42928 1.89240  11
   5  -3   2 5.96058 1.87080   9
  -6   3  -2 3.91577 2.29919   5
  -6   3  -2 1.98024 2.14036  11
  -6   3  -2 4.78761 1.67224   1
  -6   3  -2 2.16738 1.55216   1
  -6   3  -2 4.86968 2.04587  10
  -6   3  -2 3.01044 2.11742   4
   6  -3   2 9.97961 2.76204   2
   6  -3   2 1.49832 2.38060   9
   6  -3   2 2.61519 2.55220  11
  -7   3  -2 3.48658 2.61378  10
  -7   3  -2 0.88323 2.57428   4
  -7   3  -2 3.12356 2.86217   5
  -7   3  -2 3.38512 2.84495  11
  10   2  -2 11.1007 2.90506   1
  10   2  -2 8.85045 2.83219   6
 -10  -2   2 12.1289 2.96070   1
 -10  -2   2 12.6495 2.84604   8
 -10  -2   2 12.4256 3.08811  11
 -10  -2   2 11.2168 3.42028   3
 -10  -2   2 9.24557 3.70054  12
 -10  -2   2 3.68481 3.04523   5
 -10  -2   2 13.3145 3.52815   7
   9   2  -2 8.71634 1.93046   6
   9   2  -2 13.0472 2.54142   6
   9   2  -2 10.8849 2.63138   1
   9   2  -2 11.4906 2.28062   1
  -9  -2   2 14.3224 2.57952  11
  -9  -2   2 16.2088 2.60582   3
  -9  -2   2 15.0973 2.39944   1
  -9  -2   2 14.3882 2.13932   8
  -9  -2   2 12.0101 2.66957   1
  -9  -2   2 15.3276 2.83773  12
  -9  -2   2 15.8286 2.27871   5
   8   2  -2 -3.0455 1.48978   1
   8   2  -2 -1.3718 1.30746   6
   8   2  -2 1.13280 1.68537   6
   8   2  -2 -1.7873 1.75358   1
  -8  -2   2 -0.8969 1.82521   1
  -8  -2   2 0.42246 1.58030   3
  -8  -2   2 0.49520 1.54543  11
  -8  -2   2 -1.2811 1.42176   5
  -8  -2   2 0.34958 1.76871  12
  -8  -2   2 -1.8740 1.49272   1
   7   2  -2 49.0389 3.07561   6
   7   2  -2 47.6379 3.42090   6
   7   2  -2 46.8658 3.59890   1
   7   2  -2 49.7203 3.24754   1
  -7  -2   2 53.0706 3.45496   3
  -7  -2   2 56.9421 3.46565   9
  -7  -2   2 46.2500 3.29454  11
  -7  -2   2 46.6033 3.15879   1
  -7  -2   2 40.0977 3.37624  12
  -7  -2   2 52.6779 3.65816   1
   6   2  -2 95.3577 4.89009   1
   6   2  -2 93.6706 5.05081   1
   6   2  -2 93.6599 4.80823   6
   6   2  -2 95.4162 5.00134   6
  -6  -2   2 103.035 5.11521   9
  -6  -2   2 101.973 5.15307   3
  -6  -2   2 105.594 5.03281   6
  -6  -2   2 102.608 5.03269  11
  -6  -2   2 94.6307 5.08288  12
  -6  -2   2 89.0165 4.83178   1
  -6  -2   2 99.2843 5.07304   1
   5   2  -2 131.272 6.02150   6
   5   2  -2 124.990 6.10856   1
   5   2  -2 127.552 6.07735   6
   5   2  -2 127.231 6.05602   1
  -5  -2   2 133.408 6.13598   1
  -5  -2   2 129.706 6.11175  11
  -5  -2   2 124.709 6.17399   3
  -5  -2   2 125.409 6.03416   1
  -5  -2   2 124.119 6.16540  12
  -5  -2   2 134.658 6.22442   9
  -5  -2   2 132.580 6.09033   6
   4   2  -2 32.5037 2.14983   1
   4   2  -2 31.8797 2.20233   1
   4   2  -2 32.9676 2.06894   6
   4   2  -2 30.9154 2.13739   6
  -4  -2   2 33.5886 2.12185   6
  -4  -2   2 32.3503 2.20732   9
  -4  -2   2 30.2182 2.16295  12
  -4  -2   2 30.3576 2.22659   3
  -4  -2   2 36.7437 2.23704  11
  -4  -2   2 32.6471 2.16837   1
  -4  -2   2 29.6937 2.13161   1
   3   2  -2 0.77442 0.77321   1
   3   2  -2 0.34754 0.67202   6
   3   2  -2 1.07536 0.73854  12
   3   2  -2 0.22238 0.76780   1
  -3  -2   2 1.38043 0.78613   3
  -3  -2   2 1.41309 0.77676  12
  -3  -2   2 2.05719 0.84193   1
  -3  -2   2 0.96837 0.72507   9
  -3  -2   2 1.11429 0.71870   6
  -3  -2   2 0.25107 0.76020   1
  -3  -2   2 0.60588 0.70027   4
   2   2  -2 77.5991 3.76136   2
   2   2  -2 88.4565 3.92843  12
   2   2  -2 85.0512 3.87375   3
   2   2  -2 77.6751 3.92604   1
   2   2  -2 78.3200 3.90650   6
   2   2  -2 85.0812 4.01544   1
  -2  -2   2 83.1733 3.97082   4
  -2  -2   2 82.6718 3.98527  10
  -2  -2   2 84.0228 3.95444   1
  -2  -2   2 78.3671 3.78405   8
  -2  -2   2 80.8854 3.86310   3
  -2  -2   2 79.2395 3.94352   1
  -2  -2   2 83.5335 3.85932   9
  -2  -2   2 87.9496 3.96010   6
   1   2  -2 26.7002 1.58530   3
   1   2  -2 29.6191 1.86225  10
   1   2  -2 28.0212 1.86321   4
   1   2  -2 28.3047 1.86788   1
   1   2  -2 26.3850 1.46531   8
   1   2  -2 25.7416 1.74677   1
   1   2  -2 26.5402 1.85893   2
   1   2  -2 26.4015 1.71816   6
  -1  -2   2 26.9862 1.74136   4
  -1  -2   2 27.1634 1.81175   1
  -1  -2   2 26.2488 1.44052   8
  -1  -2   2 24.3722 1.84513   2
  -1  -2   2 30.0354 1.83566   1
  -1  -2   2 28.5133 1.74903   6
  -1  -2   2 27.3018 1.59437   3
  -1  -2   2 25.0877 1.61130   7
  -1  -2   2 27.0651 1.80403  10
   0   2  -2 40.4029 2.55190   2
   0   2  -2 45.8698 2.37199  10
   0   2  -2 41.7880 2.24631   1
   0   2  -2 43.0646 2.22851   6
   0   2  -2 41.8338 2.14036   3
   0   2  -2 47.2407 2.38208   4
   0   2  -2 44.7973 2.36243   1
   0  -2   2 46.9483 2.29176   6
   0  -2   2 40.8769 1.99853   8
   0  -2   2 42.4514 2.13336   3
   0  -2   2 46.6559 2.34394   1
   0  -2   2 44.5189 2.28534   5
   0  -2   2 42.0598 2.34800  10
   0  -2   2 44.8830 2.33126   4
   0  -2   2 42.8037 2.34007   1
   0  -2   2 43.9385 2.55084   2
  -1   2  -2 699.009 29.1003   1
  -1   2  -2 666.970 29.3222   2
  -1   2  -2 711.245 29.0371   3
  -1   2  -2 723.200 29.1406   5
  -1   2  -2 685.231 29.0738   6
  -1   2  -2 714.825 29.2144  10
  -1   2  -2 691.276 28.9655   8
  -1   2  -2 656.783 29.0607   1
  -1   2  -2 724.900 29.1845   4
   1  -2   2 689.741 29.0855   1
   1  -2   2 716.538 29.0890   6
   1  -2   2 676.155 29.1156   5
   1  -2   2 700.210 29.3285   2
   1  -2   2 682.579 29.0561  11
   1  -2   2 667.397 29.1634   4
   1  -2   2 678.561 29.0873   1
   1  -2   2 665.133 29.1892  10
  -2   2  -2 1029.43 47.1768   1
  -2   2  -2 1163.43 47.2384  11
  -2   2  -2 1128.09 47.5519   2
  -2   2  -2 1071.22 47.1615   1
  -2   2  -2 1179.08 47.3600   4
  -2   2  -2 1205.37 47.3346   5
  -2   2  -2 1082.68 47.1666   6
  -2   2  -2 1162.23 47.3733  10
   2  -2   2 1088.87 47.3617  10
   2  -2   2 1167.39 47.5396   2
   2  -2   2 1073.76 47.3212   4
   2  -2   2 1193.42 47.1916   6
   2  -2   2 1156.15 47.1896   1
   2  -2   2 1109.05 47.3220   5
   2  -2   2 1085.84 47.2298  11
   2  -2   2 1112.26 47.2338   9
  -3   2  -2 305.055 12.8483   5
  -3   2  -2 295.632 12.8663   4
  -3   2  -2 293.742 13.0792   2
  -3   2  -2 272.580 12.5443   1
  -3   2  -2 302.395 12.7360  11
  -3   2  -2 292.709 12.8885  10
  -3   2  -2 310.536 12.8202   9
  -3   2  -2 289.705 12.5830   1
  -3   2  -2 269.919 12.5284   6
   3  -2   2 322.543 13.0798   2
   3  -2   2 275.435 12.7493  11
   3  -2   2 303.133 12.5746   1
   3  -2   2 283.875 12.8475   5
   3  -2   2 285.659 12.7827   9
   3  -2   2 306.641 12.5703   6
  -4   2  -2 38.9343 2.57819  11
  -4   2  -2 37.8181 3.10777   2
  -4   2  -2 28.5076 2.14805   1
  -4   2  -2 31.7508 2.72306   4
  -4   2  -2 31.2939 2.12137   1
  -4   2  -2 32.7849 2.64925  10
  -4   2  -2 37.2616 2.84606   5
  -4   2  -2 36.4214 2.96052   9
   4  -2   2 34.6376 2.08598   1
   4  -2   2 32.6880 2.14228   1
   4  -2   2 32.5824 2.81935   9
   4  -2   2 31.7748 2.85224   5
   4  -2   2 39.3378 2.97847   2
   4  -2   2 33.8085 2.76561  11
  -5   2  -2 22.6836 3.03840   9
  -5   2  -2 16.7559 2.59157  10
  -5   2  -2 21.3597 2.17460   7
  -5   2  -2 18.3909 2.74921   2
  -5   2  -2 20.6327 2.74719   4
  -5   2  -2 20.1943 2.80623   5
  -5   2  -2 20.5914 2.53984  11
   5  -2   2 16.9443 2.17211   9
   5  -2   2 19.6345 2.95131  11
   5  -2   2 22.8388 2.99324   2
  -6   2  -2 10.6297 2.01396  10
  -6   2  -2 14.1922 2.07182   7
  -6   2  -2 10.3722 2.02641  11
  -6   2  -2 9.87732 2.26937   5
  -6   2  -2 11.2442 2.17637   4
  -6   2  -2 11.4629 2.39080   9
  -6   2  -2 9.48219 3.02539   2
  -6   2  -2 17.6406 2.13269   7
  -7   2  -2 14.7995 2.92124   5
  -7   2  -2 15.9299 2.68842  11
  -7   2  -2 13.3894 2.55850  10
  -7   2  -2 12.2931 3.40115   9
  -7   2  -2 10.0501 3.19751   3
  -7   2  -2 15.0408 2.80248   7
  -7   2  -2 14.2182 2.72637   4
  -7   2  -2 18.7651 2.74620   7
  -7   2  -2 13.2260 3.20856  12
   9   1  -2 6.12907 2.35965   6
   9   1  -2 14.2062 2.23353   1
   9   1  -2 8.15441 2.61862   1
   9   1  -2 11.3766 2.20000   6
  -9  -1   2 12.3441 2.72989   7
  -9  -1   2 8.49218 2.36036   1
  -9  -1   2 10.8054 2.55716  11
  -9  -1   2 8.25076 2.25064   5
  -9  -1   2 10.8617 2.48196   3
  -9  -1   2 7.15447 2.68007   1
  -9  -1   2 8.38581 2.64477  12
   8   1  -2 2.72866 1.90498   6
   8   1  -2 0.56100 2.06266   1
   8   1  -2 -1.9866 1.28348   6
   8   1  -2 1.36690 1.56445   1
  -8  -1   2 3.31544 1.45991   5
  -8  -1   2 2.30630 1.94310   1
  -8  -1   2 1.67795 1.72218   1
  -8  -1   2 2.63656 1.76704  11
  -8  -1   2 5.31439 1.74502   7
  -8  -1   2 0.66711 1.73149  12
  -8  -1   2 0.61293 1.49751   3
   7   1  -2 54.1700 3.21467   6
   7   1  -2 55.1309 3.52825   9
   7   1  -2 59.5945 3.94482   1
   7   1  -2 55.0327 3.79323   6
   7   1  -2 54.5597 3.51127   1
  -7  -1   2 64.5227 3.83994   9
  -7  -1   2 62.0201 3.88349   1
  -7  -1   2 51.6409 3.46604   1
  -7  -1   2 53.1482 3.62667  11
  -7  -1   2 53.6372 3.58711   3
  -7  -1   2 57.5138 3.53144   5
   6   1  -2 200.645 9.05615   1
   6   1  -2 202.946 9.03100   6
   6   1  -2 197.522 9.13461   6
   6   1  -2 199.128 9.21099   1
  -6  -1   2 187.445 9.04645   1
  -6  -1   2 207.193 9.23901  11
  -6  -1   2 203.814 9.16913   1
  -6  -1   2 209.441 9.31310   9
  -6  -1   2 192.801 9.24457  12
   5   1  -2 21.7940 1.88023   1
   5   1  -2 21.2974 1.95306   6
   5   1  -2 18.0359 1.96567   9
   5   1  -2 19.1331 2.05747   1
   5   1  -2 21.2678 1.73128   6
  -5  -1   2 20.6291 2.06480   1
  -5  -1   2 19.3157 1.76921  11
  -5  -1   2 16.1291 1.84452  12
  -5  -1   2 18.7141 1.92124   9
  -5  -1   2 19.1924 1.74837   1
   4   1  -2 48.9499 2.64382   6
   4   1  -2 46.3867 2.76707   1
   4   1  -2 46.7873 2.69818   6
   4   1  -2 51.1297 2.73392   1
   4   1  -2 45.8687 2.72282   9
  -4  -1   2 44.9714 2.68552   1
  -4  -1   2 49.6677 2.78471  11
  -4  -1   2 47.4819 2.72866   9
  -4  -1   2 48.1842 2.74938   1
  -4  -1   2 51.0802 2.72111   6
  -4  -1   2 43.3163 2.72377  12
   3   1  -2 1108.32 48.5906   9
   3   1  -2 1107.62 48.5958   1
   3   1  -2 1184.32 48.6236   1
   3   1  -2 1128.34 48.5872   6
   3   1  -2 1202.08 48.6191   6
  -3  -1   2 1180.13 48.6209   1
  -3  -1   2 1189.05 48.6091   6
  -3  -1   2 1187.86 48.6075   9
  -3  -1   2 1130.25 48.6223  12
  -3  -1   2 1179.74 48.6324  11
  -3  -1   2 1117.38 48.6177   1
   2   1  -2 121.018 5.45090   2
   2   1  -2 123.253 5.56926   9
   2   1  -2 126.824 5.63791   6
   2   1  -2 119.390 5.65612   1
   2   1  -2 127.639 5.66822   1
   2   1  -2 119.875 5.61893   6
   2   1  -2 132.995 5.63197  12
  -2  -1   2 126.271 5.63997  12
  -2  -1   2 130.087 5.67222   1
  -2  -1   2 124.883 5.60861   7
  -2  -1   2 127.481 5.64046   6
  -2  -1   2 120.835 5.66618   1
  -2  -1   2 128.767 5.58042   9
  -2  -1   2 120.989 5.57096   3
   1   1  -2 44.3817 2.40671   2
   1   1  -2 43.5973 2.33875   6
   1   1  -2 48.3978 2.41080   4
   1   1  -2 44.8348 2.32717   7
   1   1  -2 48.2749 2.29021  12
   1   1  -2 46.1394 2.44349   1
   1   1  -2 42.9016 2.35710   1
  -1  -1   2 47.1687 2.36423   6
  -1  -1   2 44.6491 2.40124   1
  -1  -1   2 44.5951 2.39849   1
  -1  -1   2 46.6327 2.40413  10
  -1  -1   2 44.0551 2.12686   9
  -1  -1   2 46.6224 2.31979   7
  -1  -1   2 47.1612 2.37550   4
  -1  -1   2 42.8741 2.17973   3
   0   1  -2 18.2526 1.38038   1
   0   1  -2 17.8036 1.34762  10
   0   1  -2 14.8447 1.63324   2
   0   1  -2 18.6977 1.40427   4
   0   1  -2 17.8350 1.22636   7
   0   1  -2 17.4871 1.28619   1
   0   1  -2 16.0685 1.21742   6
   0  -1   2 17.1674 1.32402  10
   0  -1   2 18.9449 1.28643   4
   0  -1   2 16.9513 1.32980   1
   0  -1   2 17.7491 1.16338   7
   0  -1   2 19.3029 1.32529   1
   0  -1   2 17.4066 1.59639   2
   0  -1   2 16.7786 1.27591   6
  -1   1  -2 130.650 5.58540   5
  -1   1  -2 122.542 5.48276   7
  -1   1  -2 129.464 5.62021   4
  -1   1  -2 125.105 5.55242   1
  -1   1  -2 131.753 5.52323   6
  -1   1  -2 121.971 5.51476   1
  -1   1  -2 121.358 5.88295   2
  -1   1  -2 129.799 5.65627  10
   1  -1   2 122.795 5.53151   1
   1  -1   2 129.340 5.65713  10
   1  -1   2 124.685 5.57169   5
   1  -1   2 131.896 5.47955   7
   1  -1   2 127.000 5.52293   6
   1  -1   2 130.261 5.88344   2
   1  -1   2 131.513 5.63862   4
  -2   1  -2 148.865 6.49995   7
  -2   1  -2 144.056 6.93419   2
  -2   1  -2 155.022 6.65700   4
  -2   1  -2 156.493 6.65767   5
  -2   1  -2 151.821 6.63533   9
  -2   1  -2 151.937 6.67369  10
  -2   1  -2 147.312 6.43941   1
   2  -1   2 159.212 6.94072   2
   2  -1   2 145.580 6.66210   4
   2  -1   2 147.410 6.61906   9
   2  -1   2 148.381 6.65405   5
  -3   1  -2 69.3327 3.36412   5
  -3   1  -2 61.3732 3.10245   7
  -3   1  -2 65.4303 3.40301   9
  -3   1  -2 64.5271 3.20977  11
  -3   1  -2 63.8263 3.67960   2
  -3   1  -2 67.7901 3.32465  10
  -3   1  -2 64.3537 3.31943   4
   3  -1   2 61.9878 3.39314   5
   3  -1   2 68.5632 3.60762   2
   3  -1   2 60.4695 3.29406  11
  -4   1  -2 28.1795 2.49076   9
  -4   1  -2 28.8949 2.33709   5
  -4   1  -2 22.7598 2.00897   7
  -4   1  -2 26.2790 2.21512  10
  -4   1  -2 24.1901 2.25634   4
  -4   1  -2 28.2657 2.72228   2
  -4   1  -2 23.2958 2.16303  11
   4  -1   2 29.2173 2.35836  11
  -5   1  -2 47.0116 3.34349   5
  -5   1  -2 43.0611 3.18825  11
  -5   1  -2 46.1884 3.31313  12
  -5   1  -2 46.7199 3.17062   4
  -5   1  -2 41.7295 3.15917  10
  -5   1  -2 48.9776 3.56652   9
  -5   1  -2 45.2923 2.99088   7
  -5   1  -2 42.0677 3.71565   2
  -6   1  -2 43.6143 4.06521   9
  -6   1  -2 36.0967 3.25413   7
  -6   1  -2 37.1058 3.87110   3
  -6   1  -2 34.7567 4.17114   2
  -6   1  -2 43.1059 3.50369   4
  -6   1  -2 37.1880 3.71766  12
  -6   1  -2 43.2893 3.59448   5
  -6   1  -2 35.2227 3.45766  11
  -6   1  -2 34.6061 3.43858  10
  -7   1  -2 33.5995 4.15348   8
  -7   1  -2 25.7944 3.83609  11
  -7   1  -2 28.4331 3.50011  12
  -7   1  -2 38.5809 4.82313   3
  -7   1  -2 29.1313 3.95159   7
  -7   1  -2 29.0596 4.13703   4
  -7   1  -2 32.8693 4.42405   5
  -7   1  -2 29.4734 3.47937   9
  -7   1  -2 28.6650 3.87659  10
  -7   1  -2 28.5876 4.00933   2
   9   0  -2 51.6835 4.61042   9
   9   0  -2 56.7166 5.21512   1
   9   0  -2 54.8758 4.39606   1
   9   0  -2 50.7977 4.13476   6
   9   0  -2 55.2544 4.96789   6
  -9   0   2 49.4394 4.86374   3
  -9   0   2 59.0744 5.34008   1
  -9   0   2 64.6961 4.97541   7
  -9   0   2 61.8656 5.28118   5
  -9   0   2 49.3916 5.14747  12
  -9   0   2 43.1936 4.73472   1
  -9   0   2 52.7015 5.06413  11
   8   0  -2 93.0611 5.21320   1
   8   0  -2 88.7939 5.79607   1
   8   0  -2 91.9570 5.62832   6
   8   0  -2 90.1865 5.09403   6
  -8   0   2 91.9836 5.36628   1
  -8   0   2 99.2424 5.75442   1
  -8   0   2 101.442 5.63555  11
  -8   0   2 87.3877 5.61075  12
  -8   0   2 94.7806 5.47048   7
  -8   0   2 105.626 6.25442   5
   7   0  -2 108.096 5.77423   1
   7   0  -2 103.790 5.59963   6
   7   0  -2 96.5740 5.60980   9
   7   0  -2 103.411 5.26722   6
   7   0  -2 101.484 5.38080   1
  -7   0   2 102.115 5.41661   1
  -7   0   2 114.285 5.60631  11
  -7   0   2 112.261 5.71312   1
  -7   0   2 107.631 5.55469   5
  -7   0   2 108.378 5.52919   7
  -7   0   2 105.245 5.58774  12
  -7   0   2 105.064 5.64433   9
   6   0  -2 200.859 9.31796   1
   6   0  -2 203.306 9.12858   6
   6   0  -2 212.258 9.20959   1
   6   0  -2 200.981 9.24524   6
   6   0  -2 187.480 9.35668   9
  -6   0   2 209.575 9.33913  11
  -6   0   2 212.498 9.22930   7
  -6   0   2 194.461 9.18762   1
  -6   0   2 186.606 9.10143   6
  -6   0   2 209.044 9.40954   9
  -6   0   2 193.277 9.34173  12
  -6   0   2 213.557 9.31379   1
  -6   0   2 205.371 9.26553   5
   5   0  -2 -0.3616 0.84897  11
   5   0  -2 0.65103 0.90315   9
   5   0  -2 1.24041 1.10837   1
   5   0  -2 -0.5248 0.66643   6
   5   0  -2 1.37139 0.96840   6
   5   0  -2 -0.9506 0.77293   1
  -5   0   2 0.32406 0.74124   1
  -5   0   2 0.22864 0.88289   7
  -5   0   2 1.27558 0.96922   9
  -5   0   2 0.62987 1.01642   1
  -5   0   2 1.00762 0.77464   6
  -5   0   2 0.00385 0.69537  11
  -5   0   2 0.00235 0.73423   5
   4   0  -2 5.97807 1.05267   9
   4   0  -2 9.00661 1.32901   1
   4   0  -2 5.62585 0.99506   6
   4   0  -2 6.21925 0.97387   6
   4   0  -2 6.81087 1.09184   1
   4   0  -2 6.20161 1.12139  11
  -4   0   2 6.31463 1.12247   9
  -4   0   2 5.24121 1.00303   1
  -4   0   2 8.17918 1.07820   7
  -4   0   2 6.42925 1.08783   1
  -4   0   2 6.61004 0.99776   6
   3   0  -2 20.7026 1.54926   6
   3   0  -2 19.3685 1.61544   1
   3   0  -2 18.1686 1.63453  11
   3   0  -2 16.7683 1.47322   6
   3   0  -2 15.1346 1.55676   9
   3   0  -2 19.4742 1.65088   1
  -3   0   2 20.3901 1.55754   7
  -3   0   2 20.2573 1.62939   1
  -3   0   2 17.6961 1.55837   1
  -3   0   2 17.9484 1.65000   9
  -3   0   2 18.0990 1.59797  11
  -3   0   2 16.8611 1.47739   6
   2   0  -2 24.4974 1.76355   7
   2   0  -2 23.1187 1.61515   9
   2   0  -2 26.4303 1.68127   6
   2   0  -2 23.1954 1.66090  11
   2   0  -2 25.4667 1.75166   1
   2   0  -2 23.3783 1.61241   6
   2   0  -2 23.8122 1.68402   1
  -2   0   2 25.1142 1.66586   9
  -2   0   2 23.3435 1.63594   6
  -2   0   2 24.3097 1.72971   1
  -2   0   2 24.7920 1.70629   1
  -2   0   2 25.2259 1.66519  11
  -2   0   2 25.2580 1.74947   7
  -2   0   2 23.9492 1.67320   6
   1   0  -2 424.541 18.9265   1
   1   0  -2 434.384 18.9297   1
   1   0  -2 464.579 18.9223   7
   1   0  -2 424.690 18.9125   6
   1   0  -2 454.416 18.8338   9
   1   0  -2 449.978 18.9295   6
  -1   0   2 458.525 18.8583  11
  -1   0   2 447.634 18.9228   6
  -1   0   2 473.509 18.8385   9
  -1   0   2 431.131 18.9309   1
  -1   0   2 449.474 18.9387   1
  -1   0   2 434.058 18.9198   6
  -1   0   2 468.776 18.9083   7
   0   0  -2 163.113 7.20818   6
   0   0  -2 165.221 7.23438   1
   0   0  -2 169.913 7.21917   6
   0   0  -2 170.789 7.24075   7
   0   0  -2 160.477 7.22071   1
   0   0  -2 172.877 7.20896   4
   0   0   2 166.976 7.21233   6
   0   0   2 163.003 7.22365   1
   0   0   2 166.615 7.24589   1
   0   0   2 168.402 7.22555  10
   0   0   2 177.943 7.22598   7
   0   0   2 164.846 7.17769   4
  -1   0  -2 1.41371 0.46512   4
  -1   0  -2 0.92950 0.45278   1
  -1   0  -2 0.91094 0.47295   8
  -1   0  -2 1.37520 0.62745   7
  -1   0  -2 1.17101 0.44249   1
  -1   0  -2 0.97711 0.86744   2
  -1   0  -2 2.11981 0.48208  10
   1   0   2 1.96654 0.47180   4
   1   0   2 0.99561 0.44723   1
   1   0   2 0.97062 0.45671   1
   1   0   2 1.06595 0.53282   7
   1   0   2 1.71600 0.49240  10
  -2   0  -2 1.74067 0.57172  10
  -2   0  -2 2.13939 0.63130   9
  -2   0  -2 1.82464 0.72813   7
  -2   0  -2 1.95815 0.94268   2
  -2   0  -2 1.04472 0.67983   8
  -2   0  -2 1.98616 0.62302   3
  -2   0  -2 2.03025 0.52844   4
  -2   0  -2 2.79497 0.58561   5
  -3   0  -2 34.0078 1.91420  10
  -3   0  -2 32.6275 2.12046   9
  -3   0  -2 29.9168 2.38434   2
  -3   0  -2 29.5332 2.03379   8
  -3   0  -2 33.3310 1.94393   4
  -3   0  -2 31.9639 1.96627   7
  -3   0  -2 28.1306 2.05194   3
  -3   0  -2 27.6807 1.93984  12
  -3   0  -2 34.8847 2.02551   5
  -4   0  -2 59.5527 3.49154  12
  -4   0  -2 61.4366 3.53443   8
  -4   0  -2 64.1849 3.92720   2
  -4   0  -2 65.6501 3.40928  11
  -4   0  -2 67.0431 3.52484   5
  -4   0  -2 68.4033 3.42450   4
  -4   0  -2 67.6379 3.41884  10
  -4   0  -2 70.2160 3.76745   9
  -4   0  -2 65.7586 3.42860   7
  -4   0  -2 59.0301 3.59463   3
  -5   0  -2 46.6593 3.12580   7
  -5   0  -2 55.3570 3.67651   9
  -5   0  -2 49.7640 3.30774   8
  -5   0  -2 50.4498 3.26595  11
  -5   0  -2 47.3574 3.27737   5
  -5   0  -2 45.8968 3.28898  12
  -5   0  -2 48.3288 3.15543   4
  -5   0  -2 47.4568 3.61130   2
  -5   0  -2 46.4814 3.44174   3
  -5   0  -2 48.8896 3.08186  10
  -6   0  -2 39.1234 3.71285  12
  -6   0  -2 44.2470 3.47464  11
  -6   0  -2 45.9344 3.62569   8
  -6   0  -2 40.4980 3.16553  10
  -6   0  -2 34.1641 3.38431   7
  -6   0  -2 40.3454 3.29259   4
  -6   0  -2 40.3867 3.85381   2
  -6   0  -2 36.0459 3.85088   9
  -6   0  -2 36.8496 3.81381   3
  -6   0  -2 41.4962 3.44388   5
  -7   0  -2 13.5566 2.60868  11
  -7   0  -2 16.3144 2.89074   3
  -7   0  -2 14.8556 2.93909  12
  -7   0  -2 14.4266 2.79136   8
  -7   0  -2 15.5766 3.37400   2
  -7   0  -2 19.4938 2.60050   5
  -7   0  -2 12.9738 2.29637  10
  -7   0  -2 15.6224 2.31469   4
  -7   0  -2 18.4954 2.82090   7
  -7   0  -2 17.2862 3.00568   9
  -8   0  -2 24.5939 4.23703   3
   9  -1  -2 64.5496 4.56224   6
   9  -1  -2 62.9242 4.87888   1
   9  -1  -2 60.0306 5.83372   1
   9  -1  -2 70.7757 5.53226   6
   9  -1  -2 55.5826 5.34623   9
  -9   1   2 56.2348 5.54336  12
  -9   1   2 68.2392 5.37484   1
  -9   1   2 58.5037 5.46018   7
  -9   1   2 64.3870 5.68538   1
  -9   1   2 71.3462 5.50284  11
   8  -1  -2 126.593 6.98054   1
   8  -1  -2 127.007 6.73596   6
   8  -1  -2 114.272 6.63911   9
   8  -1  -2 130.322 6.25543   2
   8  -1  -2 126.342 6.39155   1
   8  -1  -2 114.098 6.29023   6
  -8   1   2 125.350 6.70562  11
  -8   1   2 125.351 6.61954   7
  -8   1   2 117.307 6.32656   6
  -8   1   2 132.241 6.84721   1
  -8   1   2 117.606 6.80586  12
  -8   1   2 112.323 6.44032   1
   7  -1  -2 77.9215 4.94547  11
   7  -1  -2 81.7301 4.83029   6
   7  -1  -2 81.9053 4.40410   6
   7  -1  -2 83.2080 5.13539   1
   7  -1  -2 72.0959 4.70138   9
   7  -1  -2 81.5319 4.50148   1
   7  -1  -2 88.9779 4.48706   2
  -7   1   2 79.8908 4.67022   7
  -7   1   2 83.8312 4.95213   1
  -7   1   2 79.9463 4.50716   1
  -7   1   2 89.9419 5.51167   9
  -7   1   2 80.0265 4.40627   6
  -7   1   2 83.9338 4.80259  11
  -7   1   2 90.1467 4.65222   5
   6  -1  -2 183.767 8.87347  11
   6  -1  -2 200.541 8.68054   1
   6  -1  -2 188.383 8.77116   6
   6  -1  -2 182.090 8.88728   9
   6  -1  -2 201.755 8.54476   2
   6  -1  -2 197.209 8.65671   6
   6  -1  -2 195.836 8.90978   1
  -6   1   2 196.113 9.02285  11
  -6   1   2 159.274 8.58506   1
  -6   1   2 194.450 8.71581   7
  -6   1   2 204.445 8.87154   1
  -6   1   2 166.888 8.57514   6
  -6   1   2 188.523 8.92174   9
  -6   1   2 197.926 8.84071   5
   5  -1  -2 44.2029 2.94947   6
   5  -1  -2 46.1784 3.07191   9
   5  -1  -2 48.9331 2.84333   1
   5  -1  -2 50.9586 2.78749   2
   5  -1  -2 50.3960 2.74205   6
   5  -1  -2 49.2507 3.18928   1
   5  -1  -2 46.4370 2.96603  11
  -5   1   2 48.0881 2.88953  11
  -5   1   2 50.1153 3.01931   1
  -5   1   2 44.8954 2.80210   1
  -5   1   2 52.6479 2.95420   5
  -5   1   2 48.8032 3.04995   9
  -5   1   2 46.3342 2.71047   6
  -5   1   2 43.4030 2.80621   7
   4  -1  -2 2.42168 0.85544   1
   4  -1  -2 2.11544 0.74663   6
   4  -1  -2 2.16017 0.88505   9
   4  -1  -2 1.88594 0.88927   6
   4  -1  -2 1.79200 1.06519   1
   4  -1  -2 1.17898 0.92412  11
  -4   1   2 0.28039 0.85457   7
  -4   1   2 1.22703 0.88943   1
  -4   1   2 2.61162 0.90895   9
  -4   1   2 1.87718 0.79484   6
  -4   1   2 1.10155 0.70190   5
  -4   1   2 1.05808 0.87409  11
  -4   1   2 2.03625 0.85520   1
   3  -1  -2 106.082 5.11301   1
   3  -1  -2 103.023 5.12729   9
   3  -1  -2 103.929 5.04270   7
   3  -1  -2 116.563 5.08343   6
   3  -1  -2 105.518 5.11047  11
   3  -1  -2 113.746 5.11904   1
  -3   1   2 106.287 5.07250   6
  -3   1   2 113.907 5.06843   7
  -3   1   2 112.492 5.04784   5
  -3   1   2 110.680 5.13609   9
  -3   1   2 105.244 5.10890   1
  -3   1   2 112.649 5.10533   1
  -3   1   2 112.941 5.12259  11
   2  -1  -2 442.303 19.3726  11
   2  -1  -2 453.575 19.3732   7
   2  -1  -2 445.127 19.3807   9
   2  -1  -2 460.819 19.4081   1
   2  -1  -2 439.342 19.4018   1
   2  -1  -2 470.301 19.4024   6
  -2   1   2 442.849 19.4059   1
  -2   1   2 462.167 19.3706  11
  -2   1   2 462.923 19.4065   1
  -2   1   2 444.882 19.3918   6
  -2   1   2 483.266 19.3804   7
  -2   1   2 465.374 19.3901   9
  -2   1   2 458.760 19.3129   5
   1  -1  -2 49.3965 2.54211   1
   1  -1  -2 49.9561 2.56743   7
   1  -1  -2 48.3532 2.48670   6
   1  -1  -2 46.5219 2.53641   1
   1  -1  -2 47.4158 2.41230  11
   1  -1  -2 50.8012 2.49609   9
  -1   1   2 48.5676 2.52681   1
  -1   1   2 48.2266 2.50886   6
  -1   1   2 51.4299 2.51071   7
  -1   1   2 45.9329 2.54591   1
  -1   1   2 49.8968 2.40502  11
  -1   1   2 49.3469 2.32186   5
  -1   1   2 53.0011 2.41799   8
   0  -1  -2 192.060 8.53671   1
   0  -1  -2 207.902 8.54735   6
   0  -1  -2 199.355 8.59003   7
   0  -1  -2 187.830 8.54522   1
   0  -1  -2 209.265 8.48351   8
   0   1   2 190.817 8.53720   6
   0   1   2 185.307 8.54314   1
   0   1   2 210.902 8.59123   7
   0   1   2 192.538 8.53842   1
   0   1   2 209.569 8.45236   3
   0   1   2 203.653 8.47578   8
  -1  -1  -2 9.53105 1.13241   7
  -1  -1  -2 9.98574 0.87205   1
  -1  -1  -2 8.47699 0.84050   1
  -1  -1  -2 10.5245 0.90217   3
  -1  -1  -2 9.41646 0.98768   8
   1   1   2 9.14045 0.86489   3
   1   1   2 9.26187 0.83756   1
   1   1   2 9.80802 1.06037   7
   1   1   2 10.3162 0.72472  10
   1   1   2 9.24387 0.95611   8
   1   1   2 6.36135 0.99008   1
  -2  -1  -2 104.056 4.52842  10
  -2  -1  -2 99.6718 4.68059   3
  -2  -1  -2 109.198 4.52262   4
  -2  -1  -2 106.803 4.75713   7
  -2  -1  -2 103.138 4.60594   5
  -2  -1  -2 103.390 4.71678   8
  -3  -1  -2 66.6167 3.54191   3
  -3  -1  -2 74.3800 3.32294   4
  -3  -1  -2 67.9058 3.81963   2
  -3  -1  -2 71.0532 3.53108   7
  -3  -1  -2 75.6849 3.65956   9
  -3  -1  -2 74.8981 3.44569   5
  -3  -1  -2 67.6439 3.55913   8
  -3  -1  -2 71.4490 3.29739  10
  -4  -1  -2 139.203 6.83688   8
  -4  -1  -2 151.486 6.62223  10
  -4  -1  -2 142.773 6.76593  12
  -4  -1  -2 147.467 6.72720  11
  -4  -1  -2 145.977 7.12128   2
  -4  -1  -2 137.794 6.88694   3
  -4  -1  -2 147.707 6.82821   7
  -4  -1  -2 155.363 6.80651   5
  -4  -1  -2 159.988 7.01849   9
  -4  -1  -2 155.331 6.64718   4
  -5  -1  -2 84.6261 4.84239   8
  -5  -1  -2 86.3434 4.93903   3
  -5  -1  -2 84.5188 4.77529  12
  -5  -1  -2 94.0031 5.03427   9
  -5  -1  -2 92.8424 4.71008  11
  -5  -1  -2 94.4547 4.82088   5
  -5  -1  -2 92.0159 5.25187   2
  -5  -1  -2 97.8787 4.57606   4
  -5  -1  -2 90.7531 4.76055   7
  -5  -1  -2 94.8327 4.54955  10
  -6  -1  -2 22.6332 3.34613   2
  -6  -1  -2 23.5308 2.57799   4
  -6  -1  -2 21.8207 2.41776  10
  -6  -1  -2 17.2365 2.21891   5
  -6  -1  -2 19.7259 2.40424   7
  -6  -1  -2 19.9170 2.38261   8
  -6  -1  -2 18.7902 2.35244  12
  -6  -1  -2 21.9819 3.34433   3
  -6  -1  -2 19.2005 2.45532   9
  -6  -1  -2 18.8004 2.13551  11
  -7  -1  -2 8.28843 1.89380  10
  -7  -1  -2 10.7838 2.57183   8
  -7  -1  -2 4.86723 2.55070   7
  -7  -1  -2 8.62089 2.92685   2
  -7  -1  -2 10.6265 2.29463  11
  -7  -1  -2 6.34848 1.96484   4
  -7  -1  -2 5.10306 2.34283   5
  -7  -1  -2 8.76700 2.76952   3
  -7  -1  -2 4.10726 2.54895   9
  -8  -1  -2 21.7142 3.39396  11
  -8  -1  -2 14.8850 2.65419  10
  -8  -1  -2 27.2136 3.86757   7
  -8  -1  -2 20.2482 3.60622   9
  -8  -1  -2 19.4618 4.06702   3
  -8  -1  -2 19.7149 3.76329   8
  -8  -1  -2 16.9367 4.34572   2
  -8  -1  -2 16.5783 3.22402   5
  -8  -1  -2 18.2999 2.79930   4
   9  -2  -2 27.7436 3.65585   6
   9  -2  -2 23.5174 3.59740   9
   9  -2  -2 31.0638 4.56010   2
   9  -2  -2 32.6146 3.45495   6
   9  -2  -2 26.4270 4.03801   1
   9  -2  -2 40.8472 4.35962   1
  -9   2   2 23.6985 3.42390   1
  -9   2   2 31.3291 4.55580   4
  -9   2   2 34.6064 5.15766  12
  -9   2   2 39.1064 5.18095   7
  -9   2   2 36.3511 4.23246   6
  -9   2   2 27.1370 3.63047  11
  -9   2   2 35.4356 4.96414   1
  -9   2   2 22.4809 3.24001   9
   8  -2  -2 40.6301 4.63819   1
   8  -2  -2 35.2278 3.54512   1
   8  -2  -2 31.4220 3.74774   2
   8  -2  -2 33.5830 4.56631  11
   8  -2  -2 24.6216 3.64096   9
   8  -2  -2 30.0974 3.16450   6
   8  -2  -2 33.1520 4.02469   6
  -8   2   2 35.0324 3.28600   6
  -8   2   2 39.3111 3.97297   7
  -8   2   2 35.5425 3.91857  11
  -8   2   2 36.2912 4.19495   1
  -8   2   2 31.2700 3.53722   1
   7  -2  -2 23.3564 3.37478   1
   7  -2  -2 18.6955 2.27422   6
   7  -2  -2 21.6509 2.35820   2
   7  -2  -2 18.2438 2.46210   1
   7  -2  -2 17.9001 2.18874   6
  -7   2   2 18.1714 2.50270   1
  -7   2   2 22.2475 3.18251   1
  -7   2   2 16.6922 2.22380   6
  -7   2   2 20.2293 2.84609   9
  -7   2   2 16.3687 2.47851  11
  -7   2   2 22.2466 2.83450   7
  -7   2   2 18.4029 2.43231   5
   6  -2  -2 63.0426 3.94627  11
   6  -2  -2 66.6257 3.64468   1
   6  -2  -2 69.7667 3.91234   2
   6  -2  -2 61.7958 3.61363   6
   6  -2  -2 64.8379 4.21013   1
   6  -2  -2 60.5287 3.98034   9
   6  -2  -2 63.4777 3.93860   6
  -6   2   2 64.7202 4.00220   9
  -6   2   2 58.5501 3.58534   1
  -6   2   2 71.9963 5.01222  11
  -6   2   2 69.8907 3.86754   7
  -6   2   2 73.3329 4.14588   1
  -6   2   2 60.3031 3.50329   6
  -6   2   2 68.5514 3.82508   5
   5  -2  -2 92.5261 4.95512  11
   5  -2  -2 94.8842 5.06737   1
   5  -2  -2 100.014 4.80247   6
   5  -2  -2 92.2515 5.00513   9
   5  -2  -2 96.8070 4.82112   1
  -5   2   2 89.6214 4.72987   6
  -5   2   2 100.911 5.02476   1
  -5   2   2 102.654 4.87857   7
  -5   2   2 103.866 4.94898  11
  -5   2   2 89.7799 4.81928   1
  -5   2   2 103.639 5.06516   9
  -5   2   2 101.375 4.90085   5
   4  -2  -2 232.189 10.2736   6
   4  -2  -2 239.673 10.3129   1
   4  -2  -2 219.822 10.4024   9
   4  -2  -2 227.850 10.3663   1
   4  -2  -2 219.100 10.3765  11
  -4   2   2 248.615 10.3561  11
  -4   2   2 234.244 10.2296   7
  -4   2   2 234.339 10.2911   5
  -4   2   2 217.766 10.2525   6
  -4   2   2 243.240 10.3611   1
  -4   2   2 219.210 10.3028   1
  -4   2   2 254.429 10.4419   9
   3  -2  -2 582.646 25.8202  11
   3  -2  -2 588.579 25.8436   9
   3  -2  -2 637.931 25.8085   6
   3  -2  -2 627.502 25.8039   1
   3  -2  -2 597.648 25.8091   1
   3  -2  -2 582.066 25.7212   7
  -3   2   2 584.143 25.7808   6
  -3   2   2 626.271 25.7634   5
  -3   2   2 629.300 25.8161   1
  -3   2   2 629.410 25.7419   7
  -3   2   2 611.365 25.8015  11
  -3   2   2 616.641 25.8471   9
  -3   2   2 579.019 25.7854   1
   2  -2  -2 261.803 11.9704   1
   2  -2  -2 265.936 11.9467  11
   2  -2  -2 283.423 11.9865   1
   2  -2  -2 277.860 11.9457   7
   2  -2  -2 292.505 11.9827   6
   2  -2  -2 269.944 11.8877   5
   2  -2  -2 270.295 11.9949   9
  -2   2   2 257.786 11.9560   1
  -2   2   2 263.530 11.9379   6
  -2   2   2 288.424 11.9647  11
  -2   2   2 292.793 11.9100   5
  -2   2   2 288.132 11.9281   7
  -2   2   2 286.196 11.9902   1
   1  -2  -2 566.876 23.3982   1
   1  -2  -2 558.406 23.3704   7
   1  -2  -2 576.498 23.3961   6
   1  -2  -2 516.610 23.3674   1
   1  -2  -2 553.831 23.2642   5
   1  -2  -2 535.987 23.3145  11
  -1   2   2 555.448 23.2449   5
  -1   2   2 579.138 23.3691   7
  -1   2   2 540.333 23.3670   6
  -1   2   2 556.256 23.3025   8
  -1   2   2 511.418 23.3548   1
  -1   2   2 579.078 23.3351  11
   0  -2  -2 218.588 9.28853   3
   0  -2  -2 198.525 9.31011   1
   0  -2  -2 220.845 9.38485   7
   0  -2  -2 207.198 9.31600   1
   0  -2  -2 224.977 9.32827   6
   0  -2  -2 225.230 9.31308   8
   0  -2  -2 219.307 9.26264  11
   0   2   2 232.671 9.38418   7
   0   2   2 231.053 9.27554  11
   0   2   2 220.304 9.29019   3
   0   2   2 212.703 9.31631   1
   0   2   2 193.503 9.30378   1
   0   2   2 220.634 9.29841   8
   0   2   2 205.501 9.30939   6
  -1  -2  -2 149.442 6.67874   7
  -1  -2  -2 148.730 6.60229   8
  -1  -2  -2 149.319 6.56923   3
  -1  -2  -2 155.769 6.54213   1
  -1  -2  -2 135.954 6.52377   1
  -1  -2  -2 161.327 6.54104   6
   1   2   2 148.904 6.59691   8
   1   2   2 148.807 6.57944   3
   1   2   2 157.571 6.53543   1
   1   2   2 154.438 6.67090   7
  -2  -2  -2 83.9975 4.01966   7
  -2  -2  -2 87.8015 3.98245   8
  -2  -2  -2 81.6074 3.93630   3
   2   2   2 89.9134 3.98758   8
   2   2   2 80.4519 3.93127   3
  -3  -2  -2 19.2369 1.59827  11
  -3  -2  -2 20.2071 1.82610   8
  -3  -2  -2 20.2380 1.78099   3
  -3  -2  -2 20.3776 1.78124   7
  -4  -2  -2 183.093 8.11041   9
  -4  -2  -2 169.954 7.98750   8
  -4  -2  -2 179.491 7.60004  10
  -4  -2  -2 173.557 7.87276   5
  -4  -2  -2 167.292 7.98098   3
  -4  -2  -2 183.738 7.65298   4
  -4  -2  -2 163.959 8.14165   2
  -4  -2  -2 176.657 7.84133  11
  -4  -2  -2 176.928 7.99648   7
  -5  -2  -2 91.6130 4.87053   5
  -5  -2  -2 97.2384 5.19166   9
  -5  -2  -2 96.6767 4.94511   7
  -5  -2  -2 97.6612 4.49508  10
  -5  -2  -2 93.3226 5.00164   8
  -5  -2  -2 95.0492 4.79575  11
  -5  -2  -2 88.4619 5.06437   3
  -5  -2  -2 97.3047 4.54581   4
  -5  -2  -2 84.0421 5.19619   2
  -6  -2  -2 9.32510 2.09310   7
  -6  -2  -2 6.82583 2.41986   2
  -6  -2  -2 7.64948 1.34853  10
  -6  -2  -2 7.44578 1.65135  11
  -6  -2  -2 6.92991 1.73983   5
  -6  -2  -2 7.59036 1.88816   9
  -6  -2  -2 8.01976 2.20600   3
  -6  -2  -2 6.36588 1.36272   4
  -6  -2  -2 8.00692 2.06783   8
  -7  -2  -2 10.3847 2.56386   5
  -7  -2  -2 16.7919 2.54059  11
  -7  -2  -2 13.5652 2.70627   8
  -7  -2  -2 13.9981 2.05043   4
  -7  -2  -2 16.5516 3.02785   2
  -7  -2  -2 10.8697 2.82330   3
  -7  -2  -2 19.5351 3.00978   7
  -7  -2  -2 14.9991 2.76845   9
  -7  -2  -2 15.0818 1.94558  10
  -8  -2  -2 9.20552 3.14270   5
  -8  -2  -2 20.3910 3.59992   8
  -8  -2  -2 16.1439 3.76995   3
  -8  -2  -2 15.1925 2.47446  10
  -8  -2  -2 12.5745 2.75574   4
  -8  -2  -2 14.4883 3.79446   2
  -8  -2  -2 21.7182 3.31410  11
  -8  -2  -2 17.2954 3.78811   7
  -8  -2  -2 18.5379 3.94960   9
   9  -3  -2 -0.3350 3.50144   2
   9  -3  -2 -1.9882 2.64895   1
   9  -3  -2 -1.5415 3.33515   6
   9  -3  -2 1.56871 2.70610   6
   9  -3  -2 -1.7485 6.26765  11
   9  -3  -2 6.32832 3.81302   1
  -9   3   2 -3.8676 2.76943  11
  -9   3   2 2.25813 2.88902   1
  -9   3   2 -0.6696 3.47441   7
  -9   3   2 3.23029 3.32285   1
  -9   3   2 -5.2376 2.75948   9
  -9   3   2 0.81968 2.88458   4
  -9   3   2 7.04448 2.75439   6
   8  -3  -2 8.42167 2.15330   6
   8  -3  -2 7.42609 2.79975   2
   8  -3  -2 8.77273 2.63316   6
   8  -3  -2 11.4586 2.85823  11
   8  -3  -2 11.5271 2.95924   1
   8  -3  -2 6.59621 2.02688   1
  -8   3   2 7.55760 2.27277   1
  -8   3   2 11.6908 2.84674   7
  -8   3   2 8.16295 2.67144   1
  -8   3   2 10.2994 2.07097   6
  -8   3   2 5.38945 2.46100  11
  -8   3   2 8.59636 2.34649   4
   7  -3  -2 21.3269 2.41198   6
   7  -3  -2 24.6563 3.46644   2
   7  -3  -2 19.3456 2.67716   6
   7  -3  -2 27.0964 2.71897   1
   7  -3  -2 21.1986 2.89219   1
  -7   3   2 22.8789 3.16689   7
  -7   3   2 25.0124 3.05010   4
  -7   3   2 21.1451 2.67491   1
  -7   3   2 19.5325 2.95554   5
  -7   3   2 23.5600 2.69650   1
  -7   3   2 23.5241 2.44748   6
   6  -3  -2 16.7762 2.41995  11
   6  -3  -2 15.1407 2.39419   9
   6  -3  -2 19.9083 2.83766   2
   6  -3  -2 19.4611 1.94805   6
   6  -3  -2 15.2545 2.30381   1
   6  -3  -2 18.4725 2.09307   1
  -6   3   2 13.7813 1.71739   5
  -6   3   2 15.7824 1.86033   6
  -6   3   2 13.6713 1.86774   9
  -6   3   2 23.3743 2.85105   1
  -6   3   2 14.6133 2.08350   1
  -6   3   2 17.9608 2.01231   7
   5  -3  -2 100.087 5.28742   1
   5  -3  -2 82.3366 5.09574   9
   5  -3  -2 101.239 4.90133   6
   5  -3  -2 102.384 4.95393   1
  -5   3   2 104.101 5.17299   9
  -5   3   2 89.6363 4.81399   6
  -5   3   2 103.837 5.01447   7
  -5   3   2 98.9912 4.97985   5
  -5   3   2 99.5184 5.02474  11
  -5   3   2 93.4717 4.92051   1
  -5   3   2 106.888 5.20148   1
   4  -3  -2 133.404 6.20656   6
   4  -3  -2 129.723 6.22174   1
   4  -3  -2 129.200 6.40738   9
   4  -3  -2 127.176 6.19547   5
   4  -3  -2 127.072 6.15221   7
   4  -3  -2 129.123 6.33666  11
   4  -3  -2 136.128 6.37352   1
  -4   3   2 135.430 6.22629   5
  -4   3   2 137.762 6.30365  11
  -4   3   2 128.016 6.15779   6
  -4   3   2 137.487 6.16253   7
  -4   3   2 141.568 6.33071   1
  -4   3   2 128.083 6.21603   1
   3  -3  -2 215.823 9.72717   7
   3  -3  -2 215.160 9.90582   9
   3  -3  -2 237.419 9.83360   6
   3  -3  -2 228.277 9.82493   1
   3  -3  -2 222.101 9.85133   1
   3  -3  -2 209.135 9.83585  11
   3  -3  -2 215.214 9.76600   5
  -3   3   2 233.781 9.84497   1
  -3   3   2 225.480 9.82398  11
  -3   3   2 225.100 9.70665   7
  -3   3   2 211.802 9.76494   6
  -3   3   2 229.358 9.77161   5
  -3   3   2 208.346 9.77840   1
   2  -3  -2 308.826 13.8880   1
   2  -3  -2 314.782 13.8093   5
   2  -3  -2 311.641 13.8213   7
   2  -3  -2 313.028 13.9297   9
   2  -3  -2 309.643 13.8646  11
   2  -3  -2 339.079 13.9031   6
   2  -3  -2 335.971 13.8983   1
  -2   3   2 331.326 13.8157   7
  -2   3   2 300.204 13.8574   1
  -2   3   2 339.087 13.8900  11
  -2   3   2 326.501 13.8865   1
  -2   3   2 324.679 13.7907   5
  -2   3   2 315.992 13.8726   6
  -2   3   2 327.378 13.8231   8
   1  -3  -2 239.910 10.5869  11
   1  -3  -2 259.205 10.6433   6
   1  -3  -2 235.774 10.5890   7
   1  -3  -2 232.523 10.6241   1
   1  -3  -2 248.574 10.6367   1
   1  -3  -2 243.928 10.5087   5
   1  -3  -2 246.035 10.5848   8
  -1   3   2 246.937 10.5965   3
  -1   3   2 220.727 10.5829   1
  -1   3   2 232.348 10.5909   6
  -1   3   2 256.201 10.6044  11
  -1   3   2 254.009 10.5127   5
  -1   3   2 245.279 10.5278   4
  -1   3   2 244.168 10.6186   1
  -1   3   2 247.782 10.5653   8
  -1   3   2 254.432 10.5921   7
   0  -3  -2 19.7695 1.60256   1
   0  -3  -2 26.0570 1.60814   6
   0  -3  -2 23.4658 1.65992   8
   0  -3  -2 23.0701 1.65815   3
   0  -3  -2 22.9897 1.44955   5
   0  -3  -2 22.8175 1.57623  11
   0  -3  -2 23.5869 1.66902   1
   0  -3  -2 24.1815 1.67055   7
   0   3   2 23.2561 1.63537   7
   0   3   2 24.5299 1.63269  11
   0   3   2 21.3534 1.67020   1
   0   3   2 22.6872 1.57351   6
   0   3   2 24.4939 1.39657   4
   0   3   2 24.7586 1.59993   1
   0   3   2 23.7123 1.63336   8
   0   3   2 23.5135 1.64491   3
  -1  -3  -2 393.627 15.8007   6
  -1  -3  -2 353.254 15.7774   1
  -1  -3  -2 375.252 15.7824   1
  -1  -3  -2 366.522 15.8204   8
  -1  -3  -2 374.265 15.7735  11
  -1  -3  -2 360.014 15.8790   7
  -1  -3  -2 371.305 15.8198   3
   1   3   2 375.255 15.8221   3
   1   3   2 376.335 15.8306   8
   1   3   2 360.050 15.7727   6
   1   3   2 380.484 15.8882   7
   1   3   2 360.051 15.7837   1
   1   3   2 380.600 15.7923   1
  -2  -3  -2 9.11101 1.34830   3
  -2  -3  -2 8.41781 1.00218   1
  -2  -3  -2 8.48410 1.10745   1
  -2  -3  -2 7.96906 1.02068   6
  -2  -3  -2 8.38992 1.09039   8
  -2  -3  -2 9.89211 1.30097   7
   2   3   2 8.28967 1.02377   8
   2   3   2 7.90924 1.02702   1
   2   3   2 9.03735 1.33375   3
  -3  -3  -2 24.6214 1.97299   3
  -3  -3  -2 23.6892 1.93376   8
  -3  -3  -2 23.2949 1.93749   7
  -3  -3  -2 22.5351 1.52195   1
  -3  -3  -2 21.3010 1.45863   1
   3   3   2 24.4682 1.50792   1
   3   3   2 25.4260 1.81814  12
   3   3   2 24.0213 1.91115   8
   3   3   2 26.7010 1.95947   3
  -4  -3  -2 133.013 6.54826   8
  -4  -3  -2 137.666 6.61496   3
  -4  -3  -2 146.235 6.70783   9
  -4  -3  -2 138.290 6.56525   7
  -5  -3  -2 86.8900 4.08950   4
  -5  -3  -2 83.0431 4.72432   8
  -5  -3  -2 81.3465 4.73900   3
  -5  -3  -2 89.3982 4.90766   9
  -5  -3  -2 84.1402 4.64203   7
  -5  -3  -2 85.0918 4.49156   5
  -5  -3  -2 89.9350 4.54831  11
  -5  -3  -2 84.0107 3.99612  10
  -5  -3  -2 78.0815 4.86349   2
  -6  -3  -2 34.4685 3.33022   7
  -6  -3  -2 32.3336 2.43900  10
  -6  -3  -2 33.9544 3.64876   2
  -6  -3  -2 26.3869 3.67762   9
  -6  -3  -2 33.9416 3.59083   3
  -6  -3  -2 34.9688 2.61200   4
  -6  -3  -2 28.3692 3.43271   8
  -6  -3  -2 36.4208 3.24872  11
  -6  -3  -2 35.9898 3.28642   5
  -7  -3  -2 41.3915 3.39578   4
  -7  -3  -2 41.6656 4.22265  11
  -7  -3  -2 44.5011 4.33928   5
  -7  -3  -2 41.7099 4.69793   9
  -7  -3  -2 38.9016 4.64302   2
  -7  -3  -2 43.5792 3.16277  10
  -7  -3  -2 40.5712 4.64503   3
  -7  -3  -2 43.1765 4.31041   7
  -7  -3  -2 40.1487 4.32925   8
  -8  -3  -2 4.92750 1.96949  10
  -8  -3  -2 5.62460 2.24330   4
  -8  -3  -2 10.7894 3.73405   3
  -8  -3  -2 9.17363 3.74211   7
  -8  -3  -2 9.95278 3.33018   8
  -8  -3  -2 6.38081 3.47255   9
  -8  -3  -2 7.56401 2.97743   5
  -8  -3  -2 11.8054 3.68590   2
  -8  -3  -2 8.69542 3.15457  11
   8  -4  -2 8.79260 3.15781   2
   8  -4  -2 13.6552 2.49043   1
   8  -4  -2 10.5808 3.08706   6
   8  -4  -2 12.8916 2.36069   6
   8  -4  -2 8.34658 2.79196   9
   8  -4  -2 10.2500 3.25956  11
   8  -4  -2 13.9706 3.43986   1
  -8   4   2 9.82098 3.12108   7
  -8   4   2 8.48570 2.35169   6
  -8   4   2 7.62404 2.57034  11
  -8   4   2 14.3560 3.14016   1
  -8   4   2 9.78793 2.11152   4
  -8   4   2 7.45667 2.52740   1
   7  -4  -2 10.6320 1.91409   1
   7  -4  -2 11.7008 2.80355   1
   7  -4  -2 9.86565 2.04695   9
   7  -4  -2 12.2599 2.26994  11
   7  -4  -2 12.2849 1.90535   6
   7  -4  -2 13.7814 2.85340   2
  -7   4   2 14.5744 2.39047   7
  -7   4   2 10.7455 1.67919   6
  -7   4   2 14.1835 2.52062   1
  -7   4   2 9.07587 1.85807   1
   6  -4  -2 29.6222 3.28919   2
   6  -4  -2 26.1944 2.38441   1
   6  -4  -2 19.7543 3.08873  11
   6  -4  -2 23.4846 3.45835   1
   6  -4  -2 17.3774 2.92723   9
   6  -4  -2 24.9601 2.28190   6
  -6   4   2 23.5302 2.80293   7
  -6   4   2 22.1334 3.14439   1
  -6   4   2 17.6462 2.30188   1
  -6   4   2 18.1309 2.04079   6
  -6   4   2 27.1930 2.42257   5
   5  -4  -2 35.9914 2.50207   6
   5  -4  -2 33.0155 2.63393   5
   5  -4  -2 39.4633 3.19406   1
   5  -4  -2 37.3651 2.57549   1
   5  -4  -2 35.6914 2.80350  11
   5  -4  -2 30.3501 2.88157   9
  -5   4   2 35.1364 2.36335   6
  -5   4   2 30.6300 2.77448   7
  -5   4   2 35.2022 2.54399   1
  -5   4   2 30.6666 2.58450   4
  -5   4   2 32.4107 2.52516   5
  -5   4   2 35.8633 2.98417   1
   4  -4  -2 34.9739 2.41808   1
   4  -4  -2 30.4180 2.31978   5
   4  -4  -2 34.0584 2.72827   9
   4  -4  -2 35.4998 2.35368   6
   4  -4  -2 32.7276 2.51717   7
   4  -4  -2 32.7595 2.76380   1
   4  -4  -2 31.0478 2.56538  11
  -4   4   2 30.7563 2.41149   1
  -4   4   2 36.3651 2.39778   5
  -4   4   2 32.0861 2.28852   6
  -4   4   2 33.7119 2.47235   7
  -4   4   2 32.3598 2.36254  11
  -4   4   2 34.0456 2.63309   1
  -4   4   2 34.8862 2.41826   4
  -4   4   2 34.8715 2.36462   8
   3  -4  -2 67.1609 3.90012   9
   3  -4  -2 73.0853 3.70623   6
   3  -4  -2 71.1114 3.82460  11
   3  -4  -2 68.7916 3.69187   5
   3  -4  -2 75.0220 3.73677   1
   3  -4  -2 69.0409 3.82731   1
   3  -4  -2 72.8023 3.73317   7
  -3   4   2 69.3144 3.69913   5
  -3   4   2 75.1844 3.78654   1
  -3   4   2 66.6698 3.68627   1
  -3   4   2 69.5309 3.65980   6
  -3   4   2 70.6490 3.74559  11
  -3   4   2 73.9263 3.71380   8
  -3   4   2 72.0777 3.71952   4
  -3   4   2 72.1214 3.62486   7
   2  -4  -2 375.292 16.2740   5
   2  -4  -2 368.887 16.3501   1
   2  -4  -2 361.881 16.2404   7
   2  -4  -2 391.460 16.3736   1
   2  -4  -2 404.410 16.3894   6
   2  -4  -2 362.081 16.3260  11
  -2   4   2 394.062 16.3553  11
  -2   4   2 349.980 16.2838   6
  -2   4   2 394.153 16.2763   5
  -2   4   2 386.794 16.3368   1
  -2   4   2 347.861 16.2867   1
  -2   4   2 382.263 16.2678   8
  -2   4   2 392.189 16.2943   4
  -2   4   2 386.921 16.2331   7
   1  -4  -2 91.6050 4.35926   5
   1  -4  -2 88.7091 4.43484   7
   1  -4  -2 97.3037 4.52016   1
   1  -4  -2 98.8055 4.50356   6
   1  -4  -2 91.9709 4.45006   8
   1  -4  -2 92.0008 4.45065  11
   1  -4  -2 87.1055 4.45645   1
  -1   4   2 97.8503 4.51809   3
  -1   4   2 95.1773 4.39773   7
  -1   4   2 96.4526 4.38184   4
  -1   4   2 96.3523 4.47841  11
  -1   4   2 84.4614 4.44567   1
  -1   4   2 96.9538 4.49246   1
  -1   4   2 99.6177 4.40396   5
  -1   4   2 88.1512 4.44852   6
  -1   4   2 92.2713 4.42045   8
   0  -4  -2 19.9212 1.50730   5
   0  -4  -2 18.8842 1.63870  11
   0  -4  -2 19.7830 1.63354   7
   0  -4  -2 19.4935 1.62134   1
   0  -4  -2 22.0812 1.71694   3
   0  -4  -2 23.6245 1.63437   6
   0  -4  -2 22.1743 1.71944   1
   0  -4  -2 21.1910 1.67459   8
   0   4   2 20.3115 1.68552   1
   0   4   2 20.4299 1.48974  10
   0   4   2 21.5611 1.46605   4
   0   4   2 19.9798 1.57761   7
   0   4   2 19.9596 1.65064   3
   0   4   2 18.6719 1.57814   6
   0   4   2 20.8846 1.69796   8
  -1  -4  -2 34.7196 2.08007   1
  -1  -4  -2 30.2528 2.07677   8
  -1  -4  -2 35.4829 1.99237   6
  -1  -4  -2 30.3046 1.90166   1
  -1  -4  -2 31.7946 2.08092   3
  -1  -4  -2 30.8107 2.00842  11
  -1  -4  -2 28.3733 2.04725   7
  -1  -4  -2 32.0893 1.92223   5
   1   4   2 31.9204 2.01855   8
   1   4   2 32.6731 1.96427   6
   1   4   2 35.7411 2.12014   3
   1   4   2 33.6586 1.72156  10
   1   4   2 33.4431 2.02655   7
   1   4   2 33.1393 1.71573   4
   1   4   2 32.7086 1.95599   1
   1   4   2 31.9450 2.03365   1
  -2  -4  -2 0.56300 0.86452   7
  -2  -4  -2 0.43232 0.81080   8
  -2  -4  -2 -0.1237 0.72022   6
  -2  -4  -2 1.28940 0.85862   3
  -2  -4  -2 0.81420 0.61637   1
  -2  -4  -2 1.50229 0.75475   1
   2   4   2 -0.1305 0.70063   1
   2   4   2 -1.1524 0.66032   1
   2   4   2 1.40230 0.90094   8
   2   4   2 -0.8638 0.68814   6
   2   4   2 -0.0889 0.76494   3
  -3  -4  -2 69.3926 3.71979   7
  -3  -4  -2 67.0274 3.45372   6
  -3  -4  -2 69.5013 3.77622   8
  -3  -4  -2 70.5198 3.47739   1
  -3  -4  -2 71.4282 3.81357   3
  -3  -4  -2 69.2505 3.50519   1
   3   4   2 72.7199 3.73428   8
   3   4   2 78.2062 3.50804   1
   3   4   2 78.9169 3.73693  12
   3   4   2 72.7822 3.79694   3
  -4  -4  -2 79.3515 4.34707   3
  -4  -4  -2 79.1496 3.86282   1
  -4  -4  -2 76.3445 4.33006   8
  -4  -4  -2 80.2497 4.29318   7
  -4  -4  -2 75.5659 3.79757   1
   4   4   2 83.3981 3.84929   1
   4   4   2 81.9435 3.80101   1
   4   4   2 80.8941 4.36057   3
   4   4   2 87.2635 4.23959  12
  -5  -4  -2 94.6537 5.17496   9
  -5  -4  -2 85.6480 4.99424   3
  -5  -4  -2 92.7661 4.79986  11
  -5  -4  -2 87.1215 4.88613   8
  -5  -4  -2 88.2471 4.94701   7
  -6  -4  -2 75.8754 5.10085   2
  -6  -4  -2 80.9352 5.06139   8
  -6  -4  -2 80.2362 5.01241   7
  -6  -4  -2 91.2418 4.92022  11
  -6  -4  -2 81.4893 5.24347   3
  -6  -4  -2 84.8594 4.36978   4
  -6  -4  -2 84.0899 5.27577   9
  -6  -4  -2 79.2748 4.20166   4
  -7  -4  -2 36.5028 4.22669   7
  -7  -4  -2 26.4167 3.47883   9
  -7  -4  -2 39.0056 3.08193   4
  -7  -4  -2 35.7708 4.42756   8
  -7  -4  -2 39.1503 4.72269   3
  -7  -4  -2 43.4227 3.62690   4
  -7  -4  -2 37.3989 4.22953  11
  -7  -4  -2 35.6640 3.10782  10
  -7  -4  -2 37.8135 4.13922   5
  -7  -4  -2 30.7069 4.40375   2
  -8  -4  -2 15.6844 2.77481   4
  -8  -4  -2 11.7406 3.13813   5
  -8  -4  -2 15.0271 3.19242  11
  -8  -4  -2 14.0889 3.46074   9
  -8  -4  -2 11.7039 3.61365   8
  -8  -4  -2 17.4603 3.97638   7
  -8  -4  -2 15.3174 3.87405   3
  -8  -4  -2 13.4231 3.77112   2
  -8  -4  -2 11.9718 2.32732  10
  -8  -4  -2 9.19182 1.84891  10
  -8  -4  -2 8.92009 2.18180   4
   8  -5  -2 4.05196 2.48543   6
   8  -5  -2 0.97935 3.78881   1
   8  -5  -2 1.87426 3.00079   9
   8  -5  -2 4.96604 2.47764   1
   8  -5  -2 -4.6359 3.27634  11
   8  -5  -2 2.64252 3.73268   2
   8  -5  -2 -2.2480 3.26787   6
  -8   5   2 4.17193 2.26598   6
  -8   5   2 3.27456 2.98352   7
  -8   5   2 -2.3463 2.53580   1
  -8   5   2 1.96371 2.65243  11
   7  -5  -2 12.0927 2.00446   1
   7  -5  -2 12.6446 3.23985   2
   7  -5  -2 8.81112 3.00597   1
   7  -5  -2 7.85108 2.33041   9
   7  -5  -2 11.0427 2.64855  11
   7  -5  -2 7.67000 2.00349   6
  -7   5   2 6.37044 2.44128   6
  -7   5   2 11.3118 2.43247   1
  -7   5   2 9.01278 2.61358   1
  -7   5   2 8.04778 2.44345   7
   6  -5  -2 26.9070 2.57874   1
   6  -5  -2 25.0670 3.73942   2
   6  -5  -2 29.7337 3.89841   1
  -6   5   2 29.0991 3.58888   1
  -6   5   2 21.7231 3.06861   7
   5  -5  -2 5.61950 1.30886   1
   5  -5  -2 6.72136 1.31472   6
   5  -5  -2 4.16895 1.25188   5
   5  -5  -2 6.24026 1.60104   9
   5  -5  -2 5.26005 1.60759  11
   5  -5  -2 3.72931 1.88857   1
  -5   5   2 6.51630 1.32038   4
  -5   5   2 1.18246 1.62037   6
  -5   5   2 6.89375 1.75022   1
  -5   5   2 5.89819 1.54463   7
  -5   5   2 6.54239 1.32201   5
   4  -5  -2 2.39118 1.18241  11
   4  -5  -2 3.56872 1.39322   7
   4  -5  -2 1.96717 1.27659   9
   4  -5  -2 3.01700 1.03470   5
   4  -5  -2 1.85371 1.50272   1
   4  -5  -2 2.91946 1.12947   1
   4  -5  -2 4.28412 1.07448   6
  -4   5   2 2.04970 0.98235   6
  -4   5   2 1.91126 1.03625   8
  -4   5   2 1.09681 0.99255   4
  -4   5   2 2.88796 1.16195  11
  -4   5   2 3.36469 1.11222   1
  -4   5   2 2.90324 1.09276   5
  -4   5   2 2.35486 1.24645   7
  -4   5   2 2.64185 1.40746   1
   3  -5  -2 53.5970 3.17831   5
   3  -5  -2 56.9526 3.26043   1
   3  -5  -2 56.5517 3.20194   6
   3  -5  -2 48.5015 3.25292  11
   3  -5  -2 61.6242 3.27462   7
   3  -5  -2 52.0809 3.46620   1
   3  -5  -2 54.0001 3.52544   9
  -3   5   2 58.6479 3.27881  11
  -3   5   2 56.9420 3.15619   7
  -3   5   2 57.1376 3.39115   1
  -3   5   2 49.5262 3.14835   6
  -3   5   2 56.8017 3.16089   8
  -3   5   2 57.3003 3.21280   4
  -3   5   2 58.0067 3.24209   5
  -3   5   2 47.9841 3.14405   1
   2  -5  -2 272.148 11.5518   1
   2  -5  -2 272.062 11.5513   6
   2  -5  -2 249.369 11.4271   5
   2  -5  -2 245.602 11.4877  11
   2  -5  -2 253.915 11.5369   1
   2  -5  -2 257.034 11.4186   7
  -2   5   2 253.194 11.5108   1
  -2   5   2 259.604 11.4906   3
  -2   5   2 265.477 11.5180  11
  -2   5   2 257.683 11.4253   8
  -2   5   2 263.881 11.5103   1
  -2   5   2 264.447 11.3647   7
  -2   5   2 265.114 11.4309   5
  -2   5   2 271.827 11.4633   4
  -2   5   2 250.142 11.4827   6
   1  -5  -2 151.806 6.79715   6
   1  -5  -2 141.958 6.74171   8
   1  -5  -2 142.530 6.77306   1
   1  -5  -2 144.006 6.72331   7
   1  -5  -2 155.676 6.84116   1
   1  -5  -2 139.859 6.74527  11
   1  -5  -2 135.855 6.63465   5
  -1   5   2 139.864 6.79307   1
  -1   5   2 152.811 6.71023   5
  -1   5   2 148.910 6.70959   8
  -1   5   2 152.837 6.80716   3
  -1   5   2 140.348 6.74463   6
  -1   5   2 147.982 6.77685  11
  -1   5   2 153.597 6.69596   4
  -1   5   2 150.139 6.66063   7
  -1   5   2 157.612 6.74047  10
   0  -5  -2 10.5566 1.27225   7
   0  -5  -2 11.2883 1.28974  11
   0  -5  -2 10.5874 1.44532   5
   0  -5  -2 10.2821 1.59088   1
   0  -5  -2 12.5531 1.51321   6
   0  -5  -2 10.4762 1.37786   1
   0  -5  -2 13.3416 1.55524   3
   0   5   2 11.5490 1.38039   4
   0   5   2 9.58390 1.28535   1
   0   5   2 9.89989 1.24414   7
   0   5   2 9.43967 1.44902   3
   0   5   2 12.0261 1.42371   1
   0   5   2 15.2985 1.53943   6
  -1  -5  -2 15.4981 1.40220   4
  -1  -5  -2 12.3574 1.54477   7
  -1  -5  -2 14.0959 1.62438   8
  -1  -5  -2 14.5449 1.57175  11
  -1  -5  -2 14.7419 1.73249   1
  -1  -5  -2 16.0912 1.52903   5
  -1  -5  -2 16.1714 1.68611   3
  -1  -5  -2 14.9565 1.41578   1
  -1  -5  -2 18.5132 1.62087   6
   1   5   2 13.3309 1.65690   1
   1   5   2 17.3187 1.33697  10
   1   5   2 14.8024 1.44274   7
   1   5   2 14.2623 1.54416   6
   1   5   2 14.8920 1.33441   4
   1   5   2 14.5789 1.55604   8
   1   5   2 14.3943 1.44148   1
   1   5   2 12.7142 1.59943   3
  -2  -5  -2 230.692 10.0762   4
  -2  -5  -2 228.064 10.4421   7
  -2  -5  -2 230.410 10.4251   3
  -2  -5  -2 227.704 10.4016   8
  -2  -5  -2 247.652 10.3637   6
  -2  -5  -2 255.993 10.3881   1
  -2  -5  -2 224.850 10.2891   1
   2   5   2 245.264 10.4705   3
   2   5   2 235.639 10.0797   4
   2   5   2 233.850 10.0499  10
   2   5   2 241.378 10.3339   1
   2   5   2 238.911 10.4039   8
   2   5   2 230.025 10.3299   1
   2   5   2 227.809 10.3017   6
  -3  -5  -2 2.55984 0.99354   6
  -3  -5  -2 1.71472 0.89370   1
  -3  -5  -2 1.20468 1.17701   3
  -3  -5  -2 1.05787 1.00501   1
  -3  -5  -2 0.31935 1.08841   7
  -3  -5  -2 1.33129 1.14684   8
   3   5   2 2.47279 1.08489   8
   3   5   2 2.09148 0.95971   1
   3   5   2 0.94411 0.94879   1
   3   5   2 0.52421 0.88183   6
   3   5   2 2.44289 1.21508   3
  -4  -5  -2 9.57273 1.26536   6
  -4  -5  -2 10.0968 1.29824   1
  -4  -5  -2 10.1956 1.35643   1
  -4  -5  -2 10.0417 1.57913   8
  -4  -5  -2 9.05233 1.75242   3
  -4  -5  -2 9.52210 1.64938   7
   4   5   2 7.85603 1.57848   3
   4   5   2 12.2953 1.75989   1
   4   5   2 9.39086 1.47907   8
   4   5   2 10.4810 1.51226  12
  -5  -5  -2 22.9444 2.84243   8
  -5  -5  -2 25.0893 2.28320   1
  -5  -5  -2 20.5295 2.10919   1
  -5  -5  -2 21.6745 2.94834   3
  -5  -5  -2 23.4472 2.10960   6
  -5  -5  -2 19.3636 2.39396   7
   5   5   2 22.9407 2.08994   1
   5   5   2 27.7096 2.88781   3
   5   5   2 27.5035 2.23609   1
   5   5   2 25.6515 2.71466  12
  -6  -5  -2 2.06965 1.97846   7
  -6  -5  -2 1.91795 1.98761   8
  -6  -5  -2 5.63899 2.11045   3
  -6  -5  -2 5.43144 2.25895   2
  -6  -5  -2 4.16431 1.90857  11
  -6  -5  -2 4.92758 2.15064   9
  -7  -5  -2 -1.3503 2.67858   3
  -7  -5  -2 1.22622 1.67229   4
  -7  -5  -2 5.90291 2.49516  11
  -7  -5  -2 5.23539 2.68670   2
  -7  -5  -2 2.21762 1.43319   4
  -7  -5  -2 1.07925 2.60836   9
  -7  -5  -2 2.78812 2.48692   7
  -7  -5  -2 4.00135 2.64662   8
  -8  -5  -2 20.6978 3.89909   9
  -8  -5  -2 17.2236 3.96775   7
  -8  -5  -2 21.3736 3.38470   5
  -8  -5  -2 17.8296 3.88686   2
  -8  -5  -2 18.4594 3.43361  11
  -8  -5  -2 15.6598 4.12740   3
  -8  -5  -2 15.7857 3.90131   8
  -8  -5  -2 18.5052 2.30527   4
  -8  -5  -2 14.6564 2.92118   4
   7  -6  -2 4.86144 2.14225   1
   7  -6  -2 3.36154 3.72513   2
   7  -6  -2 0.01006 3.27097   1
   7  -6  -2 4.78886 3.02663  11
   7  -6  -2 -0.7960 2.50317   9
  -7   6   2 8.80570 3.11899   1
  -7   6   2 1.52590 2.68024   7
   6  -6  -2 35.9824 4.57802   1
   6  -6  -2 27.9815 3.82241   9
   6  -6  -2 32.3486 4.46449   2
  -6   6   2 36.6549 3.53170   7
   5  -6  -2 8.93069 1.60184   6
   5  -6  -2 8.05531 1.47905   1
   5  -6  -2 7.32297 1.74215   7
   5  -6  -2 10.2609 2.19324   1
  -5   6   2 5.10058 1.74041   7
   4  -6  -2 11.0812 1.70563  11
   4  -6  -2 11.0302 1.83671   7
   4  -6  -2 6.97768 1.39114   5
   4  -6  -2 8.05705 1.61793   9
   4  -6  -2 8.83086 1.55799   6
   4  -6  -2 9.97100 1.45757   1
   4  -6  -2 11.7922 1.97604   1
  -4   6   2 7.49157 1.39104   5
  -4   6   2 5.50499 1.26027   4
  -4   6   2 7.34883 1.37724   6
  -4   6   2 10.8093 1.56136   1
  -4   6   2 10.8581 1.67518   7
   3  -6  -2 32.4493 2.93330   9
   3  -6  -2 30.9779 2.59858  11
   3  -6  -2 33.6740 2.53090   1
   3  -6  -2 24.9622 2.49689   5
   3  -6  -2 37.6346 2.47385   6
   3  -6  -2 33.1414 2.70713   7
   3  -6  -2 28.0985 2.86348   1
  -3   6   2 35.4739 2.65832  10
  -3   6   2 36.7270 2.54973   5
  -3   6   2 36.5601 2.55161   7
  -3   6   2 30.0931 2.33515   8
  -3   6   2 32.4789 2.53985   3
  -3   6   2 35.1018 2.50773  11
  -3   6   2 36.1436 2.53978   4
  -3   6   2 29.0896 2.46379   1
  -3   6   2 27.0045 2.33887   6
   2  -6  -2 12.1210 1.61223   7
   2  -6  -2 10.5408 1.52056   1
   2  -6  -2 10.3087 1.38126   5
   2  -6  -2 10.9407 1.53511   1
   2  -6  -2 11.9353 1.69755  11
   2  -6  -2 11.8216 1.70242   6
  -2   6   2 11.3357 1.62114   7
  -2   6   2 9.89225 1.28103   4
  -2   6   2 11.3253 1.65966  11
  -2   6   2 9.47547 1.49516   3
  -2   6   2 11.2145 1.49927   6
  -2   6   2 10.6332 1.43892   1
  -2   6   2 9.55803 1.37668  10
  -2   6   2 9.76517 1.36546   1
  -2   6   2 12.7614 1.82623   5
  -2   6   2 8.94659 1.28901   8
   1  -6  -2 113.584 5.65858   1
   1  -6  -2 124.758 5.72750   6
   1  -6  -2 116.492 5.67845   8
   1  -6  -2 113.707 5.64611  11
   1  -6  -2 107.352 5.51756   5
   1  -6  -2 113.398 5.60493   7
  -1   6   2 122.440 5.69170  11
  -1   6   2 114.116 5.63208   1
  -1   6   2 110.470 5.64574   1
  -1   6   2 121.699 5.51850   7
  -1   6   2 102.305 5.57408   6
  -1   6   2 123.484 5.60357  10
  -1   6   2 123.650 5.60109   5
  -1   6   2 122.963 5.67299   3
  -1   6   2 120.211 5.60476   8
  -1   6   2 119.668 5.57008   4
   0  -6  -2 105.375 4.89325   1
   0  -6  -2 88.3447 4.70689   3
   0  -6  -2 90.2608 4.68138   8
   0  -6  -2 87.3805 4.68506  11
   0  -6  -2 91.9807 4.59000   4
   0  -6  -2 90.3685 4.69248   1
   0  -6  -2 90.6533 4.62533   5
   0  -6  -2 100.728 4.76589   6
   0  -6  -2 88.4065 4.63065   7
   0   6   2 87.6002 4.73099   1
   0   6   2 96.0184 4.55094   7
   0   6   2 99.8041 4.58357  10
   0   6   2 98.0333 4.57699   4
   0   6   2 99.2679 4.65790   8
   0   6   2 98.1403 4.71270   3
   0   6   2 95.6476 4.66636   1
   0   6   2 93.1847 4.69136   6
  -1  -6  -2 179.265 8.54930   7
  -1  -6  -2 179.336 8.54784   8
  -1  -6  -2 182.890 8.56341  11
  -1  -6  -2 184.785 8.37777   4
  -1  -6  -2 187.667 8.62293   3
  -1  -6  -2 208.946 8.66599   1
  -1  -6  -2 204.272 8.63277   6
  -1  -6  -2 182.748 8.52678   1
  -1  -6  -2 184.957 8.48094   5
   1   6   2 192.419 8.53679   8
   1   6   2 180.903 8.58185   1
   1   6   2 190.451 8.61023   3
   1   6   2 201.746 8.39081  10
   1   6   2 190.687 8.53660   1
   1   6   2 181.896 8.56981   6
   1   6   2 193.954 8.53640   7
   1   6   2 192.754 8.35761   4
  -2  -6  -2 209.249 8.68830   1
  -2  -6  -2 177.728 8.64464   3
  -2  -6  -2 184.512 8.53268   1
  -2  -6  -2 190.417 8.31715   4
  -2  -6  -2 185.816 8.66296   7
  -2  -6  -2 186.684 8.63185   8
  -2  -6  -2 179.014 8.60369  11
  -2  -6  -2 208.880 8.66430   6
   2   6   2 195.554 8.34268   4
   2   6   2 176.330 8.55324   1
   2   6   2 196.789 8.62983   8
   2   6   2 192.361 8.56208   1
   2   6   2 196.769 8.72116   3
   2   6   2 192.788 8.30665  10
   2   6   2 177.655 8.53883   6
  -3  -6  -2 44.8352 3.14002   8
  -3  -6  -2 49.7440 2.63095   4
  -3  -6  -2 48.8890 3.31704   3
  -3  -6  -2 54.3679 3.18691   1
  -3  -6  -2 47.7801 3.03978   7
  -3  -6  -2 49.3024 3.06137   6
  -3  -6  -2 51.9111 2.98123   1
   3   6   2 50.7449 3.06421   1
   3   6   2 53.8989 3.00387   1
   3   6   2 50.9011 3.26173   3
   3   6   2 49.3730 3.12653   8
   3   6   2 43.6230 2.93971   6
  -4  -6  -2 28.1387 2.46417   1
  -4  -6  -2 30.7788 2.65676   1
  -4  -6  -2 30.5432 2.82117   8
  -4  -6  -2 29.1316 1.97026   4
  -4  -6  -2 31.1006 2.94263   3
  -4  -6  -2 29.9572 2.43003   6
  -4  -6  -2 27.2903 2.52265   7
   4   6   2 24.7260 2.41946   1
   4   6   2 28.9415 2.88819   3
   4   6   2 31.8395 2.40653   1
   4   6   2 35.1653 2.91312  12
   4   6   2 25.9794 2.27770   6
   4   6   2 30.0678 2.64771   8
  -5  -6  -2 0.86405 1.68011   8
  -5  -6  -2 2.55226 1.85261   3
  -5  -6  -2 1.04222 1.32184   6
  -5  -6  -2 3.62134 1.29867   1
  -5  -6  -2 0.82967 1.43886   1
  -5  -6  -2 0.34074 1.55423   7
   5   6   2 3.36373 1.66128   8
   5   6   2 1.10110 1.80402   3
   5   6   2 -0.3210 1.26345   1
   5   6   2 0.10746 1.37213   1
   5   6   2 1.52980 1.73813  12
   5   6   2 1.27887 1.19784   6
  -6  -6  -2 7.89019 1.68550   1
  -6  -6  -2 12.1114 1.85990   1
  -6  -6  -2 9.63013 2.44889   3
  -6  -6  -2 9.73214 1.67972   6
  -6  -6  -2 11.0240 2.14168   9
  -6  -6  -2 7.56298 2.35465   8
  -6  -6  -2 5.84367 2.25896   7
   6   6   2 10.5493 1.64209   1
   6   6   2 9.75677 1.51432   6
   6   6   2 9.79291 1.78824   1
   6   6   2 4.10065 2.19209  12
  -7  -6  -2 1.55413 2.86816   3
  -7  -6  -2 2.65226 2.61405   8
  -7  -6  -2 4.57681 2.64374   9
  -7  -6  -2 1.84489 2.80643   2
  -7  -6  -2 0.67071 2.56962  11
  -7  -6  -2 -0.6471 2.63399   7
   7  -7  -2 7.40256 4.48629   2
   7  -7  -2 3.53829 3.84634   1
  -7   7   2 0.23159 3.21202   1
  -7   7   2 0.43374 2.96612   7
   6  -7  -2 18.1508 3.61146   2
   6  -7  -2 13.0563 3.23689   1
   6  -7  -2 15.6419 2.81784   9
   6  -7  -2 12.3309 3.16731  11
  -6   7   2 11.7752 3.11346   1
  -6   7   2 18.7525 2.69808   7
   5  -7  -2 14.5717 2.70942   1
   5  -7  -2 14.9519 2.33315   7
   5  -7  -2 16.9747 2.39885   1
   5  -7  -2 8.36509 2.47724   9
  -5   7   2 13.4252 2.49006   1
  -5   7   2 15.6433 2.27277   7
   4  -7  -2 20.8426 2.67006   1
   4  -7  -2 20.6890 2.31178   6
   4  -7  -2 26.6870 2.47042   1
   4  -7  -2 28.5450 2.99693   7
   4  -7  -2 16.2881 2.77440   5
  -4   7   2 23.7879 3.12102   1
  -4   7   2 21.6909 2.44082   5
  -4   7   2 26.9941 2.63007   7
   3  -7  -2 17.7627 2.27329   5
   3  -7  -2 19.2336 2.21022   1
   3  -7  -2 19.5276 2.60327   9
   3  -7  -2 18.1906 2.35454   1
   3  -7  -2 17.8035 2.39933  11
   3  -7  -2 18.2515 2.04925   6
   3  -7  -2 17.7746 2.58006   7
  -3   7   2 22.1549 2.25950   7
  -3   7   2 19.9355 2.34112  10
  -3   7   2 19.8858 2.13864   1
  -3   7   2 19.1607 2.22888   5
  -3   7   2 17.5667 2.34981   4
  -3   7   2 18.6621 2.24630   3
  -3   7   2 14.0816 1.84811   6
  -3   7   2 18.2433 2.34539   1
   2  -7  -2 1.64527 1.51718   7
   2  -7  -2 1.27176 1.33572   1
   2  -7  -2 2.11781 1.46560   1
   2  -7  -2 1.01884 1.12794   6
   2  -7  -2 2.11601 1.12701  11
   2  -7  -2 3.53036 1.15086   5
  -2   7   2 2.09884 1.05186   8
  -2   7   2 2.16752 1.21590   1
  -2   7   2 -0.0395 1.02308   5
  -2   7   2 1.92932 1.30280   7
  -2   7   2 2.08024 1.19309  10
  -2   7   2 3.58843 1.32106   6
  -2   7   2 2.15373 1.10693   4
  -2   7   2 2.41841 1.20360   3
  -2   7   2 2.33298 1.22185   1
   1  -7  -2 55.3356 3.48138   1
   1  -7  -2 52.6632 3.48326   5
   1  -7  -2 57.5443 3.53518  11
   1  -7  -2 61.2284 3.57323   6
   1  -7  -2 65.5961 3.75647   1
   1  -7  -2 59.9835 3.55842   8
   1  -7  -2 64.1468 3.64836   7
  -1   7   2 60.0699 3.49787   1
  -1   7   2 58.1212 3.44122   8
  -1   7   2 61.9115 3.33194   7
  -1   7   2 61.9829 3.55605   4
  -1   7   2 58.8777 3.49491   3
  -1   7   2 58.5599 3.64308   1
  -1   7   2 54.8511 3.51190   6
  -1   7   2 64.8897 3.54466  10
  -1   7   2 63.0905 3.52517  11
   0  -7  -2 65.2909 3.62439   1
   0  -7  -2 49.5917 3.33707  11
   0  -7  -2 54.6181 3.25618   4
   0  -7  -2 50.2377 3.29061   5
   0  -7  -2 49.7760 3.23670   7
   0  -7  -2 50.4347 3.20007   1
   0  -7  -2 52.9526 3.29494   3
   0  -7  -2 50.1575 3.29862   8
   0  -7  -2 61.3103 3.44730   6
   0   7   2 56.2958 3.17827   1
   0   7   2 51.8878 3.31206   6
   0   7   2 61.1192 3.21594   4
   0   7   2 51.0651 3.41829   1
   0   7   2 56.3926 3.07169   7
   0   7   2 54.3688 3.23447   8
   0   7   2 57.0892 3.19257  10
   0   7   2 55.1104 3.27852   3
  -1  -7  -2 80.6513 4.33351   7
  -1  -7  -2 80.0463 4.39313   5
  -1  -7  -2 80.7705 4.22982   4
  -1  -7  -2 79.1573 4.30638   1
  -1  -7  -2 83.3503 4.49789   3
  -1  -7  -2 81.6379 4.41765   8
  -1  -7  -2 78.3343 4.46575  11
  -1  -7  -2 92.5858 4.53362   6
  -1  -7  -2 91.0436 4.60119   1
   1   7   2 84.5347 4.30343   8
   1   7   2 80.4860 4.51050   1
   1   7   2 85.2991 4.24236   7
   1   7   2 82.1599 4.44011   3
   1   7   2 81.8665 4.32227   1
   1   7   2 89.5613 4.23898  10
   1   7   2 77.9270 4.43111   6
   1   7   2 87.4275 4.21171   4
  -2  -7  -2 46.0097 3.23414   3
  -2  -7  -2 54.4499 3.31696   6
  -2  -7  -2 48.2488 3.16792   5
  -2  -7  -2 48.0351 3.17664  11
  -2  -7  -2 48.2918 3.15366   8
  -2  -7  -2 46.9353 2.92736   1
  -2  -7  -2 48.8663 2.87879   4
  -2  -7  -2 50.6736 3.08748   7
  -2  -7  -2 54.7219 3.39836   1
   2   7   2 50.6151 2.87253   4
   2   7   2 44.2055 3.09604   6
   2   7   2 49.2841 3.19911   1
   2   7   2 39.3712 2.90819   8
   2   7   2 52.9362 2.80727  10
   2   7   2 48.8957 2.96568   1
   2   7   2 51.9231 3.19840   3
  -3  -7  -2 22.2864 2.50592   3
  -3  -7  -2 22.5247 2.01873   4
  -3  -7  -2 22.5960 2.16703   1
  -3  -7  -2 25.7084 2.54292   6
  -3  -7  -2 25.1885 2.34227   7
  -3  -7  -2 21.8271 2.53945   8
  -3  -7  -2 28.6308 2.75210   1
   3   7   2 22.3635 1.98232  10
   3   7   2 24.1159 2.36734   8
   3   7   2 18.9887 2.31994   6
   3   7   2 23.1692 2.63027   3
   3   7   2 25.4502 2.50760   1
   3   7   2 22.4659 2.02678   4
   3   7   2 23.3099 2.31821   1
  -4  -7  -2 6.36710 1.45442   7
  -4  -7  -2 7.42158 1.57301   6
  -4  -7  -2 8.34907 1.53725   1
  -4  -7  -2 8.08887 1.18609   4
  -4  -7  -2 10.1371 1.97203   3
  -4  -7  -2 9.86453 1.77980   1
  -4  -7  -2 7.95287 1.91660   8
   4   7   2 7.98864 1.55085   6
   4   7   2 8.74229 1.61188   1
   4   7   2 7.42734 1.78247   3
   4   7   2 6.61639 1.48981   1
   4   7   2 6.59629 1.55824   8
  -5  -7  -2 64.0339 3.89976   1
  -5  -7  -2 51.6637 3.59013   7
  -5  -7  -2 52.7155 4.18576   3
  -5  -7  -2 57.6716 3.58241   1
  -5  -7  -2 51.8813 3.96166   8
  -5  -7  -2 53.1418 3.59343   6
  -5  -7  -2 49.1645 3.08060   4
   5   7   2 54.0904 3.75916   8
   5   7   2 56.4044 4.01870  12
   5   7   2 52.6694 3.58248   1
   5   7   2 47.2099 3.36507   6
   5   7   2 47.3406 3.55481   1
   5   7   2 53.2779 4.03359   3
  -6  -7  -2 7.59855 2.50233   3
  -6  -7  -2 4.24002 2.10424   8
  -6  -7  -2 6.97024 1.89281   1
  -6  -7  -2 6.32977 2.09407   1
  -6  -7  -2 7.59795 1.95517   6
  -6  -7  -2 7.27902 2.17854   7
   6   7   2 9.38120 2.52086  12
   6   7   2 8.25464 2.58206   3
   6   7   2 1.03132 1.98360   1
   6   7   2 7.29465 1.97886   1
  -7  -7  -2 4.45311 2.91875   7
  -7  -7  -2 7.28877 2.89274   8
  -7  -7  -2 9.26816 3.44293   3
  -7  -7  -2 4.90368 2.24452   1
  -7  -7  -2 5.57592 2.08984   1
  -7  -7  -2 10.0917 3.01031   9
   7   7   2 6.18927 2.26130   1
   7   7   2 8.52557 2.10704   1
   6  -8  -2 2.52014 3.50966   1
   6  -8  -2 0.92392 2.93604   9
   6  -8  -2 8.35942 4.06785   2
   6  -8  -2 1.56314 2.96688  11
  -6   8   2 5.75676 3.22011   1
  -6   8   2 0.76207 2.68173   7
   5  -8  -2 6.84031 2.37756   9
   5  -8  -2 8.70691 2.90844   1
   5  -8  -2 7.95484 2.47354   7
  -5   8   2 8.98388 1.91442   1
  -5   8   2 11.5340 2.43232   7
  -5   8   2 7.79165 2.16064   6
  -5   8   2 12.7968 2.88378   1
   4  -8  -2 7.57232 2.17375   7
   4  -8  -2 6.15751 2.51462   1
  -4   8   2 9.06108 2.26736   1
  -4   8   2 9.33447 1.96536   7
   3  -8  -2 5.05057 2.17459   1
   3  -8  -2 5.08783 1.39107   5
   3  -8  -2 5.50665 1.97551   7
   3  -8  -2 7.75024 1.40269   6
   3  -8  -2 5.92968 1.47816   1
  -3   8   2 2.14402 1.63448   6
  -3   8   2 6.61104 1.86776   1
  -3   8   2 4.32037 1.68450   7
  -3   8   2 3.40577 1.55796   5
  -3   8   2 2.87302 1.40338   3
  -3   8   2 5.59975 1.43219   4
   2  -8  -2 3.34808 1.60139   1
   2  -8  -2 2.59993 1.36856   6
   2  -8  -2 4.77599 1.60720   1
   2  -8  -2 2.17976 1.62768   7
   2  -8  -2 3.76198 1.22479  11
   2  -8  -2 2.58916 1.43001   5
  -2   8   2 3.63436 1.57203   1
  -2   8   2 0.94170 1.35832   5
  -2   8   2 2.09514 1.46543   7
  -2   8   2 4.53361 1.39141  10
  -2   8   2 6.67157 1.43978   3
  -2   8   2 3.68013 1.47196   1
  -2   8   2 1.96575 1.41330   4
  -2   8   2 3.30272 1.30028   6
   1  -8  -2 23.1047 2.33386   8
   1  -8  -2 19.0391 2.37830  11
   1  -8  -2 26.1095 2.56922   6
   1  -8  -2 28.7221 2.81520   1
   1  -8  -2 25.8609 2.70648   7
   1  -8  -2 17.0160 2.41489   5
   1  -8  -2 18.4977 2.31771   1
  -1   8   2 23.9752 2.25839   8
  -1   8   2 20.2154 2.23449   1
  -1   8   2 20.9398 2.31035   3
  -1   8   2 21.2514 2.57965   1
  -1   8   2 23.8781 2.48989   4
  -1   8   2 22.2299 2.15025   7
  -1   8   2 18.9704 2.37436   6
  -1   8   2 20.9037 2.40917  10
   0  -8  -2 112.033 5.51911   6
   0  -8  -2 99.6345 5.29404   7
   0  -8  -2 97.9826 5.36012   5
   0  -8  -2 104.994 5.31277   4
   0  -8  -2 96.1725 5.35670  11
   0  -8  -2 97.6644 5.32060   3
   0  -8  -2 101.485 5.26039   1
   0  -8  -2 114.179 5.61030   1
   0  -8  -2 99.7547 5.32520   8
   0   8   2 97.0822 5.35631   6
   0   8   2 104.427 5.30094   3
   0   8   2 95.2132 5.42751   1
   0   8   2 107.505 5.27253   8
   0   8   2 110.695 5.29636   4
   0   8   2 92.5497 5.17351   1
   0   8   2 107.791 5.29827  10
   0   8   2 104.600 5.13669   7
  -1  -8  -2 87.8768 4.93937   5
  -1  -8  -2 106.441 5.16260   1
  -1  -8  -2 90.6355 4.77545   4
  -1  -8  -2 90.1123 4.77437   1
  -1  -8  -2 87.9811 4.91842   3
  -1  -8  -2 98.2869 5.08610   6
  -1  -8  -2 87.2788 4.76041   7
  -1  -8  -2 88.8608 4.83427   8
  -1  -8  -2 84.6010 4.93227  11
   1   8   2 92.1196 4.72495  10
   1   8   2 96.7900 4.71108   7
   1   8   2 89.0052 4.87608   3
   1   8   2 93.8154 4.75280   8
   1   8   2 83.5450 4.91759   6
   1   8   2 88.4958 4.78927   1
   1   8   2 88.2854 5.00029   1
   1   8   2 92.7483 4.72129   4
  -2  -8  -2 1.52478 1.35633   3
  -2  -8  -2 2.11682 1.57111   6
  -2  -8  -2 2.21912 1.39713   8
  -2  -8  -2 1.25562 1.35255   7
  -2  -8  -2 1.58362 1.21101   4
  -2  -8  -2 4.21687 1.43342   5
  -2  -8  -2 1.48594 1.14505   1
  -2  -8  -2 3.41647 1.60443   1
  -2  -8  -2 1.56935 1.48865  11
   2   8   2 0.98800 1.20283   4
   2   8   2 2.75966 1.43084   6
   2   8   2 3.94164 1.20428   1
   2   8   2 0.63735 1.35872   1
   2   8   2 1.87303 1.28989   8
   2   8   2 1.55678 1.13297  10
   2   8   2 1.22234 1.26110   3
  -3  -8  -2 3.36324 1.70342   6
  -3  -8  -2 2.72038 1.70915  11
  -3  -8  -2 -0.9832 1.31916   8
  -3  -8  -2 3.74928 1.22067   1
  -3  -8  -2 2.76439 1.13092   4
  -3  -8  -2 2.99102 1.61071   3
  -3  -8  -2 3.99221 1.86951   1
   3   8   2 1.93884 1.37788   8
   3   8   2 1.69401 1.30191   1
   3   8   2 2.31168 1.08444  10
   3   8   2 0.38470 1.47739   1
   3   8   2 3.18348 1.60658   3
   3   8   2 -0.3261 1.43832   6
   3   8   2 -0.0825 1.21228   4
  -4  -8  -2 48.7227 3.53800   6
  -4  -8  -2 43.5121 3.32591   1
  -4  -8  -2 46.3500 3.03195   4
  -4  -8  -2 46.4867 3.69152   3
  -4  -8  -2 47.8103 3.89106   1
  -4  -8  -2 43.2871 3.47556   8
   4   8   2 53.2328 3.84106   3
   4   8   2 41.8656 3.39916   6
   4   8   2 45.3183 3.37974   8
   4   8   2 40.7250 3.54062   1
   4   8   2 45.8341 3.37505   1
  -5  -8  -2 74.6329 4.60614   6
  -5  -8  -2 71.0155 4.39326   7
  -5  -8  -2 82.4296 4.88954   1
  -5  -8  -2 69.6759 5.04977   3
  -5  -8  -2 79.0022 4.58627   1
  -5  -8  -2 69.8160 4.84717   8
  -5  -8  -2 65.3611 4.03580   4
   5   8   2 85.5347 5.12754  12
   5   8   2 73.5240 4.59816   1
   5   8   2 79.7079 5.19676   3
   5   8   2 70.6701 4.61745   1
   5   8   2 62.5924 4.39798   6
   5   8   2 80.9353 4.75620   8
  -6  -8  -2 39.9136 4.60990   3
  -6  -8  -2 49.1188 3.90197   1
  -6  -8  -2 46.6753 4.39053   1
  -6  -8  -2 37.1698 4.41543   8
  -6  -8  -2 34.1406 3.92475   6
   6   8   2 35.7822 3.81572   1
   6   8   2 35.2760 4.66125   3
   6   8   2 38.9317 4.74818  12
   6   8   2 42.2033 4.01693   1
  -7  -8  -2 36.4522 4.99889   8
  -7  -8  -2 37.8014 5.19095   9
  -7  -8  -2 30.1197 4.44145   1
  -7  -8  -2 38.1220 4.57891   7
  -7  -8  -2 30.4484 4.13806   3
  -7  -8  -2 36.7424 4.03468   6
   7   8   2 24.8717 3.96833  12
   7   8   2 29.0427 4.31191   1
   5  -9  -2 0.43644 2.65640   7
   5  -9  -2 0.07566 2.62980   9
  -5   9   2 -1.8370 2.86412   1
  -5   9   2 0.45419 2.48227   7
   4  -9  -2 0.32805 2.34006   7
   4  -9  -2 -4.7054 2.34233   9
   4  -9  -2 1.50466 2.44220   1
  -4   9   2 -0.2162 2.44038   1
  -4   9   2 -1.3683 2.07129   7
   3  -9  -2 -0.0855 2.56813   6
   3  -9  -2 0.36962 1.67531   1
   3  -9  -2 -0.8750 2.08935   7
   3  -9  -2 -2.4434 2.09421   1
   3  -9  -2 3.38492 1.65185   5
  -3   9   2 -2.2939 1.44710   4
  -3   9   2 -2.3209 1.46460   5
  -3   9   2 -0.0313 1.77488   7
  -3   9   2 2.01607 1.71767   1
  -3   9   2 2.44347 1.53691   6
  -3   9   2 1.36543 1.92469   1
   2  -9  -2 0.93226 1.66104   6
   2  -9  -2 1.33150 1.79847   1
   2  -9  -2 0.29627 1.49186   5
   2  -9  -2 1.73558 1.91146   7
   2  -9  -2 1.76749 1.82997   1
  -2   9   2 2.47998 1.41371   6
  -2   9   2 -2.7701 1.37579  10
  -2   9   2 -0.4484 1.45025   7
  -2   9   2 -1.2819 1.60157   1
  -2   9   2 0.48534 1.40522   4
  -2   9   2 -0.9484 1.39421   1
   1  -9  -2 1.67277 1.69660   6
   1  -9  -2 -2.2634 1.54180   1
   1  -9  -2 0.09703 1.64484   7
   1  -9  -2 3.75585 1.65331   1
   1  -9  -2 -1.9986 1.43334   5
  -1   9   2 -0.0416 1.29802   1
  -1   9   2 0.77296 1.63790   1
  -1   9   2 -0.3495 1.27516   4
  -1   9   2 -0.5558 1.47069   8
  -1   9   2 -0.0673 1.43844   7
  -1   9   2 -1.5583 1.33271   6
  -1   9   2 0.66463 1.39558  10
   0  -9  -2 78.4507 4.70194   6
   0  -9  -2 69.3818 4.46066   7
   0  -9  -2 74.6828 4.56470   5
   0  -9  -2 68.7574 4.47000  11
   0  -9  -2 88.0887 4.84251   1
   0  -9  -2 77.6566 4.60924   1
   0  -9  -2 69.3623 4.44849   4
   0   9   2 63.0962 4.57472   1
   0   9   2 80.0976 4.50923   4
   0   9   2 66.2262 4.49722   6
   0   9   2 82.5265 4.42562   8
   0   9   2 72.7766 4.25678   1
   0   9   2 82.5677 4.48467  10
   0   9   2 78.1199 4.26243   7
  -1  -9  -2 50.9026 3.64073   4
  -1  -9  -2 49.0251 3.52164   7
  -1  -9  -2 44.4012 3.56105  11
  -1  -9  -2 58.1156 3.93064   6
  -1  -9  -2 42.4617 3.42527   3
  -1  -9  -2 49.5623 3.69940   5
  -1  -9  -2 61.4726 4.10476   1
   1   9   2 52.7657 3.55295   3
   1   9   2 50.1938 3.74882   6
   1   9   2 50.1040 3.32397   1
   1   9   2 52.4906 3.52810  10
   1   9   2 54.7456 3.56271   4
   1   9   2 49.5418 3.85306   1
  -2  -9  -2 2.61858 1.66995  11
  -2  -9  -2 1.81661 1.37879   4
  -2  -9  -2 2.40864 1.23554   8
  -2  -9  -2 3.04697 1.53028   3
  -2  -9  -2 3.63904 1.84941   6
  -2  -9  -2 1.47587 1.74885   1
  -2  -9  -2 3.27437 1.70403   5
   2   9   2 2.69195 1.80335   1
   2   9   2 2.06713 1.65979   6
   2   9   2 2.35845 1.26829  10
   2   9   2 4.01328 1.52912   4
   2   9   2 0.86903 1.54168   3
  -3  -9  -2 5.34728 1.90267   3
  -3  -9  -2 3.20763 1.42487   1
  -3  -9  -2 2.40868 1.83577  11
  -3  -9  -2 3.26533 1.82737   5
  -3  -9  -2 4.86433 1.57488   8
  -3  -9  -2 3.89674 1.44891   4
  -3  -9  -2 7.87334 2.13747   6
  -3  -9  -2 8.80526 2.21478   1
   3   9   2 3.74890 1.48839   4
   3   9   2 3.60181 1.90892   1
   3   9   2 3.60550 1.90733   3
   3   9   2 4.89329 1.42661   1
   3   9   2 1.38410 1.77045   6
   3   9   2 6.17578 1.46522  10
  -4  -9  -2 32.7631 4.00382   1
  -4  -9  -2 32.5673 3.07609   4
  -4  -9  -2 36.7718 3.62632   3
  -4  -9  -2 32.8449 3.17016   1
  -4  -9  -2 33.8362 3.61700   6
  -4  -9  -2 25.6308 3.20408   8
   4   9   2 34.0130 3.20118   1
   4   9   2 23.1974 2.83105   6
   4   9   2 35.5888 3.34537   8
   4   9   2 32.5030 3.61440   1
   4   9   2 42.3862 3.80195   3
  -5  -9  -2 24.6386 3.47756   8
  -5  -9  -2 24.9694 3.34079   1
  -5  -9  -2 24.8586 3.48628   6
  -5  -9  -2 21.0621 2.92142   4
  -5  -9  -2 20.3037 2.88670   3
  -5  -9  -2 21.5635 2.96643   1
   5   9   2 21.4534 3.11340  12
   5   9   2 19.8056 3.10189   3
   5   9   2 13.5199 2.49992   6
   5   9   2 22.7650 3.36487   1
   5   9   2 19.8524 2.73734   1
   5   9   2 32.4849 3.75658   8
  -6  -9  -2 23.9185 3.39209   3
  -6  -9  -2 19.7267 3.13120   8
  -6  -9  -2 21.9210 3.13353   4
  -6  -9  -2 22.7155 2.98035   6
  -6  -9  -2 19.6918 2.83863   1
  -6  -9  -2 18.3589 3.22280   1
   6   9   2 18.2401 2.86822   1
   6   9   2 24.5015 3.50835   3
   6   9   2 18.9999 2.76868   1
   6   9   2 13.8198 2.63796   6
   6   9   2 23.0684 2.98010   8
   6   9   2 21.8569 3.66883  12
   4 -10  -2 -0.9038 2.96264   1
   4 -10  -2 1.23084 2.96415   7
  -4  10   2 0.16992 2.38376   7
  -4  10   2 0.77333 3.05889   1
   3 -10  -2 3.40525 2.20346   1
   3 -10  -2 0.25684 2.98554   1
   3 -10  -2 3.09137 2.19122   5
   3 -10  -2 0.36095 2.46857   7
  -3  10   2 1.84941 1.87883   6
  -3  10   2 0.67118 2.34865   1
  -3  10   2 0.23296 1.83658   4
  -3  10   2 2.23592 2.00325   1
  -3  10   2 -0.7462 2.08920  10
  -3  10   2 0.24801 2.13438   7
   2 -10  -2 3.50487 2.22559   7
   2 -10  -2 0.16528 1.89639   6
   2 -10  -2 -0.0760 1.91142   5
   2 -10  -2 -1.9802 2.04436   1
  -2  10   2 2.98059 1.74270   6
  -2  10   2 -0.9204 2.02696   1
  -2  10   2 -0.2623 1.92350   1
  -2  10   2 -0.4573 1.82661   7
  -2  10   2 -0.1954 1.77118   4
  -2  10   2 -1.2236 1.84261  10
   1 -10  -2 -4.0277 1.66777   6
   1 -10  -2 2.44372 1.93892   1
   1 -10  -2 -0.9283 2.05278   7
   1 -10  -2 -1.8079 1.65296   5
  -1  10   2 -0.0549 1.84596   7
  -1  10   2 -0.5596 1.56504   4
  -1  10   2 0.76992 2.04902   6
  -1  10   2 -0.3192 1.64540   1
  -1  10   2 1.39563 3.03053   1
  -1  10   2 0.75851 1.55312  10
   0 -10  -2 7.39952 2.11984   1
   0 -10  -2 6.88416 1.80065  11
   0 -10  -2 5.84528 2.05246   7
   0 -10  -2 4.49297 1.79608   5
   0 -10  -2 7.50933 2.14850   6
   0 -10  -2 4.16040 1.69926   4
   0  10   2 5.54138 1.72895   4
   0  10   2 3.45492 1.98013   1
   0  10   2 9.19472 1.98206   7
   0  10   2 5.62766 1.69227  10
   0  10   2 5.15402 1.64242   1
   0  10   2 5.18495 1.88316   6
  -1 -10  -2 4.79182 1.96428   1
  -1 -10  -2 7.10310 1.65504   3
  -1 -10  -2 3.45515 1.99655   5
  -1 -10  -2 7.22094 2.21308   6
  -1 -10  -2 1.41172 1.90235   7
  -1 -10  -2 4.38533 1.92878  11
  -1 -10  -2 6.24467 1.84068   4
   1  10   2 4.96940 1.66435  10
   1  10   2 3.19490 1.87716   1
   1  10   2 5.29298 1.56962   1
   1  10   2 8.82547 1.74791   4
   1  10   2 6.31201 1.99363   6
  -2 -10  -2 3.11205 1.90396  11
  -2 -10  -2 5.16649 1.84794   8
  -2 -10  -2 4.93019 1.97827   3
  -2 -10  -2 2.96210 1.96937   5
  -2 -10  -2 3.37296 2.12690   1
  -2 -10  -2 3.90685 2.26796   6
  -2 -10  -2 3.68784 1.76055   4
   2  10   2 0.98629 1.47709   1
   2  10   2 2.71441 1.99882   6
   2  10   2 2.02442 2.03649   1
   2  10   2 5.07199 1.61718  10
   2  10   2 6.16548 1.84150   4
   2  10   2 4.22189 1.74594   3
  -3 -10  -2 2.01476 2.15852   5
  -3 -10  -2 3.82224 1.91752   3
  -3 -10  -2 2.93387 1.79394   7
  -3 -10  -2 3.57845 2.29985   1
  -3 -10  -2 2.91974 1.71185   8
  -3 -10  -2 1.71057 1.84947   4
  -3 -10  -2 -2.7676 2.14322  11
  -3 -10  -2 3.66529 2.36401   6
   3  10   2 0.06037 1.57329  10
   3  10   2 1.74944 2.00667   3
   3  10   2 4.17846 1.84481   4
   3  10   2 6.34174 1.78224   1
   3  10   2 1.27856 2.12070   1
   3  10   2 2.11008 2.20147   6
  -4 -10  -2 11.3252 2.33252   3
  -4 -10  -2 7.70826 2.60762  11
  -4 -10  -2 9.04869 2.26755   1
  -4 -10  -2 14.7764 2.61719   6
  -4 -10  -2 11.2736 2.04795   4
  -4 -10  -2 10.7994 2.10602   8
  -4 -10  -2 10.0796 2.70002   1
   4  10   2 9.30804 2.59386   3
   4  10   2 9.98517 2.14649   1
   4  10   2 6.28745 2.41326   6
   4  10   2 9.29828 2.61727   1
   4  10   2 8.92224 1.90019   4
  -5 -10  -2 6.93313 2.51207   8
  -5 -10  -2 0.04403 2.39046   1
  -5 -10  -2 5.14081 2.97305   1
  -5 -10  -2 9.38567 2.91362   6
  -5 -10  -2 3.12758 2.67603   3
  -5 -10  -2 6.12496 2.06122   4
   5  10   2 3.47921 2.53976   6
   5  10   2 5.29387 2.21632   1
   5  10   2 1.59141 2.64041   1
   5  10   2 6.26822 3.14147   3
   5  10   2 10.0978 2.46603   8
  -6 -10  -2 0.98211 3.48353   1
  -6 -10  -2 1.71985 2.86948   8
  -6 -10  -2 -0.6687 2.13437   4
  -6 -10  -2 6.00240 3.34533   3
  -6 -10  -2 -3.8226 2.92624   1
  -6 -10  -2 5.33416 3.02025   6
   6  10   2 0.40532 2.78449   1
   6  10   2 -4.7695 2.94121   1
   6  10   2 1.23655 3.85031  12
   6  10   2 0.65711 3.46045   3
   6  10   2 -3.0705 2.74611   6
   3 -11  -2 6.74565 3.51115   5
   3 -11  -2 1.63584 3.40749   1
   3 -11  -2 5.29602 2.60525   6
   3 -11  -2 -3.4147 2.56839   1
  -3  11   2 0.84856 2.35313  10
  -3  11   2 5.58773 2.72060   7
  -3  11   2 7.66417 2.58717   1
  -3  11   2 6.32663 3.09072   1
  -3  11   2 3.77533 2.34893   4
  -3  11   2 3.24565 2.27614   6
   2 -11  -2 0.58528 2.41642   5
   2 -11  -2 3.19094 2.39052   1
   2 -11  -2 -0.8552 2.23473   6
   2 -11  -2 0.02465 2.84165   1
  -2  11   2 0.68628 2.08199   4
  -2  11   2 -1.0327 2.45696   1
  -2  11   2 2.31233 2.35431   1
  -2  11   2 -4.4049 2.10202  10
  -2  11   2 2.33357 2.16993   6
  -2  11   2 1.27400 2.47070   7
   1 -11  -2 -0.6985 2.15265   5
   1 -11  -2 -2.6214 2.48408   6
   1 -11  -2 1.75023 2.38211   1
   1 -11  -2 1.00389 3.23619   8
   1 -11  -2 2.30212 2.31000   1
  -1  11   2 -0.3120 2.12816   1
  -1  11   2 -3.7574 2.21922   1
  -1  11   2 3.34973 2.21517   7
  -1  11   2 0.73909 2.11389   6
  -1  11   2 -2.9320 1.90427   4
  -1  11   2 -1.3242 1.85800  10
   0 -11  -2 0.14865 1.71279   8
   0 -11  -2 0.46129 2.33951   1
   0 -11  -2 1.65204 1.93118   1
   0 -11  -2 -1.5873 2.12602   5
   0 -11  -2 -2.2375 2.37492   6
   0  11   2 -1.4252 1.86389  10
   0  11   2 -3.1783 1.90972   4
   0  11   2 -0.8627 2.46326   1
  -1 -11  -2 1.37072 2.57527   1
  -1 -11  -2 1.23222 1.86781   8
  -1 -11  -2 8.29444 2.60937   6
  -1 -11  -2 4.16292 2.11046   4
  -1 -11  -2 1.60560 2.21168   5
  -1 -11  -2 5.01199 2.17399   7
  -1 -11  -2 4.39028 2.16370  11
   1  11   2 3.38084 2.05436   4
   1  11   2 2.08350 1.91847  10
   1  11   2 0.43207 2.25548   1
   1  11   2 3.01277 2.19763   6
  -2 -11  -2 6.81688 2.22292   7
  -2 -11  -2 1.98044 2.27394   5
  -2 -11  -2 4.44200 2.20952   4
  -2 -11  -2 3.22793 2.72940   1
  -2 -11  -2 3.45635 2.60086   6
  -2 -11  -2 1.80061 2.41584  11
  -2 -11  -2 1.48702 1.91927   3
   2  11   2 3.04812 2.07112   3
   2  11   2 2.62860 2.42868   1
   2  11   2 -1.7513 1.97456   4
   2  11   2 0.63119 2.36766   6
   2  11   2 2.25499 2.07154  10
  -3 -11  -2 7.69855 2.97418   1
  -3 -11  -2 3.25590 2.64157  11
  -3 -11  -2 3.49318 2.59956   5
  -3 -11  -2 4.06719 2.14186   4
  -3 -11  -2 3.60386 1.95982   8
  -3 -11  -2 1.73998 2.17732   7
  -3 -11  -2 8.50178 2.28061   3
  -3 -11  -2 9.22124 2.78469   6
   3  11   2 1.39608 2.51940   1
   3  11   2 5.21808 2.61948   3
   3  11   2 5.62730 2.21182   4
   3  11   2 2.30958 1.98990  10
   3  11   2 3.78745 2.46894   6
  -4 -11  -2 5.58576 2.89725   5
  -4 -11  -2 2.02788 2.17677   8
  -4 -11  -2 0.26365 2.99214  11
  -4 -11  -2 -4.1819 2.40055   3
  -4 -11  -2 4.24002 3.18683   1
  -4 -11  -2 0.28167 2.32273   4
  -4 -11  -2 -0.2053 2.22258   1
  -4 -11  -2 7.58615 3.05518   6
   4  11   2 2.39409 2.21904   1
   4  11   2 5.03223 2.82401   3
   4  11   2 1.27206 2.15485   4
   4  11   2 0.50798 2.63865   6
   4  11   2 0.31446 2.64970   1
  -5 -11  -2 -1.0671 2.95727   3
  -5 -11  -2 0.68210 2.43071   4
  -5 -11  -2 1.38888 3.43131   1
  -5 -11  -2 1.53061 2.59912   8
  -5 -11  -2 2.40898 3.24561   6
  -5 -11  -2 0.00392 3.51152  11
   5  11   2 -0.0049 2.87451   1
   5  11   2 -3.3406 2.87063   6
   5  11   2 1.00325 3.32079   3
   5  11   2 4.36194 2.59333   1
   2 -12  -2 1.31975 3.05494   1
   2 -12  -2 0.98554 3.31792   6
   2 -12  -2 0.11999 3.56980   7
   2 -12  -2 1.48324 3.65834   1
  -2  12   2 6.79043 3.44980   1
  -2  12   2 -3.0535 2.59881  10
  -2  12   2 -0.4588 2.55020   4
  -2  12   2 4.72933 3.28739   6
  -2  12   2 -4.5057 3.56302   1
  -2  12   2 -0.5492 3.07088   7
   1 -12  -2 4.69260 2.93692   1
   1 -12  -2 -0.5214 2.63799   5
   1 -12  -2 -0.5940 3.28508   7
   1 -12  -2 -2.9862 2.82918   1
   1 -12  -2 -1.7472 2.94662   6
  -1  12   2 -1.2263 2.44921  10
  -1  12   2 2.01780 2.83200   1
  -1  12   2 -2.9258 2.30777   4
  -1  12   2 -2.9780 2.94959   1
  -1  12   2 0.00461 2.63456   6
   0 -12  -2 -2.7175 2.56259   5
   0 -12  -2 -3.2657 2.38671   1
   0 -12  -2 1.24633 3.05288   1
   0 -12  -2 -0.3184 2.86005   7
   0 -12  -2 2.55505 2.80963   6
   0  12   2 -4.2299 2.60034   1
   0  12   2 -3.0465 2.31529   4
   0  12   2 -3.2521 2.46002  10
   0  12   2 1.85303 2.61660   6
  -1 -12  -2 0.41491 2.17736   8
  -1 -12  -2 2.00021 3.03633   6
  -1 -12  -2 2.72790 2.75748   5
  -1 -12  -2 3.45769 2.60795   7
  -1 -12  -2 1.14426 3.03510   1
  -1 -12  -2 -2.7440 2.41045   4
  -1 -12  -2 -1.9211 2.72797  11
   1  12   2 -2.2759 2.86608   1
   1  12   2 -0.3317 2.67877   6
   1  12   2 -4.2597 2.31975  10
   1  12   2 1.34653 2.47376   4
  -2 -12  -2 8.17677 2.93589   5
  -2 -12  -2 12.7833 3.22842   6
  -2 -12  -2 5.27267 3.43215   1
  -2 -12  -2 5.47681 2.84534  11
  -2 -12  -2 6.00642 2.76096   7
  -2 -12  -2 4.27673 2.68096   4
  -2 -12  -2 2.59843 2.37790   3
   2  12   2 7.77118 2.44832  10
   2  12   2 7.47187 2.62608   4
  -3 -12  -2 2.64831 2.67995   4
  -3 -12  -2 3.38282 3.21861  11
  -3 -12  -2 2.90427 2.66274   3
  -3 -12  -2 6.83088 2.93229   7
  -3 -12  -2 0.72377 3.05378   5
  -3 -12  -2 6.89334 3.41326   1
  -3 -12  -2 0.64404 3.24660   6
   3  12   2 5.05826 2.67091   4
   3  12   2 -1.9914 2.95893   6
   3  12   2 5.43592 3.13447   1
   3  12   2 1.38364 2.35260  10
   3  12   2 2.49841 4.71064   3
  -4 -12  -2 5.14938 2.81175   4
  -4 -12  -2 7.75754 4.12314   1
  -4 -12  -2 9.92699 3.13824   3
  -4 -12  -2 6.40624 3.72163   5
  -4 -12  -2 8.81196 3.72510   6
  -4 -12  -2 9.51063 2.94346   7
  -4 -12  -2 9.95490 3.64794  11
   4  12   2 6.79238 3.31040   6
   4  12   2 11.3634 3.57347   1
   4  12   2 7.28246 2.93087  10
   5  12  -3 6.64231 3.15919   1
   5  12  -3 -3.3459 2.68829   4
   5  12  -3 0.68627 2.89863   6
   5  12  -3 -0.8048 2.87672   8
   5  12  -3 4.30435 2.83477   1
  -5 -12   3 4.69333 2.92618   3
  -5 -12   3 -2.4784 3.57510   1
  -5 -12   3 6.93031 4.35069   2
  -5 -12   3 7.85272 3.33318   7
  -5 -12   3 1.89251 3.65662  10
  -5 -12   3 7.88551 3.07354   6
  -5 -12   3 -3.1914 3.11617   8
   4  12  -3 -1.1332 2.63152   8
   4  12  -3 4.66890 3.13341   3
   4  12  -3 2.94814 2.78890   6
   4  12  -3 -2.5252 2.49740  10
   4  12  -3 -4.5738 2.73825   1
   4  12  -3 1.55505 2.83265   1
   4  12  -3 -2.7164 2.47474   4
  -4 -12   3 7.63000 3.26871   1
  -4 -12   3 1.47381 3.12028  10
  -4 -12   3 -2.8945 2.69148   3
  -4 -12   3 2.05228 2.84109   6
  -4 -12   3 5.18509 3.24322   1
  -4 -12   3 3.27200 4.12886   2
  -4 -12   3 -1.2002 3.17510   8
   3  12  -3 3.91970 2.87388   8
   3  12  -3 0.43882 2.32624   6
   3  12  -3 4.42875 3.14297   1
   3  12  -3 0.49603 2.60361   1
   3  12  -3 -0.0148 3.02903   3
  -3 -12   3 3.21513 3.04765   1
  -3 -12   3 -0.2065 3.04017   6
  -3 -12   3 8.61809 4.23010   2
  -3 -12   3 4.66341 3.38135   8
  -3 -12   3 5.59892 2.98335   7
  -3 -12   3 4.78439 2.78447   3
  -3 -12   3 0.97793 3.33769   1
   2  12  -3 0.94109 2.87575   8
   2  12  -3 -4.0216 3.17047   3
   2  12  -3 0.74944 2.71426   6
   2  12  -3 -2.8668 3.19909   1
  -2 -12   3 -0.4579 2.75051   7
  -2 -12   3 0.15225 3.68278   1
  -2 -12   3 -0.1370 3.98364   2
  -2 -12   3 -3.1829 3.13119   8
  -2 -12   3 -2.9118 2.80287   3
   7  11  -3 0.82718 3.29968   1
   7  11  -3 4.40245 2.96684   6
  -7 -11   3 -1.6088 3.28771   2
  -7 -11   3 1.30809 3.34849  10
  -7 -11   3 -1.0803 3.16072   4
  -7 -11   3 -2.0954 2.91381   8
  -7 -11   3 -1.1261 3.60806   1
  -7 -11   3 3.67549 3.38177   6
   6  11  -3 14.7727 2.86879   8
   6  11  -3 8.68241 3.11934   1
   6  11  -3 6.97650 3.16523   6
  -6 -11   3 5.75965 2.74194   4
  -6 -11   3 13.0638 3.63150   2
  -6 -11   3 7.27034 3.19213  10
  -6 -11   3 11.4460 3.23428   6
  -6 -11   3 11.9283 3.04536   8
  -6 -11   3 11.5647 2.80936   3
  -6 -11   3 11.4504 3.42809   1
   5  11  -3 0.70454 2.32554   6
   5  11  -3 4.21517 2.35216   1
   5  11  -3 1.29458 2.46031   1
   5  11  -3 8.88084 4.38015   3
   5  11  -3 2.80419 2.19904   4
   5  11  -3 1.37258 2.57250   8
  -5 -11   3 1.88295 2.96776   1
  -5 -11   3 1.10998 2.84693   8
  -5 -11   3 4.50095 2.39171   1
  -5 -11   3 3.84295 2.47125   6
  -5 -11   3 0.89941 2.49997   4
  -5 -11   3 3.64144 2.81910   7
  -5 -11   3 1.06540 2.71634  10
  -5 -11   3 2.98203 3.32919   2
  -5 -11   3 7.81143 2.34920   3
   4  11  -3 -0.5206 2.28583   8
   4  11  -3 2.77372 2.03657  10
   4  11  -3 1.94532 2.40835   1
   4  11  -3 3.38019 2.24389   1
   4  11  -3 4.15706 2.41242   6
   4  11  -3 0.26191 2.14724   4
   4  11  -3 4.53536 2.19302   3
  -4 -11   3 7.67893 2.80798   1
  -4 -11   3 2.17794 2.35740  10
  -4 -11   3 2.92711 3.32144   2
  -4 -11   3 4.51327 2.64324   1
  -4 -11   3 1.36487 2.23663   3
  -4 -11   3 1.43493 2.38206   7
  -4 -11   3 4.89434 2.47447   6
  -4 -11   3 2.57048 2.56382   8
  -4 -11   3 -0.7634 2.06861   4
   3  11  -3 2.42901 2.29705   8
   3  11  -3 -1.4353 2.03625   1
   3  11  -3 1.69736 2.65710   1
   3  11  -3 2.67994 2.16898   6
   3  11  -3 0.94297 2.47873   3
  -3 -11   3 3.95100 2.34200   3
  -3 -11   3 0.75365 2.26513   7
  -3 -11   3 3.03739 2.78757   1
  -3 -11   3 3.26058 2.25852   1
  -3 -11   3 2.37458 2.39467  11
  -3 -11   3 0.16280 2.26227   6
  -3 -11   3 4.71871 3.11114   2
   2  11  -3 -0.1682 2.74907   3
   2  11  -3 1.67899 2.62223   1
   2  11  -3 3.47933 1.79146   6
   2  11  -3 3.49786 2.65075   8
  -2 -11   3 7.78073 2.53362   7
  -2 -11   3 1.62210 2.64527   3
  -2 -11   3 2.69807 2.67555  11
  -2 -11   3 6.14716 2.88553   1
  -2 -11   3 3.78731 3.40493   2
   1  11  -3 1.78822 2.41298   8
   1  11  -3 2.99733 2.86188   1
   1  11  -3 0.59490 2.64981   3
  -1 -11   3 1.31969 2.11088   7
  -1 -11   3 -0.5774 2.48434   3
  -1 -11   3 -0.1293 2.31436   5
  -1 -11   3 -2.1462 3.19242   2
  -1 -11   3 -2.5118 2.85266  11
   0  11  -3 5.98711 2.77256   8
   0  11  -3 5.58181 3.60027   1
   0  11  -3 -1.0930 2.86478   3
   0 -11   3 7.11972 3.03876   5
   0 -11   3 -0.8706 3.42427  11
  -8 -10   3 5.48588 3.91683   1
  -8 -10   3 12.7247 3.82254  10
  -8 -10   3 15.5412 3.63164   6
  -8 -10   3 8.79451 2.70222   8
  -8 -10   3 13.2351 3.36712   4
  -8 -10   3 9.14597 2.86170   9
  -7 -10   3 7.73536 2.89856   4
  -7 -10   3 6.14058 3.18675  10
  -7 -10   3 14.0411 3.32589   1
  -7 -10   3 10.1205 2.96057   6
  -7 -10   3 10.8060 2.37056   8
  -6 -10   3 5.12003 2.61083   6
  -6 -10   3 7.72745 2.85003   1
  -6 -10   3 9.26699 2.95993   2
  -6 -10   3 6.11354 2.28387   4
  -6 -10   3 4.07961 2.60420   8
  -6 -10   3 7.40736 2.62016  10
  -6 -10   3 4.75774 2.19570   3
   5  10  -3 19.0020 2.63276   1
   5  10  -3 21.4944 2.69154   4
   5  10  -3 21.7605 2.52864   8
  -5 -10   3 25.2988 3.62261   4
  -5 -10   3 26.0581 3.32172   2
  -5 -10   3 23.7617 3.48052   3
  -5 -10   3 23.3467 2.99419  10
  -5 -10   3 25.3649 3.37166   1
  -5 -10   3 25.3971 3.17439   6
  -5 -10   3 22.2367 3.03077   1
   4  10  -3 2.18561 1.99804   3
   4  10  -3 -0.7989 1.80351   4
   4  10  -3 4.08948 1.93543   8
   4  10  -3 1.36658 2.01054   1
   4  10  -3 0.51096 1.76686  10
  -4 -10   3 2.65165 2.31943   1
  -4 -10   3 0.56098 2.67833   1
  -4 -10   3 3.68272 2.68552   2
  -4 -10   3 1.76654 2.11533   7
  -4 -10   3 0.71983 1.77489  10
  -4 -10   3 -1.1346 2.07013   8
  -4 -10   3 4.33162 2.08333   3
  -4 -10   3 1.22147 2.02302   6
  -4 -10   3 1.08849 1.89455   4
   3  10  -3 0.14995 1.79871   3
   3  10  -3 -0.9418 1.99344   1
   3  10  -3 -0.1366 1.72941   8
   3  10  -3 1.67188 1.64556   6
   3  10  -3 2.50531 1.74412   1
  -3 -10   3 3.01667 2.02433   1
  -3 -10   3 -0.7056 2.49500   2
  -3 -10   3 2.18674 1.96001   7
  -3 -10   3 -0.7614 2.06691   8
  -3 -10   3 1.32568 1.77109   6
   2  10  -3 0.74829 1.85732   1
   2  10  -3 9.45007 2.11282   8
   2  10  -3 5.15355 1.49006   6
   2  10  -3 5.69502 2.30579   3
   2  10  -3 6.10356 2.48994   1
  -2 -10   3 4.99616 2.22080   1
  -2 -10   3 8.47078 2.00523   7
  -2 -10   3 8.43680 3.73827  11
  -2 -10   3 9.18813 1.91403   1
  -2 -10   3 8.22727 2.11109   8
  -2 -10   3 2.61328 1.88278   5
  -2 -10   3 6.81568 2.70642   2
   1  10  -3 3.12611 2.46202   1
   1  10  -3 4.96616 2.25161   3
   1  10  -3 0.93736 1.97335   8
  -1 -10   3 2.54187 2.47266   1
  -1 -10   3 1.97074 1.73349   7
  -1 -10   3 1.91017 2.56745   2
  -1 -10   3 -0.8554 1.82229   5
  -1 -10   3 -0.1118 2.05999   8
  -1 -10   3 1.34814 2.61937  11
   0  10  -3 4.66995 2.80442   1
   0  10  -3 3.14624 2.38015   3
   0  10  -3 3.17969 2.31998   8
   0 -10   3 -0.4939 2.19209   5
   0 -10   3 4.50751 2.88687   1
   0 -10   3 3.33110 2.81933  11
  -1  10  -3 -0.6125 2.98818   3
  -1  10  -3 -0.5494 3.32341   1
  -1  10  -3 3.22923 2.60893   8
   1 -10   3 -0.3231 2.54043   5
   1 -10   3 0.60344 3.02115  11
   1 -10   3 -1.5665 3.17151   9
  -2  10  -3 1.52703 3.04461   8
  -2  10  -3 -2.0855 3.27550   3
  -2  10  -3 -5.6390 3.77530   1
   2 -10   3 -2.1364 3.54242   9
   2 -10   3 -3.2308 2.87808   1
   2 -10   3 0.64464 3.78544  11
   2 -10   3 -0.0449 2.65000   6
   2 -10   3 -2.7745 4.82884   5
   8   9  -3 1.61161 2.69363   6
   8   9  -3 5.61907 3.00609   1
  -8  -9   3 1.30934 3.12114   4
  -8  -9   3 2.76432 3.17461   9
  -8  -9   3 3.54342 2.69997   6
  -8  -9   3 5.72281 3.00539  10
  -8  -9   3 10.1627 2.45241   8
  -8  -9   3 2.62801 3.01409   1
   7   9  -3 18.8237 3.09685   1
   7   9  -3 15.5020 2.89167   6
  -7  -9   3 26.3347 3.43229   9
  -7  -9   3 19.5720 3.29468   1
  -7  -9   3 16.2013 2.96281   6
  -7  -9   3 18.3349 2.99578   4
  -7  -9   3 16.4853 3.16183  10
  -7  -9   3 21.6419 2.75798   8
  -7  -9   3 22.3679 3.36983   1
   6   9  -3 19.5922 2.74545   6
   6   9  -3 18.1809 2.78349   1
  -6  -9   3 25.9522 3.60629   6
  -6  -9   3 24.3045 3.41370   2
  -6  -9   3 18.4900 2.43442   4
  -6  -9   3 19.0631 2.89870   1
  -6  -9   3 28.1016 3.10745   3
  -6  -9   3 20.9489 2.73571  10
   5   9  -3 65.2758 4.11534   8
   5   9  -3 64.1302 4.32211   4
   5   9  -3 65.0231 4.28946   1
   5   9  -3 55.3280 4.38716   6
   5   9  -3 63.2434 4.65628   1
  -5  -9   3 69.2332 4.63415   2
  -5  -9   3 58.8520 4.33050   4
  -5  -9   3 70.8699 4.89802   1
  -5  -9   3 57.2168 4.67193  10
  -5  -9   3 66.0105 4.53454   6
   4   9  -3 3.94257 1.59285   8
   4   9  -3 3.88300 1.75339   1
   4   9  -3 3.38082 2.21703   4
   4   9  -3 1.55161 1.65685   1
   4   9  -3 3.63645 1.63544   6
   4   9  -3 5.75871 1.73224   3
  -4  -9   3 2.39993 1.83308   8
  -4  -9   3 -0.7147 1.42062  10
  -4  -9   3 2.16754 1.53244   3
  -4  -9   3 2.92169 1.90811   1
  -4  -9   3 3.71995 2.26949   2
  -4  -9   3 2.59668 1.67538   6
  -4  -9   3 1.92478 1.62231   1
   3   9  -3 11.3810 1.87606   8
   3   9  -3 8.42253 1.83030   3
   3   9  -3 9.01401 1.98104   1
  -3  -9   3 14.0857 2.48782   2
  -3  -9   3 8.53263 2.27450   1
  -3  -9   3 11.2842 2.10907   1
  -3  -9   3 9.15847 2.09391   3
  -3  -9   3 10.2757 1.94950   6
  -3  -9   3 8.69392 1.91666   8
   2   9  -3 9.87194 2.28760   3
   2   9  -3 10.2787 2.31078   1
   2   9  -3 8.92645 1.79804   8
  -2  -9   3 13.0977 2.01737   8
  -2  -9   3 12.9127 2.40915   2
  -2  -9   3 8.56884 2.00532  11
  -2  -9   3 12.9228 2.13812   3
  -2  -9   3 13.1713 1.83792   6
  -2  -9   3 13.8808 2.34539   1
  -2  -9   3 11.2504 1.84296   7
  -2  -9   3 10.7355 1.87080   1
   1   9  -3 5.63379 2.03163   1
   1   9  -3 2.52121 1.80494   8
   1   9  -3 3.69455 1.88840   3
  -1  -9   3 5.68668 1.62786   7
  -1  -9   3 0.99767 2.02046   1
  -1  -9   3 0.49218 1.71725   3
  -1  -9   3 1.79074 1.87601   8
  -1  -9   3 5.08973 2.22063   2
  -1  -9   3 0.68540 1.42760   1
  -1  -9   3 2.48169 1.98220  11
   0   9  -3 10.5476 2.50522   1
   0   9  -3 6.26897 1.99534   8
   0   9  -3 8.36827 2.19843   3
   0  -9   3 9.68216 2.37109   1
   0  -9   3 0.99820 2.12250  11
   0  -9   3 3.78236 2.38862   1
   0  -9   3 6.25996 2.12838   8
  -1   9  -3 2.20683 2.21503   3
  -1   9  -3 -0.1264 2.76950   1
  -1   9  -3 5.77345 2.25921   8
   1  -9   3 -1.1628 1.93484   1
   1  -9   3 1.86762 3.13948  11
   1  -9   3 0.52614 2.18930   5
   1  -9   3 2.33636 2.59470   1
   1  -9   3 -0.4745 2.63408   9
  -2   9  -3 -2.4756 3.04205   1
  -2   9  -3 -1.3423 1.69646   6
  -2   9  -3 1.62146 2.53784   3
  -2   9  -3 -0.7391 1.90016   1
  -2   9  -3 4.94503 1.99233   4
  -2   9  -3 3.13436 2.40323   8
   2  -9   3 -4.3967 2.28189   4
   2  -9   3 -1.0441 2.22541   1
   2  -9   3 0.83663 2.92569   9
   2  -9   3 -3.6528 2.45378   5
   2  -9   3 -4.7817 2.01093   6
   2  -9   3 -0.7370 2.92240   1
  -3   9  -3 -6.0471 3.68269   1
  -3   9  -3 2.77615 2.92665   8
  -3   9  -3 -1.3251 2.73027   4
  -3   9  -3 5.73564 2.36569   6
  -3   9  -3 -3.1059 2.56552  10
  -3   9  -3 1.51326 3.12794   3
  -3   9  -3 2.97123 2.64693   1
   3  -9   3 5.82718 3.44242   5
   3  -9   3 -1.1222 2.99883   1
   3  -9   3 2.45629 3.55328   9
   3  -9   3 -0.6447 3.58068   1
   3  -9   3 -1.8312 2.80590   6
   3  -9   3 1.35308 3.59342  11
   9   8  -3 -1.7862 2.87278   6
   9   8  -3 0.59293 3.24138   1
  -9  -8   3 -0.3203 3.13830   6
  -9  -8   3 0.29758 3.28614   1
  -9  -8   3 -5.5702 3.25580  10
  -9  -8   3 -3.5376 3.01716   4
   8   8  -3 12.0870 2.88843   1
   8   8  -3 11.7270 2.61076   6
  -8  -8   3 10.9283 2.98030  10
  -8  -8   3 8.06778 2.68949   6
  -8  -8   3 10.4241 2.60308   4
  -8  -8   3 10.5377 2.94811   1
  -8  -8   3 15.9665 2.29566   8
   7   8  -3 12.6087 2.49368   1
   7   8  -3 16.9930 2.48036   6
  -7  -8   3 19.9965 2.66302   4
  -7  -8   3 15.4627 2.95461   1
  -7  -8   3 13.5211 2.64535  10
  -7  -8   3 17.1237 2.17571   8
  -7  -8   3 17.2912 2.71503   6
  -7  -8   3 15.5674 2.30380   9
   6   8  -3 0.93506 1.88119   6
   6   8  -3 1.95804 1.97508   1
   6   8  -3 2.81075 1.57328   1
  -6  -8   3 0.71740 2.01061   1
  -6  -8   3 2.47231 1.60726   8
  -6  -8   3 -0.9191 1.50221   4
  -6  -8   3 0.60585 1.66731   6
  -6  -8   3 3.47950 1.82046  10
   5   8  -3 2.24118 1.69185   1
   5   8  -3 -0.2104 2.02209   3
   5   8  -3 1.94156 1.59012   6
   5   8  -3 2.61247 1.35977   4
   5   8  -3 3.25850 1.41820   1
   5   8  -3 4.45124 1.49635   8
  -5  -8   3 0.88556 1.91061   1
  -5  -8   3 0.83733 1.23626   4
  -5  -8   3 0.12991 1.57663   8
  -5  -8   3 1.74708 1.54781   3
  -5  -8   3 1.97790 1.72741   1
  -5  -8   3 3.77346 1.83922   2
  -5  -8   3 4.84022 1.85491   6
  -5  -8   3 2.05830 1.41272  10
   4   8  -3 35.8520 3.06876   6
   4   8  -3 35.5950 3.11983   1
   4   8  -3 37.6766 2.92415   8
   4   8  -3 35.0782 3.06295   3
   4   8  -3 39.9836 3.26626  10
   4   8  -3 42.4595 3.03411   4
   4   8  -3 39.2843 3.27341   1
  -4  -8   3 38.4968 3.48076   1
  -4  -8   3 40.0106 3.24667   8
  -4  -8   3 35.5134 3.22719  10
  -4  -8   3 33.3214 2.95786   4
  -4  -8   3 32.5158 3.11560   6
  -4  -8   3 29.8263 3.12046   3
  -4  -8   3 41.7421 3.22858   1
  -4  -8   3 41.0055 3.37891   2
   3   8  -3 33.3077 3.18395   1
   3   8  -3 32.3923 2.64674   6
   3   8  -3 34.5258 2.90840   4
   3   8  -3 35.3616 2.96596   3
   3   8  -3 33.2469 2.87910   1
   3   8  -3 39.3401 2.85278   8
  -3  -8   3 38.1638 3.10895   3
  -3  -8   3 35.9310 2.78343   4
  -3  -8   3 36.6587 3.07736   1
  -3  -8   3 36.9369 2.85070   6
  -3  -8   3 33.3449 3.38646   2
  -3  -8   3 32.6258 3.05967   8
  -3  -8   3 30.9042 3.22226   1
   2   8  -3 2.25465 1.26122   4
   2   8  -3 2.51464 1.21895   6
   2   8  -3 2.86537 1.36388   8
   2   8  -3 1.33750 1.16557   1
   2   8  -3 2.92304 1.35862   3
   2   8  -3 -0.6971 1.69090   1
  -2  -8   3 2.86603 1.72749   1
  -2  -8   3 -0.7148 1.45699   3
  -2  -8   3 2.34405 1.30126   1
  -2  -8   3 0.21582 1.43133   8
  -2  -8   3 0.24698 1.12583   6
  -2  -8   3 -0.2430 1.26582   7
  -2  -8   3 2.51580 1.91839   2
   1   8  -3 4.13624 1.86022   1
   1   8  -3 4.83481 1.65275   3
   1   8  -3 8.75276 1.62501   8
  -1  -8   3 6.38112 1.27028   7
  -1  -8   3 2.96801 1.31341   1
  -1  -8   3 5.89668 1.66604   8
  -1  -8   3 6.47066 1.78500   5
  -1  -8   3 6.00872 1.93495   1
  -1  -8   3 6.12852 1.74403   3
  -1  -8   3 9.19622 1.36094   6
  -1  -8   3 6.65107 2.06665   2
  -1  -8   3 7.10556 1.87589  11
   0   8  -3 12.3349 2.13718   3
   0   8  -3 13.3342 2.31167   1
   0   8  -3 11.6879 1.88922   8
   0  -8   3 7.39777 2.01119  11
   0  -8   3 10.2891 1.86568   8
   0  -8   3 9.46249 1.89803   5
   0  -8   3 13.5259 2.23164   2
   0  -8   3 9.79728 2.14394   1
  -1   8  -3 8.36608 2.44715   1
  -1   8  -3 16.3218 2.16541   8
  -1   8  -3 15.6611 2.90834   4
  -1   8  -3 12.2997 2.28582   3
   1  -8   3 15.6472 2.04385   1
   1  -8   3 9.79375 2.30721   9
   1  -8   3 14.6866 2.46187   1
   1  -8   3 9.56781 2.53786  11
   1  -8   3 12.0984 1.95688   6
  -2   8  -3 8.93723 2.29951  10
  -2   8  -3 -0.6191 2.60804   1
  -2   8  -3 5.61334 1.87181   4
  -2   8  -3 2.37966 1.70992   1
  -2   8  -3 4.82193 2.04673   8
  -2   8  -3 6.89052 2.28175   3
  -2   8  -3 3.50203 1.61413   6
   2  -8   3 4.56654 2.17405   4
   2  -8   3 1.91650 3.41343   5
   2  -8   3 5.33221 1.94316   1
   2  -8   3 7.63180 2.49059   1
   2  -8   3 1.62748 1.78369   6
   2  -8   3 3.91752 2.47985   9
  -3   8  -3 -4.2980 2.95709   1
  -3   8  -3 1.67750 2.36723   8
  -3   8  -3 1.93530 2.00811   1
  -3   8  -3 1.69057 1.92787   6
  -3   8  -3 -0.8382 2.46118   3
  -3   8  -3 -1.0557 2.26949  10
   3  -8   3 0.03996 2.54006   4
   3  -8   3 -0.7027 2.80980   9
   3  -8   3 3.51113 2.96648   5
   3  -8   3 -1.7795 2.21865   6
   3  -8   3 1.87487 2.36132   1
   3  -8   3 -2.0251 2.86118  11
   3  -8   3 -0.1973 2.87996   1
   9   7  -3 5.19793 2.00279   6
   9   7  -3 2.40011 2.76532   6
   9   7  -3 -2.5567 2.85143   1
   9   7  -3 2.74804 2.26095   1
  -9  -7   3 1.85116 2.82778   6
  -9  -7   3 7.80564 2.98779   1
  -9  -7   3 4.03248 2.75848   4
  -9  -7   3 7.94231 3.19378  10
  -9  -7   3 3.49956 3.26995   1
   8   7  -3 42.7758 4.43495   1
   8   7  -3 37.6612 4.19206   6
  -8  -7   3 52.6187 4.66608   1
  -8  -7   3 40.7557 3.71937   8
  -8  -7   3 49.4348 4.86554  10
  -8  -7   3 44.7634 4.54401   6
  -8  -7   3 42.7038 4.42321   4
   7   7  -3 19.4403 2.45394   6
   7   7  -3 18.1435 2.73692   1
   7   7  -3 14.7799 2.32905   1
  -7  -7   3 21.9005 2.67218   1
  -7  -7   3 17.4359 2.46967   9
  -7  -7   3 17.5303 2.40987  10
  -7  -7   3 18.4028 2.57681   6
  -7  -7   3 21.1190 3.06330   4
   6   7  -3 5.59714 1.87699   1
   6   7  -3 9.28726 1.56584   1
   6   7  -3 6.29139 1.77684   6
   6   7  -3 7.92544 1.83791  12
  -6  -7   3 4.46930 1.61624   4
  -6  -7   3 6.09300 1.82721  10
  -6  -7   3 7.30947 2.00930   1
  -6  -7   3 6.99755 1.57042   8
  -6  -7   3 6.39693 1.85310   6
  -6  -7   3 7.98626 1.53014   9
   5   7  -3 1.10786 1.49370   1
   5   7  -3 0.38288 1.26940   1
   5   7  -3 -0.9983 1.07770   3
   5   7  -3 0.94632 1.33176   6
  -5  -7   3 -1.4710 1.04195   4
  -5  -7   3 1.32041 1.46935   6
  -5  -7   3 -1.0659 1.27580   8
  -5  -7   3 1.70303 1.17387   1
  -5  -7   3 1.24030 1.39244   2
  -5  -7   3 -1.1278 1.38724  10
  -5  -7   3 -1.5292 1.11888   3
  -5  -7   3 0.61047 1.53212   1
   4   7  -3 109.554 5.88364   1
   4   7  -3 115.068 5.94220   1
   4   7  -3 105.283 5.80654   6
   4   7  -3 117.096 5.83387   4
   4   7  -3 117.296 5.66086   8
   4   7  -3 116.453 5.81551   3
  -4  -7   3 125.023 5.80994   2
  -4  -7   3 118.861 5.92885   6
  -4  -7   3 113.771 5.75552   4
  -4  -7   3 116.924 5.93736   3
  -4  -7   3 113.194 5.90774  10
  -4  -7   3 109.699 5.91264   1
  -4  -7   3 128.054 6.07447   1
  -4  -7   3 109.082 5.78072   8
   3   7  -3 14.6740 1.91889   1
   3   7  -3 11.8207 1.79433   6
   3   7  -3 14.2488 1.71637   8
   3   7  -3 17.0207 2.06503   1
   3   7  -3 15.3309 1.84715   4
   3   7  -3 16.8961 2.16841   3
   3   7  -3 13.0182 1.59346  10
  -3  -7   3 15.5748 1.98294   3
  -3  -7   3 15.7385 2.07789   6
  -3  -7   3 15.2183 2.09353  10
  -3  -7   3 16.4655 2.38508   1
  -3  -7   3 18.4452 2.51626   2
  -3  -7   3 17.6585 1.96542   4
  -3  -7   3 15.5662 1.99275   1
  -3  -7   3 12.8712 1.72208   8
   2   7  -3 6.22248 1.48046   3
   2   7  -3 5.29805 1.17646   1
   2   7  -3 5.48662 1.23200   8
   2   7  -3 4.70520 1.54438   1
   2   7  -3 4.29359 1.00993   6
   2   7  -3 6.92338 1.42967   4
   2   7  -3 4.97890 1.17604  10
  -2  -7   3 6.67465 1.53199   3
  -2  -7   3 5.59091 1.36473  10
  -2  -7   3 5.07763 1.41235   8
  -2  -7   3 5.19886 1.24729   4
  -2  -7   3 7.27209 1.41556   1
  -2  -7   3 6.85317 1.76089   1
  -2  -7   3 4.96629 1.35112   6
  -2  -7   3 6.35830 1.67273   2
   1   7  -3 7.74263 1.22880   6
   1   7  -3 7.55367 1.32498   1
   1   7  -3 11.2015 1.50247   8
   1   7  -3 9.62832 1.88583   1
   1   7  -3 11.1077 1.66350   3
   1   7  -3 7.54629 1.32015   4
   1   7  -3 10.5355 1.46109  10
  -1  -7   3 10.6471 1.25540   7
  -1  -7   3 8.78980 1.80065   1
  -1  -7   3 8.79093 1.63273  10
  -1  -7   3 6.39324 1.51389   1
  -1  -7   3 10.9043 1.59530   5
  -1  -7   3 10.1811 1.38694   4
  -1  -7   3 9.35228 1.45394   8
  -1  -7   3 10.7433 1.66928   3
  -1  -7   3 8.59908 1.49785   6
  -1  -7   3 10.7367 1.89083  11
  -1  -7   3 13.1606 1.82257   2
   0   7  -3 23.3338 1.92004   6
   0   7  -3 17.1499 1.99389   1
   0   7  -3 26.6253 2.32567   8
   0   7  -3 25.6094 2.75751   3
   0   7  -3 16.5850 2.47588   4
   0   7  -3 27.6767 3.13135   1
   0  -7   3 22.7979 2.90336  11
   0  -7   3 22.2924 2.46220   4
   0  -7   3 27.0896 2.50910  10
   0  -7   3 19.1975 2.65712   5
   0  -7   3 24.6756 2.25338   6
   0  -7   3 19.3381 2.38317   8
   0  -7   3 21.3903 2.48931   2
   0  -7   3 23.5617 2.27969   1
   0  -7   3 22.6583 2.95126   1
  -1   7  -3 12.4565 1.73370   4
  -1   7  -3 11.9174 1.49552   6
  -1   7  -3 14.0250 1.95028   3
  -1   7  -3 11.0299 1.41657   1
  -1   7  -3 14.2501 1.77126   8
  -1   7  -3 11.9609 2.17286   1
   1  -7   3 10.6388 1.92558   5
   1  -7   3 15.5163 2.06938   2
   1  -7   3 14.3235 1.85319   1
   1  -7   3 10.2436 1.66848   6
   1  -7   3 12.3463 1.86484   4
   1  -7   3 9.30395 2.19415  10
   1  -7   3 10.2211 1.96491   9
   1  -7   3 12.5222 2.18260   1
   1  -7   3 10.1292 2.11309  11
  -2   7  -3 4.35105 1.49519   6
  -2   7  -3 5.83064 1.56594   1
  -2   7  -3 9.27993 1.90308   8
  -2   7  -3 5.89739 2.41911   1
  -2   7  -3 10.4118 2.12046   3
  -2   7  -3 5.99203 1.73343   4
  -2   7  -3 7.43905 1.81444  10
   2  -7   3 8.84526 2.10066  11
   2  -7   3 13.0936 2.07055   2
   2  -7   3 8.01115 2.03314   9
   2  -7   3 8.63224 1.95286   1
   2  -7   3 4.26900 1.69854   6
   2  -7   3 6.53892 1.98561   5
  -3   7  -3 -0.1216 1.95415   4
  -3   7  -3 0.60315 1.69630   1
  -3   7  -3 -2.8350 2.49115   1
  -3   7  -3 1.18624 2.05377   8
  -3   7  -3 -1.5384 1.66759   6
  -3   7  -3 -3.8441 2.07080   3
  -3   7  -3 0.71581 1.98589  10
   3  -7   3 2.15878 2.00525   1
   3  -7   3 -2.7243 2.28211  11
   3  -7   3 -0.0479 2.32784   9
   3  -7   3 5.32235 2.43975   1
   3  -7   3 -0.2821 2.33858   4
   3  -7   3 -2.5901 1.81937   6
  -4   7  -3 -2.9857 2.32833  10
  -4   7  -3 -3.7845 2.92962   1
  -4   7  -3 2.24728 2.27609   1
  -4   7  -3 1.55161 2.57830   8
  -4   7  -3 3.54893 2.21636   6
  -4   7  -3 0.42579 2.38210   4
  -4   7  -3 1.48889 2.72816   3
   4  -7   3 -1.2215 2.80402   5
   4  -7   3 -2.9221 2.41155   6
   4  -7   3 -3.1502 3.01711  11
   4  -7   3 2.42857 2.76728   1
   4  -7   3 1.90918 2.70734   1
   4  -7   3 1.86298 2.79490   9
   9   6  -3 15.5796 3.14408   1
   9   6  -3 12.5533 2.47536   1
   9   6  -3 15.8830 2.81761   6
   9   6  -3 15.0903 2.17365   6
  -9  -6   3 18.2110 3.13427   4
  -9  -6   3 22.7847 3.30032   1
  -9  -6   3 14.8248 3.15722  10
  -9  -6   3 14.8860 2.86710   6
  -9  -6   3 13.4428 2.95921   1
   8   6  -3 46.7889 4.16612   6
   8   6  -3 47.3500 4.58915   1
   8   6  -3 43.9544 4.05424   1
  -8  -6   3 52.7752 4.19111   4
  -8  -6   3 55.5083 3.61405   8
  -8  -6   3 43.5271 4.37695   1
  -8  -6   3 44.5033 4.45647  10
  -8  -6   3 47.7957 4.27773   6
   7   6  -3 44.3861 4.03752   1
   7   6  -3 47.5074 3.47540   1
   7   6  -3 46.4973 3.73731   6
  -7  -6   3 41.6256 3.70704   4
  -7  -6   3 45.3186 4.02140  10
  -7  -6   3 53.9082 4.01062   6
  -7  -6   3 52.8031 4.06271   1
  -7  -6   3 48.8843 3.61422   9
   6   6  -3 8.38860 1.61181   1
   6   6  -3 7.25498 1.71017   6
   6   6  -3 8.70671 1.56028  12
   6   6  -3 8.02004 1.80774   1
  -6  -6   3 9.50028 1.62798  10
  -6  -6   3 9.51738 1.79356   9
  -6  -6   3 6.44226 1.92362   1
  -6  -6   3 7.06316 1.37630   4
  -6  -6   3 5.94485 1.56346   3
  -6  -6   3 7.54512 1.78188   6
  -6  -6   3 7.02263 1.54583   8
   5   6  -3 3.67978 1.38262   6
   5   6  -3 4.51078 1.14825  12
   5   6  -3 2.74829 1.20613   3
   5   6  -3 3.77178 1.25123   1
   5   6  -3 3.62238 1.38936   1
  -5  -6   3 4.24027 1.20069   9
  -5  -6   3 2.98403 1.33421   6
  -5  -6   3 3.35646 1.46233   8
  -5  -6   3 2.26062 1.43557   3
  -5  -6   3 3.86678 1.25842  10
  -5  -6   3 3.07313 1.23145   1
  -5  -6   3 4.66248 1.56820   1
  -5  -6   3 2.12453 1.00584   4
   4   6  -3 123.380 5.76773   3
   4   6  -3 122.576 5.80780   4
   4   6  -3 117.415 5.74380  12
   4   6  -3 110.292 5.81921   1
   4   6  -3 108.795 5.76348   6
  -4  -6   3 118.089 5.84299   6
  -4  -6   3 123.504 5.96078   1
  -4  -6   3 121.576 5.65141   2
  -4  -6   3 107.540 5.80391  10
  -4  -6   3 115.423 5.82791   3
  -4  -6   3 113.619 5.69635   8
  -4  -6   3 115.035 5.85932   1
   3   6  -3 123.113 5.85389  10
   3   6  -3 107.307 5.65466   6
   3   6  -3 115.867 5.87301   1
   3   6  -3 123.111 5.56842   8
   3   6  -3 118.445 5.80033   4
   3   6  -3 110.142 5.70737   1
   3   6  -3 120.323 5.75552   3
  -3  -6   3 113.233 5.85797   1
  -3  -6   3 122.639 5.86838   1
  -3  -6   3 114.553 5.75551   4
  -3  -6   3 117.804 5.76490   3
  -3  -6   3 117.178 5.60935   8
  -3  -6   3 115.772 5.81260  10
  -3  -6   3 119.260 5.79299   6
  -3  -6   3 118.079 5.78723   2
   2   6  -3 49.2841 3.19615  10
   2   6  -3 50.6204 3.19032   3
   2   6  -3 55.2055 3.46890   1
   2   6  -3 55.5039 3.30223   4
   2   6  -3 57.2430 3.01250   8
   2   6  -3 50.3394 3.16761   1
   2   6  -3 48.2055 3.07981   6
  -2  -6   3 59.3737 3.32216   1
  -2  -6   3 60.5822 3.22385   6
  -2  -6   3 56.3144 3.41934   2
  -2  -6   3 52.8243 3.13021   8
  -2  -6   3 48.0071 3.16749   4
  -2  -6   3 52.2208 3.22466   3
  -2  -6   3 54.4908 3.50064   1
  -2  -6   3 50.8801 3.29212  10
   1   6  -3 75.7282 3.73891   8
   1   6  -3 76.1843 3.97923   3
   1   6  -3 77.2952 4.02911  10
   1   6  -3 75.6940 4.02826   4
   1   6  -3 68.0693 3.85734   1
   1   6  -3 64.9802 3.79174   6
   1   6  -3 76.4817 4.29599   1
  -1  -6   3 73.1541 4.15581   1
  -1  -6   3 69.9496 3.96298   4
  -1  -6   3 69.2076 3.97151   3
  -1  -6   3 71.3475 3.74935   8
  -1  -6   3 75.5466 4.08153   2
  -1  -6   3 64.2319 3.93730  10
  -1  -6   3 74.9856 3.96099   6
  -1  -6   3 68.3863 3.98608   5
  -1  -6   3 74.8859 4.00970   1
   0   6  -3 45.4752 2.95308  10
   0   6  -3 45.2657 3.09656   4
   0   6  -3 42.8670 2.71800   8
   0   6  -3 43.1445 3.01699   3
   0   6  -3 49.5469 3.38286   1
   0  -6   3 45.7125 3.11123   2
   0  -6   3 43.2808 3.21468  11
   0  -6   3 45.4788 2.90937   1
   0  -6   3 42.8785 3.03497  10
   0  -6   3 40.9277 3.15500   5
   0  -6   3 43.7959 2.97068   4
   0  -6   3 43.3361 2.75475   8
   0  -6   3 49.6376 2.85207   6
   0  -6   3 48.2666 3.31058   1
  -1   6  -3 7.17109 1.75922   1
  -1   6  -3 6.91255 1.33741   8
  -1   6  -3 3.44461 1.14428  10
  -1   6  -3 6.61779 1.54042   3
  -1   6  -3 4.69534 1.22193   4
  -1   6  -3 5.07829 1.00032   6
  -1   6  -3 5.11501 1.03442   1
   1  -6   3 5.69905 1.44111   9
   1  -6   3 5.22543 1.61192   1
   1  -6   3 3.22849 1.31296  10
   1  -6   3 4.92748 1.29824   6
   1  -6   3 6.74272 1.43686   2
   1  -6   3 4.99427 1.54189   5
   1  -6   3 4.04298 1.30795   1
   1  -6   3 4.78591 1.44773   4
   1  -6   3 5.26898 1.62780  11
  -2   6  -3 8.46007 1.48391   1
  -2   6  -3 8.29844 1.69364   4
  -2   6  -3 8.79943 1.61747  10
  -2   6  -3 10.6689 2.03306   1
  -2   6  -3 6.99245 1.41365   6
  -2   6  -3 12.6251 1.69147   8
  -2   6  -3 9.40593 1.78372   3
   2  -6   3 7.37942 1.61031   6
   2  -6   3 9.19485 1.77834   1
   2  -6   3 8.18408 1.91456  10
   2  -6   3 9.82170 1.75823   9
   2  -6   3 9.58980 1.76722   2
   2  -6   3 11.0099 1.94666  11
   2  -6   3 7.30124 1.79363   5
   2  -6   3 9.78009 1.89107   4
  -3   6  -3 1.55293 2.10617   1
  -3   6  -3 1.87068 1.45228   6
  -3   6  -3 4.11339 1.77095   4
  -3   6  -3 7.25718 1.79358   8
  -3   6  -3 1.79524 1.83709  10
  -3   6  -3 5.61362 1.92807   3
  -3   6  -3 2.98239 1.59729   1
   3  -6   3 2.47588 1.73680   6
   3  -6   3 4.50226 1.91742   1
   3  -6   3 5.53518 2.15893   5
   3  -6   3 -2.5296 1.67419   4
   3  -6   3 1.72712 2.04113  11
   3  -6   3 8.27609 2.00787   1
   3  -6   3 2.07486 1.77456   9
  -4   6  -3 0.62744 2.24185   4
  -4   6  -3 -1.2685 1.73762   6
  -4   6  -3 -3.6525 2.03901   8
  -4   6  -3 4.09458 2.31116   3
  -4   6  -3 -0.2859 2.39331   1
  -4   6  -3 3.21384 1.93941   1
  -4   6  -3 -0.3184 2.18712  10
   4  -6   3 2.43686 2.22523   1
   4  -6   3 3.54682 2.15330   1
   4  -6   3 2.10144 2.46458   9
   4  -6   3 1.75125 2.45303   2
   4  -6   3 0.38973 2.07995   6
   4  -6   3 1.09377 2.68635  11
  -5   6  -3 2.41279 3.05371   3
  -5   6  -3 -1.0360 2.78098  10
  -5   6  -3 4.31962 3.14911   5
  -5   6  -3 -2.7766 2.62645   8
  -5   6  -3 2.49093 3.12711   1
  -5   6  -3 1.67551 2.23384   6
  -5   6  -3 -0.6581 2.35650   1
  -5   6  -3 2.14989 3.01328   4
   5  -6   3 1.05297 3.04888   9
   5  -6   3 -0.5393 3.23305  11
   5  -6   3 -1.3300 2.97682   1
   5  -6   3 -0.5206 2.46255   6
   5  -6   3 -1.1207 3.37616   5
   5  -6   3 -5.0686 2.48262   1
  10   5  -3 7.10737 3.38232   1
  10   5  -3 2.47965 3.02305   1
  10   5  -3 5.87323 2.64546   6
 -10  -5   3 2.40455 3.31196   1
 -10  -5   3 6.57984 3.71878   1
 -10  -5   3 8.53878 4.02155  10
 -10  -5   3 7.29112 3.42697   4
   9   5  -3 43.6559 5.03079   1
   9   5  -3 51.8181 4.19142   1
   9   5  -3 44.3617 3.71157   6
   9   5  -3 35.5701 4.41876   6
  -9  -5   3 44.2295 4.84089   1
  -9  -5   3 46.5770 4.78909   6
  -9  -5   3 38.2501 5.30194  10
  -9  -5   3 41.6230 3.87810   1
  -9  -5   3 43.1241 4.80790   4
   8   5  -3 122.451 6.96077   1
   8   5  -3 128.406 6.52866   1
   8   5  -3 116.995 6.72921   6
  -8  -5   3 118.631 7.12629  10
  -8  -5   3 126.336 6.91351   4
  -8  -5   3 126.946 6.48887   8
  -8  -5   3 135.320 6.88517   6
  -8  -5   3 130.514 6.95384   1
   7   5  -3 88.7999 5.49296   1
   7   5  -3 79.5798 4.97782   1
   7   5  -3 75.2888 4.79426   6
  -7  -5   3 82.7966 4.88797   6
  -7  -5   3 80.8869 4.97738   1
  -7  -5   3 77.6837 5.00199  10
  -7  -5   3 78.1910 4.71937   9
  -7  -5   3 93.3526 5.44960   8
  -7  -5   3 81.0457 4.87645   4
   6   5  -3 1.45661 1.18888  12
   6   5  -3 -0.3372 1.16439   1
   6   5  -3 -1.6329 1.23772   6
   6   5  -3 1.17577 1.50450   1
  -6  -5   3 0.47214 1.37354   1
  -6  -5   3 -1.3578 1.13962   9
  -6  -5   3 1.31185 0.99731   4
  -6  -5   3 -0.4530 1.18112   8
  -6  -5   3 0.32452 1.32757   6
  -6  -5   3 -1.5723 1.13782  10
  -6  -5   3 -0.5255 1.13066   1
  -6  -5   3 1.39074 1.19750   3
   5   5  -3 12.4107 1.64685   1
   5   5  -3 17.4325 1.86662   3
   5   5  -3 9.21175 1.36355  12
   5   5  -3 11.8735 1.68401   6
   5   5  -3 15.6107 2.27859   1
  -5  -5   3 10.5053 1.56359  10
  -5  -5   3 12.8851 1.82427   4
  -5  -5   3 12.6890 1.64305   9
  -5  -5   3 11.7666 1.51682   8
  -5  -5   3 12.1504 1.82269   1
  -5  -5   3 13.6812 1.73582   3
  -5  -5   3 14.0237 1.74827   6
  -5  -5   3 10.2633 1.44481   1
   4   5  -3 38.2372 2.77931   1
   4   5  -3 33.9111 2.69169   1
   4   5  -3 33.4290 2.39083  12
   4   5  -3 35.9094 2.56209   6
   4   5  -3 38.8671 2.51440   3
  -4  -5   3 35.6664 2.55467  10
  -4  -5   3 35.1104 2.54622   8
  -4  -5   3 34.3776 2.58240   3
  -4  -5   3 35.6586 2.56078   1
  -4  -5   3 36.9688 2.63039   6
  -4  -5   3 36.9826 2.71875   1
  -4  -5   3 31.5454 2.45905   4
  -4  -5   3 35.7223 2.34370   2
   3   5  -3 221.880 9.64971   1
   3   5  -3 218.716 9.57109   4
   3   5  -3 197.107 9.50710   1
   3   5  -3 224.282 9.64961  10
   3   5  -3 217.776 9.49235   3
   3   5  -3 216.907 9.31065   8
   3   5  -3 194.419 9.46861   6
  -3  -5   3 205.684 9.61215   1
  -3  -5   3 216.667 9.41316   2
  -3  -5   3 207.130 9.33689   8
  -3  -5   3 197.803 9.51610   4
  -3  -5   3 206.793 9.48592   3
  -3  -5   3 212.230 9.55137   6
  -3  -5   3 217.849 9.60021   1
   2   5  -3 140.375 7.05956   1
   2   5  -3 161.485 7.18303   4
   2   5  -3 158.600 7.04627   3
   2   5  -3 155.822 7.22991   1
   2   5  -3 156.310 7.18959  10
   2   5  -3 155.907 6.86032   8
   2   5  -3 145.532 7.05642   6
  -2  -5   3 148.136 7.19149  10
  -2  -5   3 146.047 7.10902   4
  -2  -5   3 149.544 7.21852   1
  -2  -5   3 162.714 7.17624   2
  -2  -5   3 151.820 7.04399   3
  -2  -5   3 150.407 6.88943   8
  -2  -5   3 159.187 7.19730   1
  -2  -5   3 160.880 7.15720   6
   1   5  -3 153.399 6.65850   8
   1   5  -3 155.463 7.03176   4
   1   5  -3 142.900 6.88314   6
   1   5  -3 138.779 6.88227   1
   1   5  -3 161.312 7.13018   1
   1   5  -3 151.250 7.01439  10
   1   5  -3 153.791 6.86262   3
  -1  -5   3 140.498 6.93434   4
  -1  -5   3 143.921 6.65578   8
  -1  -5   3 153.781 7.06393   2
  -1  -5   3 158.512 7.02547   1
  -1  -5   3 152.459 7.05572   1
  -1  -5   3 141.830 6.82279   3
  -1  -5   3 139.468 6.95888  10
  -1  -5   3 153.267 6.94756   6
   0   5  -3 48.0095 2.91903   4
   0   5  -3 47.2824 2.80557   3
   0   5  -3 48.7552 3.16616   1
   0   5  -3 46.7447 2.92407  10
   0   5  -3 41.5981 2.61752   1
   0   5  -3 46.6663 2.53251   8
   0   5  -3 41.8739 2.55617   6
   0  -5   3 43.1447 2.93707   2
   0  -5   3 43.6647 2.89345  10
   0  -5   3 43.8940 2.91082   4
   0  -5   3 45.6171 2.91065  11
   0  -5   3 47.1508 3.09900   1
   0  -5   3 45.1013 2.79511   1
   0  -5   3 41.5594 2.51422   8
   0  -5   3 45.0514 2.93571   5
   0  -5   3 42.4831 2.78851   3
   0  -5   3 50.7677 2.79187   6
  -1   5  -3 25.6947 2.26699   4
  -1   5  -3 25.8105 2.55692   1
  -1   5  -3 15.8575 1.80077   1
  -1   5  -3 21.8643 2.08955   3
  -1   5  -3 17.9083 1.69346   6
  -1   5  -3 16.9099 2.16934  10
  -1   5  -3 18.5922 1.81388   8
   1  -5   3 17.5181 2.35733   1
   1  -5   3 19.9940 2.28524   2
   1  -5   3 18.9937 2.30028  10
   1  -5   3 17.3849 2.37920  11
   1  -5   3 20.5104 2.01441   1
   1  -5   3 21.8963 1.89394   6
   1  -5   3 20.3060 2.26361   4
   1  -5   3 19.7719 2.09660   9
   1  -5   3 16.7196 2.30931   5
  -2   5  -3 19.8369 2.38903  10
  -2   5  -3 12.9668 1.87240   1
  -2   5  -3 19.1970 2.35183   3
  -2   5  -3 16.9104 2.41763   4
  -2   5  -3 18.4555 2.09912   8
  -2   5  -3 22.7573 2.66623   1
  -2   5  -3 14.0300 1.78841   6
   2  -5   3 17.0695 2.50576  11
   2  -5   3 16.6207 2.01362  10
   2  -5   3 12.6419 1.83013   5
   2  -5   3 14.5409 1.77069   4
   2  -5   3 18.1215 2.36789   9
   2  -5   3 16.2256 2.24936   1
   2  -5   3 18.2531 2.16807   6
   2  -5   3 19.4479 2.49305   1
   2  -5   3 20.3070 2.38157   2
  -3   5  -3 48.9049 3.45826   6
  -3   5  -3 62.5980 3.60628   8
  -3   5  -3 53.7101 4.10895  10
  -3   5  -3 58.3481 4.08050   4
  -3   5  -3 63.6915 3.90934   3
  -3   5  -3 62.6957 4.09497   1
  -3   5  -3 51.8318 3.52726   1
   3  -5   3 52.9043 4.20794   4
   3  -5   3 66.9098 3.89246   2
   3  -5   3 58.7512 3.98942   9
   3  -5   3 59.3266 4.24567  11
   3  -5   3 53.9652 4.29228   5
   3  -5   3 60.9124 3.70914   6
   3  -5   3 61.2539 3.81620   1
   3  -5   3 64.3059 3.91157   1
  -4   5  -3 5.14948 1.67945   1
  -4   5  -3 6.34296 2.14662   3
  -4   5  -3 6.28847 1.58117   6
  -4   5  -3 3.76981 1.94130  10
  -4   5  -3 3.92342 2.02620   1
  -4   5  -3 2.06247 2.03217   5
  -4   5  -3 5.87389 2.04779   4
  -4   5  -3 7.72792 1.89435   8
   4  -5   3 2.49734 1.78584   1
   4  -5   3 5.95998 2.16600   9
   4  -5   3 5.22502 2.32292   5
   4  -5   3 6.28602 2.32754  11
   4  -5   3 4.81115 2.33958   2
   4  -5   3 5.61473 1.94086   1
   4  -5   3 6.86560 1.78838   6
  -5   5  -3 0.33563 2.41258   8
  -5   5  -3 -3.3550 2.12739   1
  -5   5  -3 0.82183 2.70159   3
  -5   5  -3 -3.9013 2.03180   1
  -5   5  -3 1.53484 2.34411   4
  -5   5  -3 -3.8122 2.63137   5
  -5   5  -3 -1.8641 2.24620  10
  -5   5  -3 -1.6530 1.80980   6
   5  -5   3 2.26682 2.01870   6
   5  -5   3 1.81968 2.98078  11
   5  -5   3 -2.4095 2.66359   9
   5  -5   3 -4.4320 2.12316   1
   5  -5   3 -0.1253 2.90919   2
  10   4  -3 11.7036 3.33316   6
  10   4  -3 8.12365 2.50018   6
  10   4  -3 13.8710 2.84477   1
  10   4  -3 5.83234 3.35224   1
 -10  -4   3 2.56467 2.89271   1
 -10  -4   3 5.36109 3.26459   4
 -10  -4   3 5.87354 3.35697   1
   9   4  -3 58.3078 4.84554   6
   9   4  -3 55.1668 4.04690   6
   9   4  -3 55.2117 4.33145   1
   9   4  -3 55.1919 5.21402   1
  -9  -4   3 60.1580 5.26269   1
  -9  -4   3 46.4064 4.96582   4
  -9  -4   3 50.7450 4.16887   1
  -9  -4   3 51.3965 4.14448   8
   8   4  -3 89.4649 5.19462   6
   8   4  -3 86.5644 5.54749   1
   8   4  -3 88.5668 5.38751   6
   8   4  -3 93.0742 5.11772   1
  -8  -4   3 85.7195 5.45560   4
  -8  -4   3 96.4432 5.59730   6
  -8  -4   3 93.0944 5.65281   1
   7   4  -3 23.0940 2.17744   6
   7   4  -3 23.6295 2.44949   1
   7   4  -3 20.3563 2.73506   6
   7   4  -3 19.8808 2.38674   1
  -7  -4   3 19.0223 2.32308   8
  -7  -4   3 23.2515 2.68778   1
  -7  -4   3 22.5228 2.86864   1
  -7  -4   3 20.5686 2.48368   9
  -7  -4   3 20.7075 2.68120   4
  -7  -4   3 18.0253 2.26449   6
   6   4  -3 44.2953 3.20672   6
   6   4  -3 41.8669 3.32461   1
   6   4  -3 48.2332 2.95145   6
   6   4  -3 48.2788 3.08205   1
  -6  -4   3 51.2335 3.45565   1
  -6  -4   3 50.0759 3.32795   6
  -6  -4   3 46.3578 3.25124  10
  -6  -4   3 43.8356 3.07054   8
  -6  -4   3 48.3227 3.06446   4
  -6  -4   3 47.7437 3.21361   3
  -6  -4   3 44.6022 2.99153   1
  -6  -4   3 43.6469 3.19095   9
   5   4  -3 63.6318 3.68219   6
   5   4  -3 65.6205 3.67823   1
   5   4  -3 65.5810 3.62480  12
   5   4  -3 64.0842 3.78755   1
  -5  -4   3 66.2028 3.58980   8
  -5  -4   3 60.2344 3.65084   1
  -5  -4   3 62.7877 3.70679  10
  -5  -4   3 64.2967 3.77066   1
  -5  -4   3 64.2303 3.69510   6
  -5  -4   3 64.8489 3.62493   4
  -5  -4   3 68.0845 3.74822   9
  -5  -4   3 62.4833 3.68322   3
   4   4  -3 11.9888 1.53972  12
   4   4  -3 13.6751 1.62371   1
   4   4  -3 15.4408 1.64803   3
   4   4  -3 13.5811 1.59161   1
   4   4  -3 11.5119 1.41078   6
  -4  -4   3 11.9792 1.69758  10
  -4  -4   3 14.4984 1.76413   6
  -4  -4   3 14.1533 1.50952   8
  -4  -4   3 11.4465 1.56110   1
  -4  -4   3 13.3815 1.76535   1
  -4  -4   3 10.8689 1.38823   4
  -4  -4   3 11.7773 1.47767   3
  -4  -4   3 12.5988 1.78582   9
   3   4  -3 133.750 6.61348   1
   3   4  -3 147.640 6.58007   3
   3   4  -3 146.001 6.60571  12
   3   4  -3 131.274 6.56789   6
   3   4  -3 157.477 6.72795   4
   3   4  -3 154.918 6.80670   1
  -3  -4   3 137.705 6.72426  10
  -3  -4   3 147.176 6.70486   1
  -3  -4   3 134.323 6.68192   1
  -3  -4   3 139.896 6.61006   3
  -3  -4   3 145.388 6.66584   6
  -3  -4   3 140.443 6.48053   8
  -3  -4   3 143.890 6.46968   2
   2   4  -3 17.9224 1.67623   1
   2   4  -3 16.9069 1.90975   1
   2   4  -3 17.0548 1.75073  10
   2   4  -3 18.9350 1.87351   2
   2   4  -3 18.4592 1.61306   3
   2   4  -3 15.9596 1.52237   6
   2   4  -3 16.4380 1.43750   8
   2   4  -3 16.5077 1.76951   4
  -2  -4   3 15.9122 1.74476   2
  -2  -4   3 18.3854 1.71679   4
  -2  -4   3 15.8007 1.68475   3
  -2  -4   3 17.9158 1.76989  10
  -2  -4   3 14.4562 1.46338   8
  -2  -4   3 17.6389 1.89534   1
  -2  -4   3 18.7685 1.65325   6
  -2  -4   3 16.6070 1.72625   1
   1   4  -3 10.7773 1.33680   6
   1   4  -3 11.0444 1.43121   1
   1   4  -3 12.5623 1.45663   1
   1   4  -3 9.84211 1.52385  10
   1   4  -3 12.3155 1.54928   2
   1   4  -3 14.1313 1.64104   4
   1   4  -3 11.5184 1.44310   3
   1   4  -3 12.2361 1.20228   8
  -1  -4   3 11.8533 1.58333   1
  -1  -4   3 11.3261 1.63856   2
  -1  -4   3 11.7061 1.42146   1
  -1  -4   3 11.9689 1.20235   7
  -1  -4   3 9.67611 1.45674   4
  -1  -4   3 12.1668 1.25395   8
  -1  -4   3 11.8460 1.48870   3
  -1  -4   3 13.0243 1.67743  10
  -1  -4   3 11.6750 1.43216   6
   0   4  -3 79.0760 3.83436   4
   0   4  -3 66.9526 3.56513   6
   0   4  -3 74.7950 3.56031   3
   0   4  -3 77.9216 3.90215   1
   0   4  -3 70.4944 4.03671   2
   0   4  -3 68.1976 3.57472   1
   0   4  -3 70.1446 3.35065   8
   0   4  -3 75.8971 3.78903  10
   0  -4   3 71.6299 3.82562   1
   0  -4   3 66.4276 3.75730   5
   0  -4   3 70.5602 3.77785   4
   0  -4   3 71.1454 3.56675   3
   0  -4   3 74.7190 3.90132   2
   0  -4   3 73.6376 3.72696   1
   0  -4   3 67.4203 3.79590  10
   0  -4   3 77.8457 3.67746   6
   0  -4   3 67.4657 3.67033  11
  -1   4  -3 3.64551 1.06220  10
  -1   4  -3 3.03795 0.88135   1
  -1   4  -3 3.93652 0.89417   8
  -1   4  -3 2.47677 0.98676   3
  -1   4  -3 3.17627 1.51794   2
  -1   4  -3 3.43542 1.29870   1
  -1   4  -3 4.70549 1.05817   4
  -1   4  -3 2.59947 0.83595   6
   1  -4   3 3.16631 0.97119   6
   1  -4   3 2.69546 1.21748   2
   1  -4   3 2.80731 1.16925   1
   1  -4   3 3.07293 1.12081  11
   1  -4   3 3.10939 1.12281  10
   1  -4   3 2.99295 1.14103   5
   1  -4   3 3.77520 0.98978   1
   1  -4   3 3.68788 1.10764   4
  -2   4  -3 106.591 5.52328   4
  -2   4  -3 115.120 5.10865   8
  -2   4  -3 108.783 5.83580   2
  -2   4  -3 112.624 5.29352   3
  -2   4  -3 100.230 5.17421   1
  -2   4  -3 100.875 5.15790   6
  -2   4  -3 119.017 5.63126  10
  -2   4  -3 118.945 5.47491   1
   2  -4   3 105.518 5.56789   4
   2  -4   3 103.900 5.50828   5
   2  -4   3 117.876 5.36195   1
   2  -4   3 111.244 5.38523   1
   2  -4   3 103.970 5.36507  11
   2  -4   3 106.394 5.20056   9
   2  -4   3 103.718 5.65404  10
   2  -4   3 123.714 5.33653   6
   2  -4   3 112.580 5.64443   2
  -3   4  -3 222.959 9.59688   8
  -3   4  -3 227.851 9.76968   1
  -3   4  -3 230.189 10.2881   2
  -3   4  -3 218.383 9.99141   5
  -3   4  -3 218.302 10.0790  10
  -3   4  -3 199.189 9.57528   1
  -3   4  -3 214.203 9.76897   3
  -3   4  -3 194.618 9.55867   6
  -3   4  -3 229.346 10.0555   4
   3  -4   3 202.426 10.0218   5
   3  -4   3 234.977 10.1539   2
   3  -4   3 220.369 9.68487   1
   3  -4   3 199.772 9.84787  11
   3  -4   3 228.921 9.67202   6
   3  -4   3 188.405 10.0156   4
   3  -4   3 223.468 9.70570   1
   3  -4   3 214.556 9.76705   9
  -4   4  -3 21.3475 2.47680   5
  -4   4  -3 23.4157 2.74147   8
  -4   4  -3 18.4039 2.26965   6
  -4   4  -3 22.3687 3.24592   4
  -4   4  -3 21.1588 3.15697  10
  -4   4  -3 25.2834 2.98429   3
  -4   4  -3 16.9096 2.04327   1
  -4   4  -3 19.5243 2.44533   1
   4  -4   3 18.4147 2.51120   5
   4  -4   3 25.3017 2.94726   2
   4  -4   3 17.3843 2.36980  11
   4  -4   3 18.0229 2.01877   1
   4  -4   3 21.8504 3.15505   9
   4  -4   3 19.6493 1.94199   6
  -5   4  -3 8.06886 2.36581   8
  -5   4  -3 5.06457 1.84073   1
  -5   4  -3 7.71962 2.27584   4
  -5   4  -3 8.93424 2.30164   3
  -5   4  -3 8.89626 2.28185  10
  -5   4  -3 7.30715 2.22109  11
  -5   4  -3 6.74477 2.50651   5
  -5   4  -3 9.37216 1.96122   1
   5  -4   3 8.65759 2.57253   5
   5  -4   3 6.64476 2.58611  11
   5  -4   3 8.49176 2.43416   9
   5  -4   3 7.50209 1.81702   1
   5  -4   3 6.66203 1.79108   1
   5  -4   3 12.2289 2.90130   2
  -6   4  -3 4.03105 3.00638   3
  -6   4  -3 3.29908 3.11289   5
  -6   4  -3 -1.6208 2.77662  10
  -6   4  -3 3.79926 2.75945  11
  -6   4  -3 3.95318 2.95476   8
  -6   4  -3 4.45158 2.88131   4
   6  -4   3 -1.7078 3.26027  11
  10   3  -3 20.8532 3.33891   1
  10   3  -3 11.9972 3.73776   1
  10   3  -3 14.0473 3.47766   6
  10   3  -3 16.7377 2.59169   6
 -10  -3   3 12.7424 3.29073  12
 -10  -3   3 20.3878 3.11115   1
 -10  -3   3 17.9013 3.76153   1
   9   3  -3 13.7658 2.18848   1
   9   3  -3 11.0373 2.75956   1
   9   3  -3 11.1740 1.90334   6
   9   3  -3 13.1617 2.58261   6
  -9  -3   3 13.5960 2.97931   1
  -9  -3   3 14.4171 1.97138   8
  -9  -3   3 6.61152 2.35944  12
  -9  -3   3 12.9195 2.28572   1
   8   3  -3 2.69715 1.89488   6
   8   3  -3 4.89487 2.00707   1
   8   3  -3 4.88597 1.46534   6
   8   3  -3 5.79091 1.65708   1
  -8  -3   3 4.74993 2.08694   1
  -8  -3   3 3.28492 1.48700  12
  -8  -3   3 5.52948 1.76664   1
   7   3  -3 4.43000 1.41082   1
   7   3  -3 0.81540 1.08776   6
   7   3  -3 4.97466 1.72136   1
   7   3  -3 3.82135 1.61685   6
  -7  -3   3 3.47417 1.20175   8
  -7  -3   3 3.76392 1.15878   1
  -7  -3   3 4.36640 1.29978   9
  -7  -3   3 5.44214 1.74097   1
  -7  -3   3 3.18276 1.43127  12
  -7  -3   3 7.45047 1.75670   6
   6   3  -3 58.3769 3.47508   6
   6   3  -3 58.5908 3.79267   1
   6   3  -3 62.3616 3.75334   6
   6   3  -3 61.7612 3.62814   1
  -6  -3   3 55.7173 3.55873  12
  -6  -3   3 65.3239 3.77233   6
  -6  -3   3 63.9731 3.82368   1
  -6  -3   3 60.3757 3.61211   3
  -6  -3   3 63.3494 3.72962   9
  -6  -3   3 54.4882 3.39275   8
  -6  -3   3 61.3528 3.59915  11
   5   3  -3 163.576 7.93793   1
   5   3  -3 172.708 7.90384   1
   5   3  -3 169.335 7.91332   6
   5   3  -3 173.064 7.85124   6
  -5  -3   3 173.674 7.98624   1
  -5  -3   3 178.582 7.95408   6
  -5  -3   3 166.478 7.88269   1
  -5  -3   3 165.524 7.95872  12
  -5  -3   3 165.785 7.91265   3
  -5  -3   3 171.121 7.77936   8
  -5  -3   3 175.104 7.94928   9
  -5  -3   3 165.268 7.88482   4
  -5  -3   3 175.353 7.93921  11
   4   3  -3 133.178 6.59988   1
   4   3  -3 135.580 6.58309   6
   4   3  -3 147.283 6.61896   6
   4   3  -3 147.244 6.68552   1
   4   3  -3 142.819 6.58853  12
  -4  -3   3 138.820 6.61639   1
  -4  -3   3 138.828 6.60555   3
  -4  -3   3 144.502 6.67358   1
  -4  -3   3 135.956 6.62274   4
  -4  -3   3 147.339 6.60357   9
  -4  -3   3 139.780 6.69098  10
  -4  -3   3 139.904 6.46591   8
  -4  -3   3 148.304 6.65406   6
   3   3  -3 10.8570 1.40414   3
   3   3  -3 10.6982 1.36481   1
   3   3  -3 11.0162 1.33322  12
   3   3  -3 9.30081 1.38428   2
   3   3  -3 11.3155 1.29673   6
   3   3  -3 10.4914 1.51875   1
  -3  -3   3 11.9925 1.50607   1
  -3  -3   3 10.6237 1.23609   3
  -3  -3   3 8.94047 1.37429  10
  -3  -3   3 11.5426 1.34622   8
  -3  -3   3 12.5102 1.40929   9
  -3  -3   3 11.5639 1.37252   6
  -3  -3   3 8.63224 1.22985   4
  -3  -3   3 10.3589 1.48748   1
   2   3  -3 36.3181 2.08767   3
   2   3  -3 35.9553 2.36162  10
   2   3  -3 35.2504 2.43480   1
   2   3  -3 39.0558 2.29410   4
   2   3  -3 31.5048 2.18552   1
   2   3  -3 36.4902 2.19182  12
   2   3  -3 34.1191 2.26645   2
   2   3  -3 32.3142 2.14993   6
  -2  -3   3 35.2012 2.15276   3
  -2  -3   3 33.5933 2.31231  10
  -2  -3   3 35.9655 2.27791   1
  -2  -3   3 35.0414 2.34637   1
  -2  -3   3 33.8818 2.08791   7
  -2  -3   3 34.8428 1.97365   8
  -2  -3   3 34.6144 2.04933   9
  -2  -3   3 37.4218 2.24535   6
  -2  -3   3 35.7511 2.19440   2
  -2  -3   3 33.8791 2.18214   4
   1   3  -3 63.0665 3.28518   1
   1   3  -3 63.9181 3.22749  10
   1   3  -3 56.6947 3.24435   2
   1   3  -3 61.5477 2.95428   3
   1   3  -3 56.0909 3.08228   1
   1   3  -3 55.1752 3.01759   6
   1   3  -3 62.2598 3.20794   4
  -1  -3   3 59.2293 3.21109   1
  -1  -3   3 61.0356 3.21718   2
  -1  -3   3 57.2633 2.90280   3
  -1  -3   3 57.3482 2.74770   8
  -1  -3   3 61.4937 3.07614   6
  -1  -3   3 57.4041 2.88944   7
  -1  -3   3 60.8523 3.12301   1
  -1  -3   3 58.7366 3.11288   4
  -1  -3   3 58.4266 3.16364  10
   0   3  -3 16.2500 1.37765   6
   0   3  -3 18.3490 1.39283   3
   0   3  -3 19.9223 1.74368   4
   0   3  -3 15.7184 1.44146   1
   0   3  -3 18.2965 1.76887  10
   0   3  -3 21.2839 1.85587   1
   0   3  -3 16.6315 1.86506   2
   0  -3   3 20.2908 1.59640   1
   0  -3   3 18.9077 1.52106   6
   0  -3   3 18.6147 1.56952  11
   0  -3   3 19.0707 1.77592   1
   0  -3   3 19.1572 1.74675   2
   0  -3   3 18.0338 1.69855   4
   0  -3   3 18.2218 1.68279   5
   0  -3   3 17.2182 1.75122  10
  -1   3  -3 0.61538 0.74806   1
  -1   3  -3 -0.0854 0.84925   1
  -1   3  -3 0.09401 0.61286   8
  -1   3  -3 0.70771 0.81087   4
  -1   3  -3 -1.2139 0.75875   3
  -1   3  -3 1.38430 0.95041  10
  -1   3  -3 0.58764 1.14321   2
  -1   3  -3 0.13339 0.65543   6
   1  -3   3 0.64541 0.82601   1
   1  -3   3 -1.1292 0.86834  11
   1  -3   3 0.06045 0.91395   1
   1  -3   3 0.33662 0.90841  10
   1  -3   3 -0.1597 0.74413   6
   1  -3   3 -0.3357 0.88233   5
   1  -3   3 -0.2344 0.90025   4
   1  -3   3 0.05584 1.02979   2
  -2   3  -3 140.361 6.56787   6
  -2   3  -3 149.996 6.95290  10
  -2   3  -3 150.033 6.47625   8
  -2   3  -3 148.643 6.86375   4
  -2   3  -3 144.902 7.12185   2
  -2   3  -3 155.971 6.73010   1
  -2   3  -3 150.258 6.61920   3
  -2   3  -3 141.197 6.58677   1
   2  -3   3 142.594 6.84578   5
   2  -3   3 147.062 6.65220   1
   2  -3   3 137.152 6.87242   4
   2  -3   3 135.309 6.64130  11
   2  -3   3 155.325 7.09846   2
   2  -3   3 153.589 6.61813   6
   2  -3   3 140.589 6.95756  10
   2  -3   3 152.900 6.66123   1
  -3   3  -3 161.963 7.17954   3
  -3   3  -3 158.900 7.70485   2
  -3   3  -3 154.710 7.49434   4
  -3   3  -3 157.820 7.10557   1
  -3   3  -3 143.407 6.99383   1
  -3   3  -3 153.556 7.47107  10
  -3   3  -3 140.204 6.97516   6
  -3   3  -3 163.957 7.07674   8
  -3   3  -3 156.048 7.40530   5
   3  -3   3 157.517 7.24598   9
   3  -3   3 152.325 7.27196  11
   3  -3   3 165.170 7.58097   2
   3  -3   3 153.963 7.47703   4
   3  -3   3 166.821 7.09468   1
   3  -3   3 164.045 7.05526   6
   3  -3   3 149.751 7.48812   5
  -4   3  -3 70.6963 4.25651  10
  -4   3  -3 70.1330 4.63528   2
  -4   3  -3 66.7175 4.36358   5
  -4   3  -3 63.8711 3.48816   1
  -4   3  -3 71.0701 4.33235   4
  -4   3  -3 63.6085 3.61134   1
   4  -3   3 60.9908 4.14772   9
   4  -3   3 65.6348 3.56950   1
   4  -3   3 60.8694 4.22612  11
   4  -3   3 80.5606 4.46495   2
   4  -3   3 62.5887 4.42771   5
  -5   3  -3 11.5062 2.36360  10
  -5   3  -3 13.0102 2.33647   4
  -5   3  -3 13.6246 2.11818  11
  -5   3  -3 23.2378 3.28790   2
  -5   3  -3 15.2497 2.49806   5
   5  -3   3 13.6419 2.44342  11
  -6   3  -3 8.74059 2.85875   5
  -6   3  -3 1.34140 2.49010  10
  -6   3  -3 7.88807 2.39046  11
  -6   3  -3 2.52128 2.68602   4
  10   2  -3 16.1660 3.48172   6
  10   2  -3 18.3138 2.73340   6
  10   2  -3 20.2176 3.69150   1
  10   2  -3 22.3083 3.16117   1
 -10  -2   3 17.9845 3.77776   1
 -10  -2   3 17.6600 3.16400   1
 -10  -2   3 16.7273 3.48281   7
 -10  -2   3 16.8297 3.39296  12
   9   2  -3 22.4548 2.73318   6
   9   2  -3 20.8226 2.97846   6
   9   2  -3 23.5150 3.21576   1
   9   2  -3 21.9204 2.71182   1
  -9  -2   3 21.4459 2.87476   1
  -9  -2   3 23.1362 3.16931   1
  -9  -2   3 27.8222 3.41463   7
  -9  -2   3 27.2204 3.43242  12
   8   2  -3 22.8184 2.41333   6
   8   2  -3 19.3909 2.45028   6
   8   2  -3 21.0685 2.61632   1
   8   2  -3 21.5112 2.63192   1
  -8  -2   3 17.4368 2.25046  12
  -8  -2   3 18.5171 2.38569   1
  -8  -2   3 22.2393 2.64101   1
   7   2  -3 11.6075 1.75155   1
   7   2  -3 9.68882 1.83609   6
   7   2  -3 14.0652 1.86208   6
   7   2  -3 11.0568 2.02530   1
  -7  -2   3 10.9828 1.75947   9
  -7  -2   3 9.23795 1.56284   1
  -7  -2   3 8.33527 1.99569   1
  -7  -2   3 11.0812 1.73985  12
   6   2  -3 102.805 5.12000   6
   6   2  -3 99.7916 5.38974   1
   6   2  -3 100.119 5.30374   6
   6   2  -3 102.659 5.18906   1
  -6  -2   3 101.643 5.32668   1
  -6  -2   3 110.343 5.32375   6
  -6  -2   3 104.500 5.23761  11
  -6  -2   3 104.575 5.27553   9
  -6  -2   3 98.1561 5.26437  12
  -6  -2   3 103.093 5.23573   3
  -6  -2   3 95.4093 5.17053   1
   5   2  -3 339.396 15.6603   1
   5   2  -3 370.283 15.6486   6
   5   2  -3 352.187 15.6493   6
   5   2  -3 367.594 15.6894   1
  -5  -2   3 374.727 15.7090   1
  -5  -2   3 341.596 15.6832  12
  -5  -2   3 346.760 15.6610   3
  -5  -2   3 368.590 15.6776   9
  -5  -2   3 373.775 15.6768   6
  -5  -2   3 360.373 15.6980  11
  -5  -2   3 346.081 15.6694   1
   4   2  -3 11.4871 1.38564   1
   4   2  -3 11.0711 1.51263   6
   4   2  -3 9.41867 1.23675   6
   4   2  -3 11.6881 1.45576   1
  -4  -2   3 10.0588 1.26473   6
  -4  -2   3 9.84264 1.41717   1
  -4  -2   3 10.3006 1.57234   9
  -4  -2   3 10.3008 1.34220   1
  -4  -2   3 11.2207 1.24374   7
  -4  -2   3 10.0403 1.24473  11
  -4  -2   3 11.0108 1.40308   3
  -4  -2   3 10.4508 1.47830  12
   3   2  -3 49.1193 2.68462  12
   3   2  -3 46.0998 2.75011   1
   3   2  -3 43.4415 2.68527   6
   3   2  -3 48.2611 2.53177   2
   3   2  -3 51.6009 2.76493   6
   3   2  -3 50.2641 2.84625   1
  -3  -2   3 45.3392 2.93044  10
  -3  -2   3 48.2033 2.75846  12
  -3  -2   3 51.5032 2.70755   7
  -3  -2   3 46.8208 2.72709   4
  -3  -2   3 48.6432 2.75697   1
  -3  -2   3 46.9175 2.78740   1
  -3  -2   3 47.2512 2.67594   3
  -3  -2   3 53.9062 2.73360   6
  -3  -2   3 53.9668 2.70805   9
   2   2  -3 359.855 15.9922   2
   2   2  -3 361.261 16.0766   6
   2   2  -3 394.152 16.1552   1
   2   2  -3 402.304 16.0466  12
   2   2  -3 353.509 16.0785   1
  -2  -2   3 365.715 16.1160   1
  -2  -2   3 365.234 16.1159  10
  -2  -2   3 398.234 16.1398   1
  -2  -2   3 364.393 15.9555   7
  -2  -2   3 371.814 15.9527   3
  -2  -2   3 360.452 15.8465   8
  -2  -2   3 366.347 16.0760   4
  -2  -2   3 377.659 15.9044   9
  -2  -2   3 398.102 16.1161   6
   1   2  -3 140.447 6.17796   1
   1   2  -3 136.331 5.86469   3
   1   2  -3 139.072 6.12955   4
   1   2  -3 124.361 6.04452   1
   1   2  -3 125.730 6.02129   6
   1   2  -3 140.368 5.97029  12
   1   2  -3 126.023 6.14165   2
   1   2  -3 148.033 6.20033  10
  -1  -2   3 135.506 5.91899   7
  -1  -2   3 130.116 5.84364   3
  -1  -2   3 129.419 6.09992  10
  -1  -2   3 131.122 6.11594   1
  -1  -2   3 128.892 6.05839   4
  -1  -2   3 135.538 6.09673   1
  -1  -2   3 138.246 6.06843   6
   0   2  -3 53.0971 2.74083   6
   0   2  -3 54.5437 2.53138   3
   0   2  -3 51.2074 2.76738   1
   0   2  -3 57.0098 2.96119  10
   0   2  -3 53.9405 3.12160   2
   0   2  -3 57.2404 2.96770   1
   0   2  -3 53.0133 2.64887   7
   0   2  -3 55.1849 2.94314   4
   0  -2   3 58.0621 2.85459   1
   0  -2   3 53.7664 2.59033   7
   0  -2   3 54.3054 2.93013  10
   0  -2   3 54.4283 2.91579   1
   0  -2   3 56.5127 2.81443   6
   0  -2   3 55.1905 2.87950   4
   0  -2   3 56.5471 3.05743   2
   0  -2   3 53.8900 2.78366   5
  -1   2  -3 29.0548 1.56911   3
  -1   2  -3 30.9613 1.96648   1
  -1   2  -3 31.5711 2.08052   4
  -1   2  -3 29.7145 2.41273   2
  -1   2  -3 29.8347 1.76722   1
  -1   2  -3 26.6574 1.72900   6
  -1   2  -3 31.0069 2.06287  10
   1  -2   3 30.6933 1.81199   6
   1  -2   3 27.2554 2.04161  10
   1  -2   3 27.6663 1.85135   1
   1  -2   3 27.1992 2.02604   4
   1  -2   3 23.0918 2.20833   2
   1  -2   3 30.5709 1.84854   1
   1  -2   3 24.7368 1.88021   5
  -2   2  -3 19.4248 2.30006   2
  -2   2  -3 19.9249 1.91663   5
  -2   2  -3 20.2341 1.52381   1
  -2   2  -3 22.4629 1.71386   1
  -2   2  -3 17.6554 2.00216  10
  -2   2  -3 20.9938 1.43540   6
  -2   2  -3 19.0393 1.99659   4
  -2   2  -3 20.4213 1.64607   3
   2  -2   3 19.7146 1.97904   5
   2  -2   3 14.7725 1.97552   4
   2  -2   3 19.8537 2.09927  10
   2  -2   3 22.6450 1.59784   1
   2  -2   3 21.7020 1.55807   6
   2  -2   3 20.2024 2.11626   2
  -3   2  -3 30.7263 2.48104   5
  -3   2  -3 24.2042 2.44373   4
  -3   2  -3 23.6202 2.36294  10
  -3   2  -3 27.9430 2.68463   2
   3  -2   3 23.9173 2.33819   4
   3  -2   3 27.1827 2.44935   5
  -4   2  -3 28.7497 3.32828   2
  -4   2  -3 32.6674 2.96097   5
  -4   2  -3 31.0084 2.87042   4
  -4   2  -3 30.3124 2.81583  10
  -5   2  -3 8.65211 1.91785   4
  -5   2  -3 6.16582 1.85074  10
  -5   2  -3 9.96462 2.49678   2
  -5   2  -3 9.90909 1.97116   5
  -5   2  -3 8.46346 1.75368  11
  -6   2  -3 13.0302 2.23901  11
  -6   2  -3 8.33699 2.75078   5
  -6   2  -3 11.6363 2.46046   4
  -6   2  -3 11.9417 2.49052   8
  -6   2  -3 9.73896 2.60724  12
  -6   2  -3 10.8735 2.40736  10
  -6   2  -3 5.89435 3.24744   2
  -6   2  -3 11.1287 2.63356   3
  10   1  -3 8.09302 2.78621   6
  10   1  -3 8.11485 3.09889   6
  10   1  -3 13.9713 2.96937   1
  10   1  -3 4.07236 3.35092   1
 -10  -1   3 5.31764 3.13465  12
 -10  -1   3 8.52256 3.71008   1
 -10  -1   3 8.09359 2.95988   1
 -10  -1   3 7.39034 3.13615   7
   9   1  -3 30.6685 4.17177   6
   9   1  -3 33.1338 3.03291   6
   9   1  -3 30.9572 3.52756   1
   9   1  -3 33.3546 4.66913   1
  -9  -1   3 34.0909 4.50049   1
  -9  -1   3 25.2031 3.85513   1
  -9  -1   3 33.9553 3.86868   7
  -9  -1   3 33.9613 3.72550  12
   8   1  -3 174.042 8.18094   1
   8   1  -3 166.187 8.49616   1
   8   1  -3 165.088 8.38239   6
   8   1  -3 169.634 7.98433   6
  -8  -1   3 175.096 8.17325   7
  -8  -1   3 179.319 8.49457   1
  -8  -1   3 156.407 8.04087   1
  -8  -1   3 153.877 8.19134  12
   7   1  -3 307.395 14.0270   6
   7   1  -3 313.194 14.1280   1
   7   1  -3 294.639 14.0810   9
   7   1  -3 321.265 13.9458   1
   7   1  -3 323.235 13.9079   6
  -7  -1   3 320.247 13.9360   7
  -7  -1   3 301.326 13.9041   1
  -7  -1   3 301.344 14.1095  12
  -7  -1   3 323.537 14.0830   1
  -7  -1   3 320.747 14.1431   9
   6   1  -3 206.737 9.35096   1
   6   1  -3 201.275 9.49160   1
   6   1  -3 194.696 9.38831   9
   6   1  -3 195.881 9.39500   6
   6   1  -3 211.441 9.30758   6
  -6  -1   3 213.459 9.46929   9
  -6  -1   3 214.082 9.49015   1
  -6  -1   3 201.255 9.35162   1
  -6  -1   3 193.585 9.40125  12
   5   1  -3 344.424 15.6981   9
   5   1  -3 369.285 15.7261   1
   5   1  -3 380.263 15.7039   6
   5   1  -3 344.881 15.6966   1
   5   1  -3 348.075 15.6633   6
  -5  -1   3 377.575 15.7565   1
  -5  -1   3 334.088 15.6920  12
  -5  -1   3 367.585 15.7365   9
  -5  -1   3 349.826 15.7146   1
  -5  -1   3 363.657 15.7218  11
  -5  -1   3 372.629 15.6460   7
   4   1  -3 0.70970 0.72003   9
   4   1  -3 -1.3387 0.69347   6
   4   1  -3 1.13300 0.86294   1
   4   1  -3 0.80923 0.81053   6
   4   1  -3 0.16011 0.86687   1
  -4  -1   3 0.62861 0.83426  12
  -4  -1   3 0.72418 0.84049   1
  -4  -1   3 0.40025 0.68135  11
  -4  -1   3 1.27789 0.86597   6
  -4  -1   3 0.87612 0.87221   7
  -4  -1   3 -0.0841 0.81629   9
  -4  -1   3 0.02236 0.84061   1
   3   1  -3 12.7906 1.35388   9
   3   1  -3 13.9723 1.60658   1
   3   1  -3 13.6654 1.48928   6
   3   1  -3 14.6399 1.47749   6
   3   1  -3 13.5786 1.57571   1
  -3  -1   3 13.4581 1.52716   9
  -3  -1   3 14.3837 1.41389   6
  -3  -1   3 14.3243 1.45998   7
  -3  -1   3 14.3614 1.60068   1
  -3  -1   3 16.1433 1.48232  11
  -3  -1   3 13.4083 1.47313   1
  -3  -1   3 12.2118 1.45236  12
   2   1  -3 2.12045 0.78248   6
   2   1  -3 2.80293 0.88692   1
   2   1  -3 3.01513 0.82636   6
   2   1  -3 3.02955 0.83232   2
   2   1  -3 3.06144 0.64859   9
   2   1  -3 2.56121 0.85211   7
   2   1  -3 3.36924 0.93503   1
  -2  -1   3 2.57319 0.85243   1
  -2  -1   3 2.75966 0.71177   3
  -2  -1   3 3.43502 0.82243  12
  -2  -1   3 2.29345 0.70664   4
  -2  -1   3 3.43688 0.81304   7
  -2  -1   3 2.67025 0.67469   9
  -2  -1   3 2.40339 0.75763   6
  -2  -1   3 2.27646 0.85112   1
  -2  -1   3 2.61547 0.71348  11
   1   1  -3 46.5098 2.38248   7
   1   1  -3 40.8297 2.52661   2
   1   1  -3 41.0163 2.47210   1
   1   1  -3 40.6490 2.37858   1
   1   1  -3 45.1498 2.44729   6
   1   1  -3 49.5862 2.48419   4
   1   1  -3 43.3768 2.36909   6
  -1  -1   3 44.0502 2.43625   1
  -1  -1   3 45.9597 2.44925  10
  -1  -1   3 44.2098 2.40343   4
  -1  -1   3 44.1459 2.53298   1
  -1  -1   3 45.3248 2.32253   7
  -1  -1   3 43.8662 2.14246   3
  -1  -1   3 43.8801 2.39006   6
   0   1  -3 70.1661 3.35575   6
   0   1  -3 70.8225 3.31003   7
   0   1  -3 76.1957 3.46951  10
   0   1  -3 66.8941 3.29423   6
   0   1  -3 66.3366 3.60283   2
   0   1  -3 70.6000 3.39978   4
   0   1  -3 69.1750 3.40639   1
   0   1  -3 62.2251 3.30337   1
   0  -1   3 68.9970 3.19784   5
   0  -1   3 69.6383 3.39752  10
   0  -1   3 70.3948 3.33974   4
   0  -1   3 66.0436 3.33272   1
   0  -1   3 70.9488 3.32917   6
   0  -1   3 70.1961 3.39106   1
   0  -1   3 71.4460 3.24003   7
  -1   1  -3 104.848 4.66188   1
  -1   1  -3 104.883 4.73022   4
  -1   1  -3 98.0140 4.59399   1
  -1   1  -3 100.871 5.06850   2
  -1   1  -3 99.9545 4.61127   7
  -1   1  -3 100.682 4.58088   6
  -1   1  -3 109.645 4.79600  10
   1  -1   3 100.214 4.74132  10
   1  -1   3 97.4258 4.58587   5
   1  -1   3 101.586 4.61544   1
   1  -1   3 102.247 4.70260   4
   1  -1   3 105.301 4.57867   7
   1  -1   3 107.536 4.61499   6
  -2   1  -3 3.46850 0.84746   7
  -2   1  -3 3.06359 0.88524   5
  -2   1  -3 3.89750 0.86318   4
  -2   1  -3 2.93338 0.70223   8
  -2   1  -3 3.81160 0.89713  10
  -2   1  -3 3.97715 1.30166   2
   2  -1   3 2.13891 0.87104   4
   2  -1   3 1.54767 0.89691  10
   2  -1   3 2.03360 0.87981   5
  -3   1  -3 11.6676 1.28135   8
  -3   1  -3 11.5581 1.40082  10
  -3   1  -3 11.2470 1.28121   7
  -3   1  -3 11.6707 1.31451   4
  -3   1  -3 11.6724 1.33878   5
  -3   1  -3 10.7900 1.65836   3
  -3   1  -3 14.1923 1.90216   9
  -3   1  -3 16.3595 2.30343   2
  -4   1  -3 11.0723 1.60714   9
  -4   1  -3 8.19597 1.47061   4
  -4   1  -3 9.73378 2.01614   2
  -4   1  -3 9.45482 1.48366   7
  -4   1  -3 7.52138 1.40906  10
  -4   1  -3 8.90523 1.56123   8
  -4   1  -3 9.91485 1.56331   3
  -4   1  -3 10.3306 1.48313   5
  -5   1  -3 37.0082 3.82877   2
  -5   1  -3 40.4199 3.58000   9
  -5   1  -3 34.3246 2.94221   7
  -5   1  -3 30.5124 3.32926   3
  -5   1  -3 33.8180 3.12419  10
  -5   1  -3 36.2189 3.18618   4
  -5   1  -3 37.3913 3.09446  12
  -5   1  -3 35.4170 3.31342   5
  -5   1  -3 31.6545 3.24479   8
  -6   1  -3 26.1755 3.36619   7
  -6   1  -3 14.0353 2.33090  10
  -6   1  -3 19.4181 3.17373   2
  -6   1  -3 19.9653 2.79957   3
  -6   1  -3 24.5495 3.44969   4
  -6   1  -3 20.9545 2.71912  12
  -6   1  -3 19.6476 2.44331  11
  -6   1  -3 14.2918 2.61233   5
  -6   1  -3 15.6350 2.63242   8
  -6   1  -3 21.2460 2.86948   9
  -7   1  -3 7.11688 3.48217   3
  -7   1  -3 9.68096 3.34318  12
  -7   1  -3 12.3635 3.24375   8
  -7   1  -3 7.35080 3.11302   5
  -7   1  -3 7.83787 2.74016   4
  -7   1  -3 6.68228 3.37272   9
  -7   1  -3 3.90625 2.62591  10
  -7   1  -3 16.5553 3.20262   7
  -7   1  -3 8.14225 2.72819  11
  -7   1  -3 1.69949 4.15937   2
   9   0  -3 2.73063 2.52319   6
   9   0  -3 8.05706 2.10804   1
   9   0  -3 6.99486 1.99137   6
   9   0  -3 7.13953 2.99618   1
  -9   0   3 2.84248 2.18088  12
  -9   0   3 7.30787 2.23052   1
  -9   0   3 9.76633 2.91126   1
  -9   0   3 3.09169 2.44380   7
   8   0  -3 158.941 8.44754   1
   8   0  -3 164.743 8.32095   6
   8   0  -3 167.036 8.00373   1
   8   0  -3 169.484 7.87942   6
  -8   0   3 167.162 8.40633   1
  -8   0   3 153.977 8.09566  12
  -8   0   3 171.107 8.04432   7
  -8   0   3 158.227 8.07542   1
   7   0  -3 151.411 7.64754   6
   7   0  -3 154.246 7.25833   6
   7   0  -3 154.574 7.37225   1
   7   0  -3 157.351 7.78588   1
  -7   0   3 158.442 7.66912   1
  -7   0   3 160.023 7.37000   7
  -7   0   3 144.079 7.47951  12
  -7   0   3 156.675 7.57787   9
  -7   0   3 147.603 7.29503   6
  -7   0   3 158.214 7.46320   5
  -7   0   3 147.746 7.35734   1
   6   0  -3 106.334 5.55163   1
   6   0  -3 100.512 5.32733   9
   6   0  -3 109.063 5.30332   1
   6   0  -3 105.922 5.14111   6
   6   0  -3 103.244 5.41623   6
  -6   0   3 98.6769 5.34301  12
  -6   0   3 107.820 5.45834   1
  -6   0   3 107.928 5.28213   5
  -6   0   3 106.682 5.36844   9
  -6   0   3 87.1897 5.07921   7
  -6   0   3 115.094 5.41696  11
   5   0  -3 348.691 15.8734   9
   5   0  -3 363.406 15.8970   1
   5   0  -3 359.972 15.8491   6
   5   0  -3 367.984 15.8422   1
   5   0  -3 374.370 15.8261   6
  -5   0   3 367.326 15.7765   7
  -5   0   3 343.375 15.7893   6
  -5   0   3 373.169 15.9047   9
  -5   0   3 347.976 15.8295   1
  -5   0   3 374.188 15.8796   1
  -5   0   3 372.211 15.8853  11
   4   0  -3 80.3984 4.25062  11
   4   0  -3 87.6571 4.25499   6
   4   0  -3 82.5852 4.34502   1
   4   0  -3 92.2462 4.33565   1
   4   0  -3 84.2819 4.25861   9
   4   0  -3 81.7179 4.25513   6
  -4   0   3 89.3327 4.34759   1
  -4   0   3 88.8699 4.28589   9
  -4   0   3 88.3444 4.25036  11
  -4   0   3 77.7681 4.22390   1
  -4   0   3 82.7371 4.21249   6
  -4   0   3 89.2977 4.24600   7
   3   0  -3 26.0117 1.98548   1
   3   0  -3 23.8871 1.89941   7
   3   0  -3 23.1426 1.81264  11
   3   0  -3 24.2678 1.82899   9
   3   0  -3 25.4400 1.86710   6
   3   0  -3 28.7876 1.92503   6
   3   0  -3 27.9110 2.00256   1
  -3   0   3 27.5337 1.92471   7
  -3   0   3 27.2670 1.84579  11
  -3   0   3 24.7464 1.91612   1
  -3   0   3 26.0704 1.88744   6
  -3   0   3 27.4579 1.89625   9
  -3   0   3 26.0623 1.91754   1
   2   0  -3 175.310 8.36515   1
   2   0  -3 195.497 8.42477   1
   2   0  -3 184.557 8.24549   9
   2   0  -3 190.036 8.35023   7
   2   0  -3 197.433 8.40235   6
   2   0  -3 179.714 8.35483   6
  -2   0   3 198.494 8.25707   9
  -2   0   3 182.492 8.35797   6
  -2   0   3 185.655 8.28678  12
  -2   0   3 199.088 8.30018  11
  -2   0   3 201.554 8.42092   1
  -2   0   3 195.340 8.33254   7
  -2   0   3 176.759 8.36831   1
   1   0  -3 252.382 10.9519   1
   1   0  -3 259.443 10.9432   6
   1   0  -3 248.171 10.9320   6
   1   0  -3 263.809 10.9358   7
   1   0  -3 241.472 10.9356   1
  -1   0   3 247.555 10.8900   4
  -1   0   3 248.745 10.9411  10
  -1   0   3 266.183 10.9055   7
  -1   0   3 246.255 10.9652   1
  -1   0   3 247.665 10.9462   6
  -1   0   3 259.188 10.7085   8
  -1   0   3 257.412 10.7865  11
  -1   0   3 249.479 10.8011  12
  -1   0   3 256.473 10.9204   6
  -1   0   3 248.198 10.9322   1
   0   0  -3 57.8087 2.78044   6
   0   0  -3 57.7758 2.82173   7
   0   0  -3 52.4823 2.75527   1
   0   0  -3 51.6347 2.73039   6
   0   0  -3 53.9550 2.81002   1
   0   0   3 53.7106 2.83981   1
   0   0   3 55.2723 2.77520   1
   0   0   3 57.5153 2.71856   4
   0   0   3 60.6068 2.78557   7
   0   0   3 56.2765 2.77872  10
  -1   0  -3 43.1023 2.80384   2
  -1   0  -3 41.8048 2.26506   1
  -1   0  -3 44.1074 2.28080   6
  -1   0  -3 43.1964 2.24525   6
  -1   0  -3 42.8550 2.31749   1
  -1   0  -3 50.2000 2.38060   4
  -1   0  -3 49.5355 2.41945  10
  -1   0  -3 47.6315 2.45482   7
   1   0   3 47.8818 2.31411   4
   1   0   3 47.9295 2.37259   7
   1   0   3 46.6770 2.38337  10
   1   0   3 43.7046 2.28124   1
  -2   0  -3 40.6370 2.14375  10
  -2   0  -3 38.5482 2.26706   7
  -2   0  -3 36.7767 2.06716   8
  -2   0  -3 34.0682 2.59385   2
  -2   0  -3 40.2696 2.12336   4
   2   0   3 36.4283 2.21800  10
   2   0   3 36.8632 2.11800   4
  -3   0  -3 38.3785 2.36980   8
  -3   0  -3 38.8594 2.31298  10
  -3   0  -3 41.3220 2.50261   9
  -3   0  -3 35.4002 2.31963   3
  -3   0  -3 36.1997 2.79983   2
  -3   0  -3 38.8203 2.37237   5
  -3   0  -3 33.5909 2.35625   7
  -3   0  -3 37.3961 2.27550   4
  -4   0  -3 30.0638 2.40636   4
  -4   0  -3 31.4317 2.51496   7
  -4   0  -3 29.6081 2.50941   8
  -4   0  -3 29.3952 2.53867   5
  -4   0  -3 32.3944 2.81476   9
  -4   0  -3 29.4588 3.24757   2
  -4   0  -3 29.9940 2.33993  10
  -4   0  -3 29.6280 2.55647   3
  -5   0  -3 61.0462 3.74600   4
  -5   0  -3 63.8519 4.09791   3
  -5   0  -3 65.8560 4.52613   2
  -5   0  -3 58.1550 3.98763   8
  -5   0  -3 62.2622 3.73447  10
  -5   0  -3 62.5486 3.92462   7
  -5   0  -3 65.7477 4.32884   9
  -5   0  -3 63.0165 4.03517   5
  -6   0  -3 25.3082 3.32620   2
  -6   0  -3 28.5110 3.98622   3
  -6   0  -3 26.9077 3.80985   8
  -6   0  -3 20.4510 3.22420  10
  -6   0  -3 29.9348 3.58642   7
  -6   0  -3 29.0205 3.76498   5
  -6   0  -3 27.1968 4.19261   9
  -6   0  -3 27.8963 3.22565   4
  -7   0  -3 12.5537 3.19308   7
  -7   0  -3 4.44613 2.83384   5
  -7   0  -3 6.74057 3.06537   8
  -7   0  -3 7.89859 3.72132   2
  -7   0  -3 4.34425 3.24051   3
  -7   0  -3 7.61460 2.31764   4
  -7   0  -3 8.06560 3.36553   9
  -7   0  -3 4.39054 2.43027  10
   9  -1  -3 1.99281 3.01603   1
   9  -1  -3 -0.4709 2.08744   6
   9  -1  -3 1.79764 2.87754   6
   9  -1  -3 4.93063 2.36616   1
  -9   1   3 5.11742 2.99769   1
  -9   1   3 3.24820 2.56734   7
  -9   1   3 -0.0566 2.15860  12
  -9   1   3 4.53304 2.35499   1
   8  -1  -3 33.9743 3.03950   1
   8  -1  -3 34.1082 3.83674   6
   8  -1  -3 37.0960 2.90374   6
   8  -1  -3 35.6601 4.38616   1
  -8   1   3 34.2906 3.59001   7
  -8   1   3 35.3479 3.25571  12
  -8   1   3 33.7811 4.05501   1
   7  -1  -3 25.5523 2.35855   6
   7  -1  -3 34.4633 3.61715   1
   7  -1  -3 28.7931 3.13007   6
   7  -1  -3 29.7482 2.53883   1
   7  -1  -3 26.1557 3.36912  11
  -7   1   3 31.7938 2.45993   6
  -7   1   3 27.9261 2.64803   5
  -7   1   3 26.7080 2.77576   7
  -7   1   3 24.2702 2.42058   1
  -7   1   3 30.7476 3.38296   1
   6  -1  -3 64.2929 3.86814   9
   6  -1  -3 67.0220 4.21022   1
   6  -1  -3 68.6848 4.03236   6
   6  -1  -3 68.8368 3.76363   1
   6  -1  -3 63.9369 3.96427  11
   6  -1  -3 70.9468 3.66043   6
  -6   1   3 70.4155 4.03082  11
  -6   1   3 59.2880 3.71310   7
  -6   1   3 70.2560 4.11299   1
  -6   1   3 68.7547 3.82179   5
  -6   1   3 68.4886 3.95988   9
  -6   1   3 59.3761 3.74524   1
  -6   1   3 60.6184 3.66121   6
   5  -1  -3 20.0006 2.30371   1
   5  -1  -3 19.9947 2.00235   1
   5  -1  -3 21.7382 1.76232   6
   5  -1  -3 19.5478 2.06295   6
   5  -1  -3 19.3345 2.08280  11
   5  -1  -3 19.3208 2.04441   9
  -5   1   3 17.0257 2.07773   9
  -5   1   3 19.3612 2.20021   1
  -5   1   3 24.6736 2.10199  11
  -5   1   3 20.6580 1.84511   6
  -5   1   3 20.0691 1.94979   5
  -5   1   3 18.8339 1.88198   7
  -5   1   3 18.3181 1.98347   1
   4  -1  -3 210.498 9.84980  11
   4  -1  -3 236.037 9.85077   6
   4  -1  -3 208.985 9.82749   9
   4  -1  -3 208.986 9.82852   6
   4  -1  -3 230.441 9.88138   1
   4  -1  -3 219.134 9.90870   1
  -4   1   3 229.002 9.88978   9
  -4   1   3 225.662 9.77756   7
  -4   1   3 207.528 9.82780   1
  -4   1   3 209.088 9.79784   6
  -4   1   3 223.851 9.84045  11
  -4   1   3 229.976 9.89139   1
  -4   1   3 226.249 9.77352   5
   3  -1  -3 485.494 21.6048  11
   3  -1  -3 497.097 21.6723   1
   3  -1  -3 499.574 21.6035   7
   3  -1  -3 493.791 21.6148   9
   3  -1  -3 525.377 21.6453   6
   3  -1  -3 485.267 21.6345   6
   3  -1  -3 518.652 21.6652   1
  -3   1   3 520.016 21.6569   1
  -3   1   3 522.230 21.6176   9
  -3   1   3 519.962 21.5360   5
  -3   1   3 488.147 21.6294   6
  -3   1   3 494.131 21.6578   1
  -3   1   3 532.758 21.6233  11
   2  -1  -3 671.113 27.9035   7
   2  -1  -3 641.838 27.8317  11
   2  -1  -3 616.659 27.8890   6
   2  -1  -3 642.287 27.9310   1
   2  -1  -3 666.951 27.8426   9
   2  -1  -3 677.819 27.9087   6
   2  -1  -3 673.367 27.9223   1
  -2   1   3 663.356 27.9098   1
  -2   1   3 636.915 27.9185   1
  -2   1   3 632.291 27.8948   6
  -2   1   3 686.940 27.8372  11
  -2   1   3 688.576 27.8777   7
  -2   1   3 662.222 27.7457   5
   1  -1  -3 295.552 12.7265   1
   1  -1  -3 301.349 12.7070   6
   1  -1  -3 297.428 12.7272   7
   1  -1  -3 281.830 12.7212   1
   1  -1  -3 294.418 12.5966  11
   1  -1  -3 300.705 12.6186   9
   1  -1  -3 276.123 12.6924   6
  -1   1   3 294.583 12.7126   1
  -1   1   3 300.806 12.4961   5
  -1   1   3 306.377 12.5843  11
  -1   1   3 306.790 12.5517   8
  -1   1   3 286.907 12.7132   6
  -1   1   3 281.968 12.7259   1
  -1   1   3 309.529 12.7103   7
   0  -1  -3 260.949 11.1956   7
   0  -1  -3 246.205 11.1310   1
   0  -1  -3 274.230 11.1441   6
   0  -1  -3 242.398 11.1079   6
   0  -1  -3 266.079 11.1481   1
   0  -1  -3 262.279 11.0057   8
   0   1   3 266.788 11.1363   1
   0   1   3 276.359 11.1948   7
   0   1   3 244.233 11.1387   1
   0   1   3 250.655 11.0247   4
   0   1   3 270.736 11.0080   8
   0   1   3 252.583 11.1337   6
   0   1   3 242.589 11.0646  10
   0   1   3 271.141 10.9482   3
  -1  -1  -3 87.9379 4.19351   6
  -1  -1  -3 90.2390 4.20260   1
  -1  -1  -3 97.2329 4.40769   7
  -1  -1  -3 97.3290 4.20492   8
  -1  -1  -3 93.8850 4.19212   6
  -1  -1  -3 84.0294 4.20565   1
   1   1   3 96.8300 4.19236   8
   1   1   3 100.270 4.37250   7
   1   1   3 93.8282 4.20678   1
   1   1   3 95.6740 4.10096   4
   1   1   3 95.1046 4.17223  10
  -2  -1  -3 116.948 5.44947   8
  -2  -1  -3 124.416 5.36355  10
  -2  -1  -3 119.585 5.61033   7
  -2  -1  -3 120.285 5.90041   2
  -2  -1  -3 118.186 5.37684   3
  -2  -1  -3 134.016 5.56015   9
  -3  -1  -3 29.9415 1.75746   4
  -3  -1  -3 24.6330 2.51498   2
  -3  -1  -3 26.0346 2.17160   7
  -3  -1  -3 27.9969 2.13865   8
  -3  -1  -3 31.9641 2.22291   9
  -3  -1  -3 29.7127 1.78777  10
  -3  -1  -3 27.9661 2.05875   3
  -4  -1  -3 26.1431 2.96606   2
  -4  -1  -3 25.4277 2.66937   9
  -4  -1  -3 27.1958 2.00050   4
  -4  -1  -3 29.0011 2.49779   7
  -4  -1  -3 25.7460 1.92133  10
  -4  -1  -3 26.8521 2.19635   5
  -4  -1  -3 21.2810 2.39578   3
  -4  -1  -3 23.1608 2.46244   8
  -5  -1  -3 57.3893 3.35473   4
  -5  -1  -3 51.9259 3.85953   8
  -5  -1  -3 59.7985 3.64241   5
  -5  -1  -3 55.7010 4.43154   2
  -5  -1  -3 60.4095 3.88890   7
  -5  -1  -3 61.7731 4.09225   9
  -5  -1  -3 54.1392 3.22983  10
  -5  -1  -3 56.3951 3.86459   3
  -6  -1  -3 34.3890 3.06073  10
  -6  -1  -3 30.2744 3.95714   8
  -6  -1  -3 40.4534 3.95328   7
  -6  -1  -3 39.5915 3.67084   5
  -6  -1  -3 34.9483 3.18782   4
  -6  -1  -3 38.1002 4.39873   2
  -6  -1  -3 47.0862 4.54495   9
  -6  -1  -3 36.0122 3.95242   3
  -7  -1  -3 7.86262 3.25746   7
  -7  -1  -3 3.88226 2.01978  10
  -7  -1  -3 5.39537 2.09682   4
  -7  -1  -3 7.90104 2.58202   5
  -7  -1  -3 3.18584 3.02209   8
  -7  -1  -3 2.00963 3.54407   2
  -7  -1  -3 4.78326 3.06967   9
  -7  -1  -3 2.42597 3.04863   3
   9  -2  -3 3.16195 2.34614   1
   9  -2  -3 4.82650 2.21330   6
   9  -2  -3 -0.7593 3.40980   1
   9  -2  -3 4.45869 3.06630   6
  -9   2   3 3.71283 2.46543   1
  -9   2   3 5.00718 2.14069   6
  -9   2   3 4.07654 2.63172  12
  -9   2   3 -3.4936 2.94807   7
  -9   2   3 -3.5292 2.94225   1
   8  -2  -3 -1.1976 1.61280   1
   8  -2  -3 -1.6035 1.76052   6
   8  -2  -3 0.56830 2.00668   2
   8  -2  -3 4.56247 2.56333   1
   8  -2  -3 1.86580 2.28330   6
  -8   2   3 -0.1398 2.39558   1
  -8   2   3 -0.1305 1.94828   7
   7  -2  -3 38.5802 3.54426   6
   7  -2  -3 39.9928 3.36733   2
   7  -2  -3 42.9972 3.98147   1
   7  -2  -3 41.9579 3.65752   1
  -7   2   3 44.3097 4.18265   5
  -7   2   3 40.4833 3.31738   7
  -7   2   3 45.6381 3.95769   1
   6  -2  -3 24.4195 3.02308   1
   6  -2  -3 19.2073 2.59227   6
   6  -2  -3 21.9107 2.15537   1
   6  -2  -3 22.5579 2.48875   9
   6  -2  -3 21.7797 2.00027   6
   6  -2  -3 21.6334 2.59581  11
  -6   2   3 19.2037 2.04568   6
  -6   2   3 20.1901 2.74082   1
  -6   2   3 19.3736 2.25422   1
  -6   2   3 22.1148 2.37430   9
  -6   2   3 23.1764 2.35115   7
  -6   2   3 21.7728 2.23041   5
   5  -2  -3 57.0179 3.14658   1
   5  -2  -3 48.2350 3.21344   9
   5  -2  -3 45.9975 3.23649  11
   5  -2  -3 49.0454 3.29722   6
   5  -2  -3 55.9681 3.10358   6
   5  -2  -3 51.8781 3.54423   1
  -5   2   3 49.6930 3.13627   1
  -5   2   3 53.6936 3.10545   5
  -5   2   3 55.6648 3.47249   1
  -5   2   3 46.6685 3.00228   6
  -5   2   3 52.8847 3.31836   9
  -5   2   3 54.9825 3.16154   7
  -5   2   3 55.8848 3.15886  11
   4  -2  -3 241.505 10.3841   6
   4  -2  -3 227.105 10.3292   7
   4  -2  -3 222.911 10.3896  11
   4  -2  -3 228.828 10.4494   1
   4  -2  -3 238.191 10.3933   1
   4  -2  -3 218.350 10.4083   9
  -4   2   3 239.782 10.4220   1
  -4   2   3 221.836 10.3584   6
  -4   2   3 243.447 10.3241   7
  -4   2   3 236.974 10.4503   9
  -4   2   3 226.697 10.4145   1
  -4   2   3 240.556 10.3097   5
  -4   2   3 237.318 10.3736  11
   3  -2  -3 156.406 7.43777   9
   3  -2  -3 166.892 7.46492   1
   3  -2  -3 154.532 7.40451  11
   3  -2  -3 164.814 7.42668   7
   3  -2  -3 159.738 7.48393   1
   3  -2  -3 172.325 7.46259   6
  -3   2   3 156.571 7.43016   6
  -3   2   3 168.547 7.32409   5
  -3   2   3 158.940 7.49614   1
  -3   2   3 166.253 7.37959   7
  -3   2   3 171.568 7.41584  11
  -3   2   3 166.953 7.45596   1
   2  -2  -3 213.566 9.12828   6
   2  -2  -3 205.114 9.12404   1
   2  -2  -3 199.593 9.04277  11
   2  -2  -3 203.988 9.10587   7
   2  -2  -3 199.812 9.08515   9
   2  -2  -3 194.445 9.12664   1
  -2   2   3 214.289 8.98731   8
  -2   2   3 218.496 8.96362   5
  -2   2   3 195.696 9.08870   6
  -2   2   3 193.190 9.12401   1
  -2   2   3 213.848 9.08221   7
  -2   2   3 205.483 9.10549   1
  -2   2   3 215.632 9.04904  11
   1  -2  -3 361.563 14.6247   6
   1  -2  -3 333.317 14.5018  11
   1  -2  -3 341.978 14.6070   1
   1  -2  -3 336.980 14.6142   7
   1  -2  -3 311.276 14.5856   1
  -1   2   3 357.597 14.4894   8
  -1   2   3 343.907 14.6003   1
  -1   2   3 320.508 14.5802   6
  -1   2   3 312.117 14.5879   1
  -1   2   3 355.749 14.4891   3
  -1   2   3 353.787 14.4960  11
  -1   2   3 338.062 14.3674   5
  -1   2   3 349.249 14.6014   7
   0  -2  -3 183.723 7.91286   8
   0  -2  -3 178.932 8.06396   7
   0  -2  -3 167.530 7.97868   1
   0  -2  -3 189.796 8.00396   6
   0  -2  -3 185.435 8.00645   1
   0   2   3 189.549 8.05486   7
   0   2   3 173.594 7.97683   6
   0   2   3 186.547 7.87116   3
   0   2   3 186.213 7.98279   1
   0   2   3 189.294 7.91712   8
   0   2   3 172.680 8.00735   1
  -1  -2  -3 1.28726 0.63772   1
  -1  -2  -3 0.85933 0.66267   1
  -1  -2  -3 1.25021 0.67250   3
  -1  -2  -3 1.45476 0.79975   8
  -1  -2  -3 1.08279 0.65256   6
  -1  -2  -3 1.13784 0.89576   7
   1   2   3 1.84360 0.62543   1
   1   2   3 -0.1893 0.48191   6
   1   2   3 1.03091 0.74695   8
   1   2   3 -0.4919 0.56565   1
   1   2   3 1.79939 0.80611   7
   1   2   3 0.74454 0.61542   3
  -2  -2  -3 43.1872 2.78235   7
  -2  -2  -3 50.1031 2.66540   8
  -2  -2  -3 44.8979 2.49973   3
   2   2   3 50.4687 2.59702   8
   2   2   3 50.9668 2.50553   3
  -3  -2  -3 14.8895 1.73111   3
  -3  -2  -3 14.1837 1.82808   8
  -3  -2  -3 14.1285 2.08387   2
  -3  -2  -3 17.1230 1.97566   9
  -3  -2  -3 14.7230 1.99688   7
  -4  -2  -3 25.8020 2.62252   9
  -4  -2  -3 25.1083 2.21537   5
  -4  -2  -3 24.3830 2.51224   8
  -4  -2  -3 27.6105 2.55448   7
  -4  -2  -3 22.0268 2.50713   3
  -4  -2  -3 23.8804 2.90718   2
  -5  -2  -3 64.1621 3.29076   4
  -5  -2  -3 65.1083 4.27537   9
  -5  -2  -3 65.7420 4.11802   3
  -5  -2  -3 61.5040 4.16207   8
  -5  -2  -3 66.1359 4.13470   7
  -5  -2  -3 63.7928 3.79464   5
  -5  -2  -3 49.9843 4.44043   2
  -6  -2  -3 37.4643 4.24805   9
  -6  -2  -3 33.6586 4.34455   2
  -6  -2  -3 27.5823 2.53422  10
  -6  -2  -3 35.1182 3.94331   3
  -6  -2  -3 31.7120 4.02576   8
  -6  -2  -3 32.7882 2.77246   4
  -6  -2  -3 37.2305 3.96617   7
  -6  -2  -3 30.1462 3.50187   5
  -7  -2  -3 39.0838 5.46363   9
  -7  -2  -3 30.6010 3.80287   8
  -7  -2  -3 36.7366 5.04701   3
  -7  -2  -3 31.7300 3.54696   4
  -7  -2  -3 28.0305 3.09069  10
  -7  -2  -3 30.7686 4.14965   2
  -7  -2  -3 35.3106 4.46978   5
  -7  -2  -3 36.1698 4.95832   7
   9  -3  -3 2.14861 2.46174   6
   9  -3  -3 9.97111 3.86932   1
   9  -3  -3 8.37311 2.79862   1
   9  -3  -3 5.06913 3.27867   6
   9  -3  -3 -1.6593 3.08428   2
  -9   3   3 6.06138 3.41906   1
  -9   3   3 0.13711 3.23426   7
  -9   3   3 4.01687 2.62037   1
  -9   3   3 6.31839 2.27661   6
   8  -3  -3 2.95803 1.77041   1
   8  -3  -3 1.39677 2.65378   2
   8  -3  -3 2.35688 2.51289   6
   8  -3  -3 3.13554 2.80914   1
  -8   3   3 -5.2103 2.19908   7
  -8   3   3 6.92380 2.55655   1
   7  -3  -3 13.0365 2.67856   1
   7  -3  -3 19.7271 2.60732   2
   7  -3  -3 13.6657 2.40959   6
   7  -3  -3 10.9594 1.68349   1
  -7   3   3 13.4074 2.49554   1
  -7   3   3 12.2124 2.24430   7
   6  -3  -3 24.4673 3.23606   1
   6  -3  -3 20.0588 2.85370   6
   6  -3  -3 21.2540 2.19191   6
   6  -3  -3 22.8677 2.32909   1
  -6   3   3 25.2591 3.12979   1
  -6   3   3 24.7858 2.41151   5
  -6   3   3 19.5960 2.59848   7
   5  -3  -3 99.4709 5.20882   1
   5  -3  -3 95.5070 4.80503   6
   5  -3  -3 84.9754 4.88921  11
   5  -3  -3 87.7139 4.98285   9
   5  -3  -3 97.4014 4.80745   1
  -5   3   3 79.1794 4.65482   6
  -5   3   3 95.0250 4.82922  11
  -5   3   3 97.3440 4.80292   5
  -5   3   3 98.6042 5.05411   1
  -5   3   3 99.1163 4.75439   7
  -5   3   3 81.7659 4.81212   1
   4  -3  -3 19.3876 1.96594   1
   4  -3  -3 19.9134 1.89943   7
   4  -3  -3 17.4824 1.92014  11
   4  -3  -3 19.3621 2.08712   9
   4  -3  -3 20.6351 1.87454   6
   4  -3  -3 16.7522 2.28237   1
  -4   3   3 18.9208 1.87551  11
  -4   3   3 16.1070 1.76142   6
  -4   3   3 17.0399 1.93843   1
  -4   3   3 20.3995 1.85001   7
  -4   3   3 19.3007 1.92838   5
  -4   3   3 19.6680 2.17435   1
   3  -3  -3 68.9186 3.43680   6
   3  -3  -3 58.0084 3.30780   5
   3  -3  -3 65.4978 3.45308   1
   3  -3  -3 59.7500 3.37064   7
   3  -3  -3 59.1850 3.36807  11
   3  -3  -3 60.9865 3.45484   9
   3  -3  -3 60.7809 3.43288   1
  -3   3   3 59.7275 3.32315   6
  -3   3   3 62.7634 3.29278   8
  -3   3   3 68.3044 3.47127   1
  -3   3   3 61.1821 3.43114   1
  -3   3   3 67.1104 3.30737   5
  -3   3   3 62.9860 3.28303   7
  -3   3   3 62.1850 3.39012  11
   2  -3  -3 113.777 5.57515  11
   2  -3  -3 115.932 5.64047   7
   2  -3  -3 117.479 5.66264   9
   2  -3  -3 135.094 5.70902   6
   2  -3  -3 114.332 5.62536   1
   2  -3  -3 126.702 5.68377   1
   2  -3  -3 114.351 5.48359   5
  -2   3   3 126.862 5.60187  11
  -2   3   3 118.275 5.56147   7
  -2   3   3 115.335 5.59125   6
  -2   3   3 116.176 5.65087   1
  -2   3   3 122.582 5.45216   5
  -2   3   3 122.350 5.51179   8
  -2   3   3 121.709 5.62556   1
   1  -3  -3 455.842 20.6152  11
   1  -3  -3 488.676 20.6426   8
   1  -3  -3 455.936 20.7220   1
   1  -3  -3 506.954 20.7581   1
   1  -3  -3 478.052 20.5277   5
   1  -3  -3 506.256 20.7463   6
  -1   3   3 494.745 20.6348   8
  -1   3   3 479.359 20.7090   1
  -1   3   3 503.478 20.7399   7
  -1   3   3 453.061 20.7188   1
  -1   3   3 461.023 20.7042   6
  -1   3   3 508.367 20.6662   3
  -1   3   3 510.382 20.6515  11
  -1   3   3 495.073 20.5199   5
   0  -3  -3 96.4430 4.69754   1
   0  -3  -3 100.606 4.70705   8
   0  -3  -3 100.516 4.63005  11
   0  -3  -3 97.4066 4.79043   7
   0  -3  -3 106.027 4.77700   1
   0  -3  -3 107.495 4.75438   6
   0   3   3 100.374 4.66962   3
   0   3   3 100.985 4.69071   1
   0   3   3 96.2730 4.76804   1
   0   3   3 104.624 4.77367   7
   0   3   3 99.5106 4.72133   6
   0   3   3 104.043 4.69128   8
  -1  -3  -3 0.70224 0.63660   1
  -1  -3  -3 -0.5472 0.77010   7
  -1  -3  -3 1.34002 0.71372   1
  -1  -3  -3 1.79775 0.79151   3
  -1  -3  -3 0.16365 0.82382   8
  -1  -3  -3 1.48872 0.74380   6
   1   3   3 0.32490 0.75050   8
   1   3   3 -0.0184 0.71917   7
   1   3   3 0.67454 0.66511   1
   1   3   3 0.39881 0.82255   1
   1   3   3 0.15505 0.70839   6
   1   3   3 0.46382 0.72567   3
  -2  -3  -3 3.74427 0.76737   1
  -2  -3  -3 4.72195 0.96648   3
  -2  -3  -3 4.26850 1.06576   8
  -2  -3  -3 3.94610 1.16257   7
  -2  -3  -3 3.91170 0.80616   1
  -2  -3  -3 3.76509 0.71722   6
   2   3   3 4.58501 1.08030   7
   2   3   3 4.50945 0.95252   3
   2   3   3 4.44397 1.01137   8
   2   3   3 4.79264 0.78000   1
  -3  -3  -3 9.19482 1.25197   3
  -3  -3  -3 8.74004 1.57448   7
  -3  -3  -3 8.11158 1.36482   8
   3   3   3 11.4789 1.72502   3
  -4  -3  -3 23.9279 2.19538   5
  -4  -3  -3 24.3834 2.63642   7
  -4  -3  -3 21.2264 2.52745   8
  -4  -3  -3 26.0129 2.68023   9
  -4  -3  -3 24.9057 2.74607   2
  -4  -3  -3 24.2451 2.49158   3
  -5  -3  -3 27.3283 3.20917   3
  -5  -3  -3 30.5353 3.15990   8
  -5  -3  -3 27.3849 3.57263   2
  -5  -3  -3 33.6913 3.29186   7
  -5  -3  -3 30.0878 2.80445   5
  -5  -3  -3 34.7575 3.45832   9
  -6  -3  -3 37.7800 4.20734   3
  -6  -3  -3 42.1746 4.50160   9
  -6  -3  -3 37.2586 3.79465   5
  -6  -3  -3 42.5848 4.27401   7
  -6  -3  -3 36.6400 4.31822   2
  -6  -3  -3 37.4188 4.03600   8
  -7  -3  -3 24.4507 3.72909   3
  -7  -3  -3 33.4572 3.95291   8
  -7  -3  -3 41.3662 5.24720   7
  -7  -3  -3 26.5808 4.23316   2
  -7  -3  -3 25.8395 3.23936   5
  -7  -3  -3 36.2530 5.27237   9
   8  -4  -3 -0.0564 2.81477   6
   8  -4  -3 4.31892 3.25999   1
   8  -4  -3 2.25560 3.20231   2
   8  -4  -3 5.61675 3.90629  11
  -8   4   3 4.03344 2.77094   7
  -8   4   3 4.05032 2.86591   1
   7  -4  -3 0.32985 2.09132   6
   7  -4  -3 -0.9507 2.53375   2
   7  -4  -3 -2.1225 2.41342   1
  -7   4   3 1.33829 2.27209   1
  -7   4   3 2.65082 1.85609   7
   6  -4  -3 34.5632 3.76112   1
   6  -4  -3 35.1004 2.84589   1
   6  -4  -3 28.9212 2.64332   6
  -6   4   3 34.5292 2.73323   5
  -6   4   3 29.0278 3.00190   7
  -6   4   3 34.6049 3.37161   1
   5  -4  -3 76.7307 4.55275   1
   5  -4  -3 71.8236 4.16621   7
   5  -4  -3 73.3934 4.36812   9
   5  -4  -3 73.4356 4.04833   1
   5  -4  -3 64.7987 3.92054   6
   5  -4  -3 70.3984 4.21903  11
  -5   4   3 65.5418 3.86058   6
  -5   4   3 66.9036 4.06308   1
  -5   4   3 75.9595 4.07654   7
  -5   4   3 79.1213 4.04961   5
  -5   4   3 79.9333 4.43430   1
   4  -4  -3 5.34088 1.19380  11
   4  -4  -3 4.85317 1.15059   5
   4  -4  -3 4.48994 1.46814   1
   4  -4  -3 6.82569 1.27424   1
   4  -4  -3 6.43595 1.38110   9
   4  -4  -3 7.59517 1.43605   7
   4  -4  -3 7.16204 1.17499   6
  -4   4   3 6.17950 1.21203  11
  -4   4   3 6.81902 1.17475   5
  -4   4   3 6.42669 1.18251   1
  -4   4   3 5.82061 1.10249   8
  -4   4   3 6.52228 1.07959   6
  -4   4   3 7.05100 1.44222   1
  -4   4   3 5.41306 1.20477   7
   3  -4  -3 1.91157 0.99264   7
   3  -4  -3 1.15907 0.88123   6
   3  -4  -3 1.03895 1.02089   9
   3  -4  -3 0.09245 0.85191   5
   3  -4  -3 1.24763 0.84218  11
   3  -4  -3 1.07402 1.03025   1
   3  -4  -3 -0.1165 0.84570   1
  -3   4   3 -0.0318 0.99959   1
  -3   4   3 1.16910 0.91118   1
  -3   4   3 0.68675 0.87536   6
  -3   4   3 -0.4130 0.83955  11
  -3   4   3 0.89998 0.85317   8
  -3   4   3 1.45595 0.88463   5
  -3   4   3 2.13700 0.95758   7
   2  -4  -3 102.178 4.79540   6
   2  -4  -3 91.9297 4.69133   7
   2  -4  -3 103.846 4.83641   1
   2  -4  -3 96.4227 4.64386   5
   2  -4  -3 93.7327 4.73946   1
   2  -4  -3 92.2528 4.66828  11
  -2   4   3 96.3021 4.69780   3
  -2   4   3 100.932 4.70650  11
  -2   4   3 95.2800 4.61813   7
  -2   4   3 92.2464 4.70468   6
  -2   4   3 94.5889 4.60340   8
  -2   4   3 90.1741 4.76869   1
  -2   4   3 100.160 4.61351   5
  -2   4   3 96.7560 4.71826   1
   1  -4  -3 301.047 13.7656   1
   1  -4  -3 297.319 13.7394   7
   1  -4  -3 340.023 13.8078   6
   1  -4  -3 328.508 13.8003   1
   1  -4  -3 300.041 13.6749  11
   1  -4  -3 310.952 13.6969   8
   1  -4  -3 314.314 13.5823   5
  -1   4   3 321.457 13.7180   3
  -1   4   3 316.846 13.7256   7
  -1   4   3 334.001 13.5905   5
  -1   4   3 310.886 13.7276   1
  -1   4   3 324.600 13.6853   8
  -1   4   3 329.769 13.7153  11
  -1   4   3 301.915 13.7683   1
  -1   4   3 303.295 13.7453   6
  -1   4   3 327.155 13.6158   4
   0  -4  -3 176.912 8.14102   1
   0  -4  -3 176.419 8.08107  11
   0  -4  -3 200.006 8.19405   6
   0  -4  -3 196.362 8.21252   1
   0  -4  -3 173.464 8.11136   8
   0  -4  -3 178.247 7.93791   5
   0  -4  -3 174.510 8.22007   7
   0   4   3 187.992 8.13455   3
   0   4   3 185.488 8.20193   7
   0   4   3 186.679 8.13108   1
   0   4   3 179.202 8.14399   6
   0   4   3 187.908 7.92969   4
   0   4   3 184.602 8.11844   8
   0   4   3 169.791 8.14713   1
  -1  -4  -3 38.2255 2.50447   8
  -1  -4  -3 43.6891 2.41736   6
  -1  -4  -3 44.0915 2.47620   1
  -1  -4  -3 41.8319 2.51384   3
  -1  -4  -3 36.9224 2.50902   7
  -1  -4  -3 40.4655 2.34942   1
  -1  -4  -3 39.7001 2.38647  11
   1   4   3 42.6394 2.47687   3
   1   4   3 40.3860 2.38113   1
   1   4   3 41.5323 2.42174   7
   1   4   3 41.9837 1.99375  10
   1   4   3 40.2122 2.48359   8
   1   4   3 41.3764 2.41581   6
   1   4   3 38.6325 2.48515   1
  -2  -4  -3 28.1055 2.33115   3
  -2  -4  -3 31.9650 2.11978   1
  -2  -4  -3 29.0033 2.43662   8
  -2  -4  -3 26.8803 2.11934  11
  -2  -4  -3 34.2530 2.06648   6
  -2  -4  -3 29.6225 2.33461   7
  -2  -4  -3 35.1529 2.18037   1
   2   4   3 28.6796 2.35095   3
   2   4   3 33.8530 2.14268   1
   2   4   3 33.6268 2.04897   6
   2   4   3 33.9523 2.25483   7
   2   4   3 36.3238 2.06175   1
   2   4   3 33.8423 2.40467   8
  -3  -4  -3 136.317 6.69465   3
  -3  -4  -3 142.871 6.41503   1
  -3  -4  -3 136.852 6.76912   8
  -3  -4  -3 137.001 6.39870   1
  -3  -4  -3 141.931 6.85898   7
   3   4   3 156.422 6.59572  12
   3   4   3 147.974 6.39837   1
   3   4   3 146.916 6.73908   3
   3   4   3 145.643 6.39908   1
   3   4   3 147.828 6.76304   8
  -4  -4  -3 11.5446 1.73663   3
  -4  -4  -3 10.1858 1.94824   7
  -4  -4  -3 11.3234 1.89086   8
  -5  -4  -3 8.79325 2.02404   3
  -5  -4  -3 9.69425 2.04100   8
  -5  -4  -3 8.84605 1.52495   5
  -5  -4  -3 8.22284 2.36279   2
  -5  -4  -3 10.6067 2.07008   9
  -5  -4  -3 8.89963 1.56874  11
  -5  -4  -3 10.7715 2.26173   7
  -6  -4  -3 5.01543 2.32966   9
  -6  -4  -3 0.74698 1.85276   5
  -6  -4  -3 5.84135 2.03148  11
  -6  -4  -3 2.89341 2.41103   3
  -6  -4  -3 4.72761 2.64818   2
  -6  -4  -3 5.38242 2.37809   8
  -6  -4  -3 3.67779 2.50411   7
  -7  -4  -3 3.43668 3.38886   2
  -7  -4  -3 0.53177 3.08072   9
  -7  -4  -3 -1.5491 2.55913   5
  -7  -4  -3 -0.4170 2.40298  11
  -7  -4  -3 5.67873 3.32465   7
  -7  -4  -3 2.83235 3.12791   8
  -7  -4  -3 3.19231 3.02318   3
   8  -5  -3 2.80189 3.68733   1
   8  -5  -3 7.51520 3.84010   2
   8  -5  -3 0.05021 3.09258   6
  -8   5   3 11.9005 3.43009   1
  -8   5   3 7.38329 3.23789   7
   7  -5  -3 -0.2965 3.08183   2
   7  -5  -3 3.25174 2.83602   1
  -7   5   3 1.71148 2.46709   1
  -7   5   3 2.31346 2.40396   7
   6  -5  -3 19.5142 2.88862   1
   6  -5  -3 25.8600 2.73126   1
   6  -5  -3 24.8121 2.89805   6
  -6   5   3 26.3980 3.03463   7
  -6   5   3 19.6876 2.80379   1
   5  -5  -3 94.9574 5.14800   7
   5  -5  -3 94.6895 5.56057   1
   5  -5  -3 92.4961 5.02393   5
   5  -5  -3 96.2465 4.96919   6
   5  -5  -3 97.2413 4.99626   1
  -5   5   3 97.3131 4.92902   8
  -5   5   3 92.7817 5.00648   4
  -5   5   3 96.1451 4.97433   7
  -5   5   3 90.3854 4.96113   1
  -5   5   3 94.0021 4.97863   5
  -5   5   3 94.6087 5.32317   1
  -5   5   3 83.8679 4.80437   6
   4  -5  -3 39.1278 3.28665   1
   4  -5  -3 34.4708 2.78374  11
   4  -5  -3 42.2637 2.86242   1
   4  -5  -3 38.2374 3.01760   9
   4  -5  -3 38.7451 2.99265   7
   4  -5  -3 33.5541 2.73414   5
   4  -5  -3 38.8751 2.75499   6
  -4   5   3 33.8112 2.80850   1
  -4   5   3 38.9787 2.66842   8
  -4   5   3 41.9340 2.77025   7
  -4   5   3 39.5061 2.79816   4
  -4   5   3 37.8887 2.60322   6
  -4   5   3 37.5996 3.06665   1
  -4   5   3 39.3750 2.78019   5
   3  -5  -3 51.4110 3.27027   1
   3  -5  -3 49.2342 3.15637  11
   3  -5  -3 57.6750 3.26344   6
   3  -5  -3 51.3103 3.24186   1
   3  -5  -3 50.2159 3.15527   5
   3  -5  -3 49.0338 3.23272   9
   3  -5  -3 46.8448 3.19765   7
  -3   5   3 49.6677 2.95127   7
  -3   5   3 50.9484 3.21795   1
  -3   5   3 44.1549 2.97269   6
  -3   5   3 48.9231 3.16429   1
  -3   5   3 53.1193 3.13791  11
  -3   5   3 52.9749 2.96950   8
  -3   5   3 54.3487 3.13687   4
  -3   5   3 49.7595 3.08177   5
   2  -5  -3 110.450 5.42986   7
   2  -5  -3 106.706 5.46295   1
   2  -5  -3 104.707 5.34115   5
   2  -5  -3 119.691 5.59666   1
   2  -5  -3 107.848 5.42629  11
   2  -5  -3 116.523 5.52967   6
  -2   5   3 115.421 5.39027   4
  -2   5   3 116.233 5.34303   7
  -2   5   3 113.923 5.43871   3
  -2   5   3 112.133 5.35810   8
  -2   5   3 114.850 5.34391   5
  -2   5   3 103.786 5.49113   1
  -2   5   3 110.266 5.41495   1
  -2   5   3 114.803 5.43263  11
  -2   5   3 103.990 5.43020   6
   1  -5  -3 -0.4932 0.81638   1
   1  -5  -3 0.82211 0.85633   5
   1  -5  -3 -0.1452 1.05633   6
   1  -5  -3 -0.7923 0.96748   8
   1  -5  -3 1.12427 0.89345  11
   1  -5  -3 -0.6349 0.98793   1
   1  -5  -3 0.16909 0.94901   7
  -1   5   3 -0.5047 0.98995   6
  -1   5   3 -0.1205 0.75868   4
  -1   5   3 0.15682 0.83820   8
  -1   5   3 -0.5235 1.07155   1
  -1   5   3 0.94034 0.96728   3
  -1   5   3 0.34925 0.82836   1
  -1   5   3 0.81857 0.84337   5
  -1   5   3 0.24685 0.84699  11
  -1   5   3 -0.8450 0.78533   7
   0  -5  -3 97.1608 4.76370   5
   0  -5  -3 98.2032 4.92545   1
   0  -5  -3 98.9082 4.95176  11
   0  -5  -3 104.151 5.03997   7
   0  -5  -3 110.275 5.09345   1
   0  -5  -3 109.767 5.02323   6
   0  -5  -3 97.1767 4.94204   8
   0   5   3 101.482 4.95562   3
   0   5   3 106.702 4.77613  10
   0   5   3 107.607 4.74022   4
   0   5   3 99.7600 5.05400   1
   0   5   3 92.7631 4.88733   7
   0   5   3 99.5705 4.97825   6
   0   5   3 107.171 4.94891   8
  -1  -5  -3 128.684 6.07691   1
  -1  -5  -3 135.300 6.13722   6
  -1  -5  -3 124.536 6.05617  11
  -1  -5  -3 143.021 6.20229   1
  -1  -5  -3 127.847 5.88190   5
  -1  -5  -3 127.883 6.15162   3
  -1  -5  -3 130.693 6.16210   8
  -1  -5  -3 125.054 6.19092   7
   1   5   3 131.918 6.12441   8
   1   5   3 134.139 6.15804   3
   1   5   3 128.528 5.72523   4
   1   5   3 129.514 6.12229   6
   1   5   3 129.136 5.74044  10
   1   5   3 132.231 6.07057   1
   1   5   3 127.930 6.16435   1
   1   5   3 127.672 6.09533   7
  -2  -5  -3 199.133 9.30009  11
  -2  -5  -3 216.397 9.33569   6
  -2  -5  -3 203.845 9.31108   1
  -2  -5  -3 220.790 9.35106   1
  -2  -5  -3 202.346 9.15465   5
  -2  -5  -3 193.653 9.45441   7
  -2  -5  -3 204.828 9.40408   3
  -2  -5  -3 208.776 9.45295   8
   2   5   3 220.328 9.44700   3
   2   5   3 211.320 9.45800   7
   2   5   3 210.967 9.30255   1
   2   5   3 228.770 9.49297   8
   2   5   3 210.771 9.33401   1
   2   5   3 206.469 9.29321   6
  -3  -5  -3 102.594 5.57082   8
  -3  -5  -3 112.046 5.53997   3
  -3  -5  -3 120.264 5.34135   1
  -3  -5  -3 101.545 5.57659   7
  -3  -5  -3 107.494 5.28393   1
  -3  -5  -3 114.333 5.27637   6
   3   5   3 115.124 5.29007   1
   3   5   3 116.181 5.61816   3
   3   5   3 112.931 5.53954   8
  -4  -5  -3 41.5533 3.33854   7
  -4  -5  -3 41.3095 3.49710   8
  -4  -5  -3 47.5840 2.85423   1
  -4  -5  -3 45.9540 3.47793   3
  -4  -5  -3 43.9663 2.73944   1
   4   5   3 49.7414 3.26240  12
   4   5   3 48.2555 2.76336   1
   4   5   3 47.5106 3.50082   3
   4   5   3 40.7328 3.28970   8
   4   5   3 49.5117 2.71691   1
  -5  -5  -3 21.5028 3.17068   3
  -5  -5  -3 18.1243 2.53055   7
  -5  -5  -3 18.3628 2.44759   8
  -6  -5  -3 -0.0008 2.03713  11
  -6  -5  -3 2.46072 2.66771   2
  -6  -5  -3 3.01083 2.71965   9
  -6  -5  -3 2.74381 2.35407   8
  -6  -5  -3 2.15247 2.46332   7
  -6  -5  -3 -0.9866 2.56277   3
  -6  -5  -3 0.85760 1.98232   5
  -7  -5  -3 -2.5884 3.14495   8
  -7  -5  -3 1.79553 2.74106   5
  -7  -5  -3 -0.1753 2.63173  11
  -7  -5  -3 1.80966 3.39850   3
  -7  -5  -3 -1.8171 3.43762   9
  -7  -5  -3 4.77048 3.44989   7
  -7  -5  -3 3.50006 3.47529   2
   7  -6  -3 0.77067 3.21630   1
   7  -6  -3 5.04935 3.53716   2
  -7   6   3 7.18671 2.77180   7
  -7   6   3 -0.7521 2.88946   1
   6  -6  -3 10.5600 2.56577   1
  -6   6   3 12.0951 2.32195   7
  -6   6   3 10.6373 2.63231   1
   5  -6  -3 48.1513 3.33666   1
   5  -6  -3 48.1767 3.68258   7
   5  -6  -3 45.3345 3.36134   5
   5  -6  -3 47.9637 3.22863   6
   5  -6  -3 45.3798 4.15815   1
  -5   6   3 45.1198 3.51340   7
  -5   6   3 42.2374 3.37079   5
  -5   6   3 52.2697 4.07239   1
   4  -6  -3 44.5928 3.15245   1
   4  -6  -3 33.9056 3.03697  11
   4  -6  -3 43.9854 3.22468   5
   4  -6  -3 46.2212 3.37738   7
   4  -6  -3 37.6644 3.49989   1
   4  -6  -3 45.0789 3.05373   6
  -4   6   3 36.7811 3.00506   1
  -4   6   3 45.1556 3.47070   1
  -4   6   3 35.8216 2.73691   6
  -4   6   3 41.4962 3.04418   7
  -4   6   3 38.1997 2.97269   4
  -4   6   3 39.4947 2.82485   8
  -4   6   3 41.6951 3.08639   5
   3  -6  -3 63.4496 4.04634   5
   3  -6  -3 74.3450 4.20785   1
   3  -6  -3 74.4533 4.21047   7
   3  -6  -3 64.8804 3.98959  11
   3  -6  -3 74.5561 4.28227   1
   3  -6  -3 66.7981 4.26282   9
   3  -6  -3 78.5152 4.14463   6
  -3   6   3 77.1966 4.04971  11
  -3   6   3 67.2270 4.15534   1
  -3   6   3 75.8313 4.08756   4
  -3   6   3 72.3393 4.03963   5
  -3   6   3 71.9124 3.90010   8
  -3   6   3 75.8073 4.02439   7
  -3   6   3 71.2049 4.20000   1
  -3   6   3 68.5716 4.03122   6
  -3   6   3 73.4494 4.00276   3
   2  -6  -3 27.6732 2.37417   7
   2  -6  -3 22.5861 2.26771   1
   2  -6  -3 23.2299 2.29587   5
   2  -6  -3 19.4661 2.19582  11
   2  -6  -3 28.1228 2.55628   1
   2  -6  -3 27.1281 2.43093   6
  -2   6   3 25.0941 2.32414   5
  -2   6   3 27.2695 2.24740  11
  -2   6   3 26.1990 2.04454   7
  -2   6   3 24.3696 2.04515   8
  -2   6   3 20.3303 2.44822   1
  -2   6   3 25.5312 2.32127   4
  -2   6   3 24.5057 2.23579   1
  -2   6   3 22.2938 2.19183   3
  -2   6   3 22.3274 2.30413   6
   1  -6  -3 14.5662 1.97734   7
   1  -6  -3 14.4160 1.61261   8
   1  -6  -3 14.6307 2.05174   6
   1  -6  -3 13.4759 1.86936   1
   1  -6  -3 13.7467 1.58742   5
   1  -6  -3 13.1678 1.64987  11
   1  -6  -3 15.0329 2.28337   1
  -1   6   3 16.4738 1.80101   1
  -1   6   3 17.0106 2.01031  11
  -1   6   3 16.7358 1.96725   3
  -1   6   3 13.0492 1.71687   7
  -1   6   3 14.6180 1.81385   1
  -1   6   3 13.1574 1.93301  10
  -1   6   3 15.1347 1.80995   8
  -1   6   3 14.7871 1.87438   4
  -1   6   3 14.7099 1.80408   6
   0  -6  -3 150.215 6.73408   1
   0  -6  -3 147.468 6.68616   6
   0  -6  -3 135.741 6.60037   7
   0  -6  -3 133.533 6.59382  11
   0  -6  -3 131.492 6.55442   1
   0  -6  -3 130.803 6.40619   5
   0  -6  -3 129.062 6.54629   8
   0   6   3 144.249 6.55062   8
   0   6   3 147.692 6.39981  10
   0   6   3 139.291 6.49194   7
   0   6   3 136.196 6.64847   6
   0   6   3 143.440 6.35427   4
   0   6   3 143.168 6.62067   3
   0   6   3 137.660 6.52838   1
   0   6   3 134.276 6.68489   1
  -1  -6  -3 80.8594 4.01020   1
  -1  -6  -3 67.5049 3.63180   5
  -1  -6  -3 66.0335 3.82524  11
  -1  -6  -3 78.2308 3.89225   6
  -1  -6  -3 68.3803 3.94924   3
  -1  -6  -3 68.8714 3.85904   8
  -1  -6  -3 68.1530 3.70419   1
  -1  -6  -3 59.6515 3.78625   7
   1   6   3 69.3780 3.78351   8
   1   6   3 66.8367 3.90987   3
   1   6   3 69.3903 3.80816   6
   1   6   3 68.8106 3.92709   1
   1   6   3 69.2100 3.40564   4
   1   6   3 72.0663 3.64321   1
   1   6   3 73.2809 3.43693  10
   1   6   3 55.6081 3.60708   7
  -2  -6  -3 88.9255 4.63495   1
  -2  -6  -3 98.8040 4.78228   1
  -2  -6  -3 83.9858 4.62987  11
  -2  -6  -3 87.9952 4.79307   8
  -2  -6  -3 86.9153 4.76755   3
  -2  -6  -3 84.3111 4.70468   7
  -2  -6  -3 88.3903 4.50009   5
  -2  -6  -3 93.6290 4.72188   6
   2   6   3 105.479 4.68402   6
   2   6   3 91.7038 4.78827   8
   2   6   3 91.7086 4.74009   1
   2   6   3 87.9008 4.57713   1
   2   6   3 96.0104 4.85476   3
   2   6   3 89.3676 4.60668   7
  -3  -6  -3 28.2938 2.67920  11
  -3  -6  -3 30.3784 2.87046   3
  -3  -6  -3 31.7157 2.72053   1
  -3  -6  -3 26.7461 2.93433   8
  -3  -6  -3 31.6725 2.61233   6
  -3  -6  -3 23.0931 2.52117   7
  -3  -6  -3 33.4719 2.56009   1
   3   6   3 30.8987 2.64757   1
   3   6   3 36.5384 2.98615   3
   3   6   3 27.4594 2.77248   8
   3   6   3 30.6430 2.40280   6
   3   6   3 29.0723 2.44536   1
  -4  -6  -3 9.71358 1.50667   6
  -4  -6  -3 5.60975 1.99413   8
  -4  -6  -3 14.8034 2.14688   1
  -4  -6  -3 10.4972 1.66305   1
  -4  -6  -3 9.50228 1.96107   3
  -4  -6  -3 14.2777 2.06205   7
   4   6   3 10.5566 1.52595   1
   4   6   3 12.3500 1.86579  12
   4   6   3 7.62156 1.94627   3
   4   6   3 7.83996 1.78990   8
  -5  -6  -3 19.9199 2.72163   3
  -5  -6  -3 19.5063 2.41414   1
  -5  -6  -3 22.1873 2.63085   1
  -5  -6  -3 23.9394 3.32464   7
  -5  -6  -3 20.0288 2.76821   8
   5   6   3 23.5797 3.26738  12
   5   6   3 22.0908 2.33056   1
   5   6   3 17.6192 2.46139   1
   5   6   3 25.6403 3.53615   3
  -6  -6  -3 48.4902 4.95240   9
  -6  -6  -3 39.4010 4.60840   8
  -6  -6  -3 39.7855 4.49593  11
  -6  -6  -3 46.8624 4.73174   3
  -6  -6  -3 44.2951 4.56587   7
  -7  -6  -3 16.9133 3.02838   5
  -7  -6  -3 8.69838 3.45228   8
  -7  -6  -3 12.8737 3.14970  11
  -7  -6  -3 12.3190 3.68509   3
  -7  -6  -3 10.3878 3.89813   7
  -7  -6  -3 14.0257 3.91661   9
  -7  -6  -3 14.7163 3.96657   2
   7  -7  -3 -3.5170 4.17647   1
   7  -7  -3 1.38881 4.18753   2
  -7   7   3 -1.9261 3.11392   7
   6  -7  -3 1.89011 2.94415   1
  -6   7   3 1.92191 2.39274   7
   5  -7  -3 7.98258 2.42232   1
   5  -7  -3 5.90541 2.18772   7
   5  -7  -3 4.53586 1.70933   5
  -5   7   3 4.09423 1.70006   5
  -5   7   3 8.63133 2.09379   7
  -5   7   3 6.75122 2.33698   6
  -5   7   3 9.14037 2.28883   1
   4  -7  -3 3.42100 1.43966   6
   4  -7  -3 2.15807 1.57624   5
   4  -7  -3 1.97212 1.83347   7
   4  -7  -3 2.89907 1.95072   1
   4  -7  -3 6.37559 1.52020   1
  -4   7   3 4.01555 1.75907   7
  -4   7   3 -1.4246 1.14987   8
  -4   7   3 1.55458 1.33874   4
  -4   7   3 -1.1907 1.20470   6
  -4   7   3 2.41843 1.42974   5
   3  -7  -3 1.59456 1.34114   6
   3  -7  -3 1.45869 1.46981   5
   3  -7  -3 1.58789 1.35206   1
   3  -7  -3 4.79290 1.82323   7
   3  -7  -3 2.43735 1.48222   1
  -3   7   3 1.87170 1.32624   5
  -3   7   3 2.24609 1.35958   6
  -3   7   3 5.50623 1.56390   7
  -3   7   3 -0.1119 1.38406   1
  -3   7   3 2.79621 1.31646   4
  -3   7   3 0.39202 1.01867   8
  -3   7   3 2.19288 1.47478  10
  -3   7   3 0.82849 1.45926   3
   2  -7  -3 2.74366 1.43485   7
   2  -7  -3 3.38233 1.52658   1
   2  -7  -3 1.57443 1.16918  11
   2  -7  -3 3.66285 1.42539   5
   2  -7  -3 4.35129 1.52371   6
   2  -7  -3 1.67370 1.22149   1
  -2   7   3 2.98158 1.13842   1
  -2   7   3 4.22506 1.30841  11
  -2   7   3 0.69510 1.43589   6
  -2   7   3 2.93485 1.27651   4
  -2   7   3 0.70518 1.42026   1
  -2   7   3 2.73159 1.17189   3
  -2   7   3 3.51260 1.31233   7
  -2   7   3 2.45373 1.11234   8
  -2   7   3 1.86055 1.21627  10
  -2   7   3 2.03428 1.26172   5
   1  -7  -3 18.8412 2.34983   6
   1  -7  -3 19.1336 2.41020  11
   1  -7  -3 15.3284 2.17977   8
   1  -7  -3 16.5057 1.94250   1
   1  -7  -3 21.9514 2.27751   7
   1  -7  -3 16.9411 2.23321   5
   1  -7  -3 16.7135 2.50848   1
  -1   7   3 14.7391 1.84829   7
  -1   7   3 17.2554 2.00655   1
  -1   7   3 17.4880 2.35184   6
  -1   7   3 18.2085 2.22779   3
  -1   7   3 17.7995 2.03315   8
  -1   7   3 17.8903 2.18513   1
  -1   7   3 22.5564 2.24041   4
  -1   7   3 19.4553 2.20528  10
  -1   7   3 19.1291 2.28813  11
   0  -7  -3 7.14675 1.55700   1
   0  -7  -3 9.48679 1.68585   8
   0  -7  -3 8.93322 1.49917   5
   0  -7  -3 6.38859 1.75114   1
   0  -7  -3 8.22572 1.76406   6
   0  -7  -3 10.6152 1.69518   7
   0  -7  -3 8.48697 1.79381  11
   0   7   3 7.10584 1.35521   1
   0   7   3 8.83853 1.31026   4
   0   7   3 9.06953 1.87378   1
   0   7   3 6.98243 1.64091   6
   0   7   3 8.06425 1.23462   7
   0   7   3 9.38433 1.54336   3
   0   7   3 9.73821 1.37994  10
   0   7   3 11.0423 1.59815   8
  -1  -7  -3 189.566 9.24102   3
  -1  -7  -3 227.549 9.43154   1
  -1  -7  -3 189.580 9.04120   5
  -1  -7  -3 195.851 9.15684   1
  -1  -7  -3 186.595 9.20378   7
  -1  -7  -3 197.811 9.26262   8
  -1  -7  -3 218.464 9.34665   6
  -1  -7  -3 187.085 9.23951  11
   1   7   3 214.485 8.94296  10
   1   7   3 200.131 9.15823   7
   1   7   3 208.484 8.90034   4
   1   7   3 192.705 9.22350   6
   1   7   3 197.618 9.29330   3
   1   7   3 196.937 9.13768   1
   1   7   3 200.712 9.33068   1
   1   7   3 208.290 9.21674   8
  -2  -7  -3 149.611 7.28359   3
  -2  -7  -3 142.332 7.20108  11
  -2  -7  -3 172.919 7.38727   1
  -2  -7  -3 145.003 7.10676   1
  -2  -7  -3 148.185 7.28386   8
  -2  -7  -3 143.895 7.05010   5
  -2  -7  -3 159.091 7.27494   6
  -2  -7  -3 143.735 7.20852   7
   2   7   3 150.888 6.74532   4
   2   7   3 144.807 7.10439   1
   2   7   3 163.133 7.39940   3
   2   7   3 153.851 7.24451   8
   2   7   3 139.944 7.12352   6
   2   7   3 148.639 6.69481  10
   2   7   3 146.267 7.21570   1
  -3  -7  -3 1.32879 1.58814   3
  -3  -7  -3 1.14378 1.72395   8
  -3  -7  -3 -0.0121 1.63715   1
  -3  -7  -3 0.67263 1.43388   7
  -3  -7  -3 -0.8877 1.38500   1
  -3  -7  -3 0.76595 1.62542  11
  -3  -7  -3 -0.1184 1.51033   6
   3   7   3 1.39502 1.51191   8
   3   7   3 1.17374 1.46790   1
   3   7   3 -1.6927 1.34842   1
   3   7   3 -0.1152 1.36166   6
   3   7   3 3.96494 1.83624   3
  -4  -7  -3 3.28963 1.85308   3
  -4  -7  -3 -2.0558 1.70219   7
  -4  -7  -3 -2.3248 1.52768   6
  -4  -7  -3 -0.4326 1.74531   1
  -4  -7  -3 1.67179 1.95489   8
  -4  -7  -3 -0.1463 1.52529   1
   4   7   3 1.58181 1.68467   8
   4   7   3 0.22871 1.93075   3
   4   7   3 -0.4699 1.60073   1
   4   7   3 -0.5551 1.37520   6
   4   7   3 1.40576 1.56990   1
  -5  -7  -3 42.1062 3.75922   7
  -5  -7  -3 36.3021 3.33980   6
  -5  -7  -3 41.1650 4.30557   3
  -5  -7  -3 41.6737 3.40318   1
  -5  -7  -3 40.4734 3.68377   1
  -5  -7  -3 41.2144 4.10295   8
   5   7   3 43.1318 4.23608   3
   5   7   3 38.9972 4.06827  12
   5   7   3 37.6465 3.26331   1
   5   7   3 41.8176 3.91817   8
  -6  -7  -3 38.6314 5.14702   3
  -6  -7  -3 56.0155 5.13514   8
  -6  -7  -3 57.8467 4.86687   7
   6   7   3 39.5092 4.82945  12
  -6   8   3 5.42836 3.03658   7
  -6   8   3 -4.4533 2.93142   1
   5  -8  -3 4.58306 2.10224   5
   5  -8  -3 -2.7762 1.99833   7
  -5   8   3 3.55046 2.27207   7
  -5   8   3 1.90325 2.51409   1
  -5   8   3 3.37741 1.97282   5
   4  -8  -3 -1.3291 1.54403   6
   4  -8  -3 -1.3785 1.89484   1
   4  -8  -3 3.49162 1.69766   1
   4  -8  -3 -3.4839 1.73084   5
   4  -8  -3 -1.5513 2.03272   7
  -4   8   3 0.79579 1.52623   4
  -4   8   3 -1.9978 1.86031   1
  -4   8   3 5.33375 1.85697   7
  -4   8   3 0.87347 1.84493   1
  -4   8   3 -0.3985 1.49240   6
  -4   8   3 1.45303 1.64102   5
   3  -8  -3 0.12156 1.65061   6
   3  -8  -3 -0.4720 1.66624   1
   3  -8  -3 2.31385 1.86730   7
   3  -8  -3 -0.8348 1.51338   5
   3  -8  -3 -0.2892 1.86619   1
  -3   8   3 1.68841 1.65118   7
  -3   8   3 -2.6768 1.46041   1
  -3   8   3 -1.2699 1.36657   4
  -3   8   3 -3.3000 1.43252   6
  -3   8   3 -0.3815 1.39886   5
  -3   8   3 1.59394 1.44456  10
  -3   8   3 -0.3263 1.74187   1
   2  -8  -3 10.7778 1.64910  11
   2  -8  -3 10.2311 1.99888   1
   2  -8  -3 9.87419 1.89905   5
   2  -8  -3 10.6913 1.86999   1
   2  -8  -3 15.1258 2.19756   6
   2  -8  -3 9.65781 1.90989   7
  -2   8   3 13.2349 1.77975   4
  -2   8   3 10.7171 1.71260   7
  -2   8   3 10.2563 1.84781   1
  -2   8   3 8.77536 1.92248   1
  -2   8   3 10.7069 1.74216   5
  -2   8   3 10.5939 1.86507   6
  -2   8   3 11.1011 1.73429  10
  -2   8   3 13.3747 2.01564   3
   1  -8  -3 0.03439 1.24063   8
   1  -8  -3 0.39246 1.37663   5
   1  -8  -3 -0.0914 1.45563   6
   1  -8  -3 0.95823 1.44874  11
   1  -8  -3 2.75931 1.69826   1
   1  -8  -3 0.63632 1.45405   7
   1  -8  -3 -0.0576 1.22962   1
  -1   8   3 2.25457 1.42818   3
  -1   8   3 -1.3780 1.59277   6
  -1   8   3 3.09615 2.16044   8
  -1   8   3 1.68462 1.25680  10
  -1   8   3 2.03460 1.14718   7
  -1   8   3 -0.1194 1.62331   1
  -1   8   3 -1.6243 1.13177   4
  -1   8   3 0.49174 1.15185   1
   0  -8  -3 -0.5061 1.49286  11
   0  -8  -3 0.40989 1.65165   6
   0  -8  -3 0.87498 1.69833   1
   0  -8  -3 0.83621 1.45415   8
   0  -8  -3 3.30797 1.45434   7
   0  -8  -3 -0.2793 1.36525   5
   0   8   3 0.31241 1.06389   7
   0   8   3 1.91428 1.29883   3
   0   8   3 0.87213 1.19361   4
   0   8   3 0.28032 1.09993   1
   0   8   3 0.63924 1.50026   6
   0   8   3 0.79100 1.16976  10
   0   8   3 0.86744 1.34393   8
   0   8   3 1.88649 1.69107   1
  -1  -8  -3 100.470 5.26277   1
  -1  -8  -3 103.634 5.35037   8
  -1  -8  -3 102.118 5.55499   3
  -1  -8  -3 96.4948 5.57998  11
  -1  -8  -3 110.969 5.59636   6
  -1  -8  -3 97.1312 5.37183   5
  -1  -8  -3 110.418 5.65241   1
  -1  -8  -3 96.0595 5.29454   7
   1   8   3 102.082 5.21631   1
   1   8   3 100.697 5.52527   3
   1   8   3 100.880 5.65138   1
   1   8   3 109.236 5.12203  10
   1   8   3 104.201 5.13169   4
   1   8   3 105.736 5.32894   8
   1   8   3 94.2583 5.47837   6
  -2  -8  -3 35.3339 3.20095   3
  -2  -8  -3 38.1249 3.51471   1
  -2  -8  -3 34.8944 3.03788   8
  -2  -8  -3 32.6286 3.13821   5
  -2  -8  -3 34.7464 3.25155  11
  -2  -8  -3 37.9594 3.23966   6
  -2  -8  -3 29.6056 2.66995   1
   2   8   3 34.5811 2.66196   4
   2   8   3 34.9773 2.78438   1
   2   8   3 32.0043 2.98550   6
   2   8   3 30.0030 3.17627   1
   2   8   3 37.7024 3.36264   3
   2   8   3 33.8391 2.53990  10
   2   8   3 34.0592 3.03275   8
  -3  -8  -3 11.8602 2.13063   6
  -3  -8  -3 11.7741 1.80281   1
  -3  -8  -3 13.9572 2.00502   5
  -3  -8  -3 14.5015 2.16322   8
  -3  -8  -3 9.69001 1.96539  11
  -3  -8  -3 9.49731 2.13117   1
  -3  -8  -3 7.79302 2.18577   3
   3   8   3 10.7677 2.07442   1
   3   8   3 13.5034 2.14280   8
   3   8   3 13.5274 2.03255   6
   3   8   3 9.32610 1.92655   1
   3   8   3 10.0262 2.14880   3
  -4  -8  -3 5.51341 1.84148   1
  -4  -8  -3 12.1191 2.23793   8
  -4  -8  -3 6.38833 2.39420   3
  -4  -8  -3 9.58938 2.08592   1
  -4  -8  -3 13.2627 2.07350   6
  -4  -8  -3 12.0647 2.20300   7
  -4  -8  -3 8.54337 2.29306  11
   4   8   3 8.73975 2.08707   1
   4   8   3 7.85551 2.16403   8
   4   8   3 4.77635 2.31261   3
   4   8   3 5.92431 1.93870   6
   4   8   3 11.1178 2.13793   1
  -5  -8  -3 25.0751 3.49596   1
  -5  -8  -3 32.1784 3.86656   1
  -5  -8  -3 36.6017 4.16020   3
  -5  -8  -3 26.1264 3.14685   8
  -5  -8  -3 22.4483 2.68635   6
  -5  -8  -3 26.4295 3.58339   7
   5   8   3 22.4434 2.85968   8
   5   8   3 25.3508 3.39844   3
   5   8   3 28.1166 3.48066   1
   5   8   3 25.6847 3.53463   1
   5   8   3 22.9663 3.08217  12
  -6  -8  -3 13.1470 2.74065   1
  -6  -8  -3 9.40871 3.40235   8
  -6  -8  -3 16.3842 2.50331   6
  -6  -8  -3 20.0854 3.22281   7
  -6  -8  -3 13.7720 3.48379   3
  -6  -8  -3 16.5145 2.60502   1
   6   8   3 15.9201 2.63187   1
   6   8   3 18.6229 3.49090  12
   6   8   3 12.9495 2.62385   1
   6   8   3 10.9673 2.31155   6
   6   8   3 19.6248 3.70003   3
   5  -9  -3 1.90447 3.34403   1
   5  -9  -3 0.00586 2.51351   5
  -5   9   3 1.10865 2.79918   1
  -5   9   3 -2.9086 2.20705   5
  -5   9   3 6.42750 2.78541   7
   4  -9  -3 -4.3890 2.29630   7
   4  -9  -3 -0.1002 2.00070   6
   4  -9  -3 0.28019 2.22364   5
   4  -9  -3 -2.0358 2.85732   1
   4  -9  -3 -1.8902 2.07952   1
  -4   9   3 2.50880 2.34992   1
  -4   9   3 0.26049 1.93918   5
  -4   9   3 1.58154 1.98013  10
  -4   9   3 -2.0052 1.84412   4
  -4   9   3 1.80104 1.79675   1
  -4   9   3 1.87758 2.15812   7
  -4   9   3 3.68047 1.75616   6
   3  -9  -3 11.4358 2.16104   6
   3  -9  -3 5.44099 2.13968   5
   3  -9  -3 10.7941 2.20714   1
  -3   9   3 8.98802 2.60238   6
  -3   9   3 6.12340 3.33149   1
  -3   9   3 5.12407 2.23891   7
  -3   9   3 3.38946 1.84470   5
  -3   9   3 7.63242 2.01458  10
  -3   9   3 10.3836 2.39746   1
  -3   9   3 8.77314 2.06703   4
   2  -9  -3 10.3679 1.95026  11
   2  -9  -3 11.0218 2.08900   6
   2  -9  -3 10.6142 2.16418   5
   2  -9  -3 11.2300 2.19293   7
   2  -9  -3 10.5043 2.49133   1
  -2   9   3 12.5159 1.92936   1
  -2   9   3 8.59005 1.88087   7
  -2   9   3 12.9077 1.98874  10
   1  -9  -3 1.56604 1.67305   7
   1  -9  -3 2.49574 1.97104   1
   1  -9  -3 1.22364 1.72621   6
   1  -9  -3 -0.5800 1.46867  11
   1  -9  -3 -2.9668 1.56501   5
  -1   9   3 -0.0517 1.25091   1
  -1   9   3 -2.3036 1.36665   4
  -1   9   3 -0.6946 1.47052   7
  -1   9   3 -3.0513 1.28219  10
  -1   9   3 2.09404 1.96139   6
  -1   9   3 -0.2594 1.35596   3
  -1   9   3 3.14286 1.83465   1
   0  -9  -3 11.4174 2.23177   6
   0  -9  -3 6.05992 1.86229   5
   0  -9  -3 11.4087 2.27908   1
   0  -9  -3 7.67720 1.70624   8
   0  -9  -3 5.76606 1.89104  11
   0   9   3 8.41713 1.93950   3
   0   9   3 11.0152 1.68387   1
   0   9   3 5.82638 1.57383   7
   0   9   3 8.56858 2.20109   1
   0   9   3 9.64553 1.66179  10
   0   9   3 8.71008 1.67049   4
   0   9   3 7.91643 2.05001   6
  -1  -9  -3 1.43800 1.68072   3
  -1  -9  -3 1.41636 1.93782   6
  -1  -9  -3 1.28878 1.80378  11
  -1  -9  -3 4.11158 1.55015   8
  -1  -9  -3 4.24812 1.91802   1
  -1  -9  -3 -0.1432 1.63965   5
   1   9   3 -0.6637 1.40059  10
   1   9   3 0.84183 1.41928   4
   1   9   3 0.01356 1.45040   1
   1   9   3 0.56112 1.79587   1
   1   9   3 -2.6904 1.62068   6
   1   9   3 3.62900 1.57714   8
  -2  -9  -3 11.1334 1.94493   5
  -2  -9  -3 9.25845 2.05117  11
  -2  -9  -3 10.5955 2.26409   3
  -2  -9  -3 11.8790 2.44746   1
  -2  -9  -3 12.5956 1.91803   8
  -2  -9  -3 8.69499 1.70752   1
  -2  -9  -3 12.4486 2.40632   6
   2   9   3 10.7451 1.83439   8
   2   9   3 12.0330 2.24318   3
   2   9   3 14.1365 1.87342   1
   2   9   3 10.6844 2.17092   1
   2   9   3 11.2692 1.66073  10
   2   9   3 11.1893 2.13359   6
   2   9   3 11.9031 1.67854   4
  -3  -9  -3 4.01289 2.17527   3
  -3  -9  -3 3.82579 2.06901  11
  -3  -9  -3 1.95147 2.19504   6
  -3  -9  -3 2.35377 2.39338   1
  -3  -9  -3 3.15415 2.10936   8
  -3  -9  -3 4.89729 2.12922   5
  -3  -9  -3 3.10111 1.81882   1
   3   9   3 4.42914 1.33532  10
   3   9   3 1.80136 2.11567   3
   3   9   3 2.32882 1.81857   1
   3   9   3 2.22609 1.32595   4
   3   9   3 2.48611 2.17043   1
   3   9   3 4.60972 2.11784   6
   3   9   3 4.95912 1.97753   8
  -4  -9  -3 6.82307 2.36661   5
  -4  -9  -3 8.05341 2.50756   1
  -4  -9  -3 5.77447 2.46271  11
  -4  -9  -3 4.10933 2.51632   3
  -4  -9  -3 11.2027 2.32207   6
  -4  -9  -3 5.07218 2.11449   1
  -4  -9  -3 6.33242 2.21724   8
   4   9   3 7.14469 2.30247   1
   4   9   3 6.16104 2.40699   1
   4   9   3 7.86971 2.79324   3
   4   9   3 6.52186 2.27492   6
   4   9   3 10.2303 2.39046   8
  -5  -9  -3 12.0838 2.55675   6
  -5  -9  -3 5.53120 2.80229   1
  -5  -9  -3 5.45300 2.71151   8
  -5  -9  -3 0.63977 2.33621   1
  -5  -9  -3 5.73220 2.97597  11
  -5  -9  -3 9.06254 3.08179   3
   5   9   3 9.33977 2.78491   8
   5   9   3 7.38956 2.55510   1
   5   9   3 12.7381 3.37834   3
   5   9   3 3.57136 2.28684   6
   5   9   3 5.93158 3.09900  12
   5   9   3 6.33275 2.51997   1
   4 -10  -3 -1.7241 2.47230   6
   4 -10  -3 2.38691 2.52522   1
   4 -10  -3 1.63774 3.10124   1
   4 -10  -3 1.58215 2.66458   5
   4 -10  -3 1.36875 3.04280   7
  -4  10   3 1.21783 2.24076   5
  -4  10   3 0.28957 2.96115   1
  -4  10   3 5.91489 2.23844   6
  -4  10   3 3.39959 2.25203  10
  -4  10   3 4.58048 2.32457   1
  -4  10   3 -0.8975 2.62191   7
  -4  10   3 0.79366 2.29184   4
   3 -10  -3 2.68319 2.51821   5
   3 -10  -3 1.20608 2.47972   1
   3 -10  -3 4.69710 2.44544   1
   3 -10  -3 4.50725 2.60562   6
  -3  10   3 4.17883 2.43820  10
  -3  10   3 5.98757 2.36620   1
  -3  10   3 4.58669 2.26337   6
  -3  10   3 3.13318 2.20514   4
  -3  10   3 3.50239 2.47574   7
  -3  10   3 3.91377 2.50881   1
   2 -10  -3 9.94396 2.81482   1
   2 -10  -3 8.97984 2.52686   6
   2 -10  -3 3.91606 2.34846   5
   2 -10  -3 9.04456 2.34325   1
  -2  10   3 3.60044 2.11205   6
  -2  10   3 7.15324 2.13214   7
  -2  10   3 5.93424 2.54725   1
  -2  10   3 4.49515 2.02040   4
  -2  10   3 5.76459 1.99647  10
  -2  10   3 4.82143 2.05679   1
   1 -10  -3 8.34021 2.40684   1
   1 -10  -3 1.47557 2.30882   6
   1 -10  -3 2.96167 2.01812   5
   1 -10  -3 3.32795 2.09465  11
   1 -10  -3 3.21350 1.69913   8
   1 -10  -3 5.79330 1.79783   1
  -1  10   3 0.87452 1.95609   6
  -1  10   3 4.72404 1.83754  10
  -1  10   3 3.04504 1.76746   1
  -1  10   3 4.20511 2.08713   7
  -1  10   3 0.25556 2.02691   1
  -1  10   3 0.64586 1.81621   4
   0 -10  -3 -0.1731 2.94756   7
   0 -10  -3 -0.5146 2.16205   6
   0 -10  -3 2.26097 2.14828   1
   0 -10  -3 -0.2548 1.56469   8
   0 -10  -3 0.59025 2.08911  11
   0 -10  -3 -1.9521 1.82174   5
   0  10   3 -1.6916 1.65905   7
   0  10   3 -0.3649 1.74192  10
   0  10   3 2.13087 2.22928   1
   0  10   3 -1.0702 1.70758   4
   0  10   3 3.68686 1.83104   3
   0  10   3 3.62146 2.14868   6
  -1 -10  -3 0.19931 1.93503   5
  -1 -10  -3 -0.7039 2.26087   6
  -1 -10  -3 -1.4720 2.03401  11
  -1 -10  -3 -3.2006 1.67700   8
  -1 -10  -3 0.64418 1.74556   7
  -1 -10  -3 2.12531 2.36114   1
  -1 -10  -3 -2.5335 1.82900   3
   1  10   3 -2.3668 2.04177   6
   1  10   3 0.54910 1.64304  10
   1  10   3 1.56613 2.20967   1
   1  10   3 0.92345 1.64645   4
   1  10   3 -3.5821 1.85085   3
  -2 -10  -3 5.77403 2.35487   3
  -2 -10  -3 3.45465 1.96404   8
  -2 -10  -3 5.84129 2.15444   5
  -2 -10  -3 6.18982 2.38731  11
  -2 -10  -3 7.51590 2.49335   6
  -2 -10  -3 6.42648 2.68782   1
   2  10   3 4.58851 2.31294   6
   2  10   3 5.62583 1.68269   1
   2  10   3 5.15410 1.68966  10
   2  10   3 7.13600 2.48707   1
   2  10   3 2.41914 1.99038   8
   2  10   3 4.70627 2.37237   3
   2  10   3 2.74759 1.77353   4
  -3 -10  -3 11.3670 2.42450   3
  -3 -10  -3 4.82321 2.42133   5
  -3 -10  -3 12.3638 2.96619   1
  -3 -10  -3 10.2980 2.62614  11
  -3 -10  -3 13.4141 2.89945   6
  -3 -10  -3 10.7420 2.30960   1
  -3 -10  -3 9.03394 2.30823   8
   3  10   3 6.92102 2.76866   3
   3  10   3 7.31504 1.79896   4
   3  10   3 9.48196 2.11924   1
   3  10   3 12.1676 2.72114   1
   3  10   3 10.8650 2.50937   8
   3  10   3 9.17220 1.70981  10
   3  10   3 15.3455 2.60259   6
  -4 -10  -3 12.0127 3.02540   3
  -4 -10  -3 17.0959 3.18866   1
  -4 -10  -3 9.02992 2.51542   1
  -4 -10  -3 7.14621 2.90761  11
  -4 -10  -3 9.93198 2.89150   5
  -4 -10  -3 7.25745 2.64344   8
  -4 -10  -3 15.2960 2.95620   6
   4  10   3 15.2460 3.20886   3
   4  10   3 12.4284 2.91564   6
   4  10   3 12.1671 2.73600   8
   4  10   3 8.02499 2.96102   1
   4  10   3 9.18075 2.61516   1
  -5 -10  -3 -0.3165 3.01015   8
  -5 -10  -3 -1.5761 3.25580  11
  -5 -10  -3 -2.0371 2.69294   1
  -5 -10  -3 0.83379 3.22320   1
  -5 -10  -3 1.32610 3.35068   3
  -5 -10  -3 7.57284 2.97658   6
   5  10   3 3.75429 2.79009   6
   5  10   3 -0.5157 3.04250   1
   5  10   3 -0.9035 3.64866   3
   5  10   3 3.84165 3.36234   8
   5  10   3 5.14449 2.65158   1
   5  10   3 6.69999 3.83849  12
   3 -11  -3 -0.4909 3.05960   5
   3 -11  -3 6.11594 2.92734   6
   3 -11  -3 0.85743 3.32515   7
   3 -11  -3 5.08415 3.36136   1
   3 -11  -3 8.66329 3.34080   1
  -3  11   3 2.19151 2.87859   1
  -3  11   3 1.82167 2.71225   1
  -3  11   3 3.40169 2.51560  10
  -3  11   3 -0.0233 2.53501   4
  -3  11   3 5.43614 2.88060   7
  -3  11   3 0.12580 2.67573   6
   2 -11  -3 2.59495 2.67543   7
   2 -11  -3 0.58620 2.73023   5
   2 -11  -3 -1.9039 2.71628   1
   2 -11  -3 1.85826 2.80675   1
   2 -11  -3 -3.5902 2.71921   6
  -2  11   3 1.94028 2.71180   7
  -2  11   3 5.60670 2.71955   1
  -2  11   3 2.38220 2.11090   4
  -2  11   3 4.16535 2.60846   1
  -2  11   3 3.89227 2.39476  10
  -2  11   3 1.06652 2.35277   6
   1 -11  -3 -1.6211 2.54887   1
   1 -11  -3 3.62247 2.26152   1
   1 -11  -3 -3.8458 2.39598   5
   1 -11  -3 2.33933 2.63041   6
   1 -11  -3 1.45149 2.58141   7
   1 -11  -3 5.56141 2.41124  11
  -1  11   3 -2.2296 2.40620   7
  -1  11   3 6.73764 2.36388  10
  -1  11   3 4.77879 2.50760   1
  -1  11   3 2.86712 2.61872   6
  -1  11   3 3.01405 2.22754   4
   0 -11  -3 0.91610 2.51568   6
   0 -11  -3 1.22014 2.27353   5
   0 -11  -3 3.70953 2.49523   7
   0 -11  -3 7.93940 2.73591   1
   0 -11  -3 3.02289 2.55540  11
   0  11   3 1.52181 2.13853  10
   0  11   3 0.63481 2.27859   3
   0  11   3 1.92127 2.10341   4
   0  11   3 6.75998 2.35981   7
  -1 -11  -3 -0.8456 2.72701   1
  -1 -11  -3 1.23453 2.48610  11
  -1 -11  -3 3.71094 2.75338   6
  -1 -11  -3 1.23237 2.46105   5
  -1 -11  -3 1.53019 2.24673   7
  -1 -11  -3 -2.3755 1.92691   8
   1  11   3 -1.7578 2.01704   4
   1  11   3 0.62637 2.45251   6
   1  11   3 2.61538 2.63357   1
   1  11   3 0.54399 2.07435  10
   1  11   3 0.05734 2.25372   3
  -2 -11  -3 3.33523 2.90178  11
  -2 -11  -3 0.17459 2.91327   6
  -2 -11  -3 2.52178 2.48723   5
  -2 -11  -3 5.36958 2.02723   8
  -2 -11  -3 2.99110 2.54280   3
  -2 -11  -3 2.45897 3.06943   1
   2  11   3 3.65796 2.70284   3
   2  11   3 3.18125 2.20525   4
   2  11   3 0.44481 2.58629   1
   2  11   3 3.73809 2.06126  10
   2  11   3 -1.1205 2.50942   6
  -3 -11  -3 11.0213 3.01858   3
  -3 -11  -3 9.79895 2.54698   8
  -3 -11  -3 5.27763 2.33933   1
  -3 -11  -3 11.1847 3.41184   1
  -3 -11  -3 3.97367 2.99142  11
  -3 -11  -3 11.5564 3.37118   6
  -3 -11  -3 5.10986 2.77087   5
   3  11   3 9.10444 3.31407   3
   3  11   3 7.87478 2.57826   1
   3  11   3 12.9583 3.10554   6
   3  11   3 8.83205 3.17788   1
   3  11   3 12.9134 2.94165   8
   3  11   3 3.83040 2.16010   4
   3  11   3 7.70434 2.02615  10
  -4 -11  -3 1.58549 3.32135   3
  -4 -11  -3 4.69740 3.58731  11
  -4 -11  -3 11.9116 3.40059   6
  -4 -11  -3 6.80453 3.32212   5
  -4 -11  -3 0.87427 2.71999   8
  -4 -11  -3 9.15816 3.64696   1
  -4 -11  -3 2.05571 2.81318   1
   4  11   3 6.24894 2.94592   1
   4  11   3 5.15581 3.62674   3
   4  11   3 4.27408 3.27857   1
   4  11   3 9.86544 3.19346   6
   1 -12  -3 3.72094 3.35619   7
   1 -12  -3 0.15711 3.10118   5
   1 -12  -3 5.54910 3.32180   1
   1 -12  -3 -0.2321 3.12593   6
  -1  12   3 -1.2008 2.76513   4
  -1  12   3 2.18354 3.27507   1
  -1  12   3 -0.7204 2.84737  10
  -1  12   3 2.39296 3.27549   6
  -1  12   3 2.19541 3.13538   1
  -1  12   3 5.45761 3.18141   7
   0 -12  -3 1.34244 3.16272   6
   0 -12  -3 3.11475 3.08694   7
   0 -12  -3 -1.5735 3.23977  11
   0 -12  -3 -2.6714 2.88929   5
   0 -12  -3 3.82879 3.56015   1
   0  12   3 -1.6964 2.67351  10
   0  12   3 0.81934 3.08403   6
   0  12   3 -1.2294 3.17057   1
   0  12   3 -0.2396 2.66394   4
  -1 -12  -3 -3.2750 2.77515   5
  -1 -12  -3 -0.0571 3.34636   6
  -1 -12  -3 3.25067 3.14065   7
  -1 -12  -3 -0.8744 3.43206   1
  -1 -12  -3 4.84539 3.48410  11
   1  12   3 -0.0975 2.48679  10
   1  12   3 -0.5969 2.59291   4
  -2 -12  -3 0.68998 2.70708   7
  -2 -12  -3 2.15822 3.67243   1
  -2 -12  -3 -3.0568 2.16277   8
  -2 -12  -3 0.73953 3.52630   6
  -2 -12  -3 -4.5039 3.41277  11
  -2 -12  -3 -3.4225 2.86957   3
  -2 -12  -3 -0.9688 3.12075   5
   2  12   3 4.02046 2.68829   4
   2  12   3 -4.3663 2.84607   6
   2  12   3 0.32156 3.08993   1
   2  12   3 -1.0226 2.64057  10
   6  11  -4 4.53257 3.08253   1
   6  11  -4 -0.4671 2.99516   6
   6  11  -4 6.04344 2.94477   1
  -6 -11   4 3.61605 3.25973   1
  -6 -11   4 5.51538 3.78158   1
  -6 -11   4 5.91118 2.84697   6
  -6 -11   4 5.18305 3.01696   3
  -6 -11   4 7.89997 3.17396   8
  -6 -11   4 5.21830 3.64394   2
   5  11  -4 4.16293 2.61653   8
   5  11  -4 -0.6344 2.46954   6
   5  11  -4 6.30881 2.95706   1
   5  11  -4 1.65071 2.70728   3
   5  11  -4 7.16673 3.78262  12
   5  11  -4 0.81058 2.74886   1
  -5 -11   4 9.65036 2.74260   3
  -5 -11   4 3.20747 3.17187   1
  -5 -11   4 8.45019 3.18907   8
  -5 -11   4 3.54936 2.75307   6
  -5 -11   4 8.88030 3.29372   1
  -5 -11   4 3.01981 2.64839  10
  -5 -11   4 6.74899 3.28107   2
   4  11  -4 2.93831 2.90404   1
   4  11  -4 5.35423 2.54111   8
   4  11  -4 -0.1828 2.35285   1
   4  11  -4 -0.3000 2.42918   6
   4  11  -4 4.53239 3.09974   3
  -4 -11   4 6.85023 3.10013   8
  -4 -11   4 7.20152 3.43606   2
  -4 -11   4 3.74688 2.79785   1
  -4 -11   4 8.60609 3.31406   1
  -4 -11   4 4.89393 2.81739   7
  -4 -11   4 6.93006 2.56295   6
  -4 -11   4 3.62458 2.82655   3
   3  11  -4 -1.1381 2.61898   8
   3  11  -4 3.51128 2.70964   3
   3  11  -4 0.88564 2.04909   6
   3  11  -4 -1.8968 3.01384   1
   3  11  -4 4.82901 2.13728   1
  -3 -11   4 2.48208 3.55995   2
  -3 -11   4 2.07984 2.74733   3
  -3 -11   4 1.75025 3.38208   1
  -3 -11   4 0.44147 2.51219   7
  -3 -11   4 -1.9950 2.98410  11
  -3 -11   4 0.76405 2.57950   5
   2  11  -4 -1.2192 2.89880   3
   2  11  -4 1.72526 2.54069   8
   2  11  -4 -1.2606 3.38480   1
  -2 -11   4 -0.8601 3.19602  11
  -2 -11   4 0.79374 2.61988   8
  -2 -11   4 0.44030 3.01982   5
  -2 -11   4 2.19001 2.42934   7
  -2 -11   4 -2.2058 3.04444   3
  -2 -11   4 -0.9319 3.61888   2
  -2 -11   4 1.28927 3.45232   1
   1  11  -4 2.57977 3.67693   1
   1  11  -4 0.74903 3.37595   3
   1  11  -4 2.98076 2.75783   8
  -1 -11   4 4.46771 3.69406  11
  -1 -11   4 -0.7072 2.82146   8
   7  10  -4 2.43370 3.15434   1
   7  10  -4 -1.5670 2.85158   6
  -7 -10   4 -0.5489 2.66923   4
  -7 -10   4 3.52864 2.62162   8
  -7 -10   4 3.44962 2.63507   9
  -7 -10   4 -0.1081 3.01592   1
  -7 -10   4 2.33891 2.56876   3
  -7 -10   4 -1.5558 2.78668   6
  -7 -10   4 2.95160 2.96056  10
   6  10  -4 3.70481 2.55389   6
   6  10  -4 5.38983 2.73485   1
   6  10  -4 11.0388 2.67924   1
   6  10  -4 13.1566 2.60748   3
  -6 -10   4 8.22728 2.72223   2
  -6 -10   4 6.75419 2.76449   3
  -6 -10   4 2.29003 2.74108  10
  -6 -10   4 6.96294 2.69056   6
  -6 -10   4 8.55245 2.97593   8
  -6 -10   4 8.16375 3.13379   1
  -6 -10   4 8.66750 2.64942   1
  -6 -10   4 3.29639 2.26773   4
   5  10  -4 6.40086 2.63534   1
   5  10  -4 3.84673 2.31779   8
   5  10  -4 2.44213 2.16119   6
   5  10  -4 6.02810 2.51652   3
   5  10  -4 5.22963 2.58923   1
  -5 -10   4 4.51156 2.59552   1
  -5 -10   4 1.69510 2.57757   6
  -5 -10   4 1.13942 2.46499   3
  -5 -10   4 7.36324 2.86636   2
  -5 -10   4 6.11013 2.62822   1
   4  10  -4 12.6051 2.84645   3
   4  10  -4 10.0231 2.79303   1
   4  10  -4 13.7949 2.32740   6
   4  10  -4 14.8393 2.39460   8
   4  10  -4 9.77801 2.34631   1
  -4 -10   4 12.6314 2.57035   1
  -4 -10   4 17.6276 3.05982   1
  -4 -10   4 12.4143 2.33535   6
  -4 -10   4 13.4595 3.05266   2
  -4 -10   4 17.4615 3.04460   3
   3  10  -4 1.66799 2.64269   1
   3  10  -4 5.32277 2.23811   3
   3  10  -4 6.20130 2.17613   8
   3  10  -4 3.77384 2.45532   1
  -3 -10   4 0.12010 2.16189   5
  -3 -10   4 3.88394 2.85773   2
  -3 -10   4 7.29396 2.59578   8
  -3 -10   4 3.53791 2.22845   7
   2  10  -4 -3.9340 2.63439   1
   2  10  -4 -0.1497 2.25999   3
   2  10  -4 4.27164 2.24521   8
  -2 -10   4 0.24408 2.51491   1
  -2 -10   4 2.31018 1.99581   7
  -2 -10   4 -1.1166 2.94301   2
  -2 -10   4 1.29002 2.37912   8
  -2 -10   4 1.01316 2.73257  11
  -2 -10   4 -1.8872 2.54734   5
   1  10  -4 1.31333 3.05256   1
   1  10  -4 -0.5931 2.22722   8
   1  10  -4 -4.4217 2.65812   3
  -1 -10   4 1.77815 3.28460   2
  -1 -10   4 0.06390 2.53976   5
  -1 -10   4 0.69568 2.89722   1
  -1 -10   4 0.95632 2.39589   8
  -1 -10   4 -1.7022 2.85496  11
   0  10  -4 1.45834 3.49510   1
   0  10  -4 1.21192 2.66808   8
   0  10  -4 4.61288 3.09199   3
   0 -10   4 -2.6077 3.19882   2
   0 -10   4 0.96477 3.13959   4
   0 -10   4 -2.4563 3.19752   1
   0 -10   4 -0.7758 3.48786  11
   0 -10   4 2.56058 2.93177   5
   8   9  -4 2.28629 3.22676   1
   8   9  -4 -4.1113 2.97660   6
  -8  -9   4 -3.9498 3.16374  10
  -8  -9   4 1.33897 2.95803   1
  -8  -9   4 1.54472 2.39594   3
  -8  -9   4 1.47174 2.73161   8
  -8  -9   4 0.56826 2.92316   6
  -8  -9   4 1.33714 2.55620   9
  -8  -9   4 -5.2622 2.65350   4
   7   9  -4 6.43161 4.44715   1
   7   9  -4 15.3257 4.25194   6
  -7  -9   4 13.6562 2.61889   8
  -7  -9   4 11.9667 2.53130   4
  -7  -9   4 14.3340 3.20485  10
  -7  -9   4 16.7432 2.81719   6
  -7  -9   4 16.9553 2.82626   3
  -7  -9   4 16.2354 3.23836   1
  -7  -9   4 15.6428 2.54941   9
   6   9  -4 5.19585 1.97014   3
   6   9  -4 9.63907 2.09208   1
  -6  -9   4 10.8429 2.25887   3
  -6  -9   4 12.0616 2.40196   1
  -6  -9   4 6.85765 2.31530   6
  -6  -9   4 8.83384 2.29922   2
  -6  -9   4 5.99032 2.00693   4
  -6  -9   4 9.48817 2.76815   1
  -6  -9   4 9.62692 2.13686   9
  -6  -9   4 12.2732 2.41022  10
   5   9  -4 -1.6434 2.00154   1
   5   9  -4 -0.8007 1.89581   3
  -5  -9   4 1.52813 1.94794   8
  -5  -9   4 -2.7017 1.68172   6
  -5  -9   4 0.97461 2.18539   1
  -5  -9   4 -0.7790 2.24306   2
  -5  -9   4 2.44217 2.47011   1
   4   9  -4 -3.7250 1.90989   1
   4   9  -4 -1.9249 1.73706   8
   4   9  -4 -1.1527 2.62356   6
   4   9  -4 1.15260 1.89598   3
  -4  -9   4 3.33603 1.59640   3
  -4  -9   4 -1.3809 1.57802   6
  -4  -9   4 -2.0391 1.81060   1
  -4  -9   4 -0.4505 2.01438   8
  -4  -9   4 0.53703 2.39252   2
   3   9  -4 12.5321 2.13352   1
   3   9  -4 17.3713 2.09533   8
   3   9  -4 11.3966 1.66034   6
   3   9  -4 13.3540 2.33671   3
   3   9  -4 11.7713 2.48973   1
  -3  -9   4 9.54720 2.16156   1
  -3  -9   4 11.6150 2.36389   3
  -3  -9   4 13.1284 2.12417   8
  -3  -9   4 12.5759 2.59186   1
  -3  -9   4 13.0217 2.72343   2
   2   9  -4 3.14309 2.10303   3
   2   9  -4 0.98068 2.34203   1
   2   9  -4 6.61571 1.90336   8
  -2  -9   4 4.03446 2.00746   8
  -2  -9   4 5.76631 1.68855   7
  -2  -9   4 3.48402 1.90447   3
  -2  -9   4 5.43934 2.68454   2
  -2  -9   4 5.57199 2.36061   1
  -2  -9   4 0.34288 2.18960  11
   1   9  -4 0.00408 2.23754   3
   1   9  -4 2.12834 1.85473   8
   1   9  -4 1.78232 2.48927   1
  -1  -9   4 1.91031 2.22816   2
  -1  -9   4 -0.4118 1.99898   3
  -1  -9   4 -4.3146 2.17172   5
  -1  -9   4 -0.6225 2.16680  11
  -1  -9   4 0.50625 2.45327   1
  -1  -9   4 0.11268 1.82536   8
   0   9  -4 6.23854 2.58690   3
   0   9  -4 2.17079 2.83203   1
   0   9  -4 2.99644 2.13798   8
   0  -9   4 2.08164 2.38421   5
   0  -9   4 5.92424 2.01232   4
   0  -9   4 3.09804 2.69244   1
   0  -9   4 -0.6332 2.60860  11
  -1   9  -4 -2.1939 3.37152   1
  -1   9  -4 3.91271 2.75313   3
  -1   9  -4 5.22141 2.30009   4
  -1   9  -4 1.82634 1.96544   1
  -1   9  -4 0.38834 2.25570   8
  -1   9  -4 0.26606 1.84139   6
   1  -9   4 0.63424 2.91973   5
   1  -9   4 0.42445 2.70451   9
   1  -9   4 4.47348 2.45943   4
   1  -9   4 -2.9813 2.43941   6
   1  -9   4 1.06384 2.51572   1
   1  -9   4 4.46919 3.16361   1
   1  -9   4 3.65306 2.61734  10
  -2   9  -4 2.51657 3.42579   3
  -2   9  -4 -0.6050 2.40015   6
  -2   9  -4 3.82755 2.84301   4
  -2   9  -4 6.74223 2.80563  10
   2  -9   4 1.91407 3.37963   1
   2  -9   4 1.12297 3.48555   5
  -9  -8   4 6.26985 3.54547   1
  -9  -8   4 4.95714 3.63431  10
  -9  -8   4 0.92248 2.85952   9
  -9  -8   4 5.48700 2.61161   8
  -9  -8   4 9.52628 3.38077   6
  -9  -8   4 1.20752 3.47719   4
   8   8  -4 0.26454 2.76010   1
   8   8  -4 3.33554 2.66156   6
  -8  -8   4 0.24591 2.18210   9
  -8  -8   4 -1.6485 2.03312   4
  -8  -8   4 1.64606 2.94401   3
  -8  -8   4 1.95494 2.69064   6
  -8  -8   4 5.02364 2.95367   1
  -8  -8   4 4.57049 2.86825  10
  -8  -8   4 6.41904 2.49565   8
  -7  -8   4 33.6042 3.72100   4
  -7  -8   4 31.5004 4.38286  10
  -7  -8   4 43.4269 3.67256   3
  -7  -8   4 33.7344 4.60132   1
  -7  -8   4 35.2579 3.71291   8
  -7  -8   4 30.4236 3.98579   9
  -7  -8   4 32.1759 4.19989   6
   6   8  -4 13.6668 2.19540   3
   6   8  -4 21.7648 2.99168   1
  -6  -8   4 14.7414 2.55340   6
  -6  -8   4 13.7317 2.26129   9
  -6  -8   4 16.5692 2.28943   1
  -6  -8   4 14.9516 2.62358   1
  -6  -8   4 17.9796 2.47556  10
   5   8  -4 2.44624 1.56873   1
   5   8  -4 0.94361 1.47859   6
   5   8  -4 3.86881 1.94449   1
   5   8  -4 3.53801 1.55952   3
  -5  -8   4 6.85019 1.78179   3
  -5  -8   4 3.01163 1.95983   1
  -5  -8   4 4.26402 1.81478   6
  -5  -8   4 2.01028 1.64237   8
  -5  -8   4 -1.4996 1.61350   1
  -5  -8   4 4.01899 1.92351   2
   4   8  -4 0.77433 1.31123   1
   4   8  -4 -1.2746 1.22793   6
   4   8  -4 1.88825 1.76757   1
   4   8  -4 1.70149 1.44051   8
   4   8  -4 -2.4187 1.58063   3
  -4  -8   4 0.43046 1.64565   1
  -4  -8   4 -1.4941 1.57251   3
  -4  -8   4 1.13013 1.91167   2
  -4  -8   4 -0.4106 1.59826   8
  -4  -8   4 0.38021 1.54460   6
  -4  -8   4 -1.7075 1.82969   1
   3   8  -4 26.9485 3.56006   1
   3   8  -4 38.8899 2.96481   8
   3   8  -4 31.5962 3.26488   3
  -3  -8   4 32.7504 3.45260   2
  -3  -8   4 38.5889 3.30826   3
  -3  -8   4 33.7477 2.82438   6
  -3  -8   4 33.3403 3.61988   1
  -3  -8   4 30.2393 3.05218   8
  -3  -8   4 32.5411 2.90807   1
   2   8  -4 11.6088 1.73508   8
   2   8  -4 9.41789 1.83875   3
   2   8  -4 9.37315 2.32778   1
  -2  -8   4 11.5431 1.95742   3
  -2  -8   4 15.5020 2.41636   2
  -2  -8   4 8.36717 1.92823   5
  -2  -8   4 16.5262 2.34817   6
  -2  -8   4 8.07635 1.82842   1
  -2  -8   4 10.2422 2.22022   1
  -2  -8   4 12.6410 1.86946   8
   1   8  -4 3.16837 2.22640   1
   1   8  -4 6.21884 1.63329   8
   1   8  -4 2.91237 1.96262   3
  -1  -8   4 3.30710 1.84257   3
  -1  -8   4 1.88392 1.85207   5
  -1  -8   4 0.16291 2.01803   2
  -1  -8   4 3.63042 2.15740  11
  -1  -8   4 3.40695 1.63401   8
  -1  -8   4 9.35635 2.29612   1
  -1  -8   4 8.58558 1.67158   1
   0   8  -4 1.29965 2.23804   1
   0   8  -4 0.89952 1.68981   8
   0   8  -4 1.26006 1.83617   4
   0   8  -4 4.78979 2.07069   3
   0  -8   4 1.28185 2.42706   5
   0  -8   4 1.81212 1.54419   6
   0  -8   4 2.45596 2.23791   1
   0  -8   4 1.68757 2.25800  11
   0  -8   4 5.33549 2.01197   4
   0  -8   4 3.14728 1.76654  10
   0  -8   4 4.83712 1.77504   1
  -1   8  -4 7.29346 2.16859   4
  -1   8  -4 4.45744 2.19732   3
  -1   8  -4 1.33194 1.72310   6
  -1   8  -4 5.27149 1.96856   8
  -1   8  -4 1.05879 1.97374  10
  -1   8  -4 5.22778 1.78436   1
  -1   8  -4 3.25677 2.61282   1
   1  -8   4 4.45441 2.45515  10
   1  -8   4 2.87733 1.98442   6
   1  -8   4 5.44364 2.20584   1
   1  -8   4 4.86199 2.67407   1
   1  -8   4 4.09645 2.24010   9
   1  -8   4 4.42662 2.64470  11
   1  -8   4 3.90197 2.15374   4
  -2   8  -4 3.90620 2.14985   6
  -2   8  -4 -0.7812 2.05658   1
  -2   8  -4 2.34845 2.22203   8
  -2   8  -4 -0.9127 2.37314   4
  -2   8  -4 0.25857 2.41437  10
  -2   8  -4 -0.3995 2.50392   3
  -2   8  -4 2.44218 3.28545   1
   2  -8   4 -2.3538 2.53888   1
   2  -8   4 1.77703 2.79441  11
   2  -8   4 2.20393 2.94309   1
   2  -8   4 -0.6038 2.70287   5
   2  -8   4 -1.7183 2.54703   4
   2  -8   4 -0.2203 2.41635   9
   2  -8   4 -4.6498 2.36883   6
   2  -8   4 -3.1960 2.89926  10
   9   7  -4 3.29594 3.10645   1
   9   7  -4 7.32768 2.93515   6
  -9  -7   4 5.07035 2.90589   6
  -9  -7   4 4.46876 3.02870   1
  -9  -7   4 6.01161 2.53962   8
  -9  -7   4 -1.2266 2.22372   9
  -9  -7   4 -0.4155 2.62147   4
  -9  -7   4 6.50017 3.11594  10
   8   7  -4 19.3246 3.03343   1
   8   7  -4 21.4346 2.87124   6
  -8  -7   4 23.8226 3.27174   3
  -8  -7   4 15.2548 2.80164   6
  -8  -7   4 14.4122 2.67941   9
  -8  -7   4 16.6472 2.54552   4
  -8  -7   4 18.9317 2.66860   1
  -8  -7   4 20.1673 2.79993   8
  -8  -7   4 19.2463 3.01556   1
  -8  -7   4 28.7985 4.25770  10
   7   7  -4 33.1142 3.80018   1
   7   7  -4 38.8714 3.53293   6
  -7  -7   4 29.8386 3.71060   9
  -7  -7   4 30.4881 3.93418   1
  -7  -7   4 32.8740 3.90824  10
  -7  -7   4 37.3520 3.47712   3
  -7  -7   4 29.0203 3.37299   4
  -7  -7   4 34.5285 3.82787   6
   6   7  -4 41.7315 3.68371   6
   6   7  -4 47.5224 3.92332   1
   6   7  -4 45.4623 3.61165   1
   6   7  -4 55.7357 3.63125   3
  -6  -7   4 45.8003 3.65840   8
  -6  -7   4 45.6083 4.12181   1
  -6  -7   4 52.1459 3.93665   6
  -6  -7   4 48.7769 3.93154   9
  -6  -7   4 48.0034 4.02708  10
   5   7  -4 4.56636 1.64060  12
   5   7  -4 4.05409 1.76759   1
   5   7  -4 3.07051 1.44934   3
   5   7  -4 3.40204 1.50724   1
   5   7  -4 3.08449 1.52877   6
  -5  -7   4 3.57554 1.63374   6
  -5  -7   4 4.44030 1.71267   3
  -5  -7   4 4.91969 1.61658   2
  -5  -7   4 4.81365 1.75848   1
  -5  -7   4 3.74530 1.64223   8
  -5  -7   4 6.88245 1.57474   9
  -5  -7   4 3.47649 1.78789   1
   4   7  -4 0.88649 1.25608  12
   4   7  -4 -0.2389 1.57997   1
   4   7  -4 -0.6261 1.15339   4
   4   7  -4 1.96833 1.40895   3
   4   7  -4 0.82806 1.20664   1
   4   7  -4 0.80592 1.07073   6
  -4  -7   4 2.57015 1.39139   1
  -4  -7   4 0.98270 1.41934   3
  -4  -7   4 0.10517 1.67960   2
  -4  -7   4 2.16444 1.40642   8
  -4  -7   4 1.04198 1.21185   6
  -4  -7   4 -0.0172 1.50989   1
   3   7  -4 39.9887 3.50169   1
   3   7  -4 32.3952 2.61005   8
   3   7  -4 30.4341 2.77513   1
   3   7  -4 29.1999 2.60204   6
   3   7  -4 38.2930 3.08773   3
  -3  -7   4 35.5283 2.82125   1
  -3  -7   4 34.0485 2.80239   8
  -3  -7   4 35.7345 3.36786   1
  -3  -7   4 35.1636 3.21013   2
  -3  -7   4 37.8405 3.44579   4
  -3  -7   4 32.4086 2.59364   6
  -3  -7   4 36.2609 3.14597   3
   2   7  -4 59.1437 3.40136   8
   2   7  -4 65.6996 3.81009   4
   2   7  -4 58.2979 3.69358   3
   2   7  -4 57.4710 4.11887   1
  -2  -7   4 60.5963 4.01731   2
  -2  -7   4 53.6624 3.72153   3
  -2  -7   4 56.5049 3.28982   7
  -2  -7   4 58.2157 3.66353   1
  -2  -7   4 57.7366 3.54007   6
  -2  -7   4 55.9233 3.47039   8
  -2  -7   4 52.6016 3.63401   4
  -2  -7   4 59.4063 4.26479   1
   1   7  -4 21.7521 2.65872   3
   1   7  -4 19.8742 2.50044   1
   1   7  -4 18.4896 2.25143   8
   1   7  -4 20.6781 2.63809   4
  -1  -7   4 18.0392 2.31291   5
  -1  -7   4 23.1230 2.69177   4
  -1  -7   4 16.6720 2.21039  11
  -1  -7   4 24.0310 3.27880   1
  -1  -7   4 30.5215 2.98363   2
  -1  -7   4 25.1913 2.57245   1
  -1  -7   4 24.0867 2.30025   8
  -1  -7   4 21.7874 2.30767   6
  -1  -7   4 17.8203 2.67623   3
   0   7  -4 16.3019 2.55946   1
   0   7  -4 17.9478 2.05095   1
   0   7  -4 15.1023 2.03490   4
   0   7  -4 18.6347 2.36742   8
   0   7  -4 13.1599 1.91995   6
   0   7  -4 22.3663 2.80955   3
   0   7  -4 19.1148 2.78473  10
   0  -7   4 17.4145 2.51822   1
   0  -7   4 14.9982 2.24933  11
   0  -7   4 30.1738 4.36954   2
   0  -7   4 18.2960 2.37214   6
   0  -7   4 24.1823 2.62871   1
   0  -7   4 15.2063 2.25003   5
  -1   7  -4 10.2874 2.05876   4
  -1   7  -4 8.03069 1.82610  10
  -1   7  -4 7.87574 2.41603   1
  -1   7  -4 5.52715 1.66562   1
  -1   7  -4 9.81510 1.74303   8
  -1   7  -4 8.13363 1.48172   6
  -1   7  -4 10.7326 2.20155   3
   1  -7   4 8.59932 1.71895   6
   1  -7   4 11.0177 1.96310   1
   1  -7   4 7.31545 2.28514  11
   1  -7   4 9.60107 2.38547   1
   1  -7   4 6.80276 2.05070   5
  -2   7  -4 3.49415 1.90393   8
  -2   7  -4 -1.9232 1.57516   6
  -2   7  -4 -0.0230 2.10905   3
  -2   7  -4 1.59944 1.68407   1
  -2   7  -4 0.78563 2.47173   1
  -2   7  -4 3.17108 2.22564   4
  -2   7  -4 -0.8211 2.09374  10
   2  -7   4 -0.5467 2.31240  11
   2  -7   4 1.80408 2.13934   1
   2  -7   4 0.81316 3.62037   5
   2  -7   4 -0.2114 2.56770  10
   2  -7   4 0.92313 2.00140   6
   2  -7   4 1.01763 2.40558   4
  -3   7  -4 2.86274 2.56846  10
  -3   7  -4 -0.8875 2.18088   6
  -3   7  -4 6.93824 2.54533   3
  -3   7  -4 2.53712 2.39424   1
  -3   7  -4 1.90636 2.67741   4
  -3   7  -4 2.22792 2.98570   1
  -3   7  -4 4.31288 2.41137   8
   3  -7   4 1.94911 2.61660   1
   3  -7   4 9.44642 2.82038   1
   3  -7   4 1.96632 2.42140   6
   3  -7   4 0.80798 2.95208  11
   3  -7   4 2.76363 3.09211   5
   3  -7   4 3.99739 3.02966   4
   9   6  -4 7.92673 2.76503   6
   9   6  -4 9.68606 2.87713   1
  -9  -6   4 7.27705 2.73852  10
  -9  -6   4 4.90573 2.59316   6
  -9  -6   4 11.2865 2.18608   8
  -9  -6   4 7.47279 2.86041   1
  -9  -6   4 7.58215 2.55298   4
   8   6  -4 45.7148 4.22679   6
   8   6  -4 48.3239 4.47128   1
  -8  -6   4 42.7145 4.35250  10
  -8  -6   4 42.5512 4.13986   9
  -8  -6   4 45.5797 4.11752   4
  -8  -6   4 47.8944 3.99993   8
  -8  -6   4 48.0520 3.92562   3
  -8  -6   4 52.4924 4.48701   6
  -8  -6   4 38.5451 4.47765   1
   7   6  -4 147.945 8.01377   1
   7   6  -4 131.655 7.03398   6
   7   6  -4 132.745 7.13206   1
  -7  -6   4 136.874 7.03953   9
  -7  -6   4 124.196 7.04842   6
  -7  -6   4 131.684 7.14537   1
  -7  -6   4 123.765 6.81090   4
  -7  -6   4 132.779 7.04927  10
   6   6  -4 48.2208 3.42695   1
   6   6  -4 47.6967 3.59136   6
   6   6  -4 46.6586 3.76584   1
  -6  -6   4 52.4387 3.85578   1
  -6  -6   4 47.8965 3.58978   9
  -6  -6   4 48.0473 3.76220   6
  -6  -6   4 47.7250 3.55807   8
  -6  -6   4 46.4928 3.51117   1
  -6  -6   4 50.8108 3.60893   3
   5   6  -4 2.22055 1.25538   6
   5   6  -4 3.94798 1.49333   3
   5   6  -4 2.57110 1.54450   1
   5   6  -4 2.56527 1.44531   1
   5   6  -4 1.40724 1.22332  12
  -5  -6   4 2.72839 1.32619   1
  -5  -6   4 3.64212 1.42367   9
  -5  -6   4 4.62759 1.53358   6
  -5  -6   4 2.76573 1.44643   8
  -5  -6   4 0.74208 1.43475   1
  -5  -6   4 0.68414 0.87517   4
  -5  -6   4 4.80294 1.57447   3
  -5  -6   4 2.19190 1.30734   2
   4   6  -4 7.97906 1.34880   6
   4   6  -4 7.69246 1.30254   4
   4   6  -4 8.70835 1.79556   1
   4   6  -4 8.23824 1.39152   1
   4   6  -4 11.5901 1.79840   3
   4   6  -4 9.36826 1.56850  12
  -4  -6   4 10.6497 1.74097   3
  -4  -6   4 11.1328 1.66769   2
  -4  -6   4 8.11524 1.43369   6
  -4  -6   4 8.61901 1.77651   1
  -4  -6   4 8.66079 1.59382   8
  -4  -6   4 9.47659 1.50907   9
  -4  -6   4 11.6864 1.74333   1
  -4  -6   4 7.08497 1.46849  10
  -4  -6   4 7.85575 1.43700   4
   3   6  -4 10.6916 1.81064   1
   3   6  -4 10.8682 1.70583   3
   3   6  -4 8.86677 1.36663   6
   3   6  -4 8.32934 1.38038   1
   3   6  -4 12.2549 1.72979   4
   3   6  -4 10.9055 1.57072  10
  -3  -6   4 8.55542 1.45744   1
  -3  -6   4 9.47524 1.73614   2
  -3  -6   4 7.01981 1.26745   4
  -3  -6   4 8.69967 1.48890  10
  -3  -6   4 10.3224 1.50247   8
  -3  -6   4 9.18259 1.77592   1
  -3  -6   4 11.1791 1.71774   3
  -3  -6   4 8.57051 1.30733   6
   2   6  -4 60.5963 3.99291   1
   2   6  -4 51.3524 3.26451   6
   2   6  -4 53.9329 3.39756   1
   2   6  -4 61.9148 3.56406   3
   2   6  -4 63.6721 3.55958  10
   2   6  -4 59.3647 3.62894   4
   2   6  -4 61.4215 3.20193   8
  -2  -6   4 56.6617 3.18580   7
  -2  -6   4 54.7912 3.45659   6
  -2  -6   4 61.2674 3.76353   2
  -2  -6   4 57.0243 3.49030   3
  -2  -6   4 57.4904 3.24997   8
  -2  -6   4 56.4216 3.43339   4
  -2  -6   4 60.1646 3.60001  10
  -2  -6   4 47.2201 3.49316   1
  -2  -6   4 54.7841 3.94714   1
   1   6  -4 27.5273 2.27039   1
   1   6  -4 24.2478 2.17974   6
   1   6  -4 31.7361 3.19780   1
   1   6  -4 30.3272 2.65268  10
   1   6  -4 27.2261 2.50541   3
   1   6  -4 30.2365 2.19337   8
   1   6  -4 34.2768 2.80862   4
  -1  -6   4 24.7916 2.67289  10
  -1  -6   4 28.9970 2.87697  11
  -1  -6   4 27.7664 2.69549   4
  -1  -6   4 28.1602 3.12715   1
  -1  -6   4 32.3521 2.84328   2
  -1  -6   4 28.9830 2.62152   3
  -1  -6   4 31.2457 2.54415   1
  -1  -6   4 29.0761 2.90579   5
  -1  -6   4 29.3802 2.22346   8
  -1  -6   4 31.7354 2.45212   6
   0   6  -4 21.4865 2.15344   1
   0   6  -4 31.9896 3.44482   1
   0   6  -4 31.8906 2.97167   4
   0   6  -4 25.2218 2.94676  10
   0   6  -4 29.5168 2.26332   8
   0   6  -4 30.8949 2.76550   3
   0   6  -4 23.3663 2.12686   6
   0  -6   4 25.9080 2.96499  11
   0  -6   4 26.3327 3.05370   5
   0  -6   4 33.2350 2.76291   2
   0  -6   4 30.9006 3.16471   1
   0  -6   4 31.2653 2.68684   1
   0  -6   4 28.1855 2.81785   4
   0  -6   4 30.9947 2.95952  10
   0  -6   4 30.8667 2.51925   6
  -1   6  -4 19.6206 2.47649   1
  -1   6  -4 15.0481 2.18537   6
  -1   6  -4 21.4256 3.00293   4
  -1   6  -4 17.6430 2.09660   3
  -1   6  -4 18.3502 2.13813   8
  -1   6  -4 19.4146 2.82474  10
  -1   6  -4 15.0124 1.85435   1
   1  -6   4 24.7191 2.87804   1
   1  -6   4 15.4655 2.17636   5
   1  -6   4 17.2836 2.26849  10
   1  -6   4 15.1786 2.23944   1
   1  -6   4 15.2844 2.21177  11
   1  -6   4 14.6014 2.05329   4
   1  -6   4 21.3669 2.53318   6
  -2   6  -4 1.48954 1.52147   6
  -2   6  -4 2.78499 2.29333   1
  -2   6  -4 3.42896 1.93456  10
  -2   6  -4 1.69940 1.58434   8
  -2   6  -4 -1.1726 1.49872   1
  -2   6  -4 1.38478 1.72412   4
  -2   6  -4 4.30678 1.90226   3
   2  -6   4 2.12462 2.04957   5
   2  -6   4 2.62476 1.76380   6
   2  -6   4 0.42465 2.31974  10
   2  -6   4 -0.4321 1.81801   4
   2  -6   4 6.37699 1.85900   2
   2  -6   4 0.33822 1.94490  11
   2  -6   4 1.90442 1.83425   1
   2  -6   4 3.25723 2.09863   1
  -3   6  -4 13.8976 2.72850   4
  -3   6  -4 9.43898 1.91121   6
  -3   6  -4 16.6879 2.54437   3
  -3   6  -4 10.8565 2.71542   1
  -3   6  -4 11.4529 2.08166   1
  -3   6  -4 10.8161 2.41151  10
  -3   6  -4 14.9137 2.23340   8
   3  -6   4 8.72088 2.71171  11
   3  -6   4 12.8972 2.33135   6
   3  -6   4 14.6803 2.54197   1
   3  -6   4 17.0587 2.49846   1
  -4   6  -4 16.2146 3.14876   4
  -4   6  -4 18.7209 2.79962   8
  -4   6  -4 15.2760 2.51667   6
  -4   6  -4 11.4646 3.19238  10
  -4   6  -4 13.3541 3.27772   1
  -4   6  -4 16.1218 2.66187   1
  -4   6  -4 10.0172 3.08474   3
   4  -6   4 13.8312 2.74650   6
   4  -6   4 11.7859 2.91299   1
   4  -6   4 14.4604 3.66926   5
   4  -6   4 12.7010 3.42218  11
   4  -6   4 14.5525 3.05412   1
   9   5  -4 8.73893 2.92027   1
   9   5  -4 10.6416 2.87620   6
  -9  -5   4 10.4308 2.86860   1
  -9  -5   4 11.9842 2.20590   8
  -9  -5   4 7.13479 3.14318  10
  -9  -5   4 11.5868 2.93154   6
  -9  -5   4 5.79555 2.72352   4
   8   5  -4 54.0232 4.42618   1
   8   5  -4 52.1615 4.44596   6
   8   5  -4 47.9970 4.55693   1
  -8  -5   4 42.3322 4.02990   9
  -8  -5   4 52.0825 4.41087   6
  -8  -5   4 51.0818 4.52686   1
  -8  -5   4 60.0810 3.89592   8
  -8  -5   4 46.7706 4.43526  10
  -8  -5   4 48.3175 3.72184   3
  -8  -5   4 49.4597 4.08028   4
   7   5  -4 71.5453 4.97848   1
   7   5  -4 75.8673 4.35208   6
   7   5  -4 73.8448 4.84022   6
   7   5  -4 77.9549 4.57121   1
  -7  -5   4 78.9092 4.79889   9
  -7  -5   4 81.1685 4.97975   1
  -7  -5   4 75.3947 4.61693   8
  -7  -5   4 83.7938 4.89633   6
  -7  -5   4 77.5308 4.80852  10
   6   5  -4 2.24430 1.41294   6
   6   5  -4 1.18114 1.12316   6
   6   5  -4 2.24453 1.50053   1
   6   5  -4 3.38693 1.23918   1
  -6  -5   4 1.99488 1.18003   4
  -6  -5   4 2.54625 1.49427   1
  -6  -5   4 2.96241 1.44693   3
  -6  -5   4 1.44698 1.30591   8
  -6  -5   4 3.58598 1.44227   6
  -6  -5   4 1.33329 1.46381   9
  -6  -5   4 1.82224 1.38804   1
   5   5  -4 56.0356 3.68770   6
   5   5  -4 63.6036 3.89312   1
   5   5  -4 67.6564 3.73522  12
   5   5  -4 56.2758 3.83759   1
  -5  -5   4 61.5454 3.85098   3
  -5  -5   4 60.1467 3.67185  10
  -5  -5   4 58.0883 3.78376   6
  -5  -5   4 59.7747 3.76073   1
  -5  -5   4 64.6203 3.76470   9
  -5  -5   4 64.6795 3.71200   8
  -5  -5   4 63.4157 3.90339   1
   4   5  -4 33.4826 2.56014   6
   4   5  -4 43.2753 3.16305   1
   4   5  -4 38.4223 2.71144  12
   4   5  -4 36.4321 2.68196   1
   4   5  -4 40.8537 2.74111   3
  -4  -5   4 41.5831 2.76759   6
  -4  -5   4 38.3782 2.58864   2
  -4  -5   4 38.9605 2.83846   9
  -4  -5   4 33.5566 2.67273   4
  -4  -5   4 35.9910 2.83012   1
  -4  -5   4 32.2463 2.82861  10
  -4  -5   4 31.0850 2.88601   1
  -4  -5   4 36.9280 2.71989   8
  -4  -5   4 34.2520 2.88358   3
   3   5  -4 24.3306 2.31558   4
   3   5  -4 23.3288 2.14956   1
   3   5  -4 24.4954 2.23598   3
   3   5  -4 25.0391 2.02494   6
   3   5  -4 24.7460 2.84916   1
   3   5  -4 27.2479 2.34521  12
  -3  -5   4 24.2039 2.10043   8
  -3  -5   4 25.6282 2.48080   2
  -3  -5   4 20.0390 2.31834  10
  -3  -5   4 24.3581 2.14335   6
  -3  -5   4 24.5577 2.44883   3
  -3  -5   4 24.9215 2.17308   7
  -3  -5   4 25.7138 2.32888   1
  -3  -5   4 24.6273 2.69291   1
  -3  -5   4 29.9122 2.25985   9
  -3  -5   4 21.2357 2.12923   4
   2   5  -4 39.5363 2.79929  10
   2   5  -4 33.5029 2.51730   1
   2   5  -4 37.2716 3.17651   1
   2   5  -4 38.5789 2.63489   3
   2   5  -4 32.5660 2.77986   4
   2   5  -4 33.9240 2.48205   6
   2   5  -4 37.6922 3.08149   2
  -2  -5   4 39.3020 2.71436   4
  -2  -5   4 37.2304 2.62426   3
  -2  -5   4 36.1897 2.40022   7
  -2  -5   4 36.6369 3.02838   1
  -2  -5   4 37.7951 2.55820   6
  -2  -5   4 37.8939 2.75304  10
  -2  -5   4 38.4673 2.70578   1
  -2  -5   4 36.9884 2.33705   8
  -2  -5   4 38.4994 2.91579   2
   1   5  -4 7.80282 1.23406   1
   1   5  -4 8.17231 1.37742  10
   1   5  -4 9.09340 1.48377   4
   1   5  -4 10.3218 1.04167   8
   1   5  -4 8.88232 1.77327   1
   1   5  -4 8.99256 1.72684   2
   1   5  -4 10.5122 1.41710   6
   1   5  -4 8.79480 1.31256   3
  -1  -5   4 8.65664 1.58882   2
  -1  -5   4 8.55260 1.37535   1
  -1  -5   4 8.30387 1.43315   4
  -1  -5   4 8.67478 1.33556   3
  -1  -5   4 8.20719 1.47394   5
  -1  -5   4 6.98046 1.45154  10
  -1  -5   4 7.47224 1.61793   1
  -1  -5   4 8.04032 1.09225   7
  -1  -5   4 6.51210 1.01099   8
  -1  -5   4 7.85514 1.22433   6
   0   5  -4 11.6435 1.76489   1
   0   5  -4 11.0220 1.60807   6
   0   5  -4 12.6571 1.93307   1
   0   5  -4 18.0481 2.43533   4
   0   5  -4 11.8460 1.87475   2
   0   5  -4 13.8898 1.59342   3
   0   5  -4 15.4172 2.34442  10
   0   5  -4 12.1645 1.42368   8
   0  -5   4 13.8009 1.84300   1
   0  -5   4 11.6203 1.66221  10
   0  -5   4 14.0574 1.77895   2
   0  -5   4 9.13745 1.61715   5
   0  -5   4 11.5571 1.69278   4
   0  -5   4 12.4798 1.65966  11
   0  -5   4 14.5489 1.87365   6
   0  -5   4 13.1157 1.95958   1
  -1   5  -4 6.47899 1.28575   1
  -1   5  -4 5.45820 1.22194   6
  -1   5  -4 8.97532 1.61328   4
  -1   5  -4 5.22935 1.74101   1
  -1   5  -4 8.54221 1.52308  10
  -1   5  -4 7.79947 1.39850   3
  -1   5  -4 9.33178 1.78992   2
   1  -5   4 1.45121 1.56046   5
   1  -5   4 4.95545 1.44857   1
   1  -5   4 5.16210 1.59724  10
   1  -5   4 6.11089 1.56917   4
   1  -5   4 7.15935 1.56501   2
   1  -5   4 5.28019 1.38802   6
   1  -5   4 7.90106 1.68794   1
   1  -5   4 5.32184 1.58426  11
  -2   5  -4 3.44118 1.58308   3
  -2   5  -4 0.33722 1.65830  10
  -2   5  -4 1.14198 1.27597   6
  -2   5  -4 4.53226 1.26781   8
  -2   5  -4 1.53587 1.84367   1
  -2   5  -4 2.77681 1.60495   4
  -2   5  -4 3.97464 1.38224   1
   2  -5   4 2.36040 1.83989  10
   2  -5   4 0.81491 1.57957  11
   2  -5   4 2.10152 1.72808   2
   2  -5   4 2.48078 1.54281   6
   2  -5   4 1.09588 1.72568   5
   2  -5   4 4.13555 1.61654   1
   2  -5   4 1.19157 1.64873   4
   2  -5   4 0.55034 1.59393   1
  -3   5  -4 34.1818 3.10454   1
  -3   5  -4 39.7490 4.12328  10
  -3   5  -4 39.5615 4.01056   4
  -3   5  -4 42.8538 2.98512   8
  -3   5  -4 31.2645 3.31845   3
  -3   5  -4 34.1977 3.72878   1
   3  -5   4 36.8180 4.26326   4
   3  -5   4 38.9694 3.43695   1
   3  -5   4 25.6615 3.94440  11
   3  -5   4 29.9622 4.20306   5
   3  -5   4 36.5784 3.25832   6
   3  -5   4 37.3427 3.41633   1
  -4   5  -4 24.5753 3.70910   1
  -4   5  -4 21.9336 3.20265   6
  -4   5  -4 29.3985 3.09977   3
  -4   5  -4 16.7963 3.04243  10
  -4   5  -4 32.7333 4.73430   4
  -4   5  -4 24.7861 3.38624   1
   4  -5   4 26.8706 3.59982   1
   4  -5   4 23.7085 3.40800   6
   4  -5   4 15.7099 3.14645  11
   4  -5   4 24.1833 3.56087   1
  10   4  -4 34.2790 3.95487   6
  10   4  -4 30.5702 4.22820   1
  10   4  -4 38.2135 5.56790   6
 -10  -4   4 37.1181 4.54461   1
 -10  -4   4 28.2678 4.18196   4
   9   4  -4 26.5844 3.29981   6
   9   4  -4 26.0456 3.54159   1
  -9  -4   4 34.4081 4.78566   1
  -9  -4   4 26.1183 3.31866   8
  -9  -4   4 33.8232 4.03925   4
   8   4  -4 15.4161 2.15307   1
   8   4  -4 16.1494 2.71433   1
   8   4  -4 14.1444 2.48121   6
  -8  -4   4 17.0405 2.65878   1
  -8  -4   4 17.7587 2.64178   6
  -8  -4   4 11.7592 2.05591   9
  -8  -4   4 17.5282 2.25856   3
  -8  -4   4 16.1498 2.31648   4
   7   4  -4 0.42897 1.66253   6
   7   4  -4 -0.1062 1.06220   6
   7   4  -4 0.55907 1.79943   1
   7   4  -4 0.03567 1.28951   1
  -7  -4   4 -0.4880 1.50974   6
  -7  -4   4 -0.1239 1.50167   1
  -7  -4   4 -0.7440 1.25147   8
  -7  -4   4 1.11421 2.70749   3
  -7  -4   4 1.68928 1.29148   9
   6   4  -4 8.45637 1.86184   1
   6   4  -4 7.51415 1.49236   1
   6   4  -4 7.84880 1.33945   6
   6   4  -4 7.68906 1.66110   6
  -6  -4   4 7.92710 1.92305  10
  -6  -4   4 5.66646 1.52582   8
  -6  -4   4 8.21513 1.40456   1
  -6  -4   4 9.87976 1.75240   3
  -6  -4   4 7.65055 1.59700   6
  -6  -4   4 7.10915 1.79216   1
  -6  -4   4 5.60969 1.23312   4
  -6  -4   4 7.11584 1.53883   9
   5   4  -4 31.5414 2.68557   1
   5   4  -4 24.6493 2.61815   1
   5   4  -4 29.6456 2.41926   6
   5   4  -4 27.7167 2.28099  12
   5   4  -4 27.2537 2.51575   6
  -5  -4   4 29.7696 2.48113   8
  -5  -4   4 33.7713 2.73046   1
  -5  -4   4 28.1025 2.59716   3
  -5  -4   4 30.0214 2.60978   6
  -5  -4   4 33.3849 2.56260   4
  -5  -4   4 27.9842 2.55751  10
  -5  -4   4 31.0374 2.57447   1
  -5  -4   4 30.7482 2.61624   9
   4   4  -4 170.090 7.74262   1
   4   4  -4 168.867 7.58035  12
   4   4  -4 152.654 7.52630   6
   4   4  -4 151.159 7.57842   1
  -4  -4   4 155.975 7.57608   4
  -4  -4   4 156.878 7.67411   1
  -4  -4   4 165.086 7.64662   1
  -4  -4   4 163.134 7.36070   8
  -4  -4   4 162.813 7.52436   3
  -4  -4   4 153.469 7.62333  10
  -4  -4   4 167.039 7.47189   9
  -4  -4   4 164.879 7.60472   6
  -4  -4   4 160.748 7.40963   7
   3   4  -4 60.8936 3.58174   1
   3   4  -4 68.9155 3.88246   1
   3   4  -4 64.8583 3.64704   4
   3   4  -4 56.9394 3.46347   6
   3   4  -4 68.4855 3.64566  12
   3   4  -4 70.5518 3.57262   3
   3   4  -4 61.4844 3.68707   2
  -3  -4   4 64.8314 3.85543   1
  -3  -4   4 63.3343 3.47857   7
  -3  -4   4 68.2721 3.45849   9
  -3  -4   4 62.0957 3.36128   8
  -3  -4   4 61.3476 3.57514   3
  -3  -4   4 70.5016 3.69334   1
  -3  -4   4 69.8781 3.59435   6
  -3  -4   4 60.2412 3.57944   4
  -3  -4   4 57.1981 3.72172  10
   2   4  -4 4.38271 1.16484  12
   2   4  -4 2.64290 1.33550   2
   2   4  -4 3.67841 1.42018   1
   2   4  -4 2.64854 1.04037   4
   2   4  -4 2.47901 1.11234   1
   2   4  -4 3.69538 1.00275   3
   2   4  -4 4.33094 1.22189  10
   2   4  -4 2.88054 1.01198   6
  -2  -4   4 2.19975 0.96169   6
  -2  -4   4 3.12084 0.88445   8
  -2  -4   4 3.43598 0.91987   9
  -2  -4   4 5.02660 1.09462   3
  -2  -4   4 2.86349 1.10113  10
  -2  -4   4 3.00657 1.36814   1
  -2  -4   4 4.02024 1.00513   7
  -2  -4   4 3.95420 1.31167   2
  -2  -4   4 3.48822 1.14950   1
  -2  -4   4 2.95619 0.94870   4
   1   4  -4 48.8706 2.99095  10
   1   4  -4 42.2665 2.66578   1
   1   4  -4 47.8192 2.64491   3
   1   4  -4 52.7911 3.15261   4
   1   4  -4 41.2126 2.58584   6
   1   4  -4 50.4746 3.27562   1
   1   4  -4 41.3600 3.17271   2
  -1  -4   4 46.6306 3.13109   1
  -1  -4   4 46.0730 2.95414   2
  -1  -4   4 47.2673 2.84457   1
  -1  -4   4 43.2831 2.95559  10
  -1  -4   4 45.4414 2.53873   7
  -1  -4   4 44.0522 2.89368   4
  -1  -4   4 42.6293 2.60906   3
  -1  -4   4 46.7661 2.76852   6
   0   4  -4 22.5832 1.87036   3
   0   4  -4 21.9162 2.35126  10
   0   4  -4 21.8681 1.92735   1
   0   4  -4 23.6206 1.87249   6
   0   4  -4 22.3215 2.55305   1
   0   4  -4 25.7041 2.51938   4
   0   4  -4 21.2170 2.49724   2
   0  -4   4 22.1314 2.35061   4
   0  -4   4 22.5469 2.07127   1
   0  -4   4 20.2205 2.07405  11
   0  -4   4 18.0631 2.10076   2
   0  -4   4 24.9253 1.97305   6
   0  -4   4 24.0166 2.36193   1
   0  -4   4 17.0845 2.24965   5
   0  -4   4 18.6667 2.38693  10
  -1   4  -4 8.32217 1.28581   6
  -1   4  -4 10.6811 1.62288   4
  -1   4  -4 9.75760 1.28096   3
  -1   4  -4 12.2592 1.83814   2
  -1   4  -4 8.46856 1.31979   1
  -1   4  -4 8.91283 1.53862  10
  -1   4  -4 10.5100 1.74480   1
   1  -4   4 9.18410 1.39225   6
   1  -4   4 10.9330 1.44713   1
   1  -4   4 9.36118 1.59843  10
   1  -4   4 10.1557 1.58799   2
   1  -4   4 8.45493 1.47651   5
   1  -4   4 12.3609 1.58153   1
   1  -4   4 8.93958 1.63659   4
   1  -4   4 9.98274 1.42679  11
  -2   4  -4 6.69385 1.28216   3
  -2   4  -4 3.33041 1.49985  10
  -2   4  -4 2.28971 1.20457   6
  -2   4  -4 3.73903 1.57825   1
  -2   4  -4 2.68965 1.57191   4
  -2   4  -4 3.25217 1.21389   1
   2  -4   4 5.52201 1.40724   1
   2  -4   4 3.20549 1.50273   4
   2  -4   4 2.91397 1.44613   1
   2  -4   4 4.76637 1.35215   6
   2  -4   4 5.84168 1.68917   2
   2  -4   4 3.28978 1.62487  10
   2  -4   4 2.06798 1.68556   5
  -3   4  -4 16.6741 2.56398   3
  -3   4  -4 16.8449 2.32222   1
  -3   4  -4 15.0014 2.17308   6
  -3   4  -4 17.0377 2.20273   4
  -3   4  -4 17.9372 2.16603   8
  -3   4  -4 17.5164 2.52168   2
  -3   4  -4 17.2533 1.98825   1
  -3   4  -4 16.8274 2.33035  10
   3  -4   4 19.3085 2.47422   1
   3  -4   4 17.4812 2.37471   6
   3  -4   4 16.2550 2.35071   4
   3  -4   4 16.6677 2.45699   5
  -4   4  -4 9.25425 2.40433  10
  -4   4  -4 15.3296 1.97590   8
  -4   4  -4 8.95634 2.41198   4
  -4   4  -4 12.8948 2.81364   2
   4  -4   4 6.39565 2.68262   5
  -5   4  -4 12.7598 2.70826   8
  -5   4  -4 5.64812 2.96003   4
  -5   4  -4 6.01440 3.05269  10
  -5   4  -4 12.6554 2.97098   3
  -5   4  -4 14.9435 2.56184   8
  10   3  -4 28.4166 4.39157   1
  10   3  -4 40.7765 5.74319   1
  10   3  -4 37.0026 5.35361   6
  10   3  -4 26.6954 3.75929   6
 -10  -3   4 26.0460 3.64949  12
 -10  -3   4 33.9143 4.31685   1
   9   3  -4 25.0836 3.25779   1
   9   3  -4 25.4065 3.17605   6
  -9  -3   4 24.8227 3.20240  12
  -9  -3   4 29.5501 3.26558   8
  -9  -3   4 38.8833 4.77413   1
   8   3  -4 30.8435 3.86358   1
   8   3  -4 33.6623 3.66767   6
   8   3  -4 37.5216 3.06950   1
  -8  -3   4 29.8427 3.43237   9
  -8  -3   4 31.7140 3.95446   1
   7   3  -4 47.2215 3.75783   6
   7   3  -4 46.3992 3.92021   1
   7   3  -4 52.3456 3.53072   1
   7   3  -4 48.5393 3.28933   6
  -7  -3   4 52.4656 3.81797   6
  -7  -3   4 57.4835 3.38312   7
  -7  -3   4 47.2561 3.37286   8
  -7  -3   4 49.2399 3.46479   3
  -7  -3   4 54.0924 3.93907   1
  -7  -3   4 53.5309 3.61669   9
   6   3  -4 51.9819 3.22410   6
   6   3  -4 47.5123 3.46423   6
   6   3  -4 49.5436 3.54859   1
   6   3  -4 54.1406 3.44928   1
  -6  -3   4 48.9071 3.42719   3
  -6  -3   4 53.0955 3.50170   6
  -6  -3   4 48.3524 3.27661   4
  -6  -3   4 55.1837 3.59896   1
  -6  -3   4 57.0797 3.47404   9
  -6  -3   4 47.7707 3.29209   1
  -6  -3   4 54.9091 3.17769   7
  -6  -3   4 49.7520 3.35006  12
  -6  -3   4 46.6383 3.19374   8
   5   3  -4 110.375 5.69093   6
   5   3  -4 113.206 5.64861   6
   5   3  -4 117.999 5.80707   1
   5   3  -4 107.166 5.74515   1
  -5  -3   4 108.669 5.65500  11
  -5  -3   4 111.362 5.72764   1
  -5  -3   4 117.721 5.67975   9
  -5  -3   4 115.657 5.69459   6
  -5  -3   4 113.632 5.55608   7
  -5  -3   4 117.703 5.73258   3
  -5  -3   4 115.606 5.73918   1
  -5  -3   4 112.935 5.54874   8
   4   3  -4 272.962 12.6071   6
   4   3  -4 299.770 12.6176  12
   4   3  -4 288.859 12.3208   2
   4   3  -4 297.735 12.7381   1
   4   3  -4 297.037 12.6590   6
   4   3  -4 271.350 12.6216   1
  -4  -3   4 302.676 12.5482   9
  -4  -3   4 288.043 12.6773   1
  -4  -3   4 274.074 12.6926  10
  -4  -3   4 278.632 12.4023   8
  -4  -3   4 277.535 12.5445   3
  -4  -3   4 286.402 12.6405   6
  -4  -3   4 279.399 12.6946   1
  -4  -3   4 273.408 12.6334   4
  -4  -3   4 280.964 12.4907   7
   3   3  -4 -0.9814 1.14051   1
   3   3  -4 0.41638 0.81450   6
   3   3  -4 0.66858 0.86214   1
   3   3  -4 0.49342 0.87441  12
   3   3  -4 2.09710 1.09415   2
  -3  -3   4 -0.6016 0.87841   7
  -3  -3   4 0.03589 1.01418   1
  -3  -3   4 0.44310 0.80675   8
  -3  -3   4 0.90289 0.86594  10
  -3  -3   4 0.85152 0.87740   6
  -3  -3   4 -0.0746 0.93893   3
  -3  -3   4 -0.0779 0.82800   4
  -3  -3   4 -0.2348 0.86230   9
  -3  -3   4 0.24293 0.98936   1
   2   3  -4 0.96856 0.91531   1
   2   3  -4 -0.3611 0.86412   4
   2   3  -4 1.93139 0.83666   6
   2   3  -4 0.66140 1.09799   1
   2   3  -4 -0.0414 0.85895  12
   2   3  -4 1.22122 1.19098   2
  -2  -3   4 0.33562 0.86917  10
  -2  -3   4 -0.1849 0.87424   7
  -2  -3   4 1.54199 0.87818   3
  -2  -3   4 0.98026 1.13895   1
  -2  -3   4 0.97472 0.85282   1
  -2  -3   4 0.29397 0.66483   8
  -2  -3   4 1.15293 0.89320   4
  -2  -3   4 1.32282 0.81366   6
   1   3  -4 35.8264 2.04356   3
   1   3  -4 36.1346 2.24845  12
   1   3  -4 34.3016 2.53958   4
   1   3  -4 32.7834 2.64626   2
   1   3  -4 33.1832 2.17474   6
   1   3  -4 37.5021 2.70130   1
   1   3  -4 36.0038 2.55258  10
   1   3  -4 31.2061 2.22195   1
  -1  -3   4 32.1293 2.49109  10
  -1  -3   4 37.7905 2.30388   6
  -1  -3   4 31.4787 2.00133   3
  -1  -3   4 31.8847 2.54965   1
  -1  -3   4 31.9310 2.40231   4
  -1  -3   4 32.2141 2.10770   7
  -1  -3   4 35.5257 2.37891   1
   0   3  -4 64.8492 3.52969   1
   0   3  -4 63.5489 3.48221   4
   0   3  -4 55.9272 3.09794   6
   0   3  -4 56.4381 3.60374   2
   0   3  -4 52.6731 3.11806   1
   0   3  -4 59.7017 3.43198  10
   0   3  -4 59.9285 2.85055   3
   0  -3   4 53.5681 3.20343   5
   0  -3   4 56.1956 3.36323   1
   0  -3   4 55.4394 3.43419  10
   0  -3   4 59.1403 3.24789   1
   0  -3   4 62.7503 3.22253   6
   0  -3   4 58.7716 3.41961   4
  -1   3  -4 28.4612 2.70916   2
  -1   3  -4 32.2167 2.54318   1
  -1   3  -4 30.7791 2.69362  10
  -1   3  -4 29.7715 2.57193   4
  -1   3  -4 24.9926 2.09192   1
  -1   3  -4 26.0492 1.97640   6
   1  -3   4 30.6279 2.62855  10
   1  -3   4 29.9921 2.21879   6
   1  -3   4 30.3304 2.37716   1
   1  -3   4 27.0765 2.23984   1
   1  -3   4 24.5712 2.51491   4
   1  -3   4 25.3961 2.26731   5
  -2   3  -4 14.7469 2.81927   2
  -2   3  -4 10.7860 1.38230   1
  -2   3  -4 16.1073 2.11379   1
  -2   3  -4 15.1056 1.78646   4
  -2   3  -4 14.2200 1.61700   6
  -2   3  -4 12.8218 1.80383  10
   2  -3   4 16.1168 1.85679   6
   2  -3   4 13.8290 1.89578  10
   2  -3   4 10.1879 1.71653   4
   2  -3   4 14.2487 1.77344   5
   2  -3   4 14.0439 1.88939   1
  -3   3  -4 4.00992 1.16547   1
  -3   3  -4 2.98827 1.65439   4
  -3   3  -4 1.44026 1.10746   8
  -3   3  -4 2.97946 1.57424  10
  -3   3  -4 4.26606 1.77281   2
  -3   3  -4 3.37769 1.33132   1
  -3   3  -4 4.76099 1.30258   3
   3  -3   4 3.11332 1.24794   1
   3  -3   4 4.29606 1.70755   4
   3  -3   4 2.37333 1.71453   5
  -4   3  -4 4.12896 2.26642   2
  -4   3  -4 4.55974 1.82675   3
  -4   3  -4 1.92087 2.01366  10
  -4   3  -4 7.77034 1.74736   8
  -4   3  -4 7.25243 2.01533   4
  -4   3  -4 5.42216 1.73970   8
  -5   3  -4 12.5391 2.53662   3
  -5   3  -4 7.57721 2.64642   3
  -5   3  -4 7.91247 2.49411   8
  -5   3  -4 6.25837 2.62643  10
  -5   3  -4 4.31445 2.71431   5
  -5   3  -4 9.46307 3.51673   2
  -5   3  -4 8.57841 2.61710   4
  -5   3  -4 6.21097 2.39911   8
  10   2  -4 8.85883 3.35594   6
  10   2  -4 13.0439 2.35769   6
  10   2  -4 9.08863 3.44495   1
  10   2  -4 9.86859 2.66639   1
 -10  -2   4 9.32305 3.69150   1
 -10  -2   4 8.88004 2.55273  12
   9   2  -4 8.31032 2.73970   1
   9   2  -4 7.03965 2.47871   6
  -9  -2   4 4.63515 2.76215   1
  -9  -2   4 5.40298 1.73913  12
   8   2  -4 23.7140 2.84165   6
   8   2  -4 29.5885 3.89301   1
   8   2  -4 28.9661 2.71648   1
  -8  -2   4 25.7348 3.79614   1
   7   2  -4 286.676 13.3838   6
   7   2  -4 298.580 13.3188   1
   7   2  -4 293.495 13.4663   1
   7   2  -4 298.843 13.2646   6
  -7  -2   4 291.333 13.3910   9
  -7  -2   4 287.186 13.3386   3
  -7  -2   4 304.317 13.4787   1
   6   2  -4 563.557 23.9844   1
   6   2  -4 532.535 24.0162   1
   6   2  -4 545.512 23.9925   6
   6   2  -4 563.643 23.9610   6
   6   2  -4 521.491 23.9276   9
  -6  -2   4 584.323 24.0093   6
  -6  -2   4 543.778 23.9819   3
  -6  -2   4 566.543 23.9028   7
  -6  -2   4 563.603 23.9842   9
  -6  -2   4 529.554 23.9849  12
  -6  -2   4 587.443 24.0774   1
  -6  -2   4 541.752 23.9889   1
   5   2  -4 233.502 10.9924   1
   5   2  -4 245.765 10.9327   6
   5   2  -4 227.084 10.8429   9
   5   2  -4 238.238 10.9544   6
   5   2  -4 254.371 11.0251   1
  -5  -2   4 255.608 11.0378   1
  -5  -2   4 245.411 10.8970   9
  -5  -2   4 234.828 10.8934   3
  -5  -2   4 243.152 10.7955   7
  -5  -2   4 228.176 10.9043  12
  -5  -2   4 254.775 10.9825   6
  -5  -2   4 234.692 10.9549   1
  -5  -2   4 251.369 10.9584  11
   4   2  -4 323.750 13.6520   6
   4   2  -4 300.042 13.5923   6
   4   2  -4 313.961 13.6650   1
   4   2  -4 307.739 13.2776   2
   4   2  -4 298.739 13.6190   1
  -4  -2   4 313.659 13.6029   6
  -4  -2   4 295.996 13.4851   3
  -4  -2   4 321.599 13.5874  11
  -4  -2   4 303.479 13.4777   7
  -4  -2   4 304.537 13.5791  12
  -4  -2   4 298.639 13.5958   4
  -4  -2   4 298.502 13.6628   1
  -4  -2   4 325.838 13.5064   9
  -4  -2   4 315.050 13.6429   1
   3   2  -4 11.2409 1.50835   6
   3   2  -4 13.1905 1.71315   6
   3   2  -4 15.6145 1.94278   1
   3   2  -4 13.9901 1.73022   2
   3   2  -4 12.4084 1.65714   1
  -3  -2   4 15.9249 1.62931   7
  -3  -2   4 17.3127 1.80096   4
  -3  -2   4 15.2512 1.67291  11
  -3  -2   4 14.7791 1.52758   6
  -3  -2   4 13.5487 1.86550   1
  -3  -2   4 17.0582 1.67081   9
  -3  -2   4 16.1243 1.65168   3
  -3  -2   4 17.1009 1.79886  10
  -3  -2   4 13.1647 1.59124   1
   2   2  -4 2.46787 1.09323   2
   2   2  -4 1.45834 0.81303  12
   2   2  -4 0.04728 1.01448   1
   2   2  -4 1.69028 0.95480   1
   2   2  -4 0.18692 0.79710   6
   2   2  -4 1.03238 0.91529   6
  -2  -2   4 1.19118 0.86258   1
  -2  -2   4 1.28898 0.91898   7
  -2  -2   4 1.97751 0.63256   8
  -2  -2   4 2.12131 0.88146  10
  -2  -2   4 2.83277 1.08720   1
  -2  -2   4 1.93354 0.77226   3
  -2  -2   4 1.48879 0.85055   6
  -2  -2   4 2.03498 0.85191   4
   1   2  -4 11.5163 1.32963  12
   1   2  -4 9.77303 1.39559   1
   1   2  -4 8.50614 1.08414   6
   1   2  -4 9.16377 1.26043   6
   1   2  -4 10.3256 1.46082   2
   1   2  -4 11.8510 1.25975   7
   1   2  -4 8.64625 1.15209   1
   1   2  -4 10.6405 1.27598   4
  -1  -2   4 9.15352 1.15471   4
  -1  -2   4 9.76534 1.29491  10
  -1  -2   4 10.2061 1.36391   1
  -1  -2   4 9.78476 1.39253   6
  -1  -2   4 9.95764 1.39849   7
  -1  -2   4 9.52695 1.21298   1
   0   2  -4 43.0514 2.74553  10
   0   2  -4 40.8198 2.40094   7
   0   2  -4 42.8757 2.76047   1
   0   2  -4 39.1700 2.38953   6
   0   2  -4 43.7117 2.72067   4
   0   2  -4 39.5401 2.45636   1
   0   2  -4 39.7321 2.90011   2
   0  -2   4 42.1803 2.65991  10
   0  -2   4 40.0816 2.39783   5
   0  -2   4 41.7360 2.30572   7
   0  -2   4 41.1501 2.63306   1
   0  -2   4 39.8641 2.59585   4
   0  -2   4 41.9761 2.48524   6
   0  -2   4 43.7024 2.53886   1
  -1   2  -4 26.2094 2.17753   1
  -1   2  -4 26.2684 1.90759   1
  -1   2  -4 24.6790 1.87915   7
  -1   2  -4 21.8730 1.78435   6
  -1   2  -4 22.1971 2.22163  10
  -1   2  -4 25.4916 2.60807   2
  -1   2  -4 25.1774 2.36665   4
   1  -2   4 26.8375 1.96966   1
   1  -2   4 26.7205 1.92161   6
   1  -2   4 22.4369 2.20840   4
   1  -2   4 24.5992 1.98836   1
   1  -2   4 23.5007 1.93429   5
   1  -2   4 25.4670 2.31130  10
  -2   2  -4 34.7924 2.30116   1
  -2   2  -4 25.9547 2.04594   1
  -2   2  -4 36.9567 2.74914   4
  -2   2  -4 35.9023 2.99264   2
  -2   2  -4 36.4260 2.74528  10
   2  -2   4 35.0866 2.13432   6
   2  -2   4 35.2648 2.19758   1
   2  -2   4 34.6203 2.19680   1
   2  -2   4 30.3966 2.65985   4
   2  -2   4 28.8390 2.77587  10
   2  -2   4 28.2108 2.56488   5
  -3   2  -4 3.71342 1.44608   4
  -3   2  -4 5.19202 1.67096   2
  -3   2  -4 4.52848 1.43091  10
   3  -2   4 3.48679 1.37555   4
   3  -2   4 3.76832 1.51438   5
  -4   2  -4 7.46991 2.32293   2
  -4   2  -4 6.11980 1.93853   5
  -4   2  -4 9.04528 1.74990   3
  -4   2  -4 8.28840 1.93048  10
  -4   2  -4 9.72718 1.80107   4
  -4   2  -4 10.9032 1.67889   3
  -4   2  -4 10.0933 1.66384   8
  -5   2  -4 2.92493 2.21489   4
  -5   2  -4 4.76415 2.10760   8
  -5   2  -4 4.49093 2.39555   5
  -5   2  -4 2.06730 2.08900  10
  -5   2  -4 5.89555 2.91044   2
  -5   2  -4 5.73069 2.23589   3
  10   1  -4 6.90354 2.74028   1
  10   1  -4 3.25846 2.29343   6
  10   1  -4 5.68756 3.54167   1
  10   1  -4 4.42492 3.24442   6
 -10  -1   4 4.37069 2.35748  12
 -10  -1   4 4.28282 3.60320   1
   9   1  -4 1.32004 2.77789   1
   9   1  -4 0.51289 2.49255   6
  -9  -1   4 2.08206 1.78764  12
  -9  -1   4 3.84541 2.79739   1
  -9  -1   4 2.38242 2.04914   3
   8   1  -4 8.58586 2.25133   6
   8   1  -4 12.3285 2.52453   1
   8   1  -4 8.83583 1.67497   1
  -8  -1   4 10.2839 2.29456   1
   7   1  -4 260.982 11.5242   1
   7   1  -4 249.027 11.6845   6
   7   1  -4 248.737 11.7822   1
   7   1  -4 238.260 11.5666   9
   7   1  -4 264.160 11.4900   6
  -7  -1   4 247.001 11.5701   3
  -7  -1   4 254.267 11.6534   9
  -7  -1   4 255.641 11.7024   1
   6   1  -4 117.222 6.13724   6
   6   1  -4 124.668 5.99112   6
   6   1  -4 110.543 6.02797   9
   6   1  -4 122.294 6.08401   1
   6   1  -4 120.976 6.29635   1
  -6  -1   4 121.456 6.03117   1
  -6  -1   4 120.366 6.05802   9
  -6  -1   4 116.727 5.89019   7
  -6  -1   4 116.255 6.01373  12
  -6  -1   4 128.423 6.24015   1
   5   1  -4 122.745 5.77838   6
   5   1  -4 115.444 5.90427   1
   5   1  -4 114.254 5.80829   6
   5   1  -4 105.593 5.68469   9
   5   1  -4 121.907 5.83301   1
  -5  -1   4 110.765 5.74758  12
  -5  -1   4 116.933 5.66855   7
  -5  -1   4 118.597 5.75588  11
  -5  -1   4 118.307 5.78413   9
  -5  -1   4 116.166 5.78711   1
  -5  -1   4 119.498 5.86842   1
   4   1  -4 275.360 11.9967   1
   4   1  -4 261.578 11.9782   1
   4   1  -4 259.724 11.9229   6
   4   1  -4 252.921 11.8082   9
   4   1  -4 279.130 11.9739   6
  -4  -1   4 261.786 11.8460   3
  -4  -1   4 281.015 11.9168  11
  -4  -1   4 270.123 11.8421   7
  -4  -1   4 275.044 11.9401   6
  -4  -1   4 281.118 11.8730   9
  -4  -1   4 271.762 11.9733   1
  -4  -1   4 263.687 11.9966   1
  -4  -1   4 264.471 11.9201  12
   3   1  -4 101.300 4.90030   1
   3   1  -4 92.2277 4.77749   1
   3   1  -4 91.0659 4.55095   9
   3   1  -4 101.915 4.82574   6
   3   1  -4 88.8900 4.69521   6
  -3  -1   4 100.816 4.74919   6
  -3  -1   4 93.6893 4.87483   1
  -3  -1   4 103.610 4.67869  11
  -3  -1   4 97.2960 4.76749   1
  -3  -1   4 94.0801 4.73760   4
  -3  -1   4 95.4545 4.71065  12
  -3  -1   4 100.057 4.60590   9
  -3  -1   4 96.3328 4.63537   3
  -3  -1   4 95.4223 4.67593   7
   2   1  -4 69.3826 3.68579   1
   2   1  -4 67.3351 3.50732   7
   2   1  -4 63.8067 3.51399   6
   2   1  -4 66.0701 3.57641   2
   2   1  -4 62.5827 3.57397   1
   2   1  -4 66.4460 3.26170   9
   2   1  -4 70.2590 3.61493   6
  -2  -1   4 66.6076 3.46308  12
  -2  -1   4 69.6957 3.24548   9
  -2  -1   4 71.5881 3.54511   4
  -2  -1   4 66.4666 3.69177   1
  -2  -1   4 68.9535 3.43234   7
  -2  -1   4 67.9890 3.36885  11
  -2  -1   4 67.2957 3.29961   3
  -2  -1   4 66.8598 3.58498  10
  -2  -1   4 70.6759 3.52170   6
  -2  -1   4 66.5436 3.55797   1
   1   1  -4 149.328 7.21341   1
   1   1  -4 165.068 7.36247   1
   1   1  -4 157.129 7.40159   2
   1   1  -4 149.537 7.19394   6
   1   1  -4 167.759 7.31499   6
   1   1  -4 165.827 7.20914   7
  -1  -1   4 157.748 7.19481   4
  -1  -1   4 169.050 7.16216   7
  -1  -1   4 165.723 7.30450  10
  -1  -1   4 156.133 7.33332   1
  -1  -1   4 158.839 7.24514   1
  -1  -1   4 164.094 7.22768   6
   0   1  -4 66.7709 3.48729   6
   0   1  -4 64.3848 3.52373   1
   0   1  -4 71.0483 3.54766   6
   0   1  -4 79.3899 3.68305   4
   0   1  -4 67.7526 3.84437   2
   0   1  -4 76.0095 3.58201   7
   0   1  -4 71.1144 3.65185   1
   0  -1   4 70.7481 3.66817   1
   0  -1   4 69.2245 3.55084   4
   0  -1   4 68.8099 3.61833  10
   0  -1   4 74.2083 3.51403   6
   0  -1   4 72.4637 3.46266   7
   0  -1   4 65.8489 3.51834   1
  -1   1  -4 59.9590 3.50160   1
  -1   1  -4 78.9341 3.70268   4
  -1   1  -4 66.3927 3.36027   6
  -1   1  -4 69.7575 3.98623   2
  -1   1  -4 68.6781 3.51317   7
  -1   1  -4 63.9640 3.41892   1
  -1   1  -4 60.5941 3.42553   6
  -1   1  -4 78.0951 3.70514  10
   1  -1   4 74.9486 3.42459   6
   1  -1   4 71.3719 3.56103   4
   1  -1   4 71.0844 3.47411   1
   1  -1   4 69.4250 3.63666  10
   1  -1   4 70.3612 3.41014   7
  -2   1  -4 19.6924 2.41742   2
  -2   1  -4 20.2530 2.11053  10
  -2   1  -4 18.0428 1.94879   7
  -2   1  -4 23.9493 2.13681   4
   2  -1   4 18.3969 2.17213  10
   2  -1   4 16.9334 1.85738   5
   2  -1   4 18.7264 2.00783   4
  -3   1  -4 28.5805 2.60062  10
  -3   1  -4 33.5274 2.63288   4
  -3   1  -4 27.4383 2.15440   8
  -3   1  -4 28.0321 2.38826   7
  -3   1  -4 26.8551 3.01756   2
  -4   1  -4 8.47692 1.61477   4
  -4   1  -4 9.22384 1.68037   3
  -4   1  -4 7.23547 1.67891   5
  -4   1  -4 5.08486 1.62644  10
  -4   1  -4 8.41204 1.75537   7
  -4   1  -4 8.48514 1.70377   8
  -4   1  -4 10.3506 2.23817   2
  -5   1  -4 9.28431 1.98012   4
  -5   1  -4 9.04971 2.94414   2
  -5   1  -4 10.8281 2.33145   5
  -5   1  -4 8.05894 2.10840  10
  -5   1  -4 9.89120 2.42549   9
  -5   1  -4 8.31928 2.16420   8
  -5   1  -4 8.62055 2.16473   7
  -5   1  -4 10.0468 2.23448   3
  -6   1  -4 20.3123 3.48010   9
  -6   1  -4 15.6923 2.87021  10
  -6   1  -4 16.6665 3.88856   2
  -6   1  -4 16.3159 3.13695   3
  -6   1  -4 16.3248 2.80554   4
  -6   1  -4 13.9921 3.08119   8
  -6   1  -4 14.1234 3.13482   5
   9   0  -4 6.02805 2.66740   6
   9   0  -4 6.65670 2.94074   1
  -9   0   4 7.85260 2.37473   7
  -9   0   4 9.80047 2.98678   1
  -9   0   4 5.45741 2.04708  12
   8   0  -4 8.89270 2.53964   1
   8   0  -4 9.31485 2.35205   6
   8   0  -4 4.14330 1.70055   1
  -8   0   4 10.0375 2.34089   1
   7   0  -4 9.01058 2.21680   1
   7   0  -4 8.81942 2.06772   6
   7   0  -4 13.9677 1.78638   6
   7   0  -4 6.06151 1.40151   9
   7   0  -4 9.50621 1.53197   1
  -7   0   4 9.69090 2.08363   1
  -7   0   4 7.13209 1.43581   5
  -7   0   4 7.90051 1.64203   9
   6   0  -4 39.1974 3.33533   1
   6   0  -4 36.4501 2.79901   1
   6   0  -4 37.2831 2.64542   6
   6   0  -4 34.6949 2.82832   9
   6   0  -4 37.8287 3.07144   6
  -6   0   4 38.4691 2.65706   7
  -6   0   4 37.2251 3.17383   1
  -6   0   4 38.6758 2.75463   6
  -6   0   4 37.2993 3.01076   9
  -6   0   4 33.4140 2.81610   1
  -6   0   4 43.1741 2.90012   5
  -6   0   4 35.7552 2.72943  12
   5   0  -4 111.999 5.33969   6
   5   0  -4 113.020 5.38565   1
   5   0  -4 107.284 5.55398   1
   5   0  -4 108.560 5.41677   9
   5   0  -4 105.968 5.44918   6
  -5   0   4 106.252 5.35455  12
  -5   0   4 90.6814 5.22415   7
  -5   0   4 107.133 5.46789   1
  -5   0   4 104.121 5.40189   1
  -5   0   4 112.925 5.43461   9
  -5   0   4 101.593 5.29221   6
  -5   0   4 114.166 5.38906  11
   4   0  -4 4.90620 1.18991   1
   4   0  -4 4.72849 1.17186   6
   4   0  -4 4.08981 0.99032   6
   4   0  -4 4.34839 1.11016   9
   4   0  -4 4.34319 1.27337   1
  -4   0   4 3.82411 1.21676   1
  -4   0   4 4.98481 1.10705   7
  -4   0   4 4.81853 1.07727   9
  -4   0   4 5.78446 1.20777   6
  -4   0   4 4.66300 1.15777  12
  -4   0   4 5.68153 1.21363   1
  -4   0   4 4.01558 1.05724  11
   3   0  -4 182.972 8.26429   7
   3   0  -4 179.300 8.17589   9
   3   0  -4 197.077 8.37796   6
   3   0  -4 196.793 8.43968   1
   3   0  -4 173.385 8.26855   6
   3   0  -4 165.544 8.27757   1
  -3   0   4 184.069 8.31176   1
  -3   0   4 174.241 8.19054  12
  -3   0   4 182.106 8.32768   6
  -3   0   4 192.426 8.21231  11
  -3   0   4 171.571 8.34120   1
  -3   0   4 185.567 8.23117   7
  -3   0   4 194.519 8.18940   9
   2   0  -4 356.856 16.3739   1
   2   0  -4 405.788 16.4342   6
   2   0  -4 394.054 16.4411   1
   2   0  -4 381.598 16.3407   7
   2   0  -4 365.990 16.3703   6
   2   0  -4 373.366 16.1643   9
  -2   0   4 383.203 16.2953   7
  -2   0   4 397.494 16.2315  11
  -2   0   4 378.756 16.3837   1
  -2   0   4 366.110 16.4147   1
  -2   0   4 377.026 16.2396  12
  -2   0   4 372.002 16.3314   4
   1   0  -4 343.428 13.9821   6
   1   0  -4 309.276 13.9311   1
   1   0  -4 332.783 13.9940   1
   1   0  -4 307.218 13.9015   6
   1   0  -4 322.979 13.9183   7
  -1   0   4 313.089 13.9223  10
  -1   0   4 314.702 13.8686   4
  -1   0   4 324.340 13.6058   8
  -1   0   4 324.905 13.9384   1
  -1   0   4 329.012 13.8805   7
  -1   0   4 321.881 13.9868   1
   0   0  -4 168.657 8.03686   1
   0   0  -4 191.347 8.07586   6
   0   0  -4 175.763 8.02540   6
   0   0  -4 183.012 8.10361   1
   0   0  -4 181.378 8.35632   2
   0   0  -4 184.903 8.08582   7
   0   0   4 192.945 8.05569   7
   0   0   4 180.765 8.04456  10
   0   0   4 178.414 8.11523   1
   0   0   4 179.099 8.03821   1
   0   0   4 180.012 7.96474   4
  -1   0  -4 93.0878 4.53717   7
  -1   0  -4 87.2276 4.31107   6
  -1   0  -4 90.9902 4.38723   1
  -1   0  -4 102.791 4.41803   4
  -1   0  -4 93.8102 4.88054   2
  -1   0  -4 91.7828 4.34159   6
  -1   0  -4 83.6024 4.33995   1
   1   0   4 97.1558 4.32231   4
   1   0   4 94.2870 4.40502  10
   1   0   4 93.5443 4.42167   7
   1   0   4 94.0813 4.35559   1
  -2   0  -4 25.1267 2.47501   2
  -2   0  -4 30.1051 2.12701   4
  -2   0  -4 31.7797 2.14221  10
  -2   0  -4 26.3289 2.26296   7
   2   0   4 27.3771 1.98325   4
   2   0   4 26.9175 2.14006  10
  -3   0  -4 51.3116 2.90427   8
  -3   0  -4 48.3396 3.19252   7
  -3   0  -4 50.5831 3.02669  10
  -3   0  -4 48.3982 3.64431   2
  -3   0  -4 53.1665 2.99879   4
  -4   0  -4 9.52868 2.51075   2
  -4   0  -4 8.35694 1.73704   9
  -4   0  -4 8.37854 1.58977   5
  -4   0  -4 9.83709 1.52624  10
  -4   0  -4 10.1502 1.52817   4
  -4   0  -4 11.9600 1.89115   7
  -4   0  -4 11.1039 1.74210   8
  -4   0  -4 10.5204 1.53494   3
  -5   0  -4 16.2657 2.36836   5
  -5   0  -4 16.2798 2.19849   3
  -5   0  -4 14.3582 1.95152   4
  -5   0  -4 18.2802 2.79427  10
  -5   0  -4 15.4336 2.49709   9
  -5   0  -4 14.4513 2.92554   2
  -5   0  -4 16.0647 2.41069   8
  -5   0  -4 12.3648 2.46508   7
  -6   0  -4 17.5884 2.47822  10
  -6   0  -4 25.5691 3.79459   4
  -6   0  -4 18.2198 2.86237   5
  -6   0  -4 18.9918 3.22135   8
  -6   0  -4 20.3542 3.22192   7
  -6   0  -4 22.8107 2.99136   3
  -6   0  -4 17.7068 3.99517   2
  -6   0  -4 15.7770 3.28744   9
   9  -1  -4 9.73921 2.99854   6
   9  -1  -4 11.9453 3.36175   1
  -9   1   4 12.5628 2.80141   7
  -9   1   4 12.5869 3.16536   1
   8  -1  -4 1.00277 2.06760   6
   8  -1  -4 0.09231 2.34059   1
  -8   1   4 0.65934 2.23775   1
  -8   1   4 2.20342 1.77850   7
   7  -1  -4 2.45234 1.15090   6
   7  -1  -4 2.81745 2.02358   1
   7  -1  -4 2.47517 1.76290   6
   7  -1  -4 3.97105 1.39098   1
  -7   1   4 3.70484 1.86222   1
  -7   1   4 1.81841 1.13881   5
   6  -1  -4 89.8530 4.60782   6
   6  -1  -4 85.2831 4.82393  11
   6  -1  -4 82.2631 4.75880   9
   6  -1  -4 95.6046 5.22824   1
   6  -1  -4 88.7096 4.74372   1
   6  -1  -4 84.7413 4.98440   6
  -6   1   4 84.6646 4.74053   1
  -6   1   4 85.3957 4.61995   6
  -6   1   4 89.5987 4.72430   5
  -6   1   4 86.9823 4.56478   7
  -6   1   4 92.9473 5.04276   1
  -6   1   4 89.3925 4.82076   9
   5  -1  -4 16.1876 2.18784   6
   5  -1  -4 19.5175 2.17079   1
   5  -1  -4 17.6563 2.08474   1
   5  -1  -4 17.7883 2.07403  11
   5  -1  -4 15.2989 2.10971   9
   5  -1  -4 18.3347 1.85845   6
  -5   1   4 21.7520 1.95376   7
  -5   1   4 16.7861 2.28016   1
  -5   1   4 16.1312 2.11377   9
  -5   1   4 15.8873 1.97591  11
  -5   1   4 15.5061 2.03674   1
  -5   1   4 15.1160 1.85652   6
  -5   1   4 18.4892 2.05118   5
   4  -1  -4 104.939 5.28107  11
   4  -1  -4 111.128 5.25773   6
   4  -1  -4 104.616 5.36742   1
   4  -1  -4 112.463 5.38977   1
   4  -1  -4 103.892 5.27534   6
   4  -1  -4 103.869 5.29923   9
   4  -1  -4 108.373 5.30338   7
  -4   1   4 110.376 5.17353   5
  -4   1   4 102.889 5.36989   1
  -4   1   4 110.114 5.31969   9
  -4   1   4 109.410 5.25248  11
  -4   1   4 104.456 5.32243   6
  -4   1   4 107.776 5.24190   7
  -4   1   4 110.646 5.34992   1
   3  -1  -4 263.370 11.0773   6
   3  -1  -4 246.796 11.0327   7
   3  -1  -4 243.037 10.9900   9
   3  -1  -4 248.254 11.1087   1
   3  -1  -4 257.044 11.1139   1
   3  -1  -4 240.011 11.0355   6
   3  -1  -4 238.480 10.9833  11
  -3   1   4 248.838 10.9848   7
  -3   1   4 257.245 10.8782   5
  -3   1   4 260.122 10.9823  11
  -3   1   4 245.712 11.0786   6
  -3   1   4 240.829 11.0989   1
  -3   1   4 253.060 11.0568   1
   2  -1  -4 139.606 6.16227   6
   2  -1  -4 129.810 6.12381   7
   2  -1  -4 127.644 6.01616  11
   2  -1  -4 124.886 6.10496   6
   2  -1  -4 134.645 6.21492   1
   2  -1  -4 134.033 6.01907   9
   2  -1  -4 128.593 6.18733   1
  -2   1   4 137.945 6.00735  11
  -2   1   4 127.010 6.21366   1
  -2   1   4 131.856 5.88066   5
  -2   1   4 129.634 6.17301   6
  -2   1   4 135.350 6.09334   7
  -2   1   4 136.468 5.91034   8
  -2   1   4 130.741 6.12510   1
   1  -1  -4 97.0343 4.81259   6
   1  -1  -4 99.8388 4.86136   1
   1  -1  -4 102.477 4.92466   7
   1  -1  -4 105.378 4.72518   9
   1  -1  -4 104.177 4.97404   1
   1  -1  -4 107.279 4.89244   6
  -1   1   4 97.0927 4.96131   1
  -1   1   4 105.666 4.84940   7
  -1   1   4 106.948 4.61238   8
  -1   1   4 97.2773 4.79175   4
  -1   1   4 104.213 4.92337   6
  -1   1   4 105.640 4.59878   3
  -1   1   4 101.856 4.86780   1
   0  -1  -4 242.634 10.0585   6
   0  -1  -4 226.869 10.1298   7
   0  -1  -4 216.659 10.0543   1
   0  -1  -4 238.284 10.0891   1
   0  -1  -4 220.821 10.0411   6
   0   1   4 236.751 9.82463   8
   0   1   4 230.046 10.0348   1
   0   1   4 228.717 9.98939  10
   0   1   4 238.433 10.1048   7
   0   1   4 227.360 10.1042   1
   0   1   4 224.155 9.90131   4
  -1  -1  -4 62.7077 2.95854   8
  -1  -1  -4 60.7116 3.07342   6
  -1  -1  -4 57.4565 3.11882   1
  -1  -1  -4 59.4897 3.07490   6
  -1  -1  -4 63.7730 3.38278   7
  -1  -1  -4 61.3524 3.11515   1
   1   1   4 63.8185 3.10390   1
   1   1   4 63.3404 3.24190   7
   1   1   4 60.9055 3.02432  10
   1   1   4 61.4786 2.92004   4
  -2  -1  -4 11.1829 1.72848   2
  -2  -1  -4 10.4004 1.63551   7
  -2  -1  -4 8.05897 1.17146   8
  -3  -1  -4 6.63773 1.64858   7
  -3  -1  -4 4.31991 1.22648   9
  -3  -1  -4 5.26557 1.23905   8
  -3  -1  -4 4.56651 1.67480   2
  -4  -1  -4 10.7326 1.98469   7
  -4  -1  -4 8.83155 1.71240   8
  -4  -1  -4 9.71394 1.46181   3
  -4  -1  -4 8.78249 2.23759   2
  -4  -1  -4 6.72234 1.19646  10
  -4  -1  -4 8.97868 1.78338   9
  -5  -1  -4 17.3848 2.41233   9
  -5  -1  -4 10.7230 1.99427   5
  -5  -1  -4 8.81479 1.52003  10
  -5  -1  -4 10.8577 2.21786   3
  -5  -1  -4 11.3125 2.32810   8
  -5  -1  -4 13.1137 2.82060   2
  -5  -1  -4 13.2377 2.55948   7
  -6  -1  -4 23.3456 3.88050   2
  -6  -1  -4 16.5589 3.23461   9
  -6  -1  -4 13.0674 3.33617   7
  -6  -1  -4 14.6311 3.07352   8
  -6  -1  -4 18.4973 2.97170   3
  -6  -1  -4 16.3396 2.72060   5
   9  -2  -4 12.8111 3.84913   1
   9  -2  -4 12.5447 3.32543   6
  -9   2   4 16.8156 3.63870   1
  -9   2   4 17.7549 3.15200   7
   8  -2  -4 20.4547 3.29629   1
   8  -2  -4 14.4247 2.74229   6
   8  -2  -4 19.3387 2.62023   2
  -8   2   4 16.8725 2.53089   7
  -8   2   4 16.4838 3.09431   1
   7  -2  -4 16.8452 2.33994   1
   7  -2  -4 12.6406 2.34019   6
   7  -2  -4 16.0938 2.14285   6
   7  -2  -4 12.7179 2.66840   1
  -7   2   4 17.3655 2.38120   7
  -7   2   4 14.5319 1.86799   5
  -7   2   4 17.9757 2.52212   1
   6  -2  -4 8.32021 1.64178   6
   6  -2  -4 6.27872 1.38151   9
   6  -2  -4 8.87928 1.90322   1
   6  -2  -4 5.36542 1.33923  11
   6  -2  -4 8.40807 1.44547   1
   6  -2  -4 7.73063 1.46496   6
  -6   2   4 5.67785 1.44313   9
  -6   2   4 7.18099 1.42694   7
  -6   2   4 7.51479 1.96604   1
  -6   2   4 6.29816 1.47481   1
  -6   2   4 6.85347 1.32544   5
  -6   2   4 8.79732 1.42548   6
   5  -2  -4 37.1008 2.64250   7
   5  -2  -4 32.9278 2.79331   9
   5  -2  -4 36.4596 2.91457   6
   5  -2  -4 35.1704 2.81527  11
   5  -2  -4 37.5597 3.20036   1
   5  -2  -4 35.6882 2.57891   6
   5  -2  -4 39.0652 2.74771   1
  -5   2   4 40.6467 3.01494   1
  -5   2   4 37.9287 2.59470   7
  -5   2   4 36.7887 2.63596   6
  -5   2   4 37.1267 2.84431   9
  -5   2   4 40.7625 2.67798   5
  -5   2   4 35.2960 2.79536   1
  -5   2   4 37.0355 2.69914  11
   4  -2  -4 181.337 8.62221   9
   4  -2  -4 190.101 8.71213   1
   4  -2  -4 196.070 8.61573   6
   4  -2  -4 179.051 8.58041  11
   4  -2  -4 196.794 8.67979   1
   4  -2  -4 177.075 8.59482   6
   4  -2  -4 185.529 8.56396   7
  -4   2   4 181.076 8.64717   1
  -4   2   4 190.132 8.61157   1
  -4   2   4 181.772 8.60124   6
  -4   2   4 184.694 8.49189   7
  -4   2   4 194.223 8.46366   5
  -4   2   4 190.189 8.54008  11
   3  -2  -4 6.25005 1.30464   7
   3  -2  -4 4.58740 1.04858   6
   3  -2  -4 4.34680 1.10531   6
   3  -2  -4 4.52112 1.12369   1
   3  -2  -4 5.47511 1.32344   1
   3  -2  -4 3.86559 1.11530   9
   3  -2  -4 4.81465 1.05442  11
  -3   2   4 5.04857 0.92722   5
  -3   2   4 6.63090 1.03156   8
  -3   2   4 4.97945 1.07650   7
  -3   2   4 4.38853 1.19304   1
  -3   2   4 5.58267 1.04975   1
  -3   2   4 5.45463 1.23272   6
  -3   2   4 4.80947 1.03959  11
   2  -2  -4 23.0621 1.93792   7
   2  -2  -4 22.8584 1.95930   9
   2  -2  -4 24.7528 2.11549   1
   2  -2  -4 20.5688 2.02056   1
   2  -2  -4 19.0614 1.84219   6
   2  -2  -4 25.2695 1.96634   6
   2  -2  -4 25.2229 1.95906  11
  -2   2   4 21.0320 1.71964   8
  -2   2   4 23.6873 1.91119  11
  -2   2   4 21.2970 2.17258   1
  -2   2   4 24.2766 1.68725   5
  -2   2   4 22.3171 1.78145   7
  -2   2   4 22.8006 1.87371   1
  -2   2   4 23.4834 2.01512   6
   1  -2  -4 121.411 5.98274   6
   1  -2  -4 133.132 5.91299  11
   1  -2  -4 135.196 6.08988   1
   1  -2  -4 140.709 6.09252   6
   1  -2  -4 124.992 6.06819   7
   1  -2  -4 123.412 6.04143   1
  -1   2   4 129.755 5.83035  11
  -1   2   4 134.647 5.86280   8
  -1   2   4 134.937 6.03093   7
  -1   2   4 124.333 6.09873   1
  -1   2   4 127.232 6.05949   6
  -1   2   4 134.059 5.84984   3
  -1   2   4 129.822 6.01316   1
   0  -2  -4 288.524 12.7873   1
   0  -2  -4 278.819 12.7462   6
   0  -2  -4 297.480 12.6394   8
   0  -2  -4 302.783 12.7710   6
   0  -2  -4 308.658 12.8040   1
   0  -2  -4 295.198 12.8745   7
   0   2   4 305.120 12.8458   7
   0   2   4 302.609 12.6286   8
   0   2   4 287.705 12.8022   1
   0   2   4 287.761 12.5751   4
   0   2   4 297.524 12.7600   1
   0   2   4 305.698 12.5677   3
   0   2   4 277.886 12.6377  10
   0   2   4 294.794 12.7858   6
  -1  -2  -4 59.8258 3.27016   1
  -1  -2  -4 64.3355 3.56084   7
  -1  -2  -4 65.7938 3.28559   1
  -1  -2  -4 61.8001 3.21779   6
  -1  -2  -4 67.3396 3.22776   6
  -1  -2  -4 66.1473 3.24460   8
   1   2   4 61.9792 3.00428  10
   1   2   4 65.9938 3.20126   1
   1   2   4 66.3879 3.42704   7
   1   2   4 63.3955 3.20045   8
  -2  -2  -4 2.08332 1.09950   8
  -2  -2  -4 2.68351 1.28348   7
   2   2   4 3.12707 1.19835   7
  -3  -2  -4 1.28752 1.44097   2
  -3  -2  -4 -0.3628 1.30595   8
  -3  -2  -4 1.90763 1.31189   9
  -3  -2  -4 -0.1680 1.54671   7
  -3  -2  -4 0.13953 1.06449   3
  -4  -2  -4 13.8220 2.01371   9
  -4  -2  -4 17.7787 2.42073   2
  -4  -2  -4 12.6546 1.97944   8
  -4  -2  -4 14.7252 1.74893   3
  -4  -2  -4 16.9345 2.36381   7
  -5  -2  -4 4.01391 2.51383   7
  -5  -2  -4 4.06244 2.01154   3
  -5  -2  -4 1.63104 2.44133   2
  -5  -2  -4 5.81738 2.15454   9
  -5  -2  -4 4.48612 2.20088   8
  -6  -2  -4 5.30443 3.21887   7
  -6  -2  -4 9.19495 3.07695   9
  -6  -2  -4 14.7564 2.99054   8
  -6  -2  -4 8.14020 3.57776   2
  -6  -2  -4 12.4458 2.66116   3
  -6  -2  -4 4.38088 2.46475   5
   9  -3  -4 25.1593 3.61514   2
   9  -3  -4 30.3639 4.54161   1
   9  -3  -4 20.7458 3.87629   6
  -9   3   4 28.6669 4.06720   7
  -9   3   4 27.9168 4.33861   1
   8  -3  -4 34.9474 4.52485   6
   8  -3  -4 43.3968 5.33057   1
   8  -3  -4 47.9581 4.63992   2
  -8   3   4 43.3440 5.12802   1
  -8   3   4 47.4993 4.35237   7
   7  -3  -4 11.1093 2.24054   6
   7  -3  -4 16.9444 2.04340   1
   7  -3  -4 18.9977 2.88098   1
  -7   3   4 14.6496 2.51098   1
  -7   3   4 14.8160 2.12753   7
  -7   3   4 12.1513 1.80613   5
   6  -3  -4 1.98292 1.33357   1
   6  -3  -4 1.65672 1.76109   6
   6  -3  -4 5.07412 2.08010   1
   6  -3  -4 1.64937 1.25496   9
   6  -3  -4 2.00097 1.18201   6
  -6   3   4 4.54962 1.24754   6
  -6   3   4 1.23671 1.29316   5
  -6   3   4 1.05586 1.37243   7
  -6   3   4 3.52759 1.36537   1
  -6   3   4 4.51328 1.90376   1
   5  -3  -4 57.7598 4.02328   6
   5  -3  -4 69.8409 4.34176   1
   5  -3  -4 67.5738 3.97988  11
   5  -3  -4 62.7679 4.08677   9
   5  -3  -4 72.3382 3.89187   6
   5  -3  -4 69.3823 3.87949   7
   5  -3  -4 70.6690 3.99891   1
  -5   3   4 62.3909 3.78121   6
  -5   3   4 62.0900 3.95402   1
  -5   3   4 69.5058 3.76554   7
  -5   3   4 73.2546 3.94485  11
  -5   3   4 70.2167 3.91867   5
  -5   3   4 73.5212 4.24430   1
   4  -3  -4 165.054 7.62345   1
   4  -3  -4 154.518 7.51130   7
   4  -3  -4 150.484 7.58493   9
   4  -3  -4 153.457 7.58060  11
   4  -3  -4 164.891 7.68587   1
   4  -3  -4 168.949 7.59735   6
  -4   3   4 160.597 7.59270   1
  -4   3   4 160.897 7.43832   7
  -4   3   4 167.782 7.42693   8
  -4   3   4 160.004 7.51171  11
  -4   3   4 158.170 7.65331   1
  -4   3   4 155.625 7.56211   6
  -4   3   4 163.407 7.45318   5
   3  -3  -4 5.88395 1.36651   1
   3  -3  -4 5.08207 1.24317   1
   3  -3  -4 5.62259 1.24533   9
   3  -3  -4 4.74153 1.21391  11
   3  -3  -4 6.52105 1.36263   7
   3  -3  -4 6.44217 1.23781   6
  -3   3   4 4.29835 1.10476   1
  -3   3   4 6.28046 1.01682   5
  -3   3   4 7.08214 1.38040   6
  -3   3   4 6.14823 1.16608   8
  -3   3   4 5.28937 1.49064   1
  -3   3   4 5.46831 1.12071   7
  -3   3   4 4.01737 1.11207  11
   2  -3  -4 4.33608 1.16439   9
   2  -3  -4 3.85715 1.16952   1
   2  -3  -4 4.49342 1.17990   6
   2  -3  -4 4.44372 1.24330   7
   2  -3  -4 5.47191 1.31792   1
   2  -3  -4 4.68672 1.11979  11
  -2   3   4 4.12029 1.12961   7
  -2   3   4 4.21932 1.12040   6
  -2   3   4 5.83241 1.05999  11
  -2   3   4 4.65315 1.06733   1
  -2   3   4 5.18940 1.07604   8
  -2   3   4 4.90205 1.32817   1
  -2   3   4 5.79357 0.91007   5
   1  -3  -4 76.5031 3.95416   1
   1  -3  -4 76.6543 3.88587   6
   1  -3  -4 70.3833 3.78678   1
   1  -3  -4 69.7024 3.70511  11
   1  -3  -4 73.0061 3.85633   7
  -1   3   4 72.4745 3.74602   1
  -1   3   4 77.6080 3.63279  11
  -1   3   4 70.2804 3.71358   7
  -1   3   4 71.9034 3.86244   6
  -1   3   4 71.5165 4.00654   1
  -1   3   4 72.8999 3.40792   5
  -1   3   4 75.7103 3.69612   3
  -1   3   4 74.0520 3.67372   8
   0  -3  -4 164.484 7.18904   1
   0  -3  -4 148.534 7.13396   1
   0  -3  -4 152.971 7.04278   8
   0  -3  -4 148.801 7.21133   7
   0  -3  -4 167.409 7.16510   6
   0   3   4 164.609 7.01086   3
   0   3   4 157.153 7.08395   1
   0   3   4 155.407 7.04780   8
   0   3   4 157.308 7.25259   1
   0   3   4 152.362 7.15761   6
   0   3   4 158.061 7.20019   7
  -1  -3  -4 104.663 5.31418   1
  -1  -3  -4 118.023 5.30338   6
  -1  -3  -4 112.468 5.55009   7
  -1  -3  -4 122.003 5.36212   1
  -1  -3  -4 114.267 5.33742   8
   1   3   4 116.629 5.26464   1
   1   3   4 114.492 5.32251   8
   1   3   4 115.011 5.22792   3
   1   3   4 111.656 5.41902   7
   1   3   4 110.326 5.37712   1
   1   3   4 113.422 5.30142   6
  -2  -3  -4 36.8767 2.95561   7
  -2  -3  -4 44.5026 2.48415   1
  -2  -3  -4 41.4728 2.79565   8
  -2  -3  -4 42.1365 2.59341   3
  -2  -3  -4 42.7858 2.50010   1
   2   3   4 45.4378 2.42642   1
   2   3   4 43.5630 2.87780   7
   2   3   4 47.4354 2.75252   8
   2   3   4 45.5803 2.56632   3
   2   3   4 43.7659 2.58339   1
  -3  -3  -4 63.3134 3.72756   8
  -3  -3  -4 66.8221 3.53782   3
  -3  -3  -4 61.0147 3.93488   7
  -4  -3  -4 46.5041 3.70657   7
  -4  -3  -4 37.9296 3.13447   3
  -4  -3  -4 39.4307 3.44195   8
  -4  -3  -4 48.7489 3.74438   9
  -4  -3  -4 40.3145 3.65095   2
  -5  -3  -4 16.2586 3.03707   2
  -5  -3  -4 12.9913 2.52483   9
  -5  -3  -4 17.3080 2.30677   3
  -5  -3  -4 16.3343 2.86989   7
  -5  -3  -4 14.6418 2.51086   8
  -6  -3  -4 5.51024 3.26997   7
  -6  -3  -4 2.59001 3.07413   2
  -6  -3  -4 4.99684 2.93213   3
  -6  -3  -4 2.87404 2.89947   9
  -6  -3  -4 4.72577 2.85970   8
   8  -4  -4 26.6855 3.77486   2
   8  -4  -4 22.8619 4.12510   1
   8  -4  -4 22.1563 3.44716   6
  -8   4   4 27.6292 3.59550   1
  -8   4   4 23.5995 3.21974   7
   7  -4  -4 -0.7150 2.65447   1
   7  -4  -4 -1.3567 2.10352   6
  -7   4   4 2.00098 2.36418   1
  -7   4   4 -0.8312 1.87203   7
  -7   4   4 -0.0263 1.57488   5
   6  -4  -4 4.99842 2.27143   1
   6  -4  -4 7.86613 1.63195   1
   6  -4  -4 7.77208 1.49685   6
  -6   4   4 9.37611 2.24752   1
  -6   4   4 7.53570 1.52048   5
  -6   4   4 7.55098 1.78870   7
   5  -4  -4 75.8622 4.23947   7
   5  -4  -4 74.1907 4.20874   6
   5  -4  -4 67.7917 4.33811  11
   5  -4  -4 70.4643 4.73085   1
   5  -4  -4 72.4006 4.35670   9
   5  -4  -4 73.5536 4.33960   1
  -5   4   4 73.2717 4.15527   5
  -5   4   4 65.0650 4.13204   6
  -5   4   4 72.1906 4.53472   1
  -5   4   4 69.8003 4.42520   1
  -5   4   4 77.7045 4.08935   7
  -5   4   4 79.8034 4.01426   8
   4  -4  -4 200.114 8.75466   1
   4  -4  -4 174.924 8.62717  11
   4  -4  -4 177.134 8.74896   1
   4  -4  -4 175.569 8.68075   9
   4  -4  -4 190.732 8.57761   7
   4  -4  -4 192.574 8.65828   6
  -4   4   4 186.525 8.47428   5
  -4   4   4 191.053 8.68027   1
  -4   4   4 184.232 8.47447   7
  -4   4   4 176.184 8.70325   1
  -4   4   4 190.918 8.46741   8
  -4   4   4 186.600 8.55860  11
  -4   4   4 171.124 8.57561   6
   3  -4  -4 100.742 5.37025  11
   3  -4  -4 111.492 5.49218   1
   3  -4  -4 104.501 5.31325   7
   3  -4  -4 99.3783 5.38609   9
   3  -4  -4 98.7813 5.30817   1
   3  -4  -4 109.988 5.37590   6
  -3   4   4 106.765 5.30493   1
  -3   4   4 99.8559 5.30546   6
  -3   4   4 107.847 5.26655  11
  -3   4   4 103.203 5.15786   7
  -3   4   4 110.178 5.16506   5
  -3   4   4 107.864 5.16376   8
  -3   4   4 108.884 5.49918   1
   2  -4  -4 128.503 6.13061   5
   2  -4  -4 122.858 6.27045  11
   2  -4  -4 129.882 6.36603   1
   2  -4  -4 142.164 6.46145   1
   2  -4  -4 139.610 6.40340   6
   2  -4  -4 125.775 6.32008   7
  -2   4   4 132.677 6.38268   6
  -2   4   4 137.800 6.32645   1
  -2   4   4 130.979 6.46825   1
  -2   4   4 138.635 6.10105   5
  -2   4   4 137.643 6.27253   3
  -2   4   4 134.370 6.22352   8
  -2   4   4 136.923 6.26460  11
  -2   4   4 120.135 6.22100   7
   1  -4  -4 137.217 6.75737  11
   1  -4  -4 160.296 6.99578   1
   1  -4  -4 143.693 6.80413   8
   1  -4  -4 145.159 6.91831   7
   1  -4  -4 142.200 6.56562   5
   1  -4  -4 140.375 6.82295   1
   1  -4  -4 156.634 6.93770   6
  -1   4   4 143.947 6.53554   5
  -1   4   4 145.356 6.94381   1
  -1   4   4 146.675 6.80800   1
  -1   4   4 141.132 6.85194   6
  -1   4   4 151.927 6.78977   3
  -1   4   4 149.448 6.83597   7
  -1   4   4 148.916 6.74802   8
  -1   4   4 152.657 6.74852  11
   0  -4  -4 2.18058 0.92911   1
   0  -4  -4 1.60861 1.09829   8
   0  -4  -4 1.05020 0.98370  11
   0  -4  -4 1.45814 1.12035   7
   0  -4  -4 -0.0450 1.11029   6
   0  -4  -4 0.45876 1.20005   1
   0   4   4 -0.4454 0.99144   3
   0   4   4 0.53795 1.00617   6
   0   4   4 -0.6073 0.92015   7
   0   4   4 2.40040 1.18131   1
   0   4   4 2.32222 0.90960   1
   0   4   4 2.01295 0.68760   4
   0   4   4 -1.1569 1.03064   8
  -1  -4  -4 62.3289 3.46106   1
  -1  -4  -4 64.2324 3.45005   6
  -1  -4  -4 62.5373 3.59496   7
  -1  -4  -4 61.9355 3.54362   8
  -1  -4  -4 67.7281 3.56061   1
   1   4   4 64.7730 3.47140   3
   1   4   4 64.7503 3.59642   1
   1   4   4 64.9699 3.48222   8
   1   4   4 62.5035 3.47701   7
   1   4   4 64.4422 3.44331   6
  -2  -4  -4 94.2540 4.52639   1
  -2  -4  -4 88.6529 4.58437   1
  -2  -4  -4 96.1738 4.63297   3
  -2  -4  -4 93.7454 4.75163   8
  -2  -4  -4 85.9437 4.45212   6
  -2  -4  -4 91.3064 4.91490   7
   2   4   4 98.1770 4.70599   8
   2   4   4 101.171 4.65750   3
   2   4   4 83.4788 4.75132   7
   2   4   4 94.1886 4.45846   1
  -3  -4  -4 115.623 5.70756   3
  -3  -4  -4 114.378 6.04118   7
  -3  -4  -4 115.777 5.92365   8
   3   4   4 121.010 5.71833   3
   3   4   4 119.720 5.79182   8
  -4  -4  -4 60.9374 3.73661   3
  -4  -4  -4 51.4591 3.93675   8
  -4  -4  -4 55.8722 4.12399   7
  -5  -4  -4 28.4071 4.07197   2
  -5  -4  -4 24.6657 3.17281   7
  -5  -4  -4 24.2267 2.93923   9
  -5  -4  -4 22.5225 2.92982   8
  -5  -4  -4 19.2018 2.60499   3
  -6  -4  -4 10.7775 2.87847   3
  -6  -4  -4 8.80816 3.08235   8
  -6  -4  -4 7.47721 3.17936   9
  -6  -4  -4 10.1260 3.40287   7
  -6  -4  -4 12.5717 3.61666   2
   8  -5  -4 2.43917 4.04906   6
   8  -5  -4 5.61836 6.05640   1
   8  -5  -4 17.0034 4.05506   2
  -8   5   4 11.9290 3.28003   7
  -8   5   4 13.8146 3.73317   1
   7  -5  -4 -1.5858 2.78973   1
   7  -5  -4 -1.7589 2.40468   6
  -7   5   4 4.41974 2.31455   7
  -7   5   4 1.85803 1.76587   5
  -7   5   4 1.16106 2.52578   1
   6  -5  -4 1.63505 2.65491   1
   6  -5  -4 2.55035 1.43702   7
   6  -5  -4 -1.5111 2.38598   1
  -6   5   4 1.91046 1.92084   6
  -6   5   4 2.14155 1.78624   7
  -6   5   4 2.89774 1.43378   5
  -6   5   4 1.41958 2.04733   1
   5  -5  -4 5.57704 1.99516   1
   5  -5  -4 5.20109 1.61692   7
   5  -5  -4 5.68979 1.56961   1
   5  -5  -4 4.30092 1.45450   6
  -5   5   4 8.76919 1.65348   7
  -5   5   4 5.86890 1.34776   4
  -5   5   4 6.44283 1.55486   5
  -5   5   4 3.32527 1.56813   1
  -5   5   4 3.36237 1.33355   6
  -5   5   4 4.44376 1.79238   1
   4  -5  -4 88.5404 4.86525   1
   4  -5  -4 84.5828 4.70198   6
   4  -5  -4 83.7827 4.60245   7
   4  -5  -4 87.1049 4.79438   1
   4  -5  -4 81.9706 4.64788   5
   4  -5  -4 75.7927 4.72099   9
   4  -5  -4 76.5600 4.64791  11
  -4   5   4 78.7734 4.55073  11
  -4   5   4 78.6610 4.58285   6
  -4   5   4 77.8839 4.33084   8
  -4   5   4 84.5495 4.42768   7
  -4   5   4 89.5417 4.79014   1
  -4   5   4 87.8956 4.64000   4
  -4   5   4 86.0240 4.56484   5
  -4   5   4 85.3523 4.84279   1
   3  -5  -4 59.4477 3.93739  11
   3  -5  -4 68.1779 4.01640   6
   3  -5  -4 59.4835 3.98245   9
   3  -5  -4 65.5436 3.87211   7
   3  -5  -4 68.1863 3.91479   1
   3  -5  -4 65.4193 3.85442   5
   3  -5  -4 75.4120 4.22941   1
  -3   5   4 68.0939 3.68769   8
  -3   5   4 60.8869 3.82278   6
  -3   5   4 67.1974 4.19509   1
  -3   5   4 69.6833 3.84131   5
  -3   5   4 68.9500 3.93846   3
  -3   5   4 66.4740 3.63629   7
  -3   5   4 72.0625 3.87221   4
  -3   5   4 68.0659 3.88012  11
  -3   5   4 69.7588 3.86090   1
   2  -5  -4 95.9743 4.76080   5
   2  -5  -4 97.7385 5.11199   1
   2  -5  -4 90.4232 4.82195   7
   2  -5  -4 87.3688 4.85149  11
   2  -5  -4 88.9890 4.89931   1
   2  -5  -4 101.403 5.04142   6
  -2   5   4 97.9734 4.66740   5
  -2   5   4 96.3390 4.76259   4
  -2   5   4 93.4607 4.77438   1
  -2   5   4 98.7221 4.88664   3
  -2   5   4 90.8701 4.70151   7
  -2   5   4 96.4157 4.83724  11
  -2   5   4 94.4028 5.12441   1
  -2   5   4 84.1874 4.87812   6
  -2   5   4 96.9580 4.77558   8
   1  -5  -4 15.1953 1.84224   7
   1  -5  -4 15.7617 2.36494   1
   1  -5  -4 16.8145 1.88608   1
   1  -5  -4 16.0584 1.79803   8
   1  -5  -4 14.6420 2.03759  11
   1  -5  -4 16.8105 2.14971   6
   1  -5  -4 13.7217 1.88735   5
  -1   5   4 19.2110 1.82507   4
  -1   5   4 15.8931 1.97628   8
  -1   5   4 14.4837 2.04990   6
  -1   5   4 16.0502 1.78340   1
  -1   5   4 17.5045 2.04633   3
  -1   5   4 15.2886 1.93328   1
  -1   5   4 16.4873 1.97857  11
  -1   5   4 14.3341 1.76073   7
   0  -5  -4 25.2818 2.27419  11
   0  -5  -4 24.0152 2.28929   7
   0  -5  -4 28.5891 2.42171   8
   0  -5  -4 25.4810 2.00058   5
   0  -5  -4 28.5625 2.16581   1
   0  -5  -4 28.0669 2.44844   6
   0  -5  -4 31.1106 2.56040   1
   0   5   4 24.1367 2.05143   7
   0   5   4 27.3299 1.93138   4
   0   5   4 21.8719 2.09364   1
   0   5   4 28.8335 2.46348   8
   0   5   4 25.7310 2.58967   1
   0   5   4 27.1204 2.33541   6
   0   5   4 26.3522 2.29381   3
  -1  -5  -4 116.263 5.47923  11
  -1  -5  -4 113.350 5.63696   8
  -1  -5  -4 108.616 5.64996   7
  -1  -5  -4 115.215 5.57258   1
  -1  -5  -4 124.265 5.67411   1
  -1  -5  -4 117.000 5.57023   6
  -1  -5  -4 112.415 5.59232   3
   1   5   4 112.667 5.50282   1
   1   5   4 113.557 5.55979   3
   1   5   4 111.922 5.55732   7
   1   5   4 110.881 5.52553   6
   1   5   4 114.824 5.68235   1
   1   5   4 120.382 5.62687   8
  -2  -5  -4 68.9450 3.96418  11
  -2  -5  -4 72.3991 4.28984   7
  -2  -5  -4 75.3727 3.98510   6
  -2  -5  -4 84.9475 4.13474   1
  -2  -5  -4 75.3646 4.27763   8
  -2  -5  -4 76.8970 4.18617   3
  -2  -5  -4 71.7463 4.07416   1
   2   5   4 76.4293 4.14647   7
   2   5   4 75.5819 3.96733   1
   2   5   4 71.4031 3.91986   6
   2   5   4 79.0838 4.25422   8
   2   5   4 75.8523 4.17097   1
   2   5   4 79.9472 4.21839   3
  -3  -5  -4 76.2357 4.33569   3
  -3  -5  -4 75.0975 4.05192   1
  -3  -5  -4 81.1720 4.04327   1
  -3  -5  -4 75.4008 4.48737   8
  -3  -5  -4 74.3113 4.55755   7
  -3  -5  -4 68.7427 3.93391   6
   3   5   4 75.7129 3.96975   1
   3   5   4 81.2040 4.41448   8
   3   5   4 77.4954 4.20674   1
   3   5   4 73.0411 3.94902   6
   3   5   4 80.0166 4.38607   3
  -4  -5  -4 11.3303 2.46791   7
  -4  -5  -4 15.3354 2.12228   3
  -4  -5  -4 11.4506 2.22343   8
  -5  -5  -4 1.77704 2.61994   2
  -5  -5  -4 2.05713 2.46095   9
  -5  -5  -4 5.04812 2.30321   3
  -5  -5  -4 1.31651 2.54345   7
  -5  -5  -4 0.84345 2.55389   8
  -6  -5  -4 27.8708 3.94078   7
  -6  -5  -4 22.6867 3.99142   2
  -6  -5  -4 18.3679 3.69747   8
  -6  -5  -4 23.0898 3.80000   9
  -6  -5  -4 19.9861 3.37970   3
  -7   6   4 11.3212 3.11528   1
  -7   6   4 8.79692 2.32666   5
  -7   6   4 10.7821 2.82946   7
  -6   6   4 7.83551 2.58918   1
  -6   6   4 8.36497 2.04547   5
  -6   6   4 13.0024 2.24732   7
   5  -6  -4 6.19187 1.95132   6
   5  -6  -4 3.02438 1.69207   7
   5  -6  -4 5.02402 1.73910   1
   5  -6  -4 2.99248 1.78777   5
   5  -6  -4 4.81275 2.14855   1
  -5   6   4 3.77158 1.89341   7
  -5   6   4 3.62097 1.53400   4
  -5   6   4 4.93964 1.68069   5
  -5   6   4 0.64331 1.85866   1
   4  -6  -4 14.6763 2.04116   6
   4  -6  -4 11.2305 1.92089   5
   4  -6  -4 12.1580 2.18772   9
   4  -6  -4 13.3012 2.06763   1
   4  -6  -4 10.2267 1.94040  11
   4  -6  -4 13.8096 2.17555   1
   4  -6  -4 14.9341 2.09294   7
  -4   6   4 14.3589 1.83501   7
  -4   6   4 9.74030 1.86657   1
  -4   6   4 11.4021 1.70039   3
  -4   6   4 13.1753 1.84851   4
  -4   6   4 16.2990 2.33133   1
  -4   6   4 11.5768 1.69021   5
  -4   6   4 12.8203 1.66342   6
   3  -6  -4 1.45595 1.30453   7
   3  -6  -4 -0.3692 1.33585   1
   3  -6  -4 2.70204 1.58832   1
   3  -6  -4 1.32847 1.45139   6
   3  -6  -4 0.41538 1.36550  11
   3  -6  -4 0.89461 1.26350   9
   3  -6  -4 0.81046 1.47570   5
  -3   6   4 0.43406 1.20712   5
  -3   6   4 2.24698 1.29616   4
  -3   6   4 0.58544 1.19465   7
  -3   6   4 2.40450 1.36393   1
  -3   6   4 2.08310 1.22531  11
  -3   6   4 -0.1743 1.55072   1
  -3   6   4 1.93483 1.25636   3
  -3   6   4 2.71133 1.19473   8
  -3   6   4 -0.9936 1.28078   6
   2  -6  -4 1.96782 1.13869   1
   2  -6  -4 3.25315 1.33153   5
   2  -6  -4 3.01988 1.69068   1
   2  -6  -4 2.18854 1.24549   7
   2  -6  -4 1.02711 1.32299  11
   2  -6  -4 3.29243 1.53237   6
  -2   6   4 2.38100 1.29194   5
  -2   6   4 1.58061 1.29619   3
  -2   6   4 2.79646 1.17489   1
  -2   6   4 3.61843 1.22113   4
  -2   6   4 1.33029 1.18089  11
  -2   6   4 2.46885 1.33841   6
  -2   6   4 3.47785 1.26892   8
  -2   6   4 3.57274 1.08975   7
  -2   6   4 3.29118 1.54543   1
   1  -6  -4 4.29939 1.19496   1
   1  -6  -4 2.76233 1.19333   7
   1  -6  -4 3.72326 1.35009  11
   1  -6  -4 3.69244 1.38302   8
   1  -6  -4 3.50233 1.47280   6
   1  -6  -4 3.32522 1.18970   5
   1  -6  -4 7.03787 1.52357   1
  -1   6   4 1.68099 1.53034   1
  -1   6   4 4.51388 1.27236   8
  -1   6   4 3.24260 1.38367   6
  -1   6   4 4.29448 1.35402  11
  -1   6   4 2.64990 1.18975  10
  -1   6   4 4.50073 1.40178   3
  -1   6   4 4.95945 1.20604   4
  -1   6   4 3.45930 1.16234   7
  -1   6   4 2.56605 1.03659   1
   0  -6  -4 24.0101 2.55524   6
   0  -6  -4 24.2443 2.48779  11
   0  -6  -4 26.2984 2.74578   1
   0  -6  -4 23.8363 2.19174   5
   0  -6  -4 19.9578 2.07360   1
   0  -6  -4 27.0239 2.47546   8
   0  -6  -4 22.1249 2.32925   7
   0   6   4 22.8155 2.79401   1
   0   6   4 23.8787 2.47182   3
   0   6   4 23.6037 2.10782   1
   0   6   4 20.3489 2.46392   6
   0   6   4 23.0332 1.99687   4
   0   6   4 21.0366 1.97286   7
   0   6   4 22.8888 2.45505   8
   0   6   4 25.1500 2.07522  10
  -1  -6  -4 2.35487 1.31062   7
  -1  -6  -4 0.16379 0.99853   5
  -1  -6  -4 1.22152 1.37670  11
  -1  -6  -4 0.66565 1.36409   6
  -1  -6  -4 0.66807 1.47977   1
  -1  -6  -4 2.31810 1.46089   8
  -1  -6  -4 0.19863 1.19813   1
  -1  -6  -4 -2.6195 1.38844   3
   1   6   4 1.49452 1.39007   8
   1   6   4 2.75447 0.81330  10
   1   6   4 2.81135 1.38634   3
   1   6   4 1.85671 0.76321   4
   1   6   4 1.17509 1.57425   1
   1   6   4 -0.3744 1.09582   1
   1   6   4 0.48157 1.09315   7
   1   6   4 1.66401 1.42456   6
  -2  -6  -4 167.297 8.65876   7
  -2  -6  -4 186.294 8.66715   3
  -2  -6  -4 186.544 8.53584   6
  -2  -6  -4 187.693 8.66514   8
  -2  -6  -4 183.089 8.53943   1
  -2  -6  -4 174.592 8.50336  11
  -2  -6  -4 201.586 8.61426   1
   2   6   4 174.136 8.68240   8
   2   6   4 183.643 8.47162   6
   2   6   4 191.040 8.59204   1
   2   6   4 189.582 8.48415   1
   2   6   4 188.231 8.60958   7
   2   6   4 191.045 8.66199   3
  -3  -6  -4 109.727 5.92599   7
  -3  -6  -4 114.557 5.58822   6
  -3  -6  -4 110.405 5.55831   1
  -3  -6  -4 115.294 5.62298   1
  -3  -6  -4 107.047 5.82917   3
  -3  -6  -4 100.077 5.55348  11
  -3  -6  -4 108.936 5.92623   8
   3   6   4 119.294 5.96682   3
   3   6   4 111.469 5.52003   1
   3   6   4 113.936 5.57141   1
   3   6   4 107.217 5.40414   6
   3   6   4 117.263 5.90431   8
  -4  -6  -4 2.94968 1.57767   1
  -4  -6  -4 5.48629 2.25687   7
  -4  -6  -4 6.27268 2.28585   8
  -4  -6  -4 4.26915 1.66442   1
  -4  -6  -4 3.59924 2.11688   3
   4   6   4 1.24469 1.60937   1
   4   6   4 3.61557 1.89338  12
   4   6   4 5.89581 2.26117   3
   4   6   4 1.94288 2.01700   8
   4   6   4 5.58949 1.53599   1
  -5  -6  -4 6.11747 2.56861   3
  -5  -6  -4 -4.0811 2.51958   7
  -5  -6  -4 3.39039 2.65677   8
  -6  -6  -4 18.4925 3.57941   3
  -6  -6  -4 20.9997 4.16651   9
  -6  -6  -4 19.1047 3.83532   8
  -6  -6  -4 20.0467 3.86822   7
  -6  -6  -4 21.1531 4.17308   2
   7  -7  -4 12.1083 4.36909   1
  -7   7   4 10.6077 3.55852   1
  -7   7   4 8.03064 2.66581   5
  -7   7   4 18.1683 3.74957   7
   6  -7  -4 16.5745 2.92926   7
  -6   7   4 17.6753 2.91262   7
  -6   7   4 11.4821 2.37089   5
  -6   7   4 14.7953 3.05079   1
   5  -7  -4 6.27420 2.14412   5
   5  -7  -4 9.41358 1.90068   6
   5  -7  -4 6.78246 2.04579   1
  -5   7   4 8.40355 2.07601   5
  -5   7   4 14.3622 2.13587   1
  -5   7   4 8.79901 1.90578   6
  -5   7   4 8.23171 1.93300   4
  -5   7   4 11.1663 2.26710   7
  -5   7   4 8.63901 2.34176   1
   4  -7  -4 2.34001 2.04186   1
   4  -7  -4 -0.4050 1.44559   7
   4  -7  -4 0.42654 1.85095   1
   4  -7  -4 4.60076 1.77925   6
   4  -7  -4 -1.2236 1.61678  11
   4  -7  -4 1.76899 1.71220   5
  -4   7   4 5.55560 1.88119   7
  -4   7   4 3.49892 1.52069   4
  -4   7   4 -0.2560 1.35511   6
  -4   7   4 -1.6805 1.89351   1
  -4   7   4 4.55592 1.68613   5
  -4   7   4 3.03791 1.78315   1
   3  -7  -4 -0.4983 1.62727   6
   3  -7  -4 1.96005 1.68545   1
   3  -7  -4 2.18564 1.60281   5
   3  -7  -4 1.51848 1.63028  11
   3  -7  -4 1.93315 1.45115   1
   3  -7  -4 2.08836 1.54882   7
  -3   7   4 3.70253 1.41030   7
  -3   7   4 -0.2706 1.35932   1
  -3   7   4 2.93047 1.73135   1
  -3   7   4 -0.0432 1.38949   3
  -3   7   4 3.71064 1.47994   6
  -3   7   4 2.89383 1.45075   4
  -3   7   4 1.63045 1.41471   5
  -3   7   4 -0.3596 1.26722  11
   2  -7  -4 1.89349 1.34804   7
   2  -7  -4 3.26748 1.56067  11
   2  -7  -4 1.54533 1.31511   1
   2  -7  -4 3.91233 1.76161   1
   2  -7  -4 5.03793 1.76487   6
   2  -7  -4 1.51253 1.44105   5
  -2   7   4 2.14988 1.41849   5
  -2   7   4 4.63327 1.68418   6
  -2   7   4 2.93811 1.89714   1
  -2   7   4 5.18587 1.51949   3
  -2   7   4 3.74662 1.22979   1
  -2   7   4 3.38768 1.39661  11
  -2   7   4 2.96542 1.49672   4
  -2   7   4 3.04069 1.48847  10
  -2   7   4 3.16105 1.24993   8
   1  -7  -4 32.9966 3.11230   6
   1  -7  -4 34.2649 3.23859   1
   1  -7  -4 28.2402 2.84284   8
   1  -7  -4 35.4367 2.85047   5
   1  -7  -4 28.6665 2.96608  11
   1  -7  -4 28.6684 2.66355   7
  -1   7   4 33.1949 2.79257   8
  -1   7   4 26.5941 2.91873   6
  -1   7   4 31.3941 2.65179   4
  -1   7   4 30.8267 3.20825   1
  -1   7   4 29.6025 2.47317   1
  -1   7   4 29.3510 2.74188  10
  -1   7   4 26.9866 2.84682   3
   0  -7  -4 5.08741 1.81107   1
   0  -7  -4 6.43284 1.62501   8
   0  -7  -4 4.61932 1.39542   5
   0  -7  -4 6.75387 1.61800  11
   0  -7  -4 7.05717 1.33151   1
   0  -7  -4 5.34309 1.71816   6
   0   7   4 5.81936 1.60065   8
   0   7   4 2.41443 1.80367   1
   0   7   4 3.12165 1.73126   6
   0   7   4 3.32615 1.57792   3
   0   7   4 4.81795 1.24233   7
   0   7   4 6.38900 1.23632   4
   0   7   4 4.14597 1.22619   1
   0   7   4 6.89653 1.32148  10
  -1  -7  -4 8.11336 1.64596   1
  -1  -7  -4 9.11142 1.98399   1
  -1  -7  -4 5.63027 1.86319   3
  -1  -7  -4 10.7642 1.92064   6
  -1  -7  -4 7.35498 1.85556  11
  -1  -7  -4 7.74469 1.41152   5
  -1  -7  -4 10.6346 1.91190   8
   1   7   4 9.41959 1.24694  10
   1   7   4 10.8114 1.23120   4
   1   7   4 5.44951 1.71087   6
   1   7   4 9.10911 1.75577   3
   1   7   4 9.55426 1.49472   1
   1   7   4 7.77357 1.73961   8
   1   7   4 6.36694 1.87418   1
  -2  -7  -4 74.5793 4.27120   6
  -2  -7  -4 69.9152 4.42471   3
  -2  -7  -4 83.4379 4.43447   1
  -2  -7  -4 68.9056 4.24788   1
  -2  -7  -4 65.5521 4.06504   7
  -2  -7  -4 70.0608 4.40640   8
  -2  -7  -4 66.5433 4.36351  11
  -2  -7  -4 66.0957 3.94501   5
   2   7   4 74.4855 4.50994   8
   2   7   4 65.7623 4.14134   6
   2   7   4 68.0127 4.34268   1
   2   7   4 72.6326 4.57568   3
   2   7   4 63.8914 4.03301   1
  -3  -7  -4 13.9441 2.12558  11
  -3  -7  -4 20.5238 2.57387   8
  -3  -7  -4 24.4733 3.10451   1
  -3  -7  -4 21.9099 2.94994   6
  -3  -7  -4 25.6445 2.73851   7
  -3  -7  -4 22.8794 3.21380   3
  -3  -7  -4 18.1165 2.81532   1
   3   7   4 18.7063 2.15913   1
   3   7   4 21.3417 2.74604   6
   3   7   4 20.4473 2.42581   8
   3   7   4 25.0129 3.50893   3
   3   7   4 19.5981 2.31946   1
  -4  -7  -4 9.41245 2.26006  11
  -4  -7  -4 10.8057 2.14450   1
  -4  -7  -4 9.90637 2.55152   7
  -4  -7  -4 10.0722 2.57079   8
  -4  -7  -4 9.28720 1.91615   6
  -4  -7  -4 8.67104 2.49126   3
  -4  -7  -4 13.6858 2.11281   1
   4   7   4 14.3113 2.68456   3
   4   7   4 10.2211 2.45667  12
   4   7   4 10.0153 2.06084   1
   4   7   4 15.1956 2.49096   8
  -5  -7  -4 10.3711 3.03999   3
  -5  -7  -4 4.29669 3.18978   8
  -5  -7  -4 10.6563 2.98482   7
  -5  -7  -4 6.00844 2.49434  11
   5   7   4 10.4614 2.73254  12
   5   7   4 11.7441 3.16533   3
   6  -8  -4 5.64897 3.05666   7
   6  -8  -4 10.0977 3.63637   1
   6  -8  -4 2.78372 2.85271   5
  -6   8   4 10.3314 3.31515   7
  -6   8   4 6.76840 2.51579   5
   5  -8  -4 2.54280 2.44226   5
   5  -8  -4 7.43097 2.42299   1
   5  -8  -4 7.80444 3.03650   1
   5  -8  -4 11.5620 2.97801   7
   5  -8  -4 5.61951 2.08274   6
  -5   8   4 8.03075 2.62014   7
  -5   8   4 5.99162 2.27297   5
  -5   8   4 5.87327 1.96082   6
  -5   8   4 9.89256 2.23629  10
  -5   8   4 3.30644 2.52255   1
  -5   8   4 2.56917 2.22310   4
   4  -8  -4 -2.9632 2.00171   1
   4  -8  -4 3.87221 2.70900   1
   4  -8  -4 4.62511 2.07570   6
   4  -8  -4 -2.5625 2.01900  11
   4  -8  -4 -1.7398 2.09160   5
  -4   8   4 3.96783 1.97904   7
  -4   8   4 -0.6280 1.84681  10
  -4   8   4 -4.1877 2.01342   1
  -4   8   4 0.35238 1.77306   6
  -4   8   4 -0.7852 1.82948   5
  -4   8   4 -1.5103 1.79518   4
   3  -8  -4 0.82359 1.89716  11
   3  -8  -4 5.52272 2.08428   6
   3  -8  -4 3.74278 1.99416   5
   3  -8  -4 4.06139 2.23162   1
  -3   8   4 1.72841 1.85303   1
  -3   8   4 3.11564 1.69054  10
  -3   8   4 7.43465 1.85552   1
  -3   8   4 3.44376 1.70367   4
  -3   8   4 4.63870 1.79883   7
  -3   8   4 4.76567 1.85589   3
  -3   8   4 -0.7196 1.50192   6
  -3   8   4 2.74121 1.73608  11
  -3   8   4 2.08820 1.84545   5
   2  -8  -4 31.8652 3.64535   5
   2  -8  -4 34.0145 3.72443  11
   2  -8  -4 39.6244 3.58798   6
   2  -8  -4 51.4918 3.94691   1
  -2   8   4 39.4227 3.48790   4
  -2   8   4 40.2341 3.54299  11
  -2   8   4 34.2177 3.44811   7
  -2   8   4 43.1243 3.47788   3
  -2   8   4 43.0087 3.20307   8
  -2   8   4 42.2294 3.53245  10
  -2   8   4 37.1031 3.16334   1
  -2   8   4 42.5165 3.58189   6
  -2   8   4 47.1994 3.92724   1
   1  -8  -4 21.4490 2.82620   8
   1  -8  -4 21.1181 3.12562  11
   1  -8  -4 23.6096 3.12967   5
   1  -8  -4 27.2404 3.42435   1
   1  -8  -4 24.1910 3.17544   6
  -1   8   4 22.9258 2.74920  10
  -1   8   4 19.6990 2.79184   4
  -1   8   4 29.0239 2.78380   8
  -1   8   4 25.1046 2.54107   1
  -1   8   4 22.3366 2.69252   1
  -1   8   4 23.8784 2.89993   3
  -1   8   4 23.7231 3.12104   6
   0  -8  -4 1.17684 1.62550   8
   0  -8  -4 0.96982 1.67834   6
   0  -8  -4 2.78660 1.78759  11
   0  -8  -4 0.23610 1.52025   5
   0  -8  -4 4.31223 2.01092   1
   0   8   4 1.07782 1.82061   3
   0   8   4 1.04412 1.58556   8
   0   8   4 3.32266 1.72445   6
   0   8   4 1.47598 1.25745  10
   0   8   4 3.51296 1.34535   4
   0   8   4 3.09888 1.81218   1
   0   8   4 0.12460 1.94465   1
  -1  -8  -4 10.5703 1.69313   1
  -1  -8  -4 13.0557 2.15761   6
  -1  -8  -4 10.0035 1.81777   5
  -1  -8  -4 10.0051 1.91190   8
  -1  -8  -4 8.26468 2.16648  11
   1   8   4 17.1276 2.14849   4
   1   8   4 12.5860 1.70899   1
   1   8   4 12.2397 2.01757   8
   1   8   4 13.5338 2.04716   3
   1   8   4 8.65279 2.11175   6
   1   8   4 9.01307 2.18660   1
   1   8   4 10.1435 1.40169  10
  -2  -8  -4 2.27040 1.57155   5
  -2  -8  -4 0.95126 1.96139  11
  -2  -8  -4 -3.7655 1.94268   6
  -2  -8  -4 2.29491 1.75844   1
  -2  -8  -4 1.27483 2.14782   1
  -2  -8  -4 -0.2105 1.73361   8
  -2  -8  -4 -0.2272 1.88081   3
   2   8   4 -0.1378 1.97986   1
   2   8   4 -1.3546 1.78268   6
   2   8   4 -2.9458 1.64631   1
   2   8   4 1.61236 2.10164   3
   2   8   4 0.63119 1.91706   8
  -3  -8  -4 7.23671 1.92936   5
  -3  -8  -4 3.96596 2.09649  11
  -3  -8  -4 7.22748 2.31632   1
  -3  -8  -4 5.66726 2.25981   8
  -3  -8  -4 10.3383 2.33329   6
  -3  -8  -4 9.89616 2.38811   3
  -3  -8  -4 9.52180 2.16010   1
   3   8   4 7.38223 2.06288   6
   3   8   4 8.47036 2.25526   8
   3   8   4 11.7540 2.53343   3
   3   8   4 7.83062 2.23279   1
   3   8   4 6.33414 1.90700   1
  -4  -8  -4 4.39482 2.43672  11
  -4  -8  -4 2.42092 2.29208   1
  -4  -8  -4 3.81287 2.30645   5
  -4  -8  -4 4.09864 2.35081   7
  -4  -8  -4 6.61875 2.27820   6
  -4  -8  -4 4.55444 2.43722   1
  -4  -8  -4 3.42140 2.57356   3
  -4  -8  -4 0.92821 2.56908   8
   4   8   4 6.60819 2.67381  12
   4   8   4 3.74593 2.17857   1
   4   8   4 -0.4783 2.82308   3
   4   8   4 9.20877 2.65644   8
   4   8   4 3.63707 2.29938   1
   4   8   4 4.62419 2.04867   6
  -5  -8  -4 9.03131 2.52785   1
  -5  -8  -4 6.84694 2.85522  11
  -5  -8  -4 9.33012 3.36715   8
  -5  -8  -4 8.81335 2.31777   6
  -5  -8  -4 9.93125 3.18071   7
  -5  -8  -4 4.15692 2.96071   3
  -5  -8  -4 6.34131 2.71101   1
   5   8   4 3.78608 2.02699   6
   5   8   4 9.26943 3.17135  12
   5   8   4 -0.2202 3.29087   3
   5   8   4 7.67781 3.11655   8
   5   8   4 6.82344 2.41833   1
   5   8   4 6.16006 2.53164   1
   5  -9  -4 -2.2740 2.34802   6
   5  -9  -4 -0.8949 2.89476   5
   5  -9  -4 -5.9212 3.28882   1
   5  -9  -4 2.09221 3.25611   7
   5  -9  -4 4.11347 2.72743   1
  -5   9   4 -1.2674 2.70590   1
  -5   9   4 0.50418 2.45482   5
  -5   9   4 1.70345 2.55407  10
  -5   9   4 -0.6694 2.29758   4
  -5   9   4 -1.8560 2.32415   6
  -5   9   4 4.47057 2.94788   7
  -5   9   4 -0.6657 2.89101   1
   4  -9  -4 2.31312 2.56038   5
   4  -9  -4 3.23768 2.57351   1
   4  -9  -4 -0.1975 2.26798   6
   4  -9  -4 2.62907 2.73641   1
   4  -9  -4 2.98474 2.60778   7
  -4   9   4 5.17305 2.49245   1
  -4   9   4 4.04953 2.22905  10
  -4   9   4 1.59615 2.52980   1
  -4   9   4 2.48360 2.53918   7
  -4   9   4 2.63501 2.14969   4
  -4   9   4 5.10660 2.11423   6
  -4   9   4 -0.5220 2.11808   5
   3  -9  -4 14.0935 2.50885   7
   3  -9  -4 2.38750 2.15899  11
   3  -9  -4 10.7717 2.53714   5
   3  -9  -4 5.11243 2.64314   1
   3  -9  -4 7.90514 2.74550   6
   3  -9  -4 5.70960 2.25286   1
  -3   9   4 6.66684 2.43278   6
  -3   9   4 5.08433 2.08264   5
  -3   9   4 5.77087 2.72011   1
  -3   9   4 4.95154 2.16403   1
  -3   9   4 6.88483 2.17095   4
  -3   9   4 8.66973 2.18019  10
  -3   9   4 8.57328 2.10102   3
  -3   9   4 8.35318 2.17784   7
  -3   9   4 6.35061 1.94474  11
   2  -9  -4 17.3048 2.91067   6
   2  -9  -4 14.3370 2.45413   5
   2  -9  -4 8.89220 2.30428  11
   2  -9  -4 15.6097 2.75121   1
   2  -9  -4 18.6500 2.51079   7
   2  -9  -4 18.0803 3.72497   1
  -2   9   4 16.6060 2.38556   4
  -2   9   4 13.2482 2.40119   3
  -2   9   4 12.8534 2.18388  10
  -2   9   4 19.4511 2.69334   7
   1  -9  -4 4.41789 2.06248   5
   1  -9  -4 4.25107 2.08134   6
   1  -9  -4 7.44656 2.58122   1
   1  -9  -4 4.98518 1.87112   8
   1  -9  -4 1.69372 2.19520  11
  -1   9   4 5.63822 1.82186   4
  -1   9   4 5.26485 1.95934   8
  -1   9   4 4.13303 2.19231   1
  -1   9   4 7.15275 2.16580   3
  -1   9   4 1.81243 1.66782  10
  -1   9   4 4.27805 2.13539   6
   0  -9  -4 4.13798 1.94850   5
   0  -9  -4 6.51159 1.96360   8
   0  -9  -4 9.35741 2.20752  11
   0  -9  -4 9.38724 2.36283   6
   0  -9  -4 11.8153 2.57632   1
   0  -9  -4 8.15865 3.07011   7
   0   9   4 8.28456 2.52476   1
   0   9   4 5.54602 1.94776   8
   0   9   4 8.32528 1.84837  10
   0   9   4 8.21892 1.84529   4
   0   9   4 6.82168 2.30293   6
   0   9   4 5.51367 2.13511   3
  -1  -9  -4 2.18176 2.24496   1
  -1  -9  -4 -0.0505 2.08575  11
  -1  -9  -4 4.77325 2.29780   6
  -1  -9  -4 -0.6994 1.78255   5
  -1  -9  -4 -0.3638 2.02030   8
   1   9   4 1.00751 1.94126   6
   1   9   4 2.72381 2.09785   3
   1   9   4 3.09365 2.19494   1
   1   9   4 2.76507 1.47266   4
   1   9   4 1.30801 1.99441   8
   1   9   4 -0.2419 1.49351   1
   1   9   4 1.42898 1.46613  10
  -2  -9  -4 0.42579 1.94155   1
  -2  -9  -4 1.03300 2.61134   1
  -2  -9  -4 -0.1054 2.01923   8
  -2  -9  -4 -0.7882 2.19560   3
  -2  -9  -4 4.08966 2.04770   5
  -2  -9  -4 -1.8007 2.36929   6
  -2  -9  -4 -1.0065 2.26527  11
   2   9   4 -1.4300 1.81596   1
   2   9   4 0.12037 2.12340   8
   2   9   4 -0.7635 1.29794  10
   2   9   4 1.59502 2.39291   1
   2   9   4 1.33059 2.32945   3
   2   9   4 0.14176 1.37670   4
   2   9   4 -0.7109 2.06461   6
  -3  -9  -4 3.37081 2.44059   6
  -3  -9  -4 2.70493 2.41935   3
  -3  -9  -4 1.99855 2.50089  11
  -3  -9  -4 4.43412 2.27638   5
  -3  -9  -4 2.84214 2.31594   1
  -3  -9  -4 3.04103 2.56813   1
  -3  -9  -4 4.08390 2.52513   8
   3   9   4 5.22260 2.82313   3
   3   9   4 -3.1523 2.09189   1
   3   9   4 4.46287 2.48807   1
   3   9   4 0.78348 2.16325   6
   3   9   4 1.77382 2.51529   8
  -4  -9  -4 13.9737 2.88409   6
  -4  -9  -4 10.7933 3.34890   8
  -4  -9  -4 10.9499 2.80683   5
  -4  -9  -4 9.43386 3.04613  11
  -4  -9  -4 11.5836 2.99444   3
  -4  -9  -4 19.7852 3.15618   1
  -4  -9  -4 14.4478 2.83621   1
   4   9   4 14.7972 2.80793   1
   4   9   4 10.9059 2.58305   6
   4   9   4 11.0011 2.75474   1
   4   9   4 5.77031 3.08511   8
   4   9   4 17.6513 3.65845   3
   4 -10  -4 5.62318 2.94840   1
   4 -10  -4 3.80077 3.27550   7
   4 -10  -4 -1.3634 3.32513   1
   4 -10  -4 -1.6623 3.06557   5
   4 -10  -4 1.82933 3.08749   6
  -4  10   4 0.53934 2.86900   1
  -4  10   4 1.10565 2.56274   5
  -4  10   4 -0.5015 3.06342   7
  -4  10   4 2.23256 2.71605   4
  -4  10   4 5.45116 3.20071   1
  -4  10   4 5.39817 2.63689   6
  -4  10   4 2.69679 2.75416  10
   3 -10  -4 4.08763 2.60806   6
   3 -10  -4 2.66003 3.03132   1
   3 -10  -4 -0.8707 2.45525  11
   3 -10  -4 7.17204 2.85548   7
   3 -10  -4 2.46527 2.81845   5
   3 -10  -4 0.94205 2.67117   1
  -3  10   4 1.25981 2.33453   4
  -3  10   4 4.44804 2.30966  10
  -3  10   4 4.90905 2.52322   6
  -3  10   4 4.16813 2.37761   7
  -3  10   4 2.68034 2.60308  11
  -3  10   4 -2.0201 2.34367   1
  -3  10   4 0.93366 2.99475   1
   2 -10  -4 3.47796 2.55026  11
   2 -10  -4 6.73074 2.31956   1
   2 -10  -4 12.5792 2.67254   7
   2 -10  -4 9.04795 3.03336   1
   2 -10  -4 8.38425 2.72337   6
   2 -10  -4 7.24394 2.60963   5
  -2  10   4 4.31978 2.20062  10
  -2  10   4 1.68060 2.66900   1
  -2  10   4 4.65666 2.18494   3
  -2  10   4 6.35915 2.14021   4
  -2  10   4 7.38636 2.21662   7
  -2  10   4 4.86294 2.78421   6
   1 -10  -4 3.74092 2.49095   6
   1 -10  -4 -1.0680 1.87757   8
   1 -10  -4 5.31562 2.71828   1
   1 -10  -4 1.53300 2.25799   7
   1 -10  -4 -3.7069 2.42078  11
   1 -10  -4 3.79557 2.44987   5
  -1  10   4 -2.4312 2.16185   6
  -1  10   4 0.14781 1.79578   7
  -1  10   4 5.03675 2.43232   3
  -1  10   4 1.48637 2.21917   1
  -1  10   4 2.18977 1.98765  10
  -1  10   4 2.64474 1.89868   4
   0 -10  -4 5.57065 2.16097   8
   0 -10  -4 3.66108 2.27176   5
   0 -10  -4 6.30057 2.49466  11
   0 -10  -4 6.02819 2.11161   7
   0 -10  -4 10.1014 2.82519   1
   0 -10  -4 7.81997 2.77840   6
   0  10   4 5.29762 2.77677   1
   0  10   4 7.54939 2.22540   8
   0  10   4 6.74151 2.11655  10
   0  10   4 6.93787 2.06491   4
   0  10   4 6.20732 2.43116   3
   0  10   4 5.92696 2.53548   6
  -1 -10  -4 0.30105 2.60710  11
  -1 -10  -4 1.36599 2.14430   8
  -1 -10  -4 7.20625 2.60737   1
  -1 -10  -4 1.85858 2.63914   6
  -1 -10  -4 -0.2739 2.18718   5
   1  10   4 -0.7577 1.87032   4
   1  10   4 0.26276 2.42068   6
   1  10   4 -1.9236 2.29457   8
   1  10   4 4.42897 2.40986   3
   1  10   4 2.76281 2.67290   1
   1  10   4 2.47613 1.88721  10
  -2 -10  -4 6.56749 2.46347   8
  -2 -10  -4 0.67053 2.71597  11
  -2 -10  -4 0.73724 2.63399   3
  -2 -10  -4 -0.8919 2.30459   5
  -2 -10  -4 -3.9426 2.36555   1
  -2 -10  -4 1.07354 2.83800   6
  -2 -10  -4 3.48138 3.05580   1
   2  10   4 -0.6124 2.06119   1
   2  10   4 -0.7280 2.67238   3
   2  10   4 0.06083 2.60904   6
   2  10   4 1.22414 1.69307  10
   2  10   4 1.31517 1.86515   4
   2  10   4 1.39087 2.89418   1
   2  10   4 0.25363 2.52020   8
  -3 -10  -4 -1.9039 3.16926   1
  -3 -10  -4 7.19881 3.16280   6
  -3 -10  -4 2.18097 2.94830   3
  -3 -10  -4 5.81353 3.11411  11
  -3 -10  -4 6.44662 2.93714   8
  -3 -10  -4 3.76246 2.87733   1
  -3 -10  -4 4.90700 2.70850   5
   3  10   4 0.55599 2.53326   1
   3  10   4 5.50493 3.38910   3
   3  10   4 4.62020 3.04790   8
   3  10   4 2.98814 2.64322   6
   3  10   4 4.84842 2.97260   1
   2 -11  -4 2.02058 3.15764   5
   2 -11  -4 -0.1765 3.44995   1
   2 -11  -4 -2.6638 3.10195   6
   2 -11  -4 -0.0887 3.21301  11
   2 -11  -4 5.27965 2.95352   7
   2 -11  -4 -0.6725 3.07528   1
  -2  11   4 -1.4176 3.12908   6
  -2  11   4 3.36522 2.78199   4
  -2  11   4 -0.1754 2.54671  10
  -2  11   4 -5.0247 3.12550   1
  -2  11   4 0.46034 2.76002   7
   1 -11  -4 5.95522 3.52604   1
   1 -11  -4 2.75570 3.06508   5
   1 -11  -4 3.81633 3.10544  11
   1 -11  -4 8.29381 2.95414   7
   1 -11  -4 -5.3831 2.26938   8
   1 -11  -4 5.90789 3.23038   6
  -1  11   4 1.70852 2.49342   4
  -1  11   4 1.76646 2.66171   7
  -1  11   4 4.56909 2.76728   3
  -1  11   4 -2.5834 2.82382   6
  -1  11   4 1.53019 3.16736   1
  -1  11   4 5.65814 2.46812  10
   0 -11  -4 5.36570 3.10839   1
   0 -11  -4 -1.1367 2.86194   6
   0 -11  -4 -0.7355 2.79630   5
   0 -11  -4 3.92778 3.17966  11
   0 -11  -4 2.03227 2.64264   7
   0 -11  -4 4.28013 2.19894   8
   0  11   4 -0.2486 2.29973  10
   0  11   4 0.06856 4.31654   6
   0  11   4 3.54898 2.33637   4
   0  11   4 -3.5448 2.70054   3
  -1 -11  -4 6.92244 2.50429   8
  -1 -11  -4 3.76661 3.22682   6
  -1 -11  -4 4.58774 3.39933  11
  -1 -11  -4 4.39529 3.36055   1
  -1 -11  -4 2.43843 2.72004   5
   1  11   4 5.80532 3.04812   6
   1  11   4 1.74862 2.33934  10
   1  11   4 1.80313 2.82593   8
   1  11   4 7.11645 3.39236   1
   1  11   4 3.91239 3.02058   3
   1  11   4 5.63098 2.33912   4
  -2 -11  -4 6.41243 2.74117   8
  -2 -11  -4 10.3635 3.63249   6
  -2 -11  -4 -10.542 4.91859   1
  -2 -11  -4 0.30361 3.46523  11
  -2 -11  -4 5.03194 2.91787   5
  -2 -11  -4 5.54547 3.73836   1
   2  11   4 5.87305 3.51916   1
   2  11   4 7.68908 3.44100   3
   2  11   4 4.37466 2.23241  10
   2  11   4 6.06034 2.38885   4
   2  11   4 1.95439 3.08602   6
   2  11   4 8.10841 2.59973   1
   6  10  -5 11.7466 2.92627   1
   6  10  -5 5.23426 2.84415   6
   6  10  -5 5.15294 2.87157   1
   6  10  -5 -0.2346 3.00096   3
  -6 -10   5 2.73947 2.93863   6
  -6 -10   5 4.24835 3.06972   1
  -6 -10   5 4.49279 2.74737   9
  -6 -10   5 3.06626 2.99805   3
  -6 -10   5 0.36435 3.02330   2
  -6 -10   5 3.41209 3.05959   1
  -6 -10   5 4.58892 3.06460   8
   5  10  -5 6.62117 2.80934   3
   5  10  -5 6.11891 2.53613   1
   5  10  -5 1.68226 2.61983   6
   5  10  -5 4.07038 2.77340  12
   5  10  -5 5.99996 3.21341   1
  -5 -10   5 0.38060 3.22131   1
  -5 -10   5 7.72770 3.12041   2
  -5 -10   5 7.85814 2.50406   6
  -5 -10   5 -0.8640 2.65363   1
  -5 -10   5 9.41838 2.95893   3
   4  10  -5 -0.5298 2.30813   1
   4  10  -5 -1.5264 2.77319   3
   4  10  -5 1.34710 2.83783  12
   4  10  -5 -0.1180 3.20935   1
   4  10  -5 0.17339 2.10975   6
  -4 -10   5 -0.8411 2.86509   3
  -4 -10   5 -0.1811 2.65664   8
  -4 -10   5 -1.4354 3.14556   2
  -4 -10   5 -2.2206 3.21698   1
   3  10  -5 0.92135 3.22626   1
   3  10  -5 -3.5644 2.31126   8
   3  10  -5 -1.6026 2.68474   3
  -3 -10   5 3.48818 2.64065   8
  -3 -10   5 0.13262 2.42178   7
  -3 -10   5 2.12857 3.36461  11
  -3 -10   5 3.72993 3.44075   2
  -3 -10   5 -3.8254 2.38178   7
  -3 -10   5 1.42694 2.95789   5
  -3 -10   5 -0.5936 3.83018   1
   2  10  -5 0.66511 3.50845   1
   2  10  -5 0.56390 2.74037   3
   2  10  -5 0.02834 2.51035   8
  -2 -10   5 2.10101 2.62777   8
  -2 -10   5 -0.6391 3.51489   2
  -2 -10   5 2.79847 3.45388  11
  -2 -10   5 2.73457 3.12020   5
   1  10  -5 -2.2851 3.60397   1
   1  10  -5 -5.9110 2.47011   8
   1  10  -5 0.44552 3.08534   3
  -1 -10   5 -1.7744 3.75232   1
  -1 -10   5 2.99848 3.56384   5
  -1 -10   5 -0.5588 3.66568  11
   7   9  -5 -0.7624 2.40118   6
   7   9  -5 -1.2100 2.53688   1
   7   9  -5 -1.7094 2.87057   1
  -7  -9   5 0.83741 2.88863   1
  -7  -9   5 -1.0104 2.85604   6
  -7  -9   5 -1.4830 2.73376   3
  -7  -9   5 -5.5298 2.52689  10
  -7  -9   5 -3.0573 2.44920   1
  -7  -9   5 3.30640 2.70323   9
  -7  -9   5 2.40066 2.54860   8
   6   9  -5 16.7033 2.82588   1
   6   9  -5 19.5841 2.98018   1
   6   9  -5 16.2918 2.69037   3
   6   9  -5 16.0370 2.80143   6
   6   9  -5 15.4171 2.89222  12
  -6  -9   5 18.1099 2.93861   6
  -6  -9   5 10.8214 3.05563   1
  -6  -9   5 14.4226 2.71563   2
  -6  -9   5 15.9931 2.70474   9
  -6  -9   5 13.1590 2.92758   1
  -6  -9   5 21.7522 3.24473   3
   5   9  -5 11.2299 2.42779   1
   5   9  -5 8.99598 2.85200   1
   5   9  -5 2.68915 1.98050   6
   5   9  -5 8.25117 2.55924  12
   5   9  -5 8.99429 2.44209   3
  -5  -9   5 8.18854 2.22116   9
  -5  -9   5 3.65162 2.03106   6
  -5  -9   5 7.32221 2.63501   1
  -5  -9   5 5.56275 2.63422   2
  -5  -9   5 5.54274 2.34656   8
  -5  -9   5 3.49007 3.10132   3
  -5  -9   5 6.29534 2.51261   1
   4   9  -5 1.57096 2.32263   3
   4   9  -5 0.86171 2.47980   1
   4   9  -5 3.66866 2.32689  12
  -4  -9   5 1.33826 2.51946   2
  -4  -9   5 4.34799 2.32828   3
  -4  -9   5 -0.7459 2.10386   8
   3   9  -5 1.58953 2.30470   3
   3   9  -5 1.08833 2.70109   1
  -3  -9   5 -2.9969 2.64672   2
  -3  -9   5 -0.0854 2.10989   7
  -3  -9   5 0.54503 2.09958   8
  -3  -9   5 -2.0316 2.24792   3
  -3  -9   5 1.13745 2.45154   1
   2   9  -5 3.70410 1.99379   8
   2   9  -5 2.50759 2.80008   1
   2   9  -5 4.17395 2.57312   3
  -2  -9   5 0.12258 2.99677   1
  -2  -9   5 2.64286 2.96567   2
  -2  -9   5 3.38283 2.38689   3
  -2  -9   5 2.73514 2.77968   5
  -2  -9   5 5.53141 2.17733   8
  -2  -9   5 3.32893 2.51221   4
   1   9  -5 9.46478 2.64977   3
   1   9  -5 7.39188 2.06866   8
   1   9  -5 3.97217 3.25284   1
   1   9  -5 5.32996 2.38896   4
  -1  -9   5 8.55133 3.14123  10
  -1  -9   5 4.53420 2.92878   5
  -1  -9   5 4.80415 2.69251   4
  -1  -9   5 8.30448 3.19200   1
  -1  -9   5 9.56298 3.10664   2
   0   9  -5 -1.0086 2.63958   4
   0   9  -5 1.82472 2.87200   3
   0   9  -5 0.81307 2.13561   1
   0   9  -5 -2.6628 2.55102  10
   0   9  -5 1.76640 2.20023   8
   0   9  -5 0.26543 3.34534   1
   0  -9   5 2.36961 2.57784   6
   0  -9   5 2.37583 2.70750   1
   0  -9   5 0.73159 2.99737   4
   0  -9   5 4.15880 3.19882   5
   0  -9   5 1.46550 3.30981  10
   0  -9   5 7.41705 3.48102   1
   8   8  -5 -1.3410 2.70832   6
   8   8  -5 0.82993 2.86040   1
  -8  -8   5 -2.5036 2.50194   9
  -8  -8   5 -0.7045 2.73574   4
  -8  -8   5 1.49984 2.60002   8
  -8  -8   5 2.02062 2.76604  10
  -8  -8   5 4.17663 3.21309   1
  -8  -8   5 -1.3254 2.65405   3
  -8  -8   5 -1.7556 2.86481   6
   7   8  -5 13.8699 2.85330   1
   7   8  -5 13.2508 2.66376   6
   7   8  -5 9.79907 2.34125   1
  -7  -8   5 10.3859 2.69486   1
  -7  -8   5 18.6286 2.87734   6
  -7  -8   5 15.1740 3.15620   1
  -7  -8   5 12.2268 2.59375   8
  -7  -8   5 14.4119 2.69883   9
   6   8  -5 15.1370 2.63120   1
   6   8  -5 16.7631 2.51824  12
   6   8  -5 14.8950 2.63876   1
   6   8  -5 25.0394 3.63687   3
   6   8  -5 13.9700 2.48709   6
  -6  -8   5 17.0462 2.89293   1
  -6  -8   5 16.0290 2.56719   1
  -6  -8   5 17.6835 2.49747   6
  -6  -8   5 16.5264 2.57530   9
   5   8  -5 21.6576 3.16269   1
   5   8  -5 19.5227 2.73366  12
   5   8  -5 17.7104 2.73255   3
   5   8  -5 27.2412 4.01577   1
   5   8  -5 21.0353 2.56757   6
  -5  -8   5 21.6289 3.17883   6
  -5  -8   5 19.5950 2.49420   8
  -5  -8   5 22.9636 2.65055   2
  -5  -8   5 21.0139 3.34154   9
  -5  -8   5 24.1815 3.37745   1
   4   8  -5 2.58889 2.35926   1
   4   8  -5 -1.8805 1.39502   6
   4   8  -5 -1.1709 1.81804   3
   4   8  -5 2.25731 2.02290  12
  -4  -8   5 2.73843 1.87759   7
  -4  -8   5 0.51045 2.22309   2
  -4  -8   5 -0.2142 1.83261   1
  -4  -8   5 0.14710 2.10826   1
  -4  -8   5 -1.2632 1.93839   3
  -4  -8   5 -1.0794 1.81103   8
   3   8  -5 -1.4465 2.32015   1
   3   8  -5 0.23243 1.82518   3
  -3  -8   5 -3.0268 1.85283   3
  -3  -8   5 -1.6816 2.32787   2
  -3  -8   5 3.39999 2.32731   1
  -3  -8   5 0.58624 1.81860   8
  -3  -8   5 0.47513 1.70959   7
   2   8  -5 7.01490 2.70230   1
   2   8  -5 8.17131 1.76193   8
   2   8  -5 7.13950 2.17402   3
  -2  -8   5 8.41618 2.51459  11
  -2  -8   5 7.23609 1.89180   4
  -2  -8   5 8.82084 2.25421   3
  -2  -8   5 8.29232 1.70069   7
  -2  -8   5 6.29907 1.77967   8
  -2  -8   5 9.87067 2.66457   2
  -2  -8   5 8.33673 2.68150   1
   1   8  -5 15.4833 1.90628   8
   1   8  -5 8.65332 2.34236   4
   1   8  -5 10.0624 2.90577   1
   1   8  -5 7.94831 2.23989   3
  -1  -8   5 17.9496 3.15695   1
  -1  -8   5 7.79285 2.71101  11
  -1  -8   5 14.4236 2.44081  10
  -1  -8   5 9.32231 2.76681   2
  -1  -8   5 9.52642 2.33674   4
  -1  -8   5 11.2220 2.13615   1
   0   8  -5 5.54222 1.76957   8
   0   8  -5 1.96879 1.81223   1
   0   8  -5 3.41266 2.29041   3
   0   8  -5 6.14625 2.38477   4
   0   8  -5 4.65947 2.20407  10
   0   8  -5 6.99021 1.83343   6
   0   8  -5 1.52805 3.05603   1
   0  -8   5 3.81379 2.91654  11
   0  -8   5 5.60137 2.24311   6
   0  -8   5 2.44508 2.58740  10
   0  -8   5 6.91536 3.48472   5
   0  -8   5 5.02208 2.42062   1
   0  -8   5 4.38290 2.52296   4
   0  -8   5 2.83652 2.97763   1
   0  -8   5 9.02777 3.78876   2
  -1   8  -5 1.46003 2.85681   3
  -1   8  -5 -2.3274 2.28889   6
  -1   8  -5 1.25812 2.29546   1
  -1   8  -5 0.67193 3.53616   1
  -1   8  -5 7.61895 2.96125   4
  -1   8  -5 9.29918 2.91919  10
   1  -8   5 0.05737 3.23010   4
   1  -8   5 2.76314 3.24080   1
   1  -8   5 6.12971 2.73037   1
   1  -8   5 5.69098 2.56250   6
   1  -8   5 6.54364 3.11862  11
   1  -8   5 -3.7714 2.78135   5
   1  -8   5 -0.4235 3.06609  10
   9   7  -5 5.28677 3.22595   6
   9   7  -5 2.82915 3.51353   1
  -9  -7   5 2.12215 3.30079   1
  -9  -7   5 4.66881 2.66899   3
  -9  -7   5 4.57507 3.32444   6
  -9  -7   5 6.34373 2.76998   9
  -9  -7   5 8.28210 2.66674   8
   8   7  -5 4.90543 2.93394   1
   8   7  -5 11.1992 2.76886   6
  -8  -7   5 7.36599 2.58195   6
  -8  -7   5 10.4326 2.87991   3
  -8  -7   5 7.11947 2.41856   9
  -8  -7   5 5.08548 2.67139   1
  -8  -7   5 5.52008 2.67247   8
  -8  -7   5 7.18684 2.40765  10
   7   7  -5 25.9979 3.05079   6
   7   7  -5 31.2026 3.54036   1
  -7  -7   5 26.0050 3.94105   3
  -7  -7   5 31.4358 4.25162   1
  -7  -7   5 24.5151 2.97455   9
  -7  -7   5 33.0988 3.53980   1
  -7  -7   5 24.1028 3.01926   6
   6   7  -5 90.8219 5.43921  12
  -6  -7   5 92.3625 5.41215   8
  -6  -7   5 99.2251 5.76301   1
  -6  -7   5 84.4238 5.58443   6
  -6  -7   5 95.1223 5.61623   9
   5   7  -5 18.5832 2.56653  12
   5   7  -5 23.1064 3.49941   1
   5   7  -5 27.8798 3.22811   3
  -5  -7   5 12.7585 2.46700   1
  -5  -7   5 20.1911 2.48808   1
  -5  -7   5 17.1509 2.22744   9
  -5  -7   5 20.9506 3.00331   8
  -5  -7   5 24.4308 2.87676   7
  -5  -7   5 27.8818 2.85062   6
  -5  -7   5 22.6950 2.83473   3
   4   7  -5 7.62808 2.04670   1
   4   7  -5 4.64929 1.73221   3
   4   7  -5 2.40733 1.81030  12
  -4  -7   5 5.27212 1.74442   7
  -4  -7   5 4.08784 1.79549   3
  -4  -7   5 5.61379 1.90717   2
  -4  -7   5 4.52908 1.77992   8
  -4  -7   5 5.63544 2.22173   1
  -4  -7   5 2.66516 1.45842   6
  -4  -7   5 5.56791 1.54347   1
  -4  -7   5 5.32908 1.65414   9
   3   7  -5 5.91708 1.89218  12
   3   7  -5 2.76326 2.24175   1
   3   7  -5 3.76857 1.68598   3
  -3  -7   5 3.53294 1.94534   2
  -3  -7   5 7.72545 2.16915   6
  -3  -7   5 2.69747 1.52276   1
  -3  -7   5 2.53850 1.50121   8
  -3  -7   5 3.26997 1.48011   7
  -3  -7   5 6.26679 1.81073   3
  -3  -7   5 2.79220 2.15990   1
   2   7  -5 1.43928 2.21908   1
   2   7  -5 1.94549 1.73405   4
   2   7  -5 2.87859 1.77665   3
  -2  -7   5 4.00218 1.41482   8
  -2  -7   5 2.83883 2.04645   2
  -2  -7   5 2.24032 1.48786   7
  -2  -7   5 2.33248 1.55992   1
  -2  -7   5 1.50168 1.94076   5
  -2  -7   5 5.51928 2.09532   1
  -2  -7   5 3.80872 1.84188   3
   1   7  -5 13.7074 2.18566   4
   1   7  -5 12.4794 2.00379   3
   1   7  -5 13.8496 1.58599   8
   1   7  -5 13.2471 2.65922   1
   1   7  -5 11.5086 2.08916  10
  -1  -7   5 10.1046 1.72625   6
  -1  -7   5 9.69805 2.38689  11
  -1  -7   5 23.3192 3.47507   2
  -1  -7   5 12.4064 2.50856   1
  -1  -7   5 14.3432 2.02933   1
  -1  -7   5 11.0916 2.37168   5
   0   7  -5 3.11261 1.52723   6
   0   7  -5 1.18659 1.86354   3
   0   7  -5 3.98206 1.49959   1
   0   7  -5 0.72408 2.03520  10
   0   7  -5 3.56758 2.79447   1
   0   7  -5 3.44832 2.18606   4
   0  -7   5 3.82599 1.88132   6
   0  -7   5 3.09403 2.27517   5
   0  -7   5 2.60471 2.46488   1
   0  -7   5 4.21574 1.93227   1
   0  -7   5 0.74775 3.14861   4
   0  -7   5 2.72515 2.23798  10
   0  -7   5 3.59538 2.35651  11
  -1   7  -5 5.72977 2.41860  10
  -1   7  -5 3.49325 2.33506   4
  -1   7  -5 2.97907 1.80313   6
  -1   7  -5 -0.2461 2.06910   1
  -1   7  -5 4.37523 2.26960   3
  -1   7  -5 4.30777 3.09385   1
   1  -7   5 2.63352 2.27665   6
   1  -7   5 -1.5700 2.27922   5
   1  -7   5 8.52050 2.37250   1
   1  -7   5 6.54118 2.72050   1
   1  -7   5 1.54076 2.66142  10
   1  -7   5 5.15295 2.54275  11
   1  -7   5 3.24211 2.52136   4
  -2   7  -5 -1.7012 2.13323   6
  -2   7  -5 0.39749 2.91291  10
  -2   7  -5 2.69225 2.39580   1
  -2   7  -5 1.87602 2.79495   4
  -2   7  -5 2.57408 2.60190   3
  -2   7  -5 6.20241 3.42328   1
   2  -7   5 -2.5118 4.81953   5
   2  -7   5 -3.0546 2.74739  11
   2  -7   5 3.65188 3.56127  10
   2  -7   5 2.99095 2.69338   1
   2  -7   5 0.48163 2.83997   4
   2  -7   5 1.08500 2.47567   6
  -9  -6   5 15.3789 2.73100   8
  -9  -6   5 10.5729 2.68942   9
  -9  -6   5 12.0387 2.75339   4
  -9  -6   5 14.6074 3.11483   6
  -9  -6   5 15.2854 2.95005   3
  -9  -6   5 14.7207 3.51602   1
  -9  -6   5 9.22112 2.80861  10
  -8  -6   5 10.5927 2.64516   3
  -8  -6   5 10.7651 2.55637   6
  -8  -6   5 5.61863 2.48793  10
  -8  -6   5 6.68509 2.57818   1
  -8  -6   5 8.35097 2.42999   8
  -8  -6   5 9.36829 2.49177   9
   7   6  -5 32.4916 2.91255   6
   7   6  -5 25.3931 3.17967   1
  -7  -6   5 28.9986 3.86305   1
  -7  -6   5 22.2628 3.16040   1
  -7  -6   5 27.1316 3.68848   6
  -7  -6   5 21.3070 3.40601   9
  -7  -6   5 31.8965 3.02778   7
   6   6  -5 27.3095 3.00992   6
   6   6  -5 28.3442 3.12853  12
   6   6  -5 29.9736 3.47589   1
  -6  -6   5 36.3532 2.99623   7
  -6  -6   5 29.2639 3.54498   3
  -6  -6   5 32.3950 3.31203   8
  -6  -6   5 27.3740 3.31947   6
  -6  -6   5 33.9846 3.49410   1
  -6  -6   5 27.1561 3.33054   9
   5   6  -5 -0.2329 1.59429  12
   5   6  -5 0.46224 1.36473   6
   5   6  -5 -1.9308 1.37622   1
   5   6  -5 -0.0274 1.71121   1
  -5  -6   5 2.15406 1.51640   1
  -5  -6   5 -2.0233 1.47073   7
  -5  -6   5 0.43115 1.61683   1
  -5  -6   5 1.06912 1.66506   3
  -5  -6   5 1.97225 1.50700   8
  -5  -6   5 -2.4156 1.24155   6
  -5  -6   5 0.06206 1.45372   9
   4   6  -5 41.5962 3.39776  12
   4   6  -5 43.9090 3.26433   3
   4   6  -5 40.3342 3.79645   6
   4   6  -5 34.8636 3.75154   1
  -4  -6   5 39.9175 3.16269   1
  -4  -6   5 44.8610 3.01831   6
  -4  -6   5 39.3589 3.05103   9
  -4  -6   5 40.8283 3.12741   7
  -4  -6   5 38.2398 2.95422   8
  -4  -6   5 38.1151 3.43628   3
  -4  -6   5 40.7390 3.80273   1
   3   6  -5 22.9402 2.53803   4
   3   6  -5 19.0059 2.69479  12
   3   6  -5 24.2596 2.61233   3
   3   6  -5 22.3193 3.37288   1
  -3  -6   5 17.8588 2.27472   2
  -3  -6   5 20.3944 2.28499   8
  -3  -6   5 24.5284 2.45589   1
  -3  -6   5 21.4751 2.25885   6
  -3  -6   5 21.2638 2.52461   7
  -3  -6   5 20.9355 2.55579   1
  -3  -6   5 19.5073 2.72265   3
  -3  -6   5 23.6960 2.47797   9
  -3  -6   5 17.4243 2.59481   4
   2   6  -5 11.2665 2.00497  10
   2   6  -5 10.8397 2.25238   1
   2   6  -5 14.2663 1.76693   3
   2   6  -5 11.4151 1.86909   4
  -2  -6   5 16.1107 2.21156   7
  -2  -6   5 10.6734 1.77794  10
  -2  -6   5 13.0656 2.03541   4
  -2  -6   5 12.4704 2.31235   1
  -2  -6   5 11.6251 1.78445   3
  -2  -6   5 15.0075 1.87433   8
  -2  -6   5 15.6393 2.15219   2
   1   6  -5 3.27719 2.12486   2
   1   6  -5 4.90275 2.19755   1
   1   6  -5 7.00156 1.60721   3
   1   6  -5 4.55364 1.27716   6
   1   6  -5 10.4490 2.11767   4
   1   6  -5 9.39688 1.79349  10
   1   6  -5 6.07444 1.36548   1
  -1  -6   5 5.95009 1.80285  11
  -1  -6   5 6.52138 1.75580   4
  -1  -6   5 5.95488 1.92965   5
  -1  -6   5 6.37323 2.24400   1
  -1  -6   5 7.77826 1.96235   2
  -1  -6   5 5.44913 1.53817   6
  -1  -6   5 7.35373 1.57759   3
  -1  -6   5 5.70836 1.59331   1
  -1  -6   5 2.46099 1.66068  10
   0   6  -5 4.69382 1.58478   1
   0   6  -5 5.69989 1.69151   3
   0   6  -5 6.76094 2.14374   4
   0   6  -5 4.97393 2.37804   1
   0   6  -5 4.73926 1.45899   6
   0   6  -5 3.25184 1.66526  10
   0  -6   5 7.23137 1.68941   6
   0  -6   5 5.36500 1.93963   4
   0  -6   5 2.05777 1.78029  10
   0  -6   5 3.92200 1.76028   1
   0  -6   5 3.44935 1.90204   5
   0  -6   5 4.67956 1.95800  11
   0  -6   5 6.98897 2.17729   1
  -1   6  -5 8.80210 2.56110   1
  -1   6  -5 9.38488 2.37991   4
  -1   6  -5 3.18016 2.11330  10
  -1   6  -5 3.17406 1.52945   6
  -1   6  -5 5.30242 1.76664   1
  -1   6  -5 3.68119 1.89312   3
   1  -6   5 6.10214 2.07644   1
   1  -6   5 3.87477 2.08148   5
   1  -6   5 5.01405 2.26192   1
   1  -6   5 6.19033 1.91454   6
   1  -6   5 7.14565 2.08687  11
  -2   6  -5 1.74184 1.89384   6
  -2   6  -5 -0.2347 2.14568   3
  -2   6  -5 -0.0271 1.96569   1
  -2   6  -5 -1.8907 2.60229  10
  -2   6  -5 -2.2137 2.50790   4
   2  -6   5 -4.0504 2.36007  11
   2  -6   5 -4.1727 2.23486   1
   2  -6   5 -0.4671 2.19424   6
   2  -6   5 -0.0999 2.43671   1
   2  -6   5 1.34405 2.81676   4
   2  -6   5 0.44288 2.85704  10
   2  -6   5 0.89335 2.68236   5
  -3   6  -5 2.60282 3.10358   4
  -3   6  -5 1.74318 2.80805   3
  -3   6  -5 0.49600 3.21064  10
  -3   6  -5 -1.3104 2.35998   6
  -3   6  -5 4.69207 2.48010   1
   3  -6   5 -1.7133 2.63789   1
   3  -6   5 3.23091 3.45040   4
   3  -6   5 -2.4596 2.48136   6
  -9  -5   5 56.2925 5.10260   9
  -9  -5   5 56.6929 4.79404   3
  -9  -5   5 52.0423 5.27478  10
  -9  -5   5 63.3318 4.96232   8
  -9  -5   5 53.1333 4.73357   4
  -9  -5   5 63.1802 5.74398   1
  -9  -5   5 65.7111 5.61550   6
  -8  -5   5 24.2170 3.64909   9
  -8  -5   5 28.2556 3.63812   3
  -8  -5   5 31.4004 3.98033   6
  -8  -5   5 33.8547 3.64549   8
  -8  -5   5 27.7121 4.12504   1
   7   5  -5 13.8806 2.49791   1
   7   5  -5 15.9067 2.46827   6
   7   5  -5 21.9448 2.92822   1
  -7  -5   5 17.8059 2.41313   6
  -7  -5   5 16.0061 2.26047   8
  -7  -5   5 14.6509 2.12280   9
  -7  -5   5 16.8195 2.19832   7
  -7  -5   5 14.8630 2.31313   1
   6   5  -5 0.55998 1.46834   1
   6   5  -5 0.42858 1.28180   6
   6   5  -5 -0.6699 1.44123   6
   6   5  -5 0.06253 1.52867   1
   6   5  -5 1.02215 1.39228  12
  -6  -5   5 -0.7914 1.59319   1
  -6  -5   5 -1.4961 1.48468   9
  -6  -5   5 0.20733 1.50257   8
  -6  -5   5 -0.8431 1.57924   6
  -6  -5   5 0.59988 1.61183   1
  -6  -5   5 1.21431 1.59603   3
  -6  -5   5 -1.2793 1.33266   7
   5   5  -5 2.33857 1.23235   6
   5   5  -5 0.74047 1.58165   1
   5   5  -5 -0.8319 1.32723   6
   5   5  -5 2.54751 1.50954  12
   5   5  -5 2.35024 1.38188   1
  -5  -5   5 2.85695 1.43407   6
  -5  -5   5 3.09805 1.64897   3
  -5  -5   5 3.37240 1.49047   1
  -5  -5   5 3.41205 1.41982   9
  -5  -5   5 4.04241 1.38313   8
  -5  -5   5 4.65607 1.49083   7
  -5  -5   5 2.82012 1.54033   1
   4   5  -5 9.88183 1.87356  12
   4   5  -5 5.42116 1.40746   1
   4   5  -5 4.80521 1.32837   6
   4   5  -5 9.57774 1.93586   1
  -4  -5   5 5.94195 1.45482  10
  -4  -5   5 7.37525 1.36578   9
  -4  -5   5 9.00250 1.27167   4
  -4  -5   5 8.38574 1.46028   6
  -4  -5   5 5.97479 1.43377   1
  -4  -5   5 7.03900 1.41403   8
  -4  -5   5 5.59885 1.69476   1
  -4  -5   5 10.2940 1.63904   3
  -4  -5   5 8.58582 1.54454   7
   3   5  -5 72.1860 4.54857   2
   3   5  -5 76.5091 4.62721   1
   3   5  -5 80.7161 4.43262  12
   3   5  -5 85.0728 4.28486   3
   3   5  -5 79.0230 4.90938   1
   3   5  -5 72.9709 4.24324   6
   3   5  -5 81.6343 4.44963   4
  -3  -5   5 73.3129 4.34182   4
  -3  -5   5 77.3242 4.31059   6
  -3  -5   5 73.9783 4.51626  10
  -3  -5   5 80.3225 4.76446   1
  -3  -5   5 80.0271 4.31262   3
  -3  -5   5 75.5334 4.20875   7
  -3  -5   5 74.8004 3.94426   8
  -3  -5   5 68.7580 4.36873   1
  -3  -5   5 79.1030 4.03282   9
   2   5  -5 15.6224 2.34075  12
   2   5  -5 11.6572 1.43372   6
   2   5  -5 15.6347 2.13314   3
   2   5  -5 23.7622 3.11572   1
   2   5  -5 12.4608 1.85635   1
   2   5  -5 16.9513 2.51769   4
   2   5  -5 13.8094 2.22167   2
   2   5  -5 15.6142 2.01343  10
  -2  -5   5 17.5590 2.56415   2
  -2  -5   5 13.8433 1.79471   1
  -2  -5   5 13.9056 2.08407   1
  -2  -5   5 14.1405 1.79086   4
  -2  -5   5 15.0392 1.92349  10
  -2  -5   5 12.1601 1.61627   8
  -2  -5   5 11.7814 1.56243   7
  -2  -5   5 17.6780 1.98998   6
  -2  -5   5 16.3758 2.17983   3
   1   5  -5 2.94263 1.04611   6
   1   5  -5 2.05043 1.51169   4
   1   5  -5 1.85108 1.12681   1
   1   5  -5 3.36539 1.25114   3
   1   5  -5 3.77650 1.45074  10
   1   5  -5 4.83685 1.85230   2
   1   5  -5 7.71475 2.04639   1
  -1  -5   5 2.38828 1.27800   1
  -1  -5   5 5.84839 1.83420   1
  -1  -5   5 4.28622 1.19655   3
  -1  -5   5 3.04121 1.21755   6
  -1  -5   5 3.05059 1.45373  11
  -1  -5   5 2.75795 1.50557  10
  -1  -5   5 3.15910 1.60708   5
  -1  -5   5 5.89576 1.85127   2
  -1  -5   5 4.23112 1.46585   4
   0   5  -5 16.3027 2.15733   3
   0   5  -5 16.9047 2.22853   4
   0   5  -5 14.0711 1.74689   6
   0   5  -5 14.6598 2.08412  10
   0   5  -5 13.6909 1.84172   1
   0  -5   5 15.7885 2.24255   1
   0  -5   5 13.6131 1.93470   5
   0  -5   5 17.3048 2.62200   1
   0  -5   5 13.4058 2.04872  10
   0  -5   5 15.0411 1.91111   6
   0  -5   5 12.4046 1.90748   4
   0  -5   5 14.1846 1.85975  11
  -1   5  -5 4.73893 2.23083   1
  -1   5  -5 2.76886 1.88901  10
  -1   5  -5 5.38993 2.00979   4
  -1   5  -5 5.67817 1.62434   1
  -1   5  -5 3.82500 1.94131   2
  -1   5  -5 4.47524 1.54873   6
  -1   5  -5 3.05557 1.40863   3
   1  -5   5 2.18155 1.89125   1
   1  -5   5 5.14277 1.92879   4
   1  -5   5 2.08565 1.80335   5
   1  -5   5 3.27773 1.70502   6
   1  -5   5 4.97050 1.84292   1
   1  -5   5 3.80027 1.98141  10
  -2   5  -5 6.35185 2.33438   1
  -2   5  -5 4.35031 2.37251   4
  -2   5  -5 4.42229 2.26671   2
  -2   5  -5 4.47451 2.33722  10
  -2   5  -5 5.27718 1.78892   1
  -2   5  -5 4.76633 1.72948   6
   2  -5   5 4.53713 1.88733   6
   2  -5   5 3.56019 1.98726   1
   2  -5   5 6.22392 2.40739   5
   2  -5   5 0.94566 2.37069  10
   2  -5   5 7.95930 2.11201   1
   2  -5   5 1.07444 2.12985   4
  -3   5  -5 1.58019 2.31127   1
  -3   5  -5 4.56964 2.64120  10
  -3   5  -5 3.11803 2.79626   4
  -3   5  -5 -0.4234 1.88089   6
  -3   5  -5 5.73325 2.03952   1
   3  -5   5 6.56642 2.16827   6
   3  -5   5 5.83400 2.85447   5
   3  -5   5 2.10090 2.29763   1
  -9  -4   5 41.8785 5.24140   1
  -9  -4   5 35.1222 4.33272   3
  -9  -4   5 29.7730 4.38045   9
  -9  -4   5 37.8815 4.18461   8
   8   4  -5 28.5263 3.70935   6
   8   4  -5 30.4373 4.00844   1
  -8  -4   5 25.9040 3.28340   1
  -8  -4   5 23.6839 2.90671   8
  -8  -4   5 24.1657 2.87137   9
  -8  -4   5 31.2268 3.96792   6
  -8  -4   5 27.8821 3.70946   3
   7   4  -5 31.0174 3.44626   1
   7   4  -5 27.2315 2.93045   1
   7   4  -5 24.6960 3.13868   6
   7   4  -5 24.6846 2.57384   6
  -7  -4   5 24.6593 3.08910   9
  -7  -4   5 26.9510 3.23819   6
  -7  -4   5 26.9789 2.98002   8
  -7  -4   5 27.5805 3.05332   1
   6   4  -5 63.0591 3.87415   6
   6   4  -5 55.5041 3.98705   6
   6   4  -5 63.4658 4.15074   1
   6   4  -5 66.0638 4.20435   1
  -6  -4   5 59.2588 4.12832   3
  -6  -4   5 61.1246 3.94296   9
  -6  -4   5 57.0200 3.69553   7
  -6  -4   5 61.7960 4.10108   1
  -6  -4   5 63.3403 4.03442   6
  -6  -4   5 61.0898 3.94304  11
  -6  -4   5 60.6496 4.04807   1
  -6  -4   5 60.3056 3.87622   8
   5   4  -5 89.1440 4.95051   1
   5   4  -5 79.1495 4.75221   1
   5   4  -5 83.5016 4.76195   6
   5   4  -5 80.3809 4.63123   6
   5   4  -5 83.0624 4.41567   2
  -5  -4   5 87.0063 4.65933   6
  -5  -4   5 84.2776 4.49929   8
  -5  -4   5 79.6878 4.73488  10
  -5  -4   5 79.4577 4.60723   4
  -5  -4   5 82.8165 4.72607   1
  -5  -4   5 88.2108 4.59238   9
  -5  -4   5 88.8759 4.56317   7
  -5  -4   5 88.4316 4.79979   3
  -5  -4   5 86.2731 4.99435   1
   4   4  -5 84.4136 4.51487   6
   4   4  -5 83.1766 4.58813   2
   4   4  -5 86.0358 4.66094   1
   4   4  -5 95.2937 5.07427   1
   4   4  -5 90.6037 4.64988  12
   4   4  -5 91.5535 4.84452   6
  -4  -4   5 78.1355 4.60164   1
  -4  -4   5 81.4813 4.57911   4
  -4  -4   5 82.8643 4.53756   7
  -4  -4   5 85.6868 4.60587   3
  -4  -4   5 89.8118 4.98671   1
  -4  -4   5 87.1203 4.35638   8
  -4  -4   5 73.6712 4.51866   6
  -4  -4   5 88.8201 4.45793   9
  -4  -4   5 84.4801 4.72576  10
   3   4  -5 115.210 6.08174   1
   3   4  -5 105.242 5.65277   1
   3   4  -5 124.330 5.73081  12
   3   4  -5 110.123 5.84201   2
   3   4  -5 103.084 5.57186   6
  -3  -4   5 111.985 5.56417   7
  -3  -4   5 127.457 5.81739   6
  -3  -4   5 107.249 5.74457   4
  -3  -4   5 110.573 5.28682   8
  -3  -4   5 120.833 5.37009   9
  -3  -4   5 126.008 5.85688   1
  -3  -4   5 107.209 5.81207  10
  -3  -4   5 116.022 6.02582   1
  -3  -4   5 113.423 5.54403   3
   2   4  -5 1.26361 0.83194   6
   2   4  -5 -0.6545 1.29304   4
   2   4  -5 -0.1242 1.62416   2
   2   4  -5 0.04935 1.62554   1
   2   4  -5 0.23094 1.30199  12
   2   4  -5 1.46485 0.93000   1
  -2  -4   5 0.19934 1.05267   3
  -2  -4   5 -0.1913 0.89858   6
  -2  -4   5 -0.0331 1.16821   7
  -2  -4   5 -0.6203 1.50289   1
  -2  -4   5 0.47088 1.18476  10
  -2  -4   5 -0.2592 1.08973   4
  -2  -4   5 -0.1110 1.00623   1
   1   4  -5 0.00079 0.90194   6
   1   4  -5 0.15341 1.33490  10
   1   4  -5 2.36298 1.01297   3
   1   4  -5 1.41717 1.58338   2
   1   4  -5 1.28535 1.25106  12
   1   4  -5 -0.0591 1.64067   1
   1   4  -5 1.36176 1.41555   4
  -1  -4   5 2.25739 1.30490   4
  -1  -4   5 1.56480 1.11491   6
  -1  -4   5 0.47926 1.08070   7
  -1  -4   5 1.89964 1.54866   1
  -1  -4   5 1.81271 1.27478  10
  -1  -4   5 1.10954 0.94671   3
  -1  -4   5 2.87572 1.28209   1
  -1  -4   5 2.23689 1.33082   5
   0   4  -5 4.68963 1.60125  10
   0   4  -5 6.01086 1.70640   2
   0   4  -5 5.41483 1.74129   1
   0   4  -5 7.27391 1.34733   1
   0   4  -5 6.41376 1.64648   4
   0   4  -5 5.43940 1.20178   6
   0  -4   5 4.52444 1.53662   1
   0  -4   5 4.18118 1.59248  10
   0  -4   5 5.28294 1.47860   5
   0  -4   5 6.70046 1.42328   6
   0  -4   5 5.93170 1.57997   4
   0  -4   5 8.47227 1.67205   1
  -1   4  -5 14.7744 2.20533   1
  -1   4  -5 14.2336 1.94029  10
  -1   4  -5 21.4202 3.15611   4
  -1   4  -5 11.8386 1.70676   1
  -1   4  -5 13.5634 1.68498   6
   1  -4   5 12.5747 1.85820   5
   1  -4   5 18.1321 2.07190   1
   1  -4   5 17.9967 2.44373   6
   1  -4   5 13.5437 1.98607   4
   1  -4   5 18.2150 2.23649  10
   1  -4   5 20.7139 2.68308   1
  -2   4  -5 7.30431 2.05154  10
  -2   4  -5 7.22688 1.66533   6
  -2   4  -5 9.97791 2.10467   1
  -2   4  -5 10.1391 1.72452   1
  -2   4  -5 11.7622 2.33291   4
   2  -4   5 11.7262 2.29197  10
   2  -4   5 8.08153 1.83544   6
   2  -4   5 9.46596 2.15252   5
   2  -4   5 9.97131 1.93054   1
   2  -4   5 8.72447 2.09375   4
   2  -4   5 5.90695 1.81325   1
  -3   4  -5 4.46405 1.98344   1
  -3   4  -5 3.70263 1.72815   1
  -3   4  -5 2.21641 2.45382  10
  -3   4  -5 0.69639 2.34073   4
   3  -4   5 0.28080 2.43150   5
   3  -4   5 0.94358 1.78963   1
   3  -4   5 4.91965 1.86138   1
   3  -4   5 1.64639 2.47172   4
  -4   4  -5 8.41576 3.04235   4
  -4   4  -5 1.17416 2.90480  10
   9   3  -5 4.50007 2.50917   6
   9   3  -5 4.65907 2.72471   1
  -9  -3   5 9.35803 3.15670   1
  -9  -3   5 7.48287 2.30302   9
  -9  -3   5 5.70063 2.07813  12
  -9  -3   5 7.63504 2.04586   8
  -9  -3   5 3.41659 2.18814   3
  -9  -3   5 7.26077 2.32234   1
   8   3  -5 7.70805 2.31981   1
   8   3  -5 7.59714 2.23718   6
  -8  -3   5 5.47465 2.00396   9
  -8  -3   5 7.82771 1.95767   3
  -8  -3   5 3.51649 3.00874   8
  -8  -3   5 5.96144 1.75417  12
  -8  -3   5 6.71203 2.52139   1
   7   3  -5 11.7490 2.21239   6
   7   3  -5 17.1389 2.46772   1
   7   3  -5 11.2842 1.62983   6
   7   3  -5 12.4632 2.19878   1
  -7  -3   5 10.2616 1.85024   8
  -7  -3   5 10.8885 2.00153   3
  -7  -3   5 10.8457 2.05631   9
  -7  -3   5 13.6125 2.19772   6
  -7  -3   5 12.9314 2.29863   1
   6   3  -5 343.976 14.1636   1
   6   3  -5 337.873 14.0412   6
   6   3  -5 303.800 14.0186   1
   6   3  -5 311.628 13.9893   6
  -6  -3   5 279.841 14.0073   1
  -6  -3   5 331.574 13.9766   9
  -6  -3   5 274.242 13.8771  11
  -6  -3   5 326.207 13.8258   7
  -6  -3   5 277.173 13.9264   6
  -6  -3   5 324.615 14.0340   3
  -6  -3   5 318.405 13.7656   8
  -6  -3   5 289.734 14.0183  12
  -6  -3   5 305.560 14.0257   1
   5   3  -5 383.233 16.2890   6
   5   3  -5 348.729 16.1563   6
   5   3  -5 342.351 16.1863   1
   5   3  -5 369.980 15.7868   2
   5   3  -5 384.229 16.3539   1
  -5  -3   5 370.482 16.2483   1
  -5  -3   5 369.504 16.1638   3
  -5  -3   5 352.348 16.0039   7
  -5  -3   5 378.215 16.2026  11
  -5  -3   5 347.873 16.1600   4
  -5  -3   5 377.981 16.2308   6
  -5  -3   5 383.795 16.0765   9
  -5  -3   5 366.421 15.9245   8
  -5  -3   5 354.458 16.2477  10
  -5  -3   5 357.196 16.2987   1
   4   3  -5 165.041 7.84308   6
   4   3  -5 161.537 7.59624   2
   4   3  -5 171.867 8.01405   1
   4   3  -5 154.047 7.70401   1
   4   3  -5 160.220 7.70024   6
  -4  -3   5 173.399 7.79427   6
  -4  -3   5 173.530 7.77935  11
  -4  -3   5 160.251 7.81465  10
  -4  -3   5 170.719 7.57725   9
  -4  -3   5 157.686 7.44830   8
  -4  -3   5 166.018 7.96664   1
  -4  -3   5 163.642 7.66549   3
  -4  -3   5 160.248 7.61390   7
  -4  -3   5 164.425 7.77151   1
  -4  -3   5 155.005 7.73033   4
   3   3  -5 153.784 7.31280   1
   3   3  -5 144.363 7.09841   2
   3   3  -5 154.635 7.21190   6
  -3  -3   5 147.424 6.94192   7
  -3  -3   5 143.865 6.86222   3
  -3  -3   5 146.956 6.65509   8
  -3  -3   5 141.012 7.15023  10
  -3  -3   5 154.350 6.73529   9
  -3  -3   5 151.848 7.13504   1
  -3  -3   5 145.901 7.28729   1
  -3  -3   5 153.886 7.08302   6
  -3  -3   5 142.315 7.11457   4
   2   3  -5 27.7808 2.86957   1
   2   3  -5 20.3813 1.93363   6
   2   3  -5 24.6395 2.49092   6
   2   3  -5 19.3925 2.00259   1
   2   3  -5 22.6258 2.12193  12
   2   3  -5 22.2020 2.57490   2
  -2  -3   5 28.8715 2.08559   6
  -2  -3   5 22.1747 1.89430   3
  -2  -3   5 24.6516 2.50584   4
  -2  -3   5 24.3529 2.15008   7
  -2  -3   5 22.9125 2.72665   1
  -2  -3   5 22.8766 2.53051  10
  -2  -3   5 23.2559 2.16757   1
   1   3  -5 0.43299 1.01531   1
   1   3  -5 1.49180 1.49055   1
   1   3  -5 2.53004 1.38848   2
   1   3  -5 4.02761 1.06401  12
   1   3  -5 1.70412 1.37881   6
   1   3  -5 1.55740 1.26642   4
   1   3  -5 1.92148 0.99495   6
  -1  -3   5 2.45028 1.38254  10
  -1  -3   5 1.77729 1.16069   5
  -1  -3   5 1.80538 1.10295   7
  -1  -3   5 2.06250 1.01370   6
  -1  -3   5 2.40580 1.28331   4
  -1  -3   5 2.69580 1.46720   1
  -1  -3   5 1.24401 1.05573   1
   0   3  -5 4.87075 1.19775   1
   0   3  -5 8.08092 1.72125   2
   0   3  -5 6.97548 1.46869   6
   0   3  -5 6.63749 1.59901  10
   0   3  -5 5.84666 1.15887   6
   0   3  -5 6.27624 1.54186   4
   0   3  -5 7.76048 1.65795   1
   0  -3   5 7.92510 1.47620   1
   0  -3   5 8.98114 1.29626   5
   0  -3   5 7.74153 1.43668   4
   0  -3   5 6.50482 1.33828   6
   0  -3   5 7.31964 1.62895   1
   0  -3   5 9.46074 1.26276   7
   0  -3   5 7.76015 1.58456  10
  -1   3  -5 17.1782 2.04540   4
  -1   3  -5 17.8224 2.35001   6
  -1   3  -5 19.4804 2.75810   1
  -1   3  -5 17.5913 2.69513  10
  -1   3  -5 15.1603 2.20031   1
  -1   3  -5 14.0939 1.99292   6
   1  -3   5 20.4493 2.34093   1
   1  -3   5 15.1687 2.08614  10
   1  -3   5 14.8209 1.91267   4
   1  -3   5 18.2851 2.20401   6
   1  -3   5 15.4775 1.72017   5
   1  -3   5 20.0686 2.48705   1
  -2   3  -5 7.36403 1.42336   1
  -2   3  -5 9.41076 2.00101   4
  -2   3  -5 8.30754 1.95109  10
  -2   3  -5 9.39549 1.70894   1
  -2   3  -5 9.10809 1.59112   6
  -2   3  -5 7.03290 1.35589   6
   2  -3   5 7.68314 1.78117   5
   2  -3   5 6.33782 1.59605   1
   2  -3   5 9.00518 1.71142   1
   2  -3   5 7.13344 1.84534   4
   2  -3   5 7.07051 1.89457  10
   2  -3   5 8.31059 1.51370   6
  -3   3  -5 5.64288 2.16808  10
  -3   3  -5 7.86398 2.23131   4
   3  -3   5 5.42737 2.08309   4
   3  -3   5 5.57189 2.13461   5
  -4   3  -5 6.25819 2.86126   2
  -4   3  -5 3.37354 2.74932  10
  -4   3  -5 3.96171 2.59545   4
   9   2  -5 9.04579 2.80524   6
   9   2  -5 9.61599 2.94393   1
  -9  -2   5 8.97969 2.27874   1
  -9  -2   5 11.6864 3.10769   1
  -9  -2   5 5.17199 2.05532   9
  -9  -2   5 6.06378 2.00411  12
  -9  -2   5 8.13342 2.86894   3
   8   2  -5 0.41567 1.95200   6
   8   2  -5 4.90216 2.26815   1
  -8  -2   5 3.14108 1.91285   3
  -8  -2   5 2.41769 1.51313  12
  -8  -2   5 0.89876 2.24681   1
  -8  -2   5 -1.2310 1.48049   9
   7   2  -5 26.1560 2.61721   6
   7   2  -5 30.3770 2.96820   1
   7   2  -5 30.0113 3.43753   1
   7   2  -5 26.5870 3.12247   6
  -7  -2   5 24.5796 3.00022   9
  -7  -2   5 25.2556 3.06538   3
  -7  -2   5 27.2406 3.40694   1
   6   2  -5 184.616 8.66818   6
   6   2  -5 174.611 8.79727   1
   6   2  -5 176.931 8.70629   6
   6   2  -5 193.343 8.79159   1
  -6  -2   5 174.249 8.73600   1
  -6  -2   5 172.419 8.59400   4
  -6  -2   5 183.269 8.54087   7
  -6  -2   5 178.883 8.72779   3
  -6  -2   5 184.493 8.70090   9
  -6  -2   5 184.608 8.69708  11
  -6  -2   5 193.555 8.77741   6
  -6  -2   5 176.064 8.73031  12
  -6  -2   5 192.624 8.86249   1
   5   2  -5 52.9824 3.16422   2
   5   2  -5 56.5205 3.55290   6
   5   2  -5 54.3767 3.40839   6
   5   2  -5 54.6861 3.70725   1
   5   2  -5 55.4293 3.52257   1
  -5  -2   5 54.6974 3.49306   3
  -5  -2   5 49.8673 3.41564   6
  -5  -2   5 54.3090 3.53507   1
  -5  -2   5 55.0394 3.48634  11
  -5  -2   5 53.7429 3.45174   9
  -5  -2   5 52.6734 3.54059  12
  -5  -2   5 51.5805 3.32126   4
  -5  -2   5 51.1345 3.66705   1
  -5  -2   5 54.3355 3.31122   7
   4   2  -5 88.0373 4.80034   1
   4   2  -5 82.9454 4.47164   1
   4   2  -5 79.5552 4.33717   2
   4   2  -5 77.3515 4.37338   6
   4   2  -5 82.7819 4.59299   6
  -4  -2   5 90.8199 4.48322  11
  -4  -2   5 79.4209 4.38908   3
  -4  -2   5 83.8227 4.49172   1
  -4  -2   5 85.2354 4.58230  12
  -4  -2   5 84.3334 4.39378   6
  -4  -2   5 82.1594 4.68903   1
  -4  -2   5 81.1804 4.49994   4
  -4  -2   5 80.3226 4.34331   7
  -4  -2   5 87.5825 4.31703   9
   3   2  -5 71.5693 4.12076   2
   3   2  -5 78.1330 4.42265   1
   3   2  -5 72.9101 3.99891   6
   3   2  -5 78.2063 4.24778   6
   3   2  -5 67.1805 4.02162   1
  -3  -2   5 74.3441 3.65923   8
  -3  -2   5 72.5656 4.24378  10
  -3  -2   5 73.5437 3.84794   3
  -3  -2   5 73.3608 4.03535   1
  -3  -2   5 78.3520 3.76812   9
  -3  -2   5 72.3445 4.29916   1
  -3  -2   5 76.3500 4.00048   6
  -3  -2   5 71.4259 4.11589   4
  -3  -2   5 73.2438 3.96484   7
  -3  -2   5 75.7025 3.95939  11
   2   2  -5 61.6404 3.48521   1
   2   2  -5 59.0902 3.41260   6
   2   2  -5 68.3515 3.76426   6
   2   2  -5 65.2378 3.96801   1
   2   2  -5 63.2887 3.84263   2
  -2  -2   5 66.3029 3.88189   1
  -2  -2   5 65.4420 3.83572  10
  -2  -2   5 61.9927 3.64762   4
  -2  -2   5 64.1599 3.49359   6
  -2  -2   5 65.3690 3.35237  11
  -2  -2   5 61.2726 3.21071   3
  -2  -2   5 62.7638 3.52103   1
  -2  -2   5 58.2019 3.45563   7
   1   2  -5 56.9879 3.17883   6
   1   2  -5 52.4968 3.23206   1
   1   2  -5 57.4466 3.63946   1
   1   2  -5 56.4311 3.30212   7
   1   2  -5 59.0603 3.44801   6
   1   2  -5 60.5673 3.49468   4
   1   2  -5 51.1903 3.57079   2
  -1  -2   5 55.1691 3.21545   1
  -1  -2   5 57.3813 3.15138   7
  -1  -2   5 56.4946 3.59397   1
  -1  -2   5 52.4072 3.36700   4
  -1  -2   5 57.9745 3.17196   6
  -1  -2   5 55.2566 3.56832  10
   0   2  -5 82.0350 4.37337   4
   0   2  -5 80.1985 4.04096   7
   0   2  -5 85.2048 4.38452   1
   0   2  -5 74.8407 4.06317   6
   0   2  -5 72.9122 4.13001   1
   0   2  -5 83.2446 4.17486   6
   0   2  -5 74.9453 4.50286   2
   0  -2   5 78.8026 4.11265   1
   0  -2   5 74.4452 4.23051   4
   0  -2   5 79.4086 3.94022   7
   0  -2   5 76.2141 4.33566  10
   0  -2   5 75.3800 3.88869   5
   0  -2   5 81.7364 4.31775   1
   0  -2   5 79.6578 4.06730   6
  -1   2  -5 28.1638 2.37847   1
  -1   2  -5 28.3544 2.81978   4
  -1   2  -5 28.5284 2.26043   6
  -1   2  -5 35.7122 2.87516  10
  -1   2  -5 32.2871 2.49124   6
  -1   2  -5 34.2732 2.49995   7
  -1   2  -5 32.5406 2.74352   1
   1  -2   5 30.8035 2.49747   1
   1  -2   5 32.2480 2.90251  10
   1  -2   5 29.7305 2.23162   7
   1  -2   5 26.2774 2.75623   4
   1  -2   5 33.4672 2.49745   1
   1  -2   5 35.1919 2.41283   6
  -2   2  -5 32.2009 2.98060  10
  -2   2  -5 29.9298 3.11149   4
  -2   2  -5 25.4676 2.32637   1
  -2   2  -5 20.9564 2.20471   1
   2  -2   5 26.0290 2.26759   1
   2  -2   5 27.0397 3.16769  10
   2  -2   5 30.2950 2.35237   1
   2  -2   5 22.4922 2.87497   4
   2  -2   5 26.0172 2.62471   5
  -3   2  -5 10.3140 2.60540   2
  -3   2  -5 7.97933 2.17556   4
  -3   2  -5 6.45116 1.90754  10
  -4   2  -5 10.7398 2.44531  10
  -4   2  -5 10.4971 2.44387   4
  -4   2  -5 7.15102 2.91805   2
   9   1  -5 3.47900 2.72515   6
   9   1  -5 2.44904 2.92574   1
   9   1  -5 2.97775 2.34001   9
  -9  -1   5 2.55361 2.53694   1
  -9  -1   5 6.40269 2.98233   1
  -9  -1   5 5.70925 1.90854  12
  -9  -1   5 0.41109 2.81742   9
   8   1  -5 22.4256 3.02555   6
   8   1  -5 21.7891 3.22142   9
   8   1  -5 27.6835 3.97962   1
  -8  -1   5 23.1916 3.06102   5
  -8  -1   5 23.4165 2.97872   1
  -8  -1   5 21.2777 3.17715   9
  -8  -1   5 22.4043 3.07433   3
  -8  -1   5 18.6162 2.69875  12
   7   1  -5 21.4784 2.29832   6
   7   1  -5 16.7138 2.46371   6
   7   1  -5 17.8712 2.24801   9
   7   1  -5 20.4446 2.52074   1
   7   1  -5 22.2436 2.65095   1
  -7  -1   5 21.4221 2.56762   1
  -7  -1   5 17.0172 2.25520   3
  -7  -1   5 17.0995 2.24266   9
   6   1  -5 2.80185 1.19283   6
   6   1  -5 0.58537 1.36571   1
   6   1  -5 1.51160 1.65638   1
   6   1  -5 -1.1363 1.31283   9
   6   1  -5 1.46211 1.38542   6
  -6  -1   5 -2.2172 1.29753   3
  -6  -1   5 -0.6924 1.22040  12
  -6  -1   5 0.09573 1.11250  11
  -6  -1   5 -1.3864 1.05586   7
  -6  -1   5 -0.0200 1.23094   1
  -6  -1   5 -2.6900 1.22510   9
  -6  -1   5 1.85229 1.38573   1
   5   1  -5 48.1229 3.24197   9
   5   1  -5 37.9826 3.22260   1
   5   1  -5 54.5822 3.54943   1
   5   1  -5 49.1145 3.35815   6
  -5  -1   5 48.3323 3.36558  12
  -5  -1   5 47.3065 3.02756   7
  -5  -1   5 47.6432 3.44787   1
  -5  -1   5 50.6563 3.25625  11
  -5  -1   5 50.8121 3.30692   9
  -5  -1   5 43.4250 3.25345   3
  -5  -1   5 50.1710 3.35368   1
   4   1  -5 58.3286 3.42381   9
   4   1  -5 53.3356 3.40131   6
   4   1  -5 64.7172 3.67499   6
   4   1  -5 64.4878 3.85447   1
   4   1  -5 56.6946 3.39672   2
   4   1  -5 59.2635 3.55287   1
  -4  -1   5 59.3355 3.60804   4
  -4  -1   5 60.6623 3.42820   6
  -4  -1   5 57.9417 3.40071   7
  -4  -1   5 53.7663 3.80305   1
  -4  -1   5 58.0440 3.48138   1
  -4  -1   5 57.4436 3.45961   3
  -4  -1   5 62.5066 3.41409   9
  -4  -1   5 58.8206 3.53440  12
  -4  -1   5 59.6814 3.52057  11
   3   1  -5 15.6508 1.72075   7
   3   1  -5 15.0597 1.77450   6
   3   1  -5 15.6681 2.37939   1
   3   1  -5 13.5947 1.66075   1
   3   1  -5 16.0147 1.85674   2
   3   1  -5 13.6350 1.79036   9
   3   1  -5 13.5829 1.79224   6
  -3  -1   5 13.5744 1.90672   1
  -3  -1   5 13.8001 1.98466  11
  -3  -1   5 15.5655 1.80142   9
  -3  -1   5 16.0305 1.79830   6
  -3  -1   5 14.5834 1.84213   1
  -3  -1   5 14.1831 1.66156  12
  -3  -1   5 13.7313 1.59954   7
  -3  -1   5 16.3050 2.11966   4
  -3  -1   5 13.2874 1.73565   3
  -3  -1   5 12.3674 1.61559  10
   2   1  -5 94.9075 4.80748   6
   2   1  -5 89.4876 4.62287   1
   2   1  -5 85.9444 4.55085   6
   2   1  -5 86.7342 4.82287   2
   2   1  -5 95.1241 4.90926   1
   2   1  -5 90.8199 4.69486   7
  -2  -1   5 99.2372 4.46709  11
  -2  -1   5 92.2284 4.72816   4
  -2  -1   5 89.5717 4.13819   8
  -2  -1   5 94.9566 4.86640  10
  -2  -1   5 93.0314 4.65975   1
  -2  -1   5 92.5042 4.59199   7
  -2  -1   5 87.2181 4.85648   1
  -2  -1   5 91.9718 4.58452   6
  -2  -1   5 92.0237 4.31264   3
   1   1  -5 144.869 6.75786   7
   1   1  -5 140.776 6.74572   6
   1   1  -5 151.519 6.87094   6
   1   1  -5 144.805 7.04738   2
   1   1  -5 134.075 6.75769   1
   1   1  -5 148.726 6.94050   1
  -1  -1   5 145.689 6.91126   1
  -1  -1   5 145.085 6.87817  10
  -1  -1   5 147.801 6.79765   1
  -1  -1   5 146.639 6.67268   7
  -1  -1   5 140.807 6.75562   4
  -1  -1   5 148.419 6.74020   6
   0   1  -5 97.9067 5.02793   6
   0   1  -5 103.564 5.44771   2
   0   1  -5 105.544 5.19104   1
   0   1  -5 109.863 5.13585   6
   0   1  -5 99.0577 5.08383   1
   0   1  -5 102.514 5.12595   7
   0  -1   5 104.380 5.09561   4
   0  -1   5 104.497 5.02679   7
   0  -1   5 104.951 5.23959   1
   0  -1   5 107.301 5.19258  10
   0  -1   5 106.178 5.10681   1
  -1   1  -5 76.7017 4.57837   2
  -1   1  -5 81.4098 4.14451   7
  -1   1  -5 73.1696 3.96775   6
  -1   1  -5 90.2940 4.24407   4
  -1   1  -5 72.9206 3.92666   1
  -1   1  -5 69.8493 4.06332   1
  -1   1  -5 68.3361 3.84593   6
   1  -1   5 75.4293 4.21345  10
   1  -1   5 82.7625 4.01076   1
   1  -1   5 77.7979 3.92812   7
   1  -1   5 80.2659 4.08747   4
  -2   1  -5 35.7790 2.94214   4
  -2   1  -5 39.7200 3.06548  10
  -2   1  -5 33.5895 2.86544   7
   2  -1   5 34.7044 2.85671   4
   2  -1   5 36.8279 3.07337  10
  -3   1  -5 9.00727 2.23251   2
  -3   1  -5 6.29516 1.65418  10
  -3   1  -5 8.49843 1.84641   7
  -3   1  -5 5.20959 1.76846   4
  -4   1  -5 7.52744 2.08311  10
  -4   1  -5 12.2486 2.25098   4
  -4   1  -5 13.4007 2.72275   2
  -5   1  -5 3.13158 2.46789   4
  -5   1  -5 2.27490 3.66940   2
  -5   1  -5 -1.9429 2.33326  10
   9   0  -5 1.45136 3.05490   1
   9   0  -5 -1.2721 2.72611   6
  -9   0   5 13.8915 3.38861   1
  -9   0   5 14.5323 2.38220  12
   8   0  -5 12.3924 2.79244   1
   8   0  -5 10.5106 2.14576   9
   8   0  -5 12.9990 2.62201   6
  -8   0   5 13.7198 1.95298   5
  -8   0   5 13.7470 2.19078   9
  -8   0   5 13.6772 2.11359  12
  -8   0   5 13.4030 2.73924   1
   7   0  -5 -0.7615 1.73766   6
   7   0  -5 0.95039 1.14046   6
   7   0  -5 1.26301 1.59594   1
   7   0  -5 0.88149 1.49257   9
   7   0  -5 0.16277 1.96899   1
  -7   0   5 0.02945 1.36472   9
  -7   0   5 -3.0217 1.72026   1
  -7   0   5 -0.6828 1.30211   5
   6   0  -5 16.2396 2.14581   1
   6   0  -5 19.0373 2.31814   1
   6   0  -5 16.8616 1.93896   6
   6   0  -5 19.9273 2.62793   6
   6   0  -5 14.0339 1.98174   9
  -6   0   5 16.4564 2.01521   9
  -6   0   5 14.5458 1.99510  11
  -6   0   5 11.0563 1.93983  12
  -6   0   5 21.2586 2.62003   1
  -6   0   5 16.5820 2.20062   7
  -6   0   5 19.5773 2.23985   1
  -6   0   5 17.7646 1.95783   5
   5   0  -5 85.6495 4.42181   6
   5   0  -5 84.1708 4.48785   1
   5   0  -5 62.6779 4.27727   6
   5   0  -5 77.7910 4.40888   9
   5   0  -5 64.8292 4.37529   1
  -5   0   5 78.0203 4.19258   7
  -5   0   5 80.0248 4.41673   1
  -5   0   5 77.9350 4.59976   1
  -5   0   5 81.1721 4.46504   6
  -5   0   5 79.0210 4.35471  11
  -5   0   5 74.6317 4.41657  12
  -5   0   5 84.7660 4.38524   9
   4   0  -5 15.8331 1.95628   7
   4   0  -5 18.3125 2.24928   6
   4   0  -5 22.7364 2.44038   1
   4   0  -5 17.5759 2.01131   6
   4   0  -5 19.1580 2.12558   9
   4   0  -5 14.6708 2.10928   1
  -4   0   5 16.1870 2.10854  11
  -4   0   5 19.2671 2.17635   9
  -4   0   5 21.0900 2.05294   1
  -4   0   5 20.1299 2.62440   1
  -4   0   5 18.0976 2.01022   7
  -4   0   5 17.8028 2.16864  12
   3   0  -5 96.0288 4.89892   7
   3   0  -5 105.687 5.17135   1
   3   0  -5 93.8961 4.72487   9
   3   0  -5 90.2694 4.85840   6
   3   0  -5 103.690 5.06111   6
   3   0  -5 93.5512 4.93676   1
  -3   0   5 100.539 4.80689  11
  -3   0   5 93.2320 4.76966   7
  -3   0   5 99.6603 4.94444   1
  -3   0   5 96.5253 4.85319  12
  -3   0   5 95.5025 4.97574   4
  -3   0   5 89.7526 5.06830   1
   2   0  -5 120.161 5.84959   7
   2   0  -5 126.614 5.94463   6
   2   0  -5 129.483 6.03060   1
   2   0  -5 119.354 5.82176   1
   2   0  -5 117.271 5.50882   9
   2   0  -5 116.086 5.73828   6
  -2   0   5 115.743 5.83160   4
  -2   0   5 121.675 5.76495   7
  -2   0   5 119.827 5.80464   1
  -2   0   5 117.576 5.92569  10
  -2   0   5 124.841 5.58310  11
  -2   0   5 118.239 5.48739   3
  -2   0   5 120.396 5.38457   8
  -2   0   5 120.930 5.63393  12
  -2   0   5 121.952 6.00126   1
   1   0  -5 72.3286 3.76989   6
   1   0  -5 67.8364 3.83115   1
   1   0  -5 64.8314 3.67052   1
   1   0  -5 57.8436 3.82794   2
   1   0  -5 67.1264 3.74451   7
   1   0  -5 64.0506 3.58593   6
  -1   0   5 64.2499 3.80271   1
  -1   0   5 67.2222 3.60799   1
  -1   0   5 69.1941 3.56788   7
  -1   0   5 68.8808 3.79833  10
  -1   0   5 66.9641 3.59924   4
   0   0  -5 52.5557 3.06355   6
   0   0  -5 51.2525 3.33160   2
   0   0  -5 48.0178 2.93232   6
   0   0  -5 47.0273 3.00923   1
   0   0  -5 51.1156 3.20826   1
   0   0  -5 55.2989 3.27108   7
   0   0   5 49.3350 2.86820   4
   0   0   5 55.2612 3.02683   7
   0   0   5 52.2459 3.06297  10
   0   0   5 48.3320 3.02488   1
   0   0   5 50.3506 3.22132   1
  -1   0  -5 105.480 4.95102   6
  -1   0  -5 95.0457 4.93198   6
  -1   0  -5 109.210 5.22945   7
  -1   0  -5 105.618 5.07545   1
  -1   0  -5 97.6851 5.50865   2
  -1   0  -5 97.4562 4.96053   1
   1   0   5 107.766 4.95714   4
   1   0   5 107.060 4.99285   1
   1   0   5 107.528 5.06673  10
   1   0   5 106.384 5.06803   7
  -2   0  -5 17.2797 2.15866   4
  -2   0  -5 17.5639 2.51983   7
   2   0   5 15.0453 2.30812  10
   2   0   5 15.9448 2.04492   4
  -3   0  -5 5.78706 2.00431   7
  -3   0  -5 5.65802 1.50990   4
  -3   0  -5 8.34363 1.92312   2
  -4   0  -5 2.58829 2.71587   2
  -4   0  -5 1.87363 2.26182   7
  -4   0  -5 -1.7824 1.51953   4
  -4   0  -5 0.70517 1.65198  10
  -5   0  -5 4.56440 2.46365   8
  -5   0  -5 2.70671 2.04245   4
  -5   0  -5 1.57129 2.79336   7
  -5   0  -5 2.32889 2.00460  10
  -5   0  -5 4.69091 3.35341   2
  -9   1   5 21.9472 3.80076   1
  -9   1   5 19.6291 2.87340   7
  -9   1   5 13.7914 2.46706  12
   8  -1  -5 32.6642 4.21492   6
   8  -1  -5 25.8769 3.84028   9
   8  -1  -5 33.2345 4.80163   1
  -8   1   5 28.1372 3.72417   9
  -8   1   5 33.6841 4.46616   1
  -8   1   5 28.8528 3.46777   5
  -8   1   5 34.9456 3.13156  12
   7  -1  -5 59.6491 4.56360   6
   7  -1  -5 65.8858 3.93325   6
   7  -1  -5 67.7577 4.22173   1
   7  -1  -5 62.0438 4.36643   9
   7  -1  -5 62.0959 4.93631   1
  -7   1   5 67.0544 4.77558   1
  -7   1   5 65.5810 4.36641   9
  -7   1   5 69.5148 4.25282   5
   6  -1  -5 49.3377 3.37883   1
   6  -1  -5 38.9084 3.40859   6
   6  -1  -5 44.5679 3.00521   6
   6  -1  -5 40.1629 3.32778   9
   6  -1  -5 38.6322 3.67864   1
  -6   1   5 38.5664 3.42629   1
  -6   1   5 36.5954 3.13450  11
  -6   1   5 38.9462 3.22906  12
  -6   1   5 45.8992 3.28188   1
  -6   1   5 41.2319 3.20427   5
  -6   1   5 40.1187 3.15128   6
  -6   1   5 41.6873 3.30601   9
   5  -1  -5 0.97644 1.31332   1
   5  -1  -5 2.01169 1.35458   9
   5  -1  -5 0.32117 1.03596   6
   5  -1  -5 1.55715 1.25932   6
   5  -1  -5 1.24590 1.31524   1
   5  -1  -5 -2.1418 1.33478  11
  -5   1   5 0.77090 1.26048   6
  -5   1   5 -0.4347 1.18125   1
  -5   1   5 -0.7533 1.24803   1
  -5   1   5 -0.0518 1.06082   7
  -5   1   5 -0.2294 1.06005   5
  -5   1   5 -0.4717 1.07803  11
  -5   1   5 2.20943 1.26359   9
   4  -1  -5 43.1110 2.93891   6
   4  -1  -5 42.2359 2.93981   7
   4  -1  -5 41.9420 3.01907   9
   4  -1  -5 41.0277 3.07057  11
   4  -1  -5 41.9462 3.03589   1
   4  -1  -5 45.9599 3.30932   1
   4  -1  -5 40.9569 2.85794   6
  -4   1   5 42.6047 2.93382  11
  -4   1   5 44.0883 3.09486   6
  -4   1   5 44.9195 2.78679   5
  -4   1   5 40.8986 2.83889   1
  -4   1   5 41.5576 2.74066   7
  -4   1   5 41.7817 3.20563   1
   3  -1  -5 174.497 7.92933   6
   3  -1  -5 168.504 7.89709   7
   3  -1  -5 175.184 8.06588   1
   3  -1  -5 159.821 7.88423   6
   3  -1  -5 159.107 7.78159   9
   3  -1  -5 167.733 7.99223   1
  -3   1   5 176.039 7.79181  11
  -3   1   5 174.071 7.63734   5
  -3   1   5 168.474 8.04563   1
  -3   1   5 166.402 7.79427   7
  -3   1   5 174.548 7.64218   8
  -3   1   5 168.103 7.98364   6
  -3   1   5 177.669 7.92470   1
   2  -1  -5 4.54836 1.14507   9
   2  -1  -5 4.89861 1.42272   1
   2  -1  -5 3.56773 1.00789   1
   2  -1  -5 4.13411 0.96678   6
   2  -1  -5 2.80286 1.32006   7
   2  -1  -5 3.34715 1.13186   6
  -2   1   5 3.05229 1.12779   4
  -2   1   5 4.53709 1.42808   1
  -2   1   5 2.64690 0.97780  11
  -2   1   5 2.54993 1.09487   7
  -2   1   5 2.68268 0.78565   5
  -2   1   5 2.59306 0.91091   8
  -2   1   5 1.46323 0.96791  12
  -2   1   5 3.09465 1.27326   6
  -2   1   5 4.77567 1.05829   1
   1  -1  -5 2.57514 1.16968   6
   1  -1  -5 2.02997 1.06175   6
   1  -1  -5 1.84476 1.28729   7
   1  -1  -5 1.72671 1.08450   1
   1  -1  -5 3.21450 1.33757   1
  -1   1   5 0.73058 1.08099  10
  -1   1   5 2.18784 0.75513   8
  -1   1   5 1.75002 1.12554   7
  -1   1   5 2.76889 1.06982   1
  -1   1   5 3.11037 1.40086   1
  -1   1   5 2.55804 0.94223   4
   0  -1  -5 71.6168 3.71504   6
   0  -1  -5 70.2771 3.89191   7
   0  -1  -5 65.3507 3.65539   6
   0  -1  -5 72.4824 3.86276   1
   0  -1  -5 69.9204 3.76755   1
   0   1   5 65.8875 3.88919   1
   0   1   5 72.4515 3.79708   7
   0   1   5 67.6578 3.50836   4
   0   1   5 71.7230 3.68292  10
   0   1   5 70.0242 3.69839   1
  -1  -1  -5 102.351 4.78527   1
  -1  -1  -5 84.7733 5.22312   2
  -1  -1  -5 98.9409 4.70259   6
  -1  -1  -5 95.4803 4.78326   1
  -1  -1  -5 104.903 5.10891   7
  -1  -1  -5 96.1980 4.71718   6
   1   1   5 97.9368 4.55535   4
   1   1   5 97.6734 4.69090  10
   1   1   5 101.920 4.74181   1
   1   1   5 102.510 4.95064   7
  -2  -1  -5 39.2368 3.17878   7
  -3  -1  -5 6.61006 1.86169   2
  -3  -1  -5 4.91017 1.91818   7
  -3  -1  -5 0.98510 1.44111   8
  -4  -1  -5 2.87924 2.36795   7
  -4  -1  -5 2.64002 1.84211   8
  -4  -1  -5 3.29565 2.34557   2
  -5  -1  -5 6.07397 3.57247   2
  -5  -1  -5 7.74955 2.71659   8
  -5  -1  -5 10.1788 3.21495   7
  -9   2   5 9.14374 2.29982  12
  -9   2   5 10.6103 2.66529   7
  -9   2   5 12.2070 3.73483   1
   7  -2  -5 73.0466 5.16227   6
   7  -2  -5 90.0910 4.72281   1
   7  -2  -5 84.9352 5.50778   1
   7  -2  -5 68.5838 4.87369   9
  -7   2   5 71.2956 5.04638   6
  -7   2   5 84.5528 5.39445   1
  -7   2   5 77.0966 4.73993   5
  -7   2   5 72.6691 6.30779   1
   6  -2  -5 25.6487 2.80746   1
   6  -2  -5 28.3098 3.37924   1
   6  -2  -5 24.4503 2.92717   6
   6  -2  -5 24.7084 2.93747   9
   6  -2  -5 26.1942 2.99445  11
   6  -2  -5 22.0423 2.45842   6
  -6   2   5 22.9824 2.65036   5
  -6   2   5 31.2344 3.23154  11
  -6   2   5 22.9975 2.70416   6
  -6   2   5 25.7229 3.14054   1
  -6   2   5 23.4774 2.98503   1
   5  -2  -5 11.1696 1.76877   1
   5  -2  -5 13.7485 1.89067   7
   5  -2  -5 11.6825 1.95388   1
   5  -2  -5 9.48364 1.72176  11
   5  -2  -5 8.86075 1.68133   9
   5  -2  -5 9.01311 1.64787   6
   5  -2  -5 10.4764 1.64769   6
  -5   2   5 12.2255 1.66719  11
  -5   2   5 12.0839 1.72979   1
  -5   2   5 10.6857 1.89160   1
  -5   2   5 11.9466 1.60798   7
  -5   2   5 11.8294 1.93304   6
  -5   2   5 9.83145 1.47859   5
   4  -2  -5 97.1289 5.00040   7
   4  -2  -5 99.0764 5.14894   6
   4  -2  -5 92.6742 5.15491   9
   4  -2  -5 89.1726 4.92046   6
   4  -2  -5 93.2767 5.11979  11
   4  -2  -5 99.5171 5.31562   1
   4  -2  -5 96.6465 5.06569   1
  -4   2   5 89.7085 5.21251   1
  -4   2   5 98.6186 5.01623   1
  -4   2   5 104.392 5.03870  11
  -4   2   5 91.3522 5.08857   6
  -4   2   5 101.717 4.83489   5
  -4   2   5 97.3056 4.86961   8
   3  -2  -5 180.546 8.05526   6
   3  -2  -5 177.919 8.12631   1
   3  -2  -5 167.428 7.92270  11
   3  -2  -5 162.559 7.97908   1
   3  -2  -5 168.182 7.91527   9
   3  -2  -5 154.771 7.88576   6
   3  -2  -5 165.993 7.97112   7
  -3   2   5 177.006 7.84383  11
  -3   2   5 173.597 7.72460   8
  -3   2   5 173.503 7.67759   5
  -3   2   5 178.972 7.96336   1
  -3   2   5 168.149 8.11320   1
  -3   2   5 167.531 8.03454   6
   2  -2  -5 16.2958 1.81371   1
   2  -2  -5 15.4782 2.04463   9
   2  -2  -5 18.8901 2.39424   1
   2  -2  -5 16.1235 2.01423  11
   2  -2  -5 18.5606 2.12961   6
   2  -2  -5 15.2939 2.05291   7
   2  -2  -5 18.5956 1.65171   6
  -2   2   5 17.4103 1.54873   5
  -2   2   5 14.4998 1.77634   1
  -2   2   5 18.5123 2.35044   1
  -2   2   5 16.8478 1.76009   8
  -2   2   5 15.7278 1.82125  11
  -2   2   5 13.1165 1.79781   7
  -2   2   5 16.8466 2.17398   6
   1  -2  -5 15.4217 1.99879   9
   1  -2  -5 14.9780 2.06708   6
   1  -2  -5 17.0933 1.89657   1
   1  -2  -5 16.3556 1.69201   6
   1  -2  -5 15.5463 1.86375   7
   1  -2  -5 20.1456 2.26625   1
  -1   2   5 17.6931 2.10104   6
  -1   2   5 15.3648 1.72821   8
  -1   2   5 13.7730 1.86244   4
  -1   2   5 16.6099 1.87405   7
  -1   2   5 15.8065 2.13530  10
  -1   2   5 17.4448 1.60110   3
  -1   2   5 16.2504 1.89185   1
  -1   2   5 12.9534 1.73446   1
   0  -2  -5 49.3633 2.98067   6
   0  -2  -5 50.8217 3.12495   1
   0  -2  -5 54.7331 3.06636   6
   0  -2  -5 51.9640 3.28369   7
   0  -2  -5 52.6138 3.24365   1
   0   2   5 47.8088 2.91606  10
   0   2   5 46.3028 2.74338   4
   0   2   5 51.4299 3.13594   6
   0   2   5 52.0986 3.25576   1
   0   2   5 52.4298 3.18956   7
   0   2   5 50.7969 3.06873   1
   0   2   5 53.9291 2.78636   8
  -1  -2  -5 51.2497 2.79049   8
  -1  -2  -5 47.5785 3.01589   1
  -1  -2  -5 48.3307 2.91644   6
  -1  -2  -5 49.4868 3.37045   7
  -1  -2  -5 48.2330 2.99956   1
  -1  -2  -5 48.4826 2.90522   6
   1   2   5 45.9478 2.63467  10
   1   2   5 52.6126 2.77847   8
   1   2   5 50.1722 2.84865   1
   1   2   5 51.1485 3.14536   7
  -2  -2  -5 52.6225 3.74973   7
  -2  -2  -5 54.5004 3.80101   2
  -2  -2  -5 57.6702 3.15215   8
   2   2   5 54.6630 3.52750   7
  -3  -2  -5 25.1773 3.39890   7
  -3  -2  -5 27.5606 3.17515   2
  -3  -2  -5 26.1408 2.74604   8
  -4  -2  -5 52.4516 4.51647   2
  -4  -2  -5 42.5896 3.89785   8
  -4  -2  -5 52.7037 4.40893   7
  -4  -2  -5 47.2542 3.99304   9
  -5  -2  -5 12.4854 3.37103   7
  -5  -2  -5 12.2462 2.77386   8
  -5  -2  -5 12.2342 2.96272   9
  -5  -2  -5 7.87937 3.23190   2
  -8   3   5 21.3249 2.79833   7
  -8   3   5 18.6449 2.55307   5
  -8   3   5 28.8003 3.61604   1
   7  -3  -5 39.1034 3.68789   1
   7  -3  -5 35.1744 3.83128   9
  -7   3   5 39.4963 3.63902   5
  -7   3   5 45.4184 4.46853   1
  -7   3   5 31.9682 3.89453   1
  -7   3   5 37.5475 3.20263   6
   6  -3  -5 0.07259 1.57817   1
   6  -3  -5 1.87869 1.54512   9
   6  -3  -5 0.59842 1.67535   6
   6  -3  -5 2.31197 2.09801   1
   6  -3  -5 2.15492 1.74603  11
   6  -3  -5 2.78185 1.52260   6
  -6   3   5 0.11827 1.35972   5
  -6   3   5 0.75939 1.27223   6
  -6   3   5 1.09078 1.77353   1
  -6   3   5 -0.6077 1.38783   1
  -6   3   5 1.68008 1.71456  11
   5  -3  -5 10.3046 1.99982   9
   5  -3  -5 13.2652 1.88731   6
   5  -3  -5 12.4714 2.00413   1
   5  -3  -5 13.0233 1.93061   1
   5  -3  -5 10.7834 1.91942  11
   5  -3  -5 11.3168 1.67299   7
   5  -3  -5 10.9585 1.92398   6
  -5   3   5 13.1072 1.87552   1
  -5   3   5 10.5233 2.09662   1
  -5   3   5 11.1652 1.90728   6
  -5   3   5 10.7746 1.75506  11
  -5   3   5 9.49170 1.69908   5
   4  -3  -5 78.0835 4.56315  11
   4  -3  -5 81.6964 4.64889   9
   4  -3  -5 79.5412 4.49720   1
   4  -3  -5 83.7870 4.42145   7
   4  -3  -5 86.5620 4.56619   6
   4  -3  -5 72.0869 4.30600   6
   4  -3  -5 83.7223 4.63027   1
  -4   3   5 76.7770 4.18669   7
  -4   3   5 79.7641 4.25053   8
  -4   3   5 69.4426 4.30526   1
  -4   3   5 75.4940 4.52415   6
  -4   3   5 80.2398 4.78029   1
  -4   3   5 87.1397 4.29552   5
  -4   3   5 79.0771 4.45627  11
   3  -3  -5 218.579 10.2766   7
   3  -3  -5 239.079 10.4473   1
   3  -3  -5 225.574 10.2885   9
   3  -3  -5 220.900 10.3407   1
   3  -3  -5 198.913 10.2084   6
   3  -3  -5 242.350 10.4029   6
   3  -3  -5 225.013 10.2654  11
  -3   3   5 236.615 10.0122   5
  -3   3   5 228.483 10.0725   8
  -3   3   5 215.653 10.3233   6
  -3   3   5 234.896 10.1754  11
  -3   3   5 222.355 10.4454   1
  -3   3   5 230.414 10.2790   1
  -3   3   5 223.364 10.1671   7
   2  -3  -5 137.340 6.89077   9
   2  -3  -5 140.039 6.90569   7
   2  -3  -5 157.263 7.07994   1
   2  -3  -5 142.182 6.81493  11
   2  -3  -5 156.732 6.99580   6
  -2   3   5 146.777 6.67473   8
  -2   3   5 145.131 6.70882  11
  -2   3   5 138.878 6.77830   7
  -2   3   5 150.364 6.52791   5
  -2   3   5 136.864 6.91244   6
  -2   3   5 143.882 6.83525   1
  -2   3   5 147.093 6.69928   3
  -2   3   5 138.595 7.03812   1
   1  -3  -5 134.168 6.56729   1
   1  -3  -5 147.911 6.71591   1
   1  -3  -5 150.395 6.68054   6
   1  -3  -5 132.307 6.50616   6
   1  -3  -5 138.960 6.39098  11
   1  -3  -5 133.002 6.61947   7
  -1   3   5 138.596 6.64177   6
  -1   3   5 141.973 6.29697  11
  -1   3   5 141.042 6.40774   8
  -1   3   5 121.926 6.48997   7
  -1   3   5 136.392 6.52754   1
  -1   3   5 138.489 6.71315   1
  -1   3   5 141.692 6.35011   3
   0  -3  -5 83.7017 4.19255   1
   0  -3  -5 73.6501 3.99823   6
   0  -3  -5 77.8719 4.04932   6
   0  -3  -5 74.2989 4.31299   7
   0  -3  -5 73.8620 4.12184   1
   0  -3  -5 75.0076 3.93438   8
   0   3   5 76.5610 3.79133   3
   0   3   5 66.0175 4.06180   7
   0   3   5 81.5220 4.03719   1
   0   3   5 78.9412 4.12114   6
   0   3   5 71.5466 3.66489   4
   0   3   5 76.3438 4.28359   1
   0   3   5 83.0449 3.92192   8
   0   3   5 71.9586 3.83829  10
  -1  -3  -5 11.5072 1.44522   6
  -1  -3  -5 13.9929 2.09430   1
  -1  -3  -5 11.6652 1.48099   6
  -1  -3  -5 11.7547 1.93133   7
  -1  -3  -5 12.0265 1.54581   1
  -1  -3  -5 10.9045 1.51228   8
   1   3   5 11.2157 1.66714   3
   1   3   5 10.9166 1.44101   6
   1   3   5 11.0268 1.48937   8
   1   3   5 10.3635 1.62190   7
   1   3   5 11.8773 1.63288   1
   1   3   5 12.3300 1.84162   1
  -2  -3  -5 35.4423 2.53933   1
  -2  -3  -5 35.9326 3.18923   7
  -2  -3  -5 35.0872 2.71183   8
  -2  -3  -5 33.2705 2.42403   1
   2   3   5 33.1527 2.31601   1
   2   3   5 35.4403 2.68074   8
   2   3   5 35.9190 2.99617   7
  -3  -3  -5 51.2702 3.97991   7
  -3  -3  -5 41.8402 3.84315   2
  -3  -3  -5 55.6465 3.66952   9
  -3  -3  -5 48.4345 3.56180   8
  -4  -3  -5 47.4985 4.52283   7
  -4  -3  -5 43.7319 4.56633   2
  -4  -3  -5 48.2496 4.13930   8
  -4  -3  -5 54.0405 4.34869   9
  -5  -3  -5 18.0596 3.68849   7
  -5  -3  -5 19.4087 3.06565   8
  -5  -3  -5 19.0145 2.58340   3
  -5  -3  -5 17.3714 3.71692   2
  -5  -3  -5 17.3817 3.02338   9
   8  -4  -5 20.6178 4.18911   1
   8  -4  -5 16.3447 3.44973   6
  -8   4   5 12.5311 2.51737   5
  -8   4   5 14.6391 3.73273   1
  -8   4   5 16.1283 2.97591   7
  -7   4   5 15.2263 2.23969   7
  -7   4   5 12.1884 2.24507   5
  -7   4   5 18.2692 3.02399   1
  -7   4   5 14.3079 3.56708   1
   6  -4  -5 -1.0173 2.00281   1
   6  -4  -5 2.23014 1.67581   1
   6  -4  -5 -0.8932 1.75482  11
   6  -4  -5 3.42216 1.82393   9
   6  -4  -5 2.05133 1.65818   6
   6  -4  -5 1.72939 1.64173   6
  -6   4   5 5.94807 2.16900   1
  -6   4   5 2.63287 1.54757   8
  -6   4   5 2.02372 1.56041   5
   5  -4  -5 6.54916 1.83099   1
   5  -4  -5 2.37969 1.72963   1
   5  -4  -5 2.43291 1.65306   6
   5  -4  -5 5.98107 1.75621  11
   5  -4  -5 4.58071 1.69679   9
   5  -4  -5 5.15946 1.67702   6
  -5   4   5 2.66445 1.45270  11
  -5   4   5 5.62386 1.49888   5
  -5   4   5 5.54280 1.63920   6
  -5   4   5 6.47506 1.43784   8
  -5   4   5 6.40288 1.78111   1
  -5   4   5 2.34370 1.80803   1
   4  -4  -5 0.53894 1.48768   6
   4  -4  -5 2.25223 1.50498  11
   4  -4  -5 3.93399 1.39581   7
   4  -4  -5 1.66170 1.65638   1
   4  -4  -5 1.41990 1.44808   9
   4  -4  -5 1.11121 1.30785   1
  -4   4   5 3.69934 1.46321   1
  -4   4   5 2.16861 1.58250   6
  -4   4   5 0.99540 1.76672   1
  -4   4   5 3.62502 1.18152   5
  -4   4   5 2.70712 1.23937  11
  -4   4   5 2.94494 1.42919   8
   3  -4  -5 57.5036 3.88850   9
   3  -4  -5 54.6818 3.64719   7
   3  -4  -5 60.4504 3.85680  11
   3  -4  -5 66.0957 3.87145   6
   3  -4  -5 62.2632 4.02443   1
   3  -4  -5 60.1263 3.76044   1
  -3   4   5 57.0019 3.85983   6
  -3   4   5 57.4961 3.67284  11
  -3   4   5 62.4259 3.49718   5
  -3   4   5 59.6966 3.51182   8
  -3   4   5 63.9094 3.69983   3
  -3   4   5 58.9902 4.21767   1
  -3   4   5 55.6083 3.43608   7
  -3   4   5 64.4967 3.67232   1
   2  -4  -5 68.3924 3.85477   6
   2  -4  -5 61.4071 3.92935   9
   2  -4  -5 61.3599 3.66324   1
   2  -4  -5 61.1999 3.71357  11
   2  -4  -5 56.1500 3.64873   7
   2  -4  -5 66.0570 4.02215   1
  -2   4   5 64.4686 4.19490   1
  -2   4   5 61.9158 3.28364   5
  -2   4   5 64.8868 3.53532   8
  -2   4   5 54.1572 3.49070   1
  -2   4   5 57.8007 3.78698   6
  -2   4   5 58.5297 3.47540   7
  -2   4   5 62.2420 3.55156  11
  -2   4   5 64.1259 3.62396   3
   1  -4  -5 56.5640 3.64637   1
   1  -4  -5 56.6551 3.31369  11
   1  -4  -5 51.4837 3.25965   1
   1  -4  -5 49.7388 3.32190   7
   1  -4  -5 53.9684 3.46940   6
  -1   4   5 55.9460 3.22637   3
  -1   4   5 50.9537 3.13649   7
  -1   4   5 49.3295 3.72078   1
  -1   4   5 48.7122 3.40796   6
  -1   4   5 55.7866 3.15758  11
  -1   4   5 51.2535 3.24179   8
  -1   4   5 54.4491 3.12410   1
   0  -4  -5 6.48680 1.56434   7
   0  -4  -5 7.96526 1.52069   1
   0  -4  -5 7.60624 1.44214   8
   0  -4  -5 7.85891 1.64248   1
   0  -4  -5 8.87410 1.57943   6
   0   4   5 7.95819 1.32248   3
   0   4   5 6.56173 0.96432   4
   0   4   5 6.90098 1.49536   6
   0   4   5 6.75757 1.38745   1
   0   4   5 6.92284 1.70656   1
   0   4   5 4.88291 1.33785   7
   0   4   5 10.1071 1.42128   4
   0   4   5 8.19962 1.41149   8
  -1  -4  -5 28.6565 2.47458   6
  -1  -4  -5 26.7581 2.68739   1
  -1  -4  -5 26.6669 2.79831   7
  -1  -4  -5 24.3207 2.51101   6
  -1  -4  -5 36.3178 2.74053   1
  -1  -4  -5 27.8902 2.60223   8
   1   4   5 27.0183 2.48674   7
   1   4   5 29.0292 2.80515   1
   1   4   5 28.7423 2.40665   3
   1   4   5 31.4979 2.55334   6
   1   4   5 30.6559 2.68516   8
  -2  -4  -5 36.1229 2.67673   6
  -2  -4  -5 41.7937 2.79297   6
  -2  -4  -5 39.5004 2.84058   1
  -2  -4  -5 43.3995 3.12216   8
  -2  -4  -5 41.4473 2.92839   1
  -2  -4  -5 40.1353 3.50923   7
   2   4   5 40.6750 4.32932   1
   2   4   5 37.8403 3.66853   6
   2   4   5 42.6958 3.10082   8
   2   4   5 43.4372 2.82753   3
   2   4   5 43.3278 2.71389   1
   2   4   5 40.5636 3.25090   7
  -3  -4  -5 74.8420 4.55703   8
  -3  -4  -5 74.8236 4.81070   7
  -3  -4  -5 67.5543 4.08861   3
  -4  -4  -5 51.6999 4.74887   2
  -4  -4  -5 45.5209 4.40295   8
  -4  -4  -5 59.4922 4.71258   9
  -4  -4  -5 50.2507 4.78906   7
  -4  -4  -5 47.7155 3.83733   3
  -5  -4  -5 2.80223 3.26141   8
  -5  -4  -5 2.72726 3.50019   7
  -5  -4  -5 0.53065 2.42020   3
  -5  -4  -5 3.15120 3.07855   9
  -5  -4  -5 10.0420 3.62903   2
   8  -5  -5 8.59952 3.36643   6
   8  -5  -5 9.45480 4.11998   1
  -8   5   5 8.29173 2.62665   5
  -8   5   5 13.8801 3.68818   1
  -8   5   5 11.6561 3.51491   7
   7  -5  -5 7.12485 3.43082   1
   7  -5  -5 8.81281 2.81415   6
  -7   5   5 7.87610 2.27394   7
  -7   5   5 6.45902 2.08827   6
  -7   5   5 9.87293 2.87878   1
  -7   5   5 6.04293 2.35042   1
  -7   5   5 8.11558 2.27079   5
   6  -5  -5 44.5334 3.63924   6
   6  -5  -5 49.1321 4.05372   1
   6  -5  -5 30.7945 4.43325   9
   6  -5  -5 44.9648 3.67264   7
   6  -5  -5 47.1123 4.13932  11
  -6   5   5 51.4883 3.80463   5
  -6   5   5 45.7726 3.61432   7
  -6   5   5 55.1688 4.32592   1
  -6   5   5 34.9689 3.57476   6
  -6   5   5 32.7486 4.10499   1
   5  -5  -5 25.5370 3.36397  11
   5  -5  -5 28.0503 2.97719   6
   5  -5  -5 20.6301 3.15220   9
   5  -5  -5 29.6593 3.34809   1
  -5   5   5 21.9634 2.89088  11
  -5   5   5 32.7034 3.22558   1
  -5   5   5 24.0196 2.74277   8
  -5   5   5 28.5761 3.08289   5
   4  -5  -5 15.2912 2.23434  11
   4  -5  -5 17.5428 2.37114   6
   4  -5  -5 14.9702 2.18167   1
   4  -5  -5 18.7828 2.32156   1
   4  -5  -5 13.6368 2.21307   9
  -4   5   5 17.1088 1.98370   5
  -4   5   5 14.4388 2.00205   6
  -4   5   5 14.3531 1.99735  11
  -4   5   5 20.5878 2.37553   1
  -4   5   5 16.8749 2.50304   1
  -4   5   5 19.1559 2.37305   8
   3  -5  -5 21.7170 2.55462   1
   3  -5  -5 21.5709 2.77569   6
   3  -5  -5 18.7438 2.93301   9
   3  -5  -5 28.6578 3.14146   1
   3  -5  -5 24.8113 2.99162  11
  -3   5   5 19.2807 2.45509   6
  -3   5   5 21.4817 2.61716  11
  -3   5   5 20.5739 2.33876   5
  -3   5   5 22.3196 2.19031   1
  -3   5   5 21.2142 2.42895   8
  -3   5   5 21.1511 3.21436   1
  -3   5   5 20.1359 2.44086   7
  -3   5   5 22.8390 2.61825   3
   2  -5  -5 10.4229 1.79729   6
   2  -5  -5 13.8950 2.05940   1
   2  -5  -5 7.57686 1.76088  11
   2  -5  -5 9.96831 1.73721   1
  -2   5   5 11.8915 1.47836   4
  -2   5   5 9.15038 1.42181   5
  -2   5   5 9.66654 2.02825   1
  -2   5   5 11.5382 1.67440   3
  -2   5   5 8.21362 1.52580   8
  -2   5   5 8.96537 1.74521   6
  -2   5   5 9.86519 1.59970  11
  -2   5   5 10.8942 1.53209   7
  -2   5   5 12.4292 1.88866   1
   1  -5  -5 15.3821 2.08554   6
   1  -5  -5 11.2030 1.70106  11
   1  -5  -5 16.7207 2.11542   7
   1  -5  -5 14.4976 2.00755   1
   1  -5  -5 14.3143 2.11164   1
  -1   5   5 10.2551 1.99962   1
  -1   5   5 12.3006 1.64168   8
  -1   5   5 11.2002 1.67143  11
  -1   5   5 12.0103 1.45458   4
  -1   5   5 11.5585 1.50033   1
  -1   5   5 9.70499 1.43918   7
  -1   5   5 10.3514 1.76672   6
  -1   5   5 10.9820 1.72881   3
   0  -5  -5 7.72502 1.56339   8
   0  -5  -5 7.16853 1.66002   1
   0  -5  -5 5.86612 1.67697   7
   0  -5  -5 5.66375 1.48016  11
   0  -5  -5 6.82031 1.72091   1
   0  -5  -5 7.74877 1.63043   6
   0   5   5 7.02591 1.36968   7
   0   5   5 5.12831 1.30882   1
   0   5   5 5.32144 1.49132   3
   0   5   5 5.61987 1.59421   6
   0   5   5 7.99135 1.03978   4
   0   5   5 6.10387 1.75317   1
   0   5   5 5.49795 1.48452   8
  -1  -5  -5 6.40277 1.72546   7
  -1  -5  -5 5.18661 1.65787   1
  -1  -5  -5 5.76168 1.62357   1
  -1  -5  -5 4.43594 1.53809   6
  -1  -5  -5 3.70637 1.60795   8
   1   5   5 4.96628 1.59934   8
   1   5   5 3.12599 1.37271   1
   1   5   5 6.37727 1.48669   7
   1   5   5 5.31704 1.60053   6
   1   5   5 4.75488 1.77181   1
   1   5   5 6.84112 1.63683   3
  -2  -5  -5 7.88370 1.89477   8
  -2  -5  -5 10.7539 1.74526   1
  -2  -5  -5 8.78770 2.05870   7
  -2  -5  -5 6.39331 1.57956   6
  -2  -5  -5 5.78295 1.76542   1
   2   5   5 6.38650 1.47700   1
   2   5   5 6.07754 1.81761   7
   2   5   5 5.83915 1.82723   1
   2   5   5 5.44226 1.56668   6
   2   5   5 6.90781 1.84875   8
   2   5   5 8.42180 1.73390   3
  -3  -5  -5 96.5529 5.81252   7
  -3  -5  -5 98.3162 5.05157   1
  -3  -5  -5 88.6526 5.36658   3
  -3  -5  -5 94.9369 5.62779   8
   3   5   5 101.025 5.58249   8
   3   5   5 109.885 5.41699   3
   3   5   5 106.645 5.14906   1
  -4  -5  -5 53.8612 4.87462   7
  -4  -5  -5 45.9694 4.67957   8
  -4  -5  -5 53.0188 4.11554   3
  -5  -5  -5 1.91728 3.76756   7
  -5  -5  -5 8.86171 3.46568   2
  -5  -5  -5 2.17751 2.76036   3
  -5  -5  -5 5.68953 3.19067   8
  -5  -5  -5 6.01001 3.39309   9
   7  -6  -5 5.40927 3.38911   1
   7  -6  -5 0.27496 2.95361   6
  -7   6   5 8.66637 2.92241   7
  -7   6   5 -2.9328 3.44686   1
  -7   6   5 2.00160 2.23669   6
  -7   6   5 4.05144 2.32897   5
  -7   6   5 -2.5181 3.09561   1
   6  -6  -5 25.6301 3.71103   1
   6  -6  -5 31.8155 4.02409   1
   6  -6  -5 24.1010 3.51326   6
   6  -6  -5 27.5474 3.74510   7
   6  -6  -5 20.8544 3.82855  11
  -6   6   5 26.2300 3.33150   1
  -6   6   5 21.0812 2.90282   5
  -6   6   5 25.5810 3.24495   1
  -6   6   5 27.1084 3.07256   7
  -6   6   5 26.2885 3.13030   6
  -6   6   5 23.6927 2.90488   4
   5  -6  -5 17.6672 2.64791   9
   5  -6  -5 21.5076 2.76949  11
   5  -6  -5 29.1502 3.89517   1
   5  -6  -5 25.5894 3.14648   7
   5  -6  -5 26.2389 3.39694   6
  -5   6   5 26.1447 3.52079   1
  -5   6   5 26.1783 3.49014   7
  -5   6   5 22.1298 3.13613  11
  -5   6   5 21.4359 2.57577   5
  -5   6   5 30.6335 2.93824   8
  -5   6   5 25.6140 2.76813   4
   4  -6  -5 41.8688 3.89966   1
   4  -6  -5 34.6583 3.58136   9
   4  -6  -5 38.9196 3.81781  11
   4  -6  -5 38.1715 3.54666   6
  -4   6   5 38.0093 3.20611   1
  -4   6   5 33.1582 3.22241   5
  -4   6   5 32.5420 3.45929   6
  -4   6   5 35.6102 3.03801   8
  -4   6   5 35.4668 3.48268   4
  -4   6   5 33.2912 4.06588   1
  -4   6   5 35.6897 3.39461   3
  -4   6   5 36.8230 3.27365  11
   3  -6  -5 -0.6807 1.63781   9
   3  -6  -5 1.75992 1.79831   6
   3  -6  -5 -1.1415 1.79169   1
   3  -6  -5 -1.1401 1.80448  11
  -3   6   5 2.66338 1.60335   6
  -3   6   5 -0.7061 1.17829   1
  -3   6   5 1.05085 1.36468   5
  -3   6   5 1.35530 1.50983   4
  -3   6   5 0.56160 1.56764   3
  -3   6   5 2.71402 1.95572   1
  -3   6   5 -1.1717 1.45547   8
  -3   6   5 0.78617 1.46512  11
   2  -6  -5 -1.0597 1.78096   1
   2  -6  -5 -0.3793 1.65113  11
   2  -6  -5 -0.9678 1.72722   6
   2  -6  -5 -0.0601 1.40099   5
  -2   6   5 2.24155 1.83974   1
  -2   6   5 -0.1424 1.32788  11
  -2   6   5 1.89196 1.50298   3
  -2   6   5 1.20530 1.30706   4
  -2   6   5 -0.5825 1.50021   6
  -2   6   5 0.58285 1.18477   5
  -2   6   5 0.26237 1.13120   1
  -2   6   5 1.79747 1.39669   8
   1  -6  -5 31.2686 2.62112   1
   1  -6  -5 30.3875 3.14360  11
   1  -6  -5 33.6245 3.43124   1
   1  -6  -5 33.2837 3.18050   6
   1  -6  -5 28.7093 2.71079   5
  -1   6   5 32.4790 2.96565   6
  -1   6   5 34.7329 2.67730   4
  -1   6   5 35.9856 3.52040   1
  -1   6   5 32.7069 2.95132   8
  -1   6   5 26.3438 2.48585   1
  -1   6   5 29.2903 2.87317   3
   0  -6  -5 22.4596 2.77647  11
   0  -6  -5 28.7291 2.93335   6
   0  -6  -5 23.5896 2.43919   7
   0  -6  -5 30.0487 2.73224   1
   0  -6  -5 26.1269 2.89091   8
   0   6   5 24.6000 2.17992   4
   0   6   5 28.9267 2.86456   6
   0   6   5 28.9877 2.89521   8
   0   6   5 30.2725 2.34240  10
   0   6   5 31.6836 3.37794   1
   0   6   5 27.5065 2.91160   3
  -1  -6  -5 0.33950 1.49375  11
  -1  -6  -5 0.70279 1.77443   1
  -1  -6  -5 1.40198 1.63483   7
  -1  -6  -5 5.08904 1.87384   6
  -1  -6  -5 3.94261 1.72353   1
  -1  -6  -5 3.08869 1.69723   8
   1   6   5 5.03311 1.65432   6
   1   6   5 5.40026 1.90923   1
   1   6   5 3.57356 1.78400   8
   1   6   5 3.96418 1.47900   1
   1   6   5 2.83952 1.69621   3
   1   6   5 4.48417 1.61626   7
  -2  -6  -5 7.30022 2.00493   1
  -2  -6  -5 11.9668 2.16955   8
  -2  -6  -5 7.91591 1.92299   1
  -2  -6  -5 7.78451 1.87173   6
  -2  -6  -5 12.2595 2.22952   7
   2   6   5 9.65231 1.74067   1
   2   6   5 7.41295 1.88376   6
   2   6   5 13.2763 2.14570   8
   2   6   5 6.52030 2.05675   1
   2   6   5 11.0638 1.99711   7
   2   6   5 11.8238 2.17917   3
  -3  -6  -5 17.7460 2.60894   3
  -3  -6  -5 22.9948 2.68546   8
  -3  -6  -5 24.4813 2.89622   7
  -3  -6  -5 19.9293 2.77453   6
  -3  -6  -5 21.7626 3.24169   1
  -3  -6  -5 27.6674 3.08525   1
   3   6   5 18.3702 2.19380   1
   3   6   5 36.7118 5.17743   1
   3   6   5 28.5306 3.63597   6
   3   6   5 24.0812 3.56079   3
   3   6   5 33.0074 3.82137   8
  -4  -6  -5 18.1286 3.16675   8
  -4  -6  -5 16.8289 3.28445   7
  -4  -6  -5 16.1362 2.66965   3
   6  -7  -5 4.02698 3.47573   1
   6  -7  -5 3.78256 3.12167  11
   6  -7  -5 3.64412 2.77795   7
   6  -7  -5 8.58487 2.70470   1
   6  -7  -5 6.58655 2.55592   6
  -6   7   5 2.97531 2.31781   5
  -6   7   5 -0.0328 3.80896   3
  -6   7   5 3.09607 2.87237   1
  -6   7   5 10.5837 2.84411   7
  -6   7   5 10.3408 3.02457   1
  -6   7   5 5.02737 2.09473   6
   5  -7  -5 19.3838 2.72283   1
   5  -7  -5 19.5667 2.71972   7
   5  -7  -5 13.9624 2.64634  11
   5  -7  -5 14.0380 3.09726   1
   5  -7  -5 21.8526 3.05423   6
  -5   7   5 20.1825 2.58888   7
  -5   7   5 10.6844 2.83799   1
  -5   7   5 13.0710 2.40743   3
  -5   7   5 11.9825 2.47895   6
  -5   7   5 12.7723 2.40908   5
  -5   7   5 14.2552 2.23553  11
  -5   7   5 17.3082 2.41540   4
   4  -7  -5 5.97468 2.31920  11
   4  -7  -5 5.29537 2.06282   9
   4  -7  -5 9.43441 2.13403   1
   4  -7  -5 11.4920 2.45793   1
   4  -7  -5 11.3455 2.09030   7
   4  -7  -5 10.1104 2.28860   5
   4  -7  -5 14.2733 2.58148   6
  -4   7   5 7.95295 1.96165   5
  -4   7   5 10.3126 2.01144  11
  -4   7   5 12.4785 1.98599   1
  -4   7   5 11.2997 2.01977   4
  -4   7   5 9.54824 1.94736   8
  -4   7   5 6.47968 2.14540   3
   3  -7  -5 4.65723 1.92041   5
   3  -7  -5 1.63721 2.04915  11
   3  -7  -5 5.34806 2.06695   6
   3  -7  -5 -0.6771 1.87071   9
   3  -7  -5 5.06582 2.03857   1
  -3   7   5 3.05483 1.71543   4
  -3   7   5 4.32736 2.29540   1
  -3   7   5 2.74274 1.69477  11
  -3   7   5 4.59300 1.83274   3
  -3   7   5 0.59034 1.67646   5
  -3   7   5 2.32650 1.86518   6
  -3   7   5 2.77413 1.55294   8
   2  -7  -5 23.5698 3.22872   5
   2  -7  -5 25.1491 3.37743  11
   2  -7  -5 24.7214 3.36503   6
   2  -7  -5 34.1462 3.60550   1
  -2   7   5 27.4750 2.96975   8
  -2   7   5 28.0379 3.15348   3
  -2   7   5 25.4255 3.08718  11
  -2   7   5 19.6796 2.57893   1
  -2   7   5 26.7801 3.15098   4
  -2   7   5 22.2544 3.08564   6
  -2   7   5 23.3485 3.11655   1
   1  -7  -5 58.6343 4.27506   1
   1  -7  -5 44.9432 3.81314   8
   1  -7  -5 37.2495 3.85923  11
   1  -7  -5 60.5832 4.01894   6
   1  -7  -5 46.1957 3.65174   5
  -1   7   5 50.9984 3.49824  10
  -1   7   5 54.4016 3.75744   8
  -1   7   5 53.1003 3.48338   4
  -1   7   5 44.8308 3.82241   6
  -1   7   5 47.9723 3.67416   3
  -1   7   5 44.5514 4.40357   1
   0  -7  -5 26.7862 3.16692   8
   0  -7  -5 24.1109 2.98391   5
   0  -7  -5 31.7026 2.99284   1
   0  -7  -5 34.2942 3.31441   6
   0  -7  -5 32.5718 3.65414   1
   0  -7  -5 24.6620 3.33846  11
   0   7   5 25.6520 3.31879   3
   0   7   5 32.5713 2.62637  10
   0   7   5 29.8377 3.82794   1
   0   7   5 33.4943 3.26701   8
   0   7   5 30.1180 2.71802   1
   0   7   5 29.3787 3.27275   6
   0   7   5 31.2587 2.53585   4
  -1  -7  -5 7.24399 1.89096   7
  -1  -7  -5 10.8252 2.29168   8
  -1  -7  -5 7.67206 2.21417   1
  -1  -7  -5 7.02297 2.02272  11
  -1  -7  -5 7.81761 2.06062   1
  -1  -7  -5 6.21446 2.08394   6
   1   7   5 8.75405 2.16068   3
   1   7   5 8.98918 2.23227   8
   1   7   5 10.4711 1.77875   1
   1   7   5 9.27962 2.01034   6
   1   7   5 8.85044 2.35001   1
  -2  -7  -5 8.95870 2.09665   7
  -2  -7  -5 4.13823 2.04678   8
  -2  -7  -5 8.47472 2.05022   6
  -2  -7  -5 5.19820 2.01925   1
  -2  -7  -5 9.36041 2.12228   1
  -2  -7  -5 7.23669 1.91537  11
   2   7   5 3.94432 1.86401   6
   2   7   5 2.01408 2.15623   3
   2   7   5 13.0825 3.98732   7
   2   7   5 3.52129 1.84318   1
   2   7   5 10.7110 2.43347   1
   2   7   5 7.74415 2.45544   8
  -3  -7  -5 -1.4033 2.07155   1
  -3  -7  -5 -4.4162 2.27608   3
  -3  -7  -5 1.43513 2.26885   7
  -3  -7  -5 1.47837 2.39953   8
  -3  -7  -5 2.22516 2.21779   1
  -3  -7  -5 -1.4114 2.02244   6
   3   7   5 -1.4456 2.39353   8
   3   7   5 -4.5166 1.84040   1
   3   7   5 0.51522 1.84124   6
   3   7   5 -0.3501 2.49031   3
   3   7   5 0.63272 2.13527   1
  -4  -7  -5 2.45771 3.22152   8
  -4  -7  -5 6.14036 2.95511   3
  -4  -7  -5 1.97745 2.32155   1
  -4  -7  -5 2.62136 2.35399   1
  -4  -7  -5 4.96003 3.07215   7
   4   7   5 -5.2727 2.96069   3
   4   7   5 7.43159 2.41161   1
   4   7   5 -0.0254 2.89314   8
   4   7   5 2.83484 2.05590   1
   6  -8  -5 2.32234 3.31042   7
   6  -8  -5 3.67946 3.96761   1
   6  -8  -5 4.91772 3.27577   6
  -6   8   5 7.39711 2.71320   4
  -6   8   5 -0.1544 3.43830   1
  -6   8   5 11.6116 3.64417   7
   5  -8  -5 9.22423 2.93738   6
   5  -8  -5 8.21224 2.94093   1
   5  -8  -5 13.5525 3.08130   1
   5  -8  -5 8.10475 2.89277   7
   5  -8  -5 3.78369 2.76943  11
  -5   8   5 5.43126 2.48742   5
  -5   8   5 6.92235 2.41708   6
  -5   8   5 0.65248 2.64737   7
  -5   8   5 8.99260 2.94687   1
  -5   8   5 10.8526 2.47366   4
  -5   8   5 4.53867 2.60213  11
  -5   8   5 0.98009 2.70207   1
  -5   8   5 3.98687 2.79158   3
   4  -8  -5 6.76988 2.52280   5
   4  -8  -5 7.86438 2.68505   1
   4  -8  -5 -2.5330 2.41845  11
   4  -8  -5 3.65196 2.40176   7
   4  -8  -5 0.96305 2.10833   9
   4  -8  -5 2.12719 2.67028   6
   4  -8  -5 4.95325 2.59059   1
  -4   8   5 10.0287 2.30079   7
  -4   8   5 3.91294 2.22220  10
  -4   8   5 3.19138 2.13383   4
  -4   8   5 4.03427 2.14218   3
  -4   8   5 3.86727 1.87771   8
  -4   8   5 10.8115 2.72980   1
  -4   8   5 2.26590 2.10875  11
  -4   8   5 0.61124 2.20695   1
  -4   8   5 4.79829 2.16623   5
  -4   8   5 5.91291 2.27593   6
   3  -8  -5 19.3167 3.02807   1
   3  -8  -5 12.1608 2.58214   9
   3  -8  -5 14.8617 2.52377   5
   3  -8  -5 18.1459 3.11753   6
   3  -8  -5 11.0744 2.61502  11
   3  -8  -5 20.2428 2.50125   7
  -3   8   5 17.9683 2.61810  11
  -3   8   5 16.7008 2.47332   4
  -3   8   5 24.7021 3.61733  10
  -3   8   5 17.6827 2.33391   8
  -3   8   5 16.7168 2.35014   5
   2  -8  -5 9.80493 2.28916   5
   2  -8  -5 14.9428 2.67185   6
   2  -8  -5 8.07449 2.27532  11
   2  -8  -5 8.51346 2.71754   1
  -2   8   5 7.63790 2.11918   8
  -2   8   5 11.2858 2.10096  10
  -2   8   5 9.18830 2.39495   3
  -2   8   5 8.09257 2.06394   4
  -2   8   5 7.90077 2.70509   1
  -2   8   5 9.78961 2.12118  11
  -2   8   5 13.1446 2.59936   6
   1  -8  -5 35.8584 4.23580   1
   1  -8  -5 36.9080 3.95413   6
   1  -8  -5 25.6967 3.56636   8
   1  -8  -5 28.3632 3.71954   5
   1  -8  -5 32.2317 3.90556  11
  -1   8   5 32.7424 3.35013   4
  -1   8   5 35.3834 3.25447  10
  -1   8   5 34.4304 3.69917   6
  -1   8   5 38.7180 4.36895   1
  -1   8   5 40.4768 3.79929   3
  -1   8   5 47.4780 3.72973   8
   0  -8  -5 3.98782 1.98669   8
   0  -8  -5 4.32945 1.88892   1
   0  -8  -5 1.66574 2.10293  11
   0  -8  -5 4.22512 2.26957   6
   0  -8  -5 7.33639 2.46731   1
   0  -8  -5 0.97499 1.84110   5
   0   8   5 4.39206 1.55118   4
   0   8   5 3.63298 2.43663   1
   0   8   5 3.53502 2.06085   6
   0   8   5 3.13592 2.06788   3
   0   8   5 0.60221 1.56279   1
   0   8   5 5.87255 2.10343   8
   0   8   5 2.17399 1.52308  10
  -1  -8  -5 7.28599 2.42485   6
  -1  -8  -5 9.81280 2.19633   1
  -1  -8  -5 4.23992 2.13090   8
  -1  -8  -5 9.53654 2.61001   1
  -1  -8  -5 8.18858 2.31547  11
  -1  -8  -5 8.50648 1.94882   5
   1   8   5 9.51047 2.66864   1
   1   8   5 6.57798 2.24191   6
   1   8   5 8.12623 1.95161   1
   1   8   5 5.58258 2.35326   3
   1   8   5 4.82381 2.25522   8
   1   8   5 7.67545 1.33373  10
  -2  -8  -5 2.14767 2.30379   6
  -2  -8  -5 3.37799 2.21636   1
  -2  -8  -5 7.27863 2.41872   1
  -2  -8  -5 4.37789 2.22015  11
  -2  -8  -5 4.08923 2.31526   8
   2   8   5 1.01939 2.63166   3
   2   8   5 1.74770 1.98744   1
   2   8   5 0.35006 2.12900   6
   2   8   5 0.40999 2.56323   1
   2   8   5 4.10123 2.58168   8
  -3  -8  -5 -0.4183 2.74377   3
  -3  -8  -5 5.06059 2.54988   7
  -3  -8  -5 -1.8591 2.58916   1
  -3  -8  -5 -4.6062 2.62469   8
  -3  -8  -5 3.22881 2.45060  11
  -3  -8  -5 -3.0470 2.65529   1
  -3  -8  -5 1.39918 2.53287   6
   3   8   5 2.29836 2.76116   8
   3   8   5 -0.0622 2.75256   1
   3   8   5 -1.6480 2.23758   1
   3   8   5 -1.4061 2.98192   3
   3   8   5 -1.4905 2.09882   6
  -4  -8  -5 0.16058 3.39758   8
  -4  -8  -5 3.89807 3.40618   3
  -4  -8  -5 6.82400 3.31813   7
   4   8   5 1.89711 3.55651   8
   4   8   5 4.35422 3.32023   3
   4  -9  -5 3.52113 3.17274   1
   4  -9  -5 3.38703 2.75738   7
   4  -9  -5 1.34128 2.94979   5
   4  -9  -5 -0.5498 3.00857  11
   4  -9  -5 2.78861 3.01995   1
   4  -9  -5 6.18268 3.22330   6
  -4   9   5 6.15797 2.64502  11
  -4   9   5 4.58562 3.35845   1
  -4   9   5 -0.4659 2.38003   5
  -4   9   5 4.37285 2.56158   3
  -4   9   5 5.10533 2.48240   1
  -4   9   5 5.09821 2.65541  10
  -4   9   5 7.32204 2.55891   6
  -4   9   5 4.63441 2.58196   4
  -4   9   5 7.95000 2.72704   7
   3  -9  -5 2.97383 2.89873  11
   3  -9  -5 9.04386 2.55880   7
   3  -9  -5 1.78118 2.66502   1
   3  -9  -5 4.59716 2.68127   5
   3  -9  -5 0.89906 2.51005   9
   3  -9  -5 11.2498 2.93549   1
   3  -9  -5 1.03535 2.56821   6
  -3   9   5 2.71953 2.47475   6
  -3   9   5 2.01792 2.21365   7
  -3   9   5 2.77622 2.47057   3
  -3   9   5 -1.2654 2.24417   4
  -3   9   5 0.30631 2.25625  11
  -3   9   5 7.36334 2.33177  10
  -3   9   5 1.73095 3.11569   1
  -3   9   5 4.73982 2.31466   8
   2  -9  -5 7.42840 2.13348   7
   2  -9  -5 7.57109 2.81429   6
   2  -9  -5 1.15332 2.71224  11
   2  -9  -5 3.41150 2.84883   1
   2  -9  -5 6.74181 2.62415   5
  -2   9   5 3.10506 2.10875   6
  -2   9   5 5.09598 2.34266   8
  -2   9   5 3.43421 2.46879   3
  -2   9   5 3.08359 2.07579  10
  -2   9   5 1.89296 2.64118   1
  -2   9   5 4.70448 2.20492   4
   1  -9  -5 9.28621 2.90611   1
   1  -9  -5 3.62106 2.34866   8
   1  -9  -5 4.68774 2.59491  11
   1  -9  -5 7.04448 2.70183   6
   1  -9  -5 6.12986 2.43571   5
  -1   9   5 8.87354 2.38352   8
  -1   9   5 7.63319 2.73818   1
  -1   9   5 8.38435 2.33091   6
  -1   9   5 11.0553 2.66112   3
  -1   9   5 4.16794 2.03712  10
  -1   9   5 6.06893 2.01745   4
   0  -9  -5 5.45175 2.40950   8
   0  -9  -5 5.31656 2.34133   5
   0  -9  -5 5.23772 2.48318  11
   0  -9  -5 5.01785 2.67037   6
   0  -9  -5 9.55028 2.95911   1
   0   9   5 7.50544 2.91992   1
   0   9   5 6.41455 1.86806   4
   0   9   5 6.69309 2.85289   1
   0   9   5 5.23246 2.48103   3
   0   9   5 3.77872 2.53784   6
   0   9   5 6.74994 1.82090  10
   0   9   5 8.61919 2.49477   8
  -1  -9  -5 16.0723 2.75615  11
  -1  -9  -5 16.4122 2.53526   5
  -1  -9  -5 16.9468 2.90673   6
  -1  -9  -5 17.3997 2.66471   1
  -1  -9  -5 15.9706 2.66511   8
  -1  -9  -5 10.6259 2.99759   1
   1   9   5 20.7340 2.69303   4
   1   9   5 14.6925 3.28188   1
   1   9   5 12.0949 2.93968   3
   1   9   5 12.4996 2.89572   6
   1   9   5 15.7393 2.80797   8
   1   9   5 15.5019 1.82806  10
   1   9   5 10.5921 2.36664   1
  -2  -9  -5 2.92036 2.68506  11
  -2  -9  -5 1.08006 2.66263   1
  -2  -9  -5 2.23766 2.73301   6
  -2  -9  -5 3.44176 2.94659   1
  -2  -9  -5 2.23366 2.21515   5
  -2  -9  -5 4.35812 2.56145   8
   2   9   5 1.20492 2.85600   1
   2   9   5 4.18393 3.08318   8
   2   9   5 -1.1558 2.95569   3
   2   9   5 -3.2520 2.31326   1
   2   9   5 0.84306 2.47080   6
  -3  -9  -5 7.74998 3.12612   8
  -3  -9  -5 4.63075 3.05690  11
  -3  -9  -5 8.34668 2.99037   1
  -3  -9  -5 5.99413 3.07000   6
  -3  -9  -5 2.72414 3.21725   1
  -3  -9  -5 2.56509 3.19378   3
   3   9   5 2.08873 3.54312   1
   3   9   5 4.92778 3.33242   8
   3   9   5 3.86334 2.84513   1
   3   9   5 7.88037 3.50023   3
   3   9   5 1.48083 2.79730   6
   3 -10  -5 -0.5352 3.53410   1
   3 -10  -5 7.19975 3.05276   7
   3 -10  -5 -0.5385 3.60291   6
   3 -10  -5 4.84739 3.24506  11
   3 -10  -5 1.67370 3.12202   5
  -3  10   5 1.57803 2.80615   6
  -3  10   5 -2.3030 2.74991  10
  -3  10   5 0.40213 2.86348   4
  -3  10   5 -1.8017 3.35611   1
   2 -10  -5 -1.8671 3.05312   6
   2 -10  -5 5.36109 2.62888   7
   2 -10  -5 4.81257 3.46859   1
   2 -10  -5 -0.8064 2.77781   5
   2 -10  -5 -2.2205 2.92777  11
  -2  10   5 5.41247 2.78322   6
  -2  10   5 1.25275 2.36857   4
  -2  10   5 4.08443 2.78958   8
  -2  10   5 2.22700 3.30921   1
  -2  10   5 -0.4612 2.51602  10
  -2  10   5 -1.6195 2.57899   3
   1 -10  -5 2.86191 3.07555   6
   1 -10  -5 -1.7138 2.94421  11
   1 -10  -5 0.18454 2.72043   5
   1 -10  -5 -3.2308 3.20860   1
  -1  10   5 2.14593 3.09344   1
  -1  10   5 -3.3302 2.65341   6
  -1  10   5 2.10292 2.73255   8
  -1  10   5 4.15089 2.20437   4
  -1  10   5 1.45234 2.90741   3
  -1  10   5 1.32695 2.25307  10
   0 -10  -5 8.52496 2.67842   8
   0 -10  -5 9.46022 3.28502   6
   0 -10  -5 7.39987 2.86572   5
   0 -10  -5 15.4834 3.69399   1
   0 -10  -5 9.41016 3.11315  11
   0  10   5 10.4119 3.17791   6
   0  10   5 6.25918 3.44301   1
   0  10   5 8.39697 2.18452   4
   0  10   5 9.86429 3.42628   3
   0  10   5 7.84331 2.29230  10
   0  10   5 11.2713 2.93930   8
  -1 -10  -5 3.75067 2.84554  11
  -1 -10  -5 -1.6926 2.95848   6
  -1 -10  -5 -0.9186 2.69199   5
  -1 -10  -5 -0.2468 2.53729   1
  -1 -10  -5 -2.0500 2.51467   8
  -1 -10  -5 3.72591 3.13465   1
   1  10   5 -0.8267 3.52446   1
   1  10   5 -4.9122 2.78807   3
   1  10   5 4.02071 1.92903   4
   1  10   5 3.00068 3.13518   6
   1  10   5 -2.0309 1.88215  10
   1  10   5 3.12135 3.03575   8
  -2 -10  -5 12.9297 3.70059   6
  -2 -10  -5 14.4265 3.52464  11
  -2 -10  -5 6.08942 3.30020   8
  -2 -10  -5 11.0393 3.27133   1
  -2 -10  -5 8.07083 3.70307   1
   2  10   5 10.4956 3.76053   3
   2  10   5 10.0548 3.18727   6
   2  10   5 12.4708 2.99126   1
   2  10   5 13.9213 3.89128   8
   2  10   5 13.5211 3.69662   1
   6   9  -6 3.64305 2.60575   6
   6   9  -6 6.46349 3.26850  12
   6   9  -6 7.68356 2.83314   1
   6   9  -6 9.15369 3.46313   1
  -6  -9   6 -1.9433 3.33557   1
  -6  -9   6 3.89703 2.76420   1
  -6  -9   6 5.36663 3.41116   3
  -6  -9   6 6.12120 3.43046   7
  -6  -9   6 8.97922 2.71975   9
  -6  -9   6 5.11214 2.78390   6
   5   9  -6 10.9851 3.67398   1
   5   9  -6 12.1997 3.50406   1
   5   9  -6 3.44402 2.42074   6
   5   9  -6 8.01727 3.02374  12
   5   9  -6 12.2589 3.12240   3
  -5  -9   6 5.76359 2.65132   9
  -5  -9   6 8.59283 3.41108   1
  -5  -9   6 10.9172 3.34860   3
  -5  -9   6 7.87572 2.97250   8
  -5  -9   6 11.6285 3.07422   7
   4   9  -6 1.10230 3.08613  12
   4   9  -6 9.46136 3.44210   1
   4   9  -6 -2.0293 2.69696   3
  -4  -9   6 2.62035 2.42157   9
  -4  -9   6 4.10804 2.71527   8
  -4  -9   6 4.84482 3.36881   1
  -4  -9   6 3.00753 3.31571   2
  -4  -9   6 0.03213 2.65390   7
   3   9  -6 -2.5968 2.67598   3
   3   9  -6 0.90505 3.58987   1
   3   9  -6 1.06436 3.11893  12
  -3  -9   6 3.51595 2.88817   3
  -3  -9   6 2.99265 3.28122   5
  -3  -9   6 0.50053 2.46837   7
  -3  -9   6 0.50095 3.26888   2
  -3  -9   6 0.46697 2.06946   9
  -3  -9   6 -3.8828 2.27713   8
   2   9  -6 3.24752 3.74033   1
   2   9  -6 1.78508 2.92448   3
   2   9  -6 -2.7538 2.77289   4
  -2  -9   6 -5.1619 3.41718   5
  -2  -9   6 0.99295 3.91038   1
  -2  -9   6 1.57109 4.25514  11
  -2  -9   6 -1.2954 3.70007   2
   7   8  -6 -2.2132 2.44122   6
   7   8  -6 0.00017 2.61598  12
   7   8  -6 -0.7033 2.42724   6
   7   8  -6 4.31040 2.70105   1
   7   8  -6 7.00650 2.85689   1
  -7  -8   6 3.55935 2.70086   8
  -7  -8   6 2.65160 2.62487   6
  -7  -8   6 1.78293 2.55908   9
  -7  -8   6 5.70931 3.02619   7
  -7  -8   6 2.13054 2.69984   3
  -7  -8   6 2.11070 2.95106   1
  -7  -8   6 1.84759 2.91228   1
   6   8  -6 9.58330 2.48363   1
   6   8  -6 12.4997 2.46690   6
   6   8  -6 5.06581 2.92984   1
   6   8  -6 11.5097 2.63609  12
  -6  -8   6 3.91683 2.44197   8
  -6  -8   6 9.51087 3.04960   1
  -6  -8   6 7.08677 2.59122   1
  -6  -8   6 17.0255 3.13277   7
  -6  -8   6 10.3008 2.36116   6
  -6  -8   6 15.1955 3.37401   3
  -6  -8   6 9.25427 2.49063   9
   5   8  -6 16.5382 2.46985   1
   5   8  -6 29.0317 4.23140  12
   5   8  -6 21.6285 3.09635   6
   5   8  -6 22.2283 3.43127   1
  -5  -8   6 25.3328 2.87126   8
  -5  -8   6 25.2335 2.97324   7
  -5  -8   6 20.1954 3.35969   1
  -5  -8   6 26.0092 3.85582   9
   4   8  -6 3.31540 2.61524  12
   4   8  -6 7.76306 2.93616   1
   4   8  -6 5.63427 2.41468   3
  -4  -8   6 -1.5190 4.93137   1
  -4  -8   6 3.44832 2.33246   7
  -4  -8   6 2.79484 1.98470   9
  -4  -8   6 3.73178 2.17217   8
  -4  -8   6 7.82846 2.54554   3
   3   8  -6 -0.6436 1.95870   4
   3   8  -6 4.84372 2.42945   3
   3   8  -6 3.85865 2.68101  12
   3   8  -6 7.16701 3.03297   1
  -3  -8   6 5.28271 2.22400   7
  -3  -8   6 -0.9878 2.28423   4
  -3  -8   6 6.11288 2.46785   3
  -3  -8   6 6.90357 2.00928   8
  -3  -8   6 5.51666 3.09261   1
  -3  -8   6 4.23949 2.86137   2
   2   8  -6 -3.1784 2.28314   3
   2   8  -6 -5.6293 2.22486   4
   2   8  -6 4.56480 3.21832   1
   2   8  -6 0.96810 2.69814  12
  -2  -8   6 0.34792 2.33963   3
  -2  -8   6 2.42660 3.03908   5
  -2  -8   6 2.33893 3.02265   2
  -2  -8   6 -1.1979 2.81779  11
  -2  -8   6 -0.2320 3.10775   1
  -2  -8   6 -2.6287 2.49901   4
  -2  -8   6 -2.5285 2.65537  10
   1   8  -6 -3.6378 1.91414   6
   1   8  -6 1.66616 2.50319   3
   1   8  -6 -2.8875 2.00294   1
   1   8  -6 2.54232 2.58721  10
   1   8  -6 5.39026 3.59168   1
  -1  -8   6 -4.7647 3.03377  11
  -1  -8   6 1.99506 2.61447   6
  -1  -8   6 4.63583 3.47055   1
  -1  -8   6 3.85011 2.98710  10
  -1  -8   6 1.58762 3.41658   2
  -1  -8   6 -1.5477 2.88443   4
  -1  -8   6 0.38038 2.75770   1
  -1  -8   6 1.89419 3.25258   5
   8   7  -6 5.06287 3.24370   1
   8   7  -6 7.96697 3.12947   6
   8   7  -6 12.8064 2.82572   1
   8   7  -6 7.56847 2.29085   6
  -8  -7   6 6.59887 3.10208   8
  -8  -7   6 4.84315 3.42043  11
  -8  -7   6 10.1927 3.01359   7
  -8  -7   6 5.31032 2.67498   1
  -8  -7   6 9.50037 2.81756   9
  -8  -7   6 12.0043 3.29621   3
  -8  -7   6 4.66510 2.84325   6
  -8  -7   6 7.77583 3.11910   1
   7   7  -6 4.09697 2.56670  12
   7   7  -6 7.28439 2.55847   1
   7   7  -6 4.20128 2.81040   1
   7   7  -6 9.50791 2.50766   6
   7   7  -6 11.6597 2.39600   6
  -7  -7   6 9.08132 2.87397   7
  -7  -7   6 7.08841 2.53127   6
  -7  -7   6 7.76565 2.58747   9
  -7  -7   6 10.4035 2.72384   1
  -7  -7   6 8.26444 2.81160   1
  -7  -7   6 3.91111 2.78242   3
   6   7  -6 8.19722 2.28846   1
   6   7  -6 12.0239 2.29885   6
   6   7  -6 6.03631 2.44490  12
   6   7  -6 8.20291 2.38158   6
   6   7  -6 10.0483 2.77471   1
  -6  -7   6 9.91178 2.42478   1
  -6  -7   6 10.9212 2.11069   6
  -6  -7   6 9.67867 2.24016   9
  -6  -7   6 8.38191 2.80880   1
  -6  -7   6 9.76327 2.31330   8
  -6  -7   6 12.1825 2.50488   7
   5   7  -6 7.93731 2.46947  12
   5   7  -6 0.23540 2.39627   1
   5   7  -6 4.71102 2.09223   1
  -5  -7   6 5.15962 2.31022   3
  -5  -7   6 2.97817 1.89102   9
  -5  -7   6 2.52545 2.17357   7
  -5  -7   6 4.53088 2.00450   8
   4   7  -6 0.29485 2.28583  12
   4   7  -6 -0.9310 2.48865   1
  -4  -7   6 1.87693 2.21373   7
  -4  -7   6 0.50279 2.40805   1
  -4  -7   6 -1.5846 2.11227   3
  -4  -7   6 -0.5835 1.60058   9
  -4  -7   6 -0.0030 1.68049   8
  -4  -7   6 -2.5030 1.75172   4
   3   7  -6 5.97436 2.00325   3
   3   7  -6 7.96607 2.25084  12
   3   7  -6 7.11679 2.84634   1
   3   7  -6 2.16095 1.89792   4
  -3  -7   6 4.06315 1.89971  10
  -3  -7   6 6.90920 2.04989   7
  -3  -7   6 6.09012 2.79713   1
  -3  -7   6 7.38707 1.60143   8
  -3  -7   6 9.52316 2.17094   4
  -3  -7   6 3.47420 1.97596   3
   2   7  -6 13.0892 2.65159  10
   2   7  -6 11.5982 2.45630   4
   2   7  -6 11.8977 2.60261  12
   2   7  -6 13.1855 2.24623   3
   2   7  -6 15.3594 3.12019   1
  -2  -7   6 13.7249 2.22527   3
  -2  -7   6 10.4794 2.69749  11
  -2  -7   6 14.7336 3.07089   1
  -2  -7   6 12.7337 2.47545   4
  -2  -7   6 10.2759 2.67699   1
  -2  -7   6 9.80232 1.89705   7
  -2  -7   6 8.21225 2.36549  10
   1   7  -6 5.14640 1.78779   6
   1   7  -6 2.96275 2.49902  12
   1   7  -6 -1.0312 2.58578   4
   1   7  -6 1.12708 1.95927   1
   1   7  -6 0.51112 1.96575   3
   1   7  -6 3.52720 2.29662  10
   1   7  -6 6.31944 3.01204   1
  -1  -7   6 1.02292 2.50084   5
  -1  -7   6 0.55147 2.65732  10
  -1  -7   6 2.06138 2.31121   1
  -1  -7   6 -1.6406 2.42535   4
  -1  -7   6 1.60377 2.15107   6
  -1  -7   6 7.86200 2.80940   2
  -1  -7   6 2.45405 2.69593  11
  -1  -7   6 4.85550 3.05460   1
   0   7  -6 0.23721 2.83925   4
   0   7  -6 4.81612 3.31852   1
   0   7  -6 3.16742 2.56907  10
   0   7  -6 3.24733 2.29733   1
   0   7  -6 -2.8584 2.14715   6
   0   7  -6 0.04028 2.17271   3
   0  -7   6 0.82208 2.79863   4
   0  -7   6 3.99146 2.84417  11
   0  -7   6 0.29528 3.79917   5
   0  -7   6 0.53718 3.02350   1
   0  -7   6 0.69893 2.55837   1
   0  -7   6 3.82335 2.47491   6
   0  -7   6 8.27769 3.07495  10
   8   6  -6 58.8418 5.74132   1
   8   6  -6 53.6329 4.64658   6
   8   6  -6 60.7833 5.23525   1
   8   6  -6 41.6443 5.05874   6
  -8  -6   6 56.0592 5.28720  11
  -8  -6   6 64.1138 5.37489   6
  -8  -6   6 61.4278 5.02368   8
  -8  -6   6 60.7388 4.86006   7
  -8  -6   6 62.0722 5.44833   1
  -8  -6   6 51.6460 5.08054   1
  -8  -6   6 58.7446 5.19347   9
  -8  -6   6 64.8805 5.22900   3
   7   6  -6 11.4928 2.36636   6
   7   6  -6 17.7626 3.00190   1
   7   6  -6 14.9179 2.56054   6
   7   6  -6 12.9777 2.75220   1
  -7  -6   6 15.3543 2.94806   4
  -7  -6   6 14.4161 2.62444  11
  -7  -6   6 17.2966 2.80165   1
  -7  -6   6 22.0508 3.25896   3
  -7  -6   6 25.2226 3.37713   7
  -7  -6   6 15.1954 2.46200   9
  -7  -6   6 14.6526 2.77120   1
  -7  -6   6 17.2729 2.72796   6
   6   6  -6 8.16666 2.49977   1
   6   6  -6 8.26006 2.30080  12
   6   6  -6 10.1989 2.19449   6
   6   6  -6 7.85922 1.91950   1
   6   6  -6 7.39619 1.96018   6
  -6  -6   6 4.19770 2.21441   3
  -6  -6   6 8.07310 2.01851   9
  -6  -6   6 9.85958 2.25433   1
  -6  -6   6 9.60508 2.16936   7
  -6  -6   6 6.02470 2.12986   8
  -6  -6   6 8.18868 2.01852   6
   5   6  -6 -1.2462 1.88750   6
   5   6  -6 2.97020 2.45472   1
   5   6  -6 1.50988 1.91642  12
   5   6  -6 3.07735 1.52003   6
   5   6  -6 0.52687 2.53616   1
  -5  -6   6 -0.4825 1.94483   1
  -5  -6   6 -0.2446 1.66766   8
  -5  -6   6 1.74317 1.89922   3
  -5  -6   6 -1.6967 1.85896   7
  -5  -6   6 1.49598 1.57294   9
  -5  -6   6 4.74334 1.75774   1
   4   6  -6 -3.0185 2.17333   1
   4   6  -6 2.14976 2.06558  12
  -4  -6   6 0.16890 1.56866   8
  -4  -6   6 1.77908 1.71381   7
  -4  -6   6 -1.5508 1.42235   9
  -4  -6   6 -1.4892 2.24856   1
  -4  -6   6 0.51495 1.91046   3
   3   6  -6 4.54146 2.32758   2
   3   6  -6 1.98274 2.35899   1
   3   6  -6 2.06777 1.64786   4
   3   6  -6 7.66288 2.05328  12
  -3  -6   6 3.36964 2.34077   1
  -3  -6   6 4.31033 1.83751   7
  -3  -6   6 7.60325 1.42976   8
   2   6  -6 22.0117 2.83552   3
   2   6  -6 15.6968 2.97177   1
   2   6  -6 13.7307 2.35888  12
   2   6  -6 13.7095 2.37194   4
  -2  -6   6 12.4558 2.82751   1
  -2  -6   6 21.8334 2.80440   3
  -2  -6   6 16.2385 2.46507   5
  -2  -6   6 21.6655 2.99903   1
  -2  -6   6 13.7671 1.87807   7
  -2  -6   6 12.8314 2.23617   6
   1   6  -6 0.71844 1.99199  12
   1   6  -6 1.54451 2.44501   2
   1   6  -6 1.08063 2.10599   4
   1   6  -6 -0.1605 2.16912  10
   1   6  -6 3.29588 1.69782   1
   1   6  -6 2.12812 1.67683   6
   1   6  -6 0.89010 1.62456   3
   1   6  -6 0.12752 2.60280   1
  -1  -6   6 -3.8547 2.45702  10
  -1  -6   6 2.73375 2.00266   1
  -1  -6   6 1.75713 1.74455   6
  -1  -6   6 1.84409 2.17466  11
  -1  -6   6 2.79186 2.22236   5
  -1  -6   6 -1.1576 2.58576   1
   0   6  -6 1.75178 2.63494   2
   0   6  -6 2.41451 2.26077  12
   0   6  -6 -4.2017 2.17396   4
   0   6  -6 -0.3164 2.85693   1
   0   6  -6 0.43570 2.31032  10
   0   6  -6 -3.0522 1.96253   1
   0   6  -6 2.84138 2.03053   6
   0  -6   6 3.17582 2.10018   6
   0  -6   6 0.16816 2.32816   1
   0  -6   6 4.31045 2.49770  10
   0  -6   6 3.46790 2.67621   1
   0  -6   6 4.09699 2.53167   5
   0  -6   6 -3.0176 2.50584   4
  -1   6  -6 -0.9083 3.18701   1
  -1   6  -6 1.80063 2.26808   1
  -1   6  -6 0.55217 2.13369   6
  -1   6  -6 0.54954 2.66869  10
  -1   6  -6 4.73291 2.93406   4
   1  -6   6 3.45239 2.80250   4
   1  -6   6 5.42559 2.99205   1
   1  -6   6 1.93375 2.72686   5
   1  -6   6 -0.6167 3.15272  10
   1  -6   6 3.24472 2.68047   1
   1  -6   6 0.74159 2.50179   6
   9   5  -6 1.77307 3.09151   6
   9   5  -6 0.07320 3.28071   1
  -9  -5   6 2.92105 3.30065   1
  -9  -5   6 0.67867 2.65948   3
  -9  -5   6 3.01857 3.12127   6
  -9  -5   6 2.22410 2.76481   9
  -9  -5   6 12.0379 3.09185   8
   8   5  -6 16.7331 2.78720   6
   8   5  -6 17.3492 2.36242   6
   8   5  -6 14.4183 2.86919   1
   8   5  -6 11.2517 3.09221   1
  -8  -5   6 16.7421 2.58765  11
  -8  -5   6 20.0496 3.01955   9
  -8  -5   6 21.2242 3.10350   6
  -8  -5   6 13.5913 2.67629   1
  -8  -5   6 21.0298 2.87032   8
  -8  -5   6 16.0434 3.08881   1
  -8  -5   6 16.9339 2.91381   3
   7   5  -6 12.5856 2.36937   6
   7   5  -6 12.3545 2.76406   1
   7   5  -6 13.8267 2.69480   1
   7   5  -6 14.7955 2.42376   6
  -7  -5   6 12.3497 2.20713   7
  -7  -5   6 17.6483 2.39114  11
  -7  -5   6 12.1209 2.32747   6
  -7  -5   6 12.8410 2.46056   1
  -7  -5   6 16.6441 2.35187   9
  -7  -5   6 16.1433 2.56901   1
   6   5  -6 21.5155 2.81828   1
   6   5  -6 17.5997 2.86795   6
   6   5  -6 17.1156 2.39904   6
  -6  -5   6 17.4091 2.18693   8
  -6  -5   6 15.8878 2.46443   1
  -6  -5   6 15.3908 2.48380   3
  -6  -5   6 11.9685 2.28479   7
  -6  -5   6 15.8482 2.12303   9
  -6  -5   6 15.0314 2.15711   6
  -6  -5   6 11.6419 2.18703  11
   5   5  -6 40.9548 3.76438   6
   5   5  -6 43.6261 4.10360   1
  -5  -5   6 40.5050 3.77735   3
  -5  -5   6 41.2335 4.05422   1
  -5  -5   6 47.0114 3.42976   9
  -5  -5   6 39.5915 3.40467   6
  -5  -5   6 39.0564 3.41756   1
  -5  -5   6 38.2802 3.46213   7
  -5  -5   6 42.4903 3.34690   8
   4   5  -6 59.2002 4.35444   2
   4   5  -6 63.7348 4.84310   1
   4   5  -6 62.6116 4.16440  12
   4   5  -6 62.6122 4.41843   6
  -4  -5   6 55.8901 3.96227   7
  -4  -5   6 50.4228 4.54433   1
  -4  -5   6 64.8573 3.74013   9
  -4  -5   6 65.3048 4.00822   1
  -4  -5   6 62.7758 3.62698   8
  -4  -5   6 60.4643 4.06854   3
   3   5  -6 39.0399 3.73852   2
   3   5  -6 39.2446 3.77920   6
   3   5  -6 44.9590 4.31477   1
   3   5  -6 46.6208 3.51934  12
  -3  -5   6 40.2604 3.30247   7
  -3  -5   6 40.3472 3.28420   3
  -3  -5   6 43.7906 4.01510   1
  -3  -5   6 48.4233 3.36786   1
  -3  -5   6 39.5136 2.69439   8
   2   5  -6 26.9907 2.88618   1
   2   5  -6 28.3193 4.11245   1
   2   5  -6 28.8421 3.52686   2
   2   5  -6 35.8899 3.25898  12
   2   5  -6 33.9258 3.64905   4
  -2  -5   6 29.3482 3.49404   4
  -2  -5   6 34.4588 2.92858   7
  -2  -5   6 38.0464 3.08850   1
  -2  -5   6 38.6179 2.75690   3
  -2  -5   6 36.9334 2.95804   6
  -2  -5   6 33.3302 3.94334   1
   1   5  -6 4.60787 1.81253  12
   1   5  -6 1.89388 1.54569   6
   1   5  -6 3.76955 1.99747   4
   1   5  -6 1.79781 1.66209   1
   1   5  -6 1.30866 2.45857   1
   1   5  -6 1.07736 2.05379  10
  -1  -5   6 3.63863 1.62376   6
  -1  -5   6 -1.8804 1.99222  10
  -1  -5   6 1.76932 2.05050   4
  -1  -5   6 3.65385 1.93762  11
  -1  -5   6 2.66300 1.94902   5
  -1  -5   6 4.06314 2.20853   1
  -1  -5   6 4.30737 1.78402   1
   0   5  -6 0.27123 2.08471  10
   0   5  -6 0.71511 1.85098   1
   0   5  -6 -1.0210 2.05619   2
   0   5  -6 -0.4332 1.60609   6
   0   5  -6 -0.5716 2.41123   1
   0  -5   6 -0.3855 1.99002   5
   0  -5   6 0.61047 1.91170   1
   0  -5   6 -0.0573 2.66159  10
   0  -5   6 -1.6605 1.77554   6
   0  -5   6 0.94859 2.01135   4
   0  -5   6 -1.2710 2.35463   1
  -1   5  -6 1.53613 2.33301  10
  -1   5  -6 1.72079 2.62465   4
  -1   5  -6 1.49941 1.90036   6
  -1   5  -6 -1.3775 1.95839   1
  -1   5  -6 -3.7691 2.72174   1
   1  -5   6 2.32990 2.30221   1
   1  -5   6 1.00832 2.30724   5
   1  -5   6 1.81793 2.42974   1
   1  -5   6 1.21470 2.15638   6
  -2   5  -6 0.76669 2.20787   1
  -2   5  -6 3.39677 2.09271   6
  -2   5  -6 1.54453 2.96950   6
  -2   5  -6 0.56480 3.22044   4
  -2   5  -6 1.90602 3.00405  10
   2  -5   6 -0.6019 2.79017   5
   2  -5   6 2.47559 2.38004   6
   2  -5   6 1.19843 2.47976   1
   2  -5   6 2.06825 3.33860  10
   9   4  -6 5.82039 3.18575   6
   9   4  -6 10.2335 3.29617   1
  -9  -4   6 1.57146 2.71217   9
  -9  -4   6 7.22496 2.82453   8
  -9  -4   6 5.07982 3.47321   1
  -9  -4   6 5.68712 2.98815   3
   8   4  -6 4.86157 2.52172   6
   8   4  -6 5.53981 2.66084   1
   8   4  -6 5.70728 2.26160   1
   8   4  -6 4.60646 2.41490   6
  -8  -4   6 2.90990 1.86963  11
  -8  -4   6 4.98973 2.31800   3
  -8  -4   6 4.35671 2.31921   6
  -8  -4   6 3.03308 2.48588   1
  -8  -4   6 5.48446 1.71357   4
  -8  -4   6 3.34799 2.26499   9
  -8  -4   6 3.98062 2.11549   1
  -8  -4   6 3.13289 2.10545   8
   7   4  -6 3.42149 1.78975   6
   7   4  -6 2.14570 2.13204   1
  -7  -4   6 1.89439 1.86021   8
  -7  -4   6 3.34918 1.75979   7
  -7  -4   6 4.25201 2.03911   1
  -7  -4   6 4.76325 2.05500   6
  -7  -4   6 4.78338 2.27225   1
  -7  -4   6 4.01201 1.86077  11
  -7  -4   6 4.86368 1.81495   9
   6   4  -6 -0.0349 1.59891   6
   6   4  -6 1.71188 1.92526   1
  -6  -4   6 1.75123 1.62044   9
  -6  -4   6 1.82371 1.67431   1
  -6  -4   6 -0.2896 1.71693  11
  -6  -4   6 1.38152 1.44027   6
  -6  -4   6 1.29748 1.69432   3
  -6  -4   6 -0.6569 1.61355   7
  -6  -4   6 0.30776 1.59292   1
  -6  -4   6 3.41358 1.68593   8
   5   4  -6 211.010 9.82868   6
   5   4  -6 190.713 9.40501   2
   5   4  -6 212.819 10.0793   1
  -5  -4   6 203.628 9.72717  11
  -5  -4   6 203.124 10.0008   1
  -5  -4   6 204.154 9.66966   1
  -5  -4   6 202.753 9.53055   7
  -5  -4   6 203.695 9.62125   6
  -5  -4   6 210.641 9.46489   9
  -5  -4   6 201.233 9.31649   8
  -5  -4   6 196.732 9.54643   3
   4   4  -6 139.074 6.93592   6
   4   4  -6 136.519 6.82033   2
   4   4  -6 141.403 7.26594   1
  -4  -4   6 133.427 6.66051   7
  -4  -4   6 131.646 7.15611   1
  -4  -4   6 129.880 6.31846   8
  -4  -4   6 129.840 6.65189   3
  -4  -4   6 135.633 6.65314   6
  -4  -4   6 135.006 6.73928   1
  -4  -4   6 135.430 6.37973   9
  -4  -4   6 139.277 6.73004  11
  -4  -4   6 120.292 6.77041   4
  -4  -4   6 129.945 8.26252  10
   3   4  -6 71.2308 4.59219   2
   3   4  -6 75.1068 4.82833   1
   3   4  -6 73.4985 4.56420   6
  -3  -4   6 68.4996 4.79967   1
  -3  -4   6 69.1900 4.14344   7
  -3  -4   6 65.1632 4.62489  10
  -3  -4   6 66.4923 4.54528   4
  -3  -4   6 74.1306 4.01964   3
   2   4  -6 47.1129 3.95065   2
   2   4  -6 45.2809 3.06714   6
   2   4  -6 49.1886 3.35804  12
   2   4  -6 53.4277 3.80117   6
   2   4  -6 45.5179 3.25809   1
   2   4  -6 46.4618 4.23071   1
  -2  -4   6 46.6224 3.77550   4
  -2  -4   6 45.7201 4.03928  10
  -2  -4   6 50.3944 3.28131   7
  -2  -4   6 51.0642 3.46969   1
  -2  -4   6 46.6766 2.91522   3
  -2  -4   6 49.6511 3.30293   6
  -2  -4   6 55.2123 4.19663   1
   1   4  -6 12.1474 2.19263   4
   1   4  -6 12.7056 2.05657   6
   1   4  -6 9.90818 2.35971   1
   1   4  -6 9.12631 1.72621   1
   1   4  -6 11.2803 1.63417   6
  -1  -4   6 8.74621 2.02149   4
  -1  -4   6 11.1179 1.62290   7
  -1  -4   6 13.0587 2.30381   1
  -1  -4   6 10.6802 1.97303  10
  -1  -4   6 10.4986 1.67855   6
  -1  -4   6 8.16621 1.74617   5
  -1  -4   6 11.7138 1.84023   1
   0   4  -6 5.63947 2.27844   1
   0   4  -6 7.64542 1.80254   6
   0   4  -6 6.89310 1.82844   1
   0   4  -6 4.29061 2.13370   4
   0   4  -6 5.68413 2.01836   2
   0   4  -6 8.04139 2.13749  10
   0   4  -6 7.13650 1.97918   6
   0  -4   6 5.51621 1.80370   5
   0  -4   6 6.17781 1.96692   4
   0  -4   6 7.27415 1.71613   6
   0  -4   6 7.05307 2.26370   1
   0  -4   6 3.62757 2.06448  10
   0  -4   6 8.59855 1.86900   1
  -1   4  -6 3.04256 2.26510   1
  -1   4  -6 2.02135 1.68489   6
  -1   4  -6 0.29607 2.27699   4
  -1   4  -6 1.22912 1.87525   6
  -1   4  -6 1.37993 1.71399   1
  -1   4  -6 3.93488 2.34833  10
   1  -4   6 5.17950 1.91480   6
   1  -4   6 3.24698 2.37135  10
   1  -4   6 4.52330 2.07730   5
   1  -4   6 5.16963 2.14631   1
   1  -4   6 2.90138 2.20457   4
   1  -4   6 -0.9482 1.91632   1
  -2   4  -6 8.30654 1.96268   1
  -2   4  -6 7.47933 2.71653  10
  -2   4  -6 6.29253 1.91866   6
  -2   4  -6 5.74257 2.06790   6
  -2   4  -6 9.10314 2.87678   4
  -2   4  -6 4.83844 2.30822   1
   2  -4   6 5.44120 2.05766   6
   2  -4   6 2.81216 2.08823   1
   2  -4   6 2.59213 2.59052   4
   2  -4   6 0.30318 2.22021   1
   2  -4   6 7.34801 2.59832   5
   2  -4   6 -1.2519 2.84698  10
   9   3  -6 42.4856 5.16248   6
   9   3  -6 36.4643 5.49586   1
  -9  -3   6 38.2434 4.27292  12
  -9  -3   6 43.7726 4.32749   8
  -9  -3   6 31.8922 4.54109   9
  -9  -3   6 47.7411 5.89995   1
  -9  -3   6 34.8139 4.85534   3
   8   3  -6 11.6434 2.66756   6
   8   3  -6 14.1070 2.52870   1
   8   3  -6 11.5021 3.25446   1
  -8  -3   6 11.0897 2.39033   1
  -8  -3   6 13.9719 2.36489   9
  -8  -3   6 14.4988 2.46042  11
  -8  -3   6 14.0469 2.30777   8
  -8  -3   6 15.2194 2.83994  12
  -8  -3   6 7.88651 2.25746   4
  -8  -3   6 16.1724 3.01101   3
  -8  -3   6 11.9613 2.85911   1
   7   3  -6 0.92810 1.59979   6
   7   3  -6 4.74841 1.81463   1
  -7  -3   6 0.32299 1.52406   8
  -7  -3   6 1.17897 1.93179   1
  -7  -3   6 1.62201 1.75107  11
  -7  -3   6 -1.3562 1.54371   9
  -7  -3   6 1.94985 1.86165   6
  -7  -3   6 0.58178 1.58029   3
   6   3  -6 34.5283 3.39696   6
   6   3  -6 39.3227 3.83518   1
  -6  -3   6 37.3959 3.13088   8
  -6  -3   6 39.2117 3.32044   9
  -6  -3   6 37.9730 3.15020   7
  -6  -3   6 36.0075 3.44347   1
  -6  -3   6 37.1362 3.63060   3
  -6  -3   6 40.7781 3.38309  11
  -6  -3   6 40.3014 3.82061   1
  -6  -3   6 40.0159 3.35014   6
   5   3  -6 67.0922 4.02468   2
   5   3  -6 72.5566 4.78603   1
   5   3  -6 68.2476 4.38799   6
  -5  -3   6 65.5462 4.12252   1
  -5  -3   6 60.3009 4.12830   3
  -5  -3   6 66.3204 4.56928   1
  -5  -3   6 69.7486 4.02163   6
  -5  -3   6 64.0921 3.92034   8
  -5  -3   6 66.2814 4.23270  11
  -5  -3   6 58.4367 3.99729   7
  -5  -3   6 60.7152 4.17505   4
  -5  -3   6 65.7658 3.99645   9
   4   3  -6 26.6711 3.40953   1
   4   3  -6 25.2959 2.90579   6
   4   3  -6 20.1997 2.83105   2
  -4  -3   6 21.2226 2.28472   7
  -4  -3   6 21.1942 2.58397   3
  -4  -3   6 23.3872 2.25035   8
  -4  -3   6 18.1637 2.13682   4
  -4  -3   6 23.6588 3.19508   1
  -4  -3   6 21.0886 2.70967  11
  -4  -3   6 22.2134 2.89312  10
  -4  -3   6 20.6950 2.33808   1
  -4  -3   6 21.3865 2.33125   9
  -4  -3   6 18.5891 2.20230   6
   3   3  -6 37.5993 3.45587   2
   3   3  -6 42.0566 3.73164   1
   3   3  -6 41.7953 3.38591   6
  -3  -3   6 38.5378 3.67123   1
  -3  -3   6 37.1911 3.50228  10
  -3  -3   6 37.9336 2.80025   1
  -3  -3   6 37.3069 2.97302   7
  -3  -3   6 40.6960 2.76064   3
  -3  -3   6 38.4485 2.38821   8
  -3  -3   6 39.7836 2.96769  11
  -3  -3   6 39.4093 3.23244   4
  -3  -3   6 39.5590 2.73601   6
   2   3  -6 16.3005 2.29532   1
   2   3  -6 18.2671 2.11358   6
   2   3  -6 20.0648 2.77970   6
   2   3  -6 18.5228 2.40564   2
   2   3  -6 18.2586 2.51410   1
  -2  -3   6 18.6719 1.97986   7
  -2  -3   6 15.9635 2.16573   6
  -2  -3   6 14.0527 2.17266  10
  -2  -3   6 14.8745 2.28124   1
  -2  -3   6 14.4019 2.00116   4
  -2  -3   6 15.8644 2.25843   1
  -2  -3   6 23.3930 2.27543  11
   1   3  -6 33.5823 3.27674   2
   1   3  -6 36.5478 3.12143   6
   1   3  -6 27.7474 2.98860   1
   1   3  -6 29.0716 2.70446   6
   1   3  -6 31.5654 3.34476   4
   1   3  -6 39.0140 3.66928   1
  -1  -3   6 35.9578 2.63877   7
  -1  -3   6 33.4874 2.75882   6
  -1  -3   6 34.7656 3.45828   1
  -1  -3   6 32.3404 3.16161   4
  -1  -3   6 27.6900 2.80529   5
  -1  -3   6 30.8133 3.34201  10
  -1  -3   6 29.8137 2.80890   1
   0   3  -6 20.1380 2.42940   6
   0   3  -6 31.3392 2.96384   6
   0   3  -6 29.8364 3.43215   1
   0   3  -6 19.8009 2.61096   1
   0   3  -6 28.0039 3.24616   4
   0  -3   6 18.2293 2.31126   7
   0  -3   6 22.8887 2.70319   1
   0  -3   6 21.7334 3.24386  10
   0  -3   6 27.6090 3.22323   4
   0  -3   6 21.6115 2.41624   1
   0  -3   6 18.9446 2.66923   5
   0  -3   6 22.5785 2.65963   6
  -1   3  -6 18.8979 2.55404   6
  -1   3  -6 19.2243 2.61539   4
  -1   3  -6 20.4725 2.69368  10
  -1   3  -6 26.8090 3.37110   1
  -1   3  -6 21.7156 2.91057   6
  -1   3  -6 22.6177 3.20823   2
  -1   3  -6 22.7830 2.83736   1
   1  -3   6 17.7384 2.35475   4
   1  -3   6 16.6872 2.48154  10
   1  -3   6 18.2817 2.23095   1
   1  -3   6 23.9190 3.12682   1
   1  -3   6 22.8743 2.87597   6
  -2   3  -6 9.37658 2.46525   4
  -2   3  -6 12.9069 2.61641  10
  -2   3  -6 10.7573 2.09198   1
  -2   3  -6 14.7622 2.70458   2
  -2   3  -6 10.5612 1.90657   1
   2  -3   6 8.31662 2.67927  10
   2  -3   6 12.8641 2.07997   1
   2  -3   6 13.2610 2.06077   1
   2  -3   6 9.63295 2.37818   4
  -3   3  -6 12.9304 3.17120   4
  -3   3  -6 8.07714 2.88679  10
   9   2  -6 6.28815 2.96877   6
   9   2  -6 11.3785 3.44120   1
  -9  -2   6 12.5210 2.59527   5
  -9  -2   6 9.73746 2.44010  12
  -9  -2   6 10.8455 2.51901   3
  -9  -2   6 8.30567 3.25283   1
  -9  -2   6 11.9032 2.68647   9
   8   2  -6 4.28097 4.17767   6
   8   2  -6 10.6475 2.35752   1
  -8  -2   6 5.34797 2.03565   1
  -8  -2   6 8.12329 2.33887  12
  -8  -2   6 6.14767 2.09204   9
  -8  -2   6 7.14547 2.72665   1
  -8  -2   6 1.13871 2.52705  11
  -8  -2   6 4.92992 2.10938   3
   7   2  -6 24.2217 3.02842   6
   7   2  -6 23.2186 2.84769   1
  -7  -2   6 24.5020 3.11035  11
  -7  -2   6 25.3153 3.07568   1
  -7  -2   6 22.8169 3.18474   9
   6   2  -6 14.3449 2.24189   6
   6   2  -6 15.8492 1.89304   2
   6   2  -6 11.9696 2.31519   1
  -6  -2   6 14.1823 2.01917  11
  -6  -2   6 14.3125 1.87010   7
  -6  -2   6 15.6732 2.12586   3
  -6  -2   6 12.9054 2.45897   1
  -6  -2   6 16.7743 2.25418   1
  -6  -2   6 14.9200 1.96961   9
  -6  -2   6 12.7550 2.20095  12
   5   2  -6 -1.7814 1.41177   6
   5   2  -6 0.82989 1.25459   6
   5   2  -6 2.77451 1.80960   1
   5   2  -6 1.71922 1.37757   1
   5   2  -6 -0.5307 1.50538   2
  -5  -2   6 1.14712 1.77343   1
  -5  -2   6 -2.1366 1.25811   9
  -5  -2   6 -1.7152 1.39448  10
  -5  -2   6 -0.1894 1.33325   7
  -5  -2   6 -0.3124 1.57333  12
  -5  -2   6 -2.5206 1.34980  11
  -5  -2   6 1.65040 1.32296   4
  -5  -2   6 -1.3935 1.44267   3
  -5  -2   6 1.32671 1.23716   6
  -5  -2   6 -0.5584 1.33795   1
   4   2  -6 37.0271 3.14345   2
   4   2  -6 39.0750 3.24213   6
   4   2  -6 39.3332 3.60645   1
  -4  -2   6 35.5141 3.59635   1
  -4  -2   6 38.9975 2.78651   6
  -4  -2   6 31.6805 3.17013  10
  -4  -2   6 31.6862 3.11392   4
  -4  -2   6 37.5164 2.96055  11
  -4  -2   6 38.1286 3.00680   7
  -4  -2   6 33.3699 2.85833   3
  -4  -2   6 38.0581 2.94245   1
  -4  -2   6 37.3425 2.74120   9
   3   2  -6 13.8947 2.17762   1
   3   2  -6 19.2521 2.26149   6
   3   2  -6 15.3387 1.90311   6
   3   2  -6 18.2252 2.42229   1
   3   2  -6 19.2234 2.74170   2
  -3  -2   6 17.8101 2.29572   1
  -3  -2   6 18.4454 2.12114   3
  -3  -2   6 17.4771 2.27292  11
  -3  -2   6 16.4315 2.18772   1
  -3  -2   6 16.8317 1.73947   8
  -3  -2   6 18.2289 2.57332   4
  -3  -2   6 18.3762 1.98128   7
  -3  -2   6 19.7009 2.79664  10
  -3  -2   6 16.3973 2.06867   6
   2   2  -6 21.7912 2.80278   6
   2   2  -6 20.9602 2.48295   1
   2   2  -6 18.3869 2.23208   1
   2   2  -6 19.5258 2.41787   2
   2   2  -6 18.0505 2.03673   6
  -2  -2   6 16.2987 2.29877   1
  -2  -2   6 17.4554 2.63074   4
  -2  -2   6 18.6172 2.27382  10
  -2  -2   6 22.7043 2.22057   6
  -2  -2   6 21.0509 2.96286   1
  -2  -2   6 20.2137 2.33223   7
   1   2  -6 41.9142 3.14851   6
   1   2  -6 34.6354 3.25385   2
   1   2  -6 40.8689 3.44337   1
   1   2  -6 35.6945 2.95037   7
   1   2  -6 33.7760 2.98730   1
   1   2  -6 33.4938 2.79006   6
  -1  -2   6 38.0706 3.37390   1
  -1  -2   6 36.4967 3.09451   4
  -1  -2   6 37.8395 2.93980   6
  -1  -2   6 34.2535 3.01232   1
  -1  -2   6 36.6700 2.80262   7
  -1  -2   6 34.4426 3.34841  10
   0   2  -6 43.7215 3.32425   6
   0   2  -6 48.5755 3.59749   1
   0   2  -6 42.2899 3.21159   7
   0   2  -6 36.2272 3.01381   6
   0   2  -6 40.5393 3.19115   1
   0  -2   6 45.9508 3.59567   1
   0  -2   6 46.4818 3.35965   1
   0  -2   6 39.4755 3.35373   4
   0  -2   6 39.7332 3.04157   7
   0  -2   6 48.8180 3.24305   6
   0  -2   6 43.2377 3.53251  10
  -1   2  -6 27.2129 3.47391   4
  -1   2  -6 31.4033 2.97589   7
  -1   2  -6 33.0243 2.99495   6
  -1   2  -6 31.8518 2.78442   1
  -1   2  -6 27.3793 2.69049   6
  -1   2  -6 34.4881 3.24516   1
   1  -2   6 31.9775 3.01732   1
   1  -2   6 29.1736 3.34909   4
   1  -2   6 29.4281 2.67489   7
   1  -2   6 30.1598 3.60278  10
  -2   2  -6 26.6373 3.92890   4
  -2   2  -6 32.1923 4.12689  10
   2  -2   6 20.1440 2.75878  10
   2  -2   6 17.7691 2.47106   4
  -3   2  -6 7.63923 2.73013  10
  -3   2  -6 3.84557 2.58574   4
   9   1  -6 9.62483 2.70451   9
   9   1  -6 12.1103 3.67265   1
   9   1  -6 15.7470 3.45839   6
  -9  -1   6 11.2181 2.69574   9
  -9  -1   6 14.6899 2.57414  12
  -9  -1   6 17.7132 3.05726   3
  -9  -1   6 14.2986 2.54549   5
  -9  -1   6 17.6313 3.57868   1
   8   1  -6 30.8532 4.10858   9
   8   1  -6 35.3890 4.75071   1
  -8  -1   6 33.4131 3.91111   1
  -8  -1   6 38.8657 4.04084   3
  -8  -1   6 32.0392 3.72816  12
  -8  -1   6 32.5228 3.87124   9
  -8  -1   6 33.8221 3.85716   5
  -8  -1   6 32.9796 4.56309   1
   7   1  -6 16.3299 2.30760   1
   7   1  -6 14.3247 2.34610   9
   7   1  -6 13.8201 2.00622   6
  -7  -1   6 17.2469 2.26609   9
  -7  -1   6 16.7637 2.63708   1
  -7  -1   6 16.1148 2.20187  11
   6   1  -6 0.57055 1.52503   9
   6   1  -6 0.31374 1.50999   1
   6   1  -6 2.07986 1.41547   2
   6   1  -6 4.90323 1.90980   6
   6   1  -6 -1.5566 1.36724   6
   6   1  -6 0.63175 1.73388   1
  -6  -1   6 0.26616 1.43427   3
  -6  -1   6 0.57024 1.63158   1
  -6  -1   6 -0.8871 1.88262   1
  -6  -1   6 1.74395 1.74937  12
  -6  -1   6 -0.5292 1.42811   9
  -6  -1   6 0.82703 1.43754  11
   5   1  -6 23.7949 2.95711   6
   5   1  -6 23.9771 3.31762   1
   5   1  -6 20.9312 2.51261   1
   5   1  -6 21.3314 2.30948   6
   5   1  -6 20.0747 2.52438   2
   5   1  -6 21.2276 2.73035   9
  -5  -1   6 21.0827 2.71272   4
  -5  -1   6 23.0272 2.67871   3
  -5  -1   6 18.8083 2.65182  11
  -5  -1   6 22.0377 2.80665  12
  -5  -1   6 20.1423 2.52106   1
  -5  -1   6 20.7598 2.32083   7
  -5  -1   6 23.5754 2.59799   9
  -5  -1   6 21.2282 2.51675   1
   4   1  -6 30.0875 2.79690   2
   4   1  -6 24.5543 2.53210   9
   4   1  -6 30.0734 3.08780   6
   4   1  -6 29.5463 3.39119   1
  -4  -1   6 23.9787 3.02333  10
  -4  -1   6 27.2578 2.48596   7
  -4  -1   6 27.1543 2.84295  12
  -4  -1   6 25.2635 2.90832   4
  -4  -1   6 27.8988 2.64238  11
  -4  -1   6 27.8805 2.61672   1
  -4  -1   6 28.2855 3.32826   1
  -4  -1   6 25.6469 2.48687   3
   3   1  -6 18.5528 2.13031   7
   3   1  -6 18.6938 2.72216   6
   3   1  -6 18.4891 2.64697   2
   3   1  -6 15.2399 1.95933   6
   3   1  -6 20.1035 3.01892   1
   3   1  -6 18.2095 2.15652   1
  -3  -1   6 17.3587 1.77214   8
  -3  -1   6 17.4679 2.13944  10
  -3  -1   6 14.7722 2.08865  11
  -3  -1   6 14.8030 1.88252   7
  -3  -1   6 16.1671 1.94939   4
  -3  -1   6 17.5860 2.38278   1
  -3  -1   6 15.6305 2.17609   1
  -3  -1   6 19.4754 2.09735   3
   2   1  -6 60.1418 4.01316   1
   2   1  -6 57.4710 3.71980   7
   2   1  -6 51.9041 3.30202   6
   2   1  -6 50.8359 3.39768   1
   2   1  -6 60.0302 3.82365   6
   2   1  -6 53.4622 3.83835   2
  -2  -1   6 58.1075 3.47778   7
  -2  -1   6 53.7192 3.54464   1
  -2  -1   6 55.2549 3.89059  10
  -2  -1   6 56.1942 4.00509   1
  -2  -1   6 55.0326 3.67425   4
   1   1  -6 33.1373 2.97810   2
   1   1  -6 30.0200 2.86970   1
   1   1  -6 34.4042 3.01881   6
   1   1  -6 35.5684 3.35056   1
   1   1  -6 29.0350 2.64524   6
   1   1  -6 36.0684 2.98644   7
  -1  -1   6 29.1284 2.85973   1
  -1  -1   6 28.4521 3.11561  10
  -1  -1   6 32.9559 2.76273   7
  -1  -1   6 27.1976 2.83841   4
  -1  -1   6 31.1316 3.15871   1
   0   1  -6 19.5048 2.52482   1
   0   1  -6 25.3870 2.83389   7
   0   1  -6 25.2445 2.65213   6
   0   1  -6 18.5736 2.34479   6
   0   1  -6 26.1147 2.96352   1
   0  -1   6 25.1489 2.66275   1
   0  -1   6 22.6837 2.59450   7
   0  -1   6 27.6848 2.85249  10
   0  -1   6 23.7188 2.69292   4
   0  -1   6 20.4540 2.82351   1
  -1   1  -6 23.7708 3.03954   7
  -1   1  -6 27.8709 2.44075   6
  -1   1  -6 22.0115 2.31724   6
  -1   1  -6 23.8324 2.48530   1
  -1   1  -6 28.4137 2.89431   1
   1  -1   6 23.5519 2.65220   1
   1  -1   6 28.8650 3.11883  10
   1  -1   6 25.2666 2.66912   7
   1  -1   6 22.0009 2.85992   4
  -2   1  -6 33.0379 3.56255   7
  -2   1  -6 37.4273 3.55838   4
   2  -1   6 30.9545 3.33789   4
   2  -1   6 32.6197 3.80073  10
  -3   1  -6 4.95027 2.17003   4
  -3   1  -6 2.80631 2.39663   7
   9   0  -6 34.6285 4.09074   6
   9   0  -6 34.2201 4.92142   9
   9   0  -6 53.2161 6.02491   1
  -9   0   6 49.0278 5.83053   1
  -9   0   6 36.8336 4.58799   5
  -9   0   6 32.4595 4.49504   9
  -9   0   6 41.0406 4.60994   3
  -9   0   6 37.1054 4.06982  12
   8   0  -6 22.5519 4.19537   1
   8   0  -6 20.3497 3.07007   9
   8   0  -6 17.9181 3.16847   6
  -8   0   6 17.6120 2.62674  12
  -8   0   6 23.7939 3.31749   1
  -8   0   6 22.7321 2.76226   5
  -8   0   6 20.0178 2.68732   9
  -8   0   6 25.2506 3.65167   1
   7   0  -6 51.4573 4.34380   9
   7   0  -6 54.0270 4.50054   1
   7   0  -6 57.7506 3.91250   6
  -7   0   6 56.0839 4.15587   5
  -7   0   6 52.8205 4.27566   9
  -7   0   6 58.6415 4.63684   1
  -7   0   6 62.0140 4.28020  11
   6   0  -6 103.625 6.04641   1
   6   0  -6 99.5636 5.81905   9
   6   0  -6 104.788 5.90817   6
  -6   0   6 112.067 5.90210  11
  -6   0   6 106.239 5.70108   5
  -6   0   6 112.515 5.96424   1
  -6   0   6 109.790 6.21032   1
  -6   0   6 107.668 5.89320   9
  -6   0   6 104.536 5.93465  12
   5   0  -6 68.7639 4.25186   6
   5   0  -6 62.9453 4.15204   1
   5   0  -6 69.1952 4.49554   1
   5   0  -6 66.6844 3.98869   6
   5   0  -6 60.3008 4.07314   9
  -5   0   6 62.7354 3.80725   7
  -5   0   6 67.3457 4.23541  12
  -5   0   6 65.9230 4.64358   1
  -5   0   6 66.8691 4.15022  11
  -5   0   6 65.0237 3.98121   1
  -5   0   6 65.8144 3.96749   5
   4   0  -6 1.84243 1.45809   6
   4   0  -6 2.33372 1.65060   1
   4   0  -6 2.91538 1.22856   9
   4   0  -6 3.60808 1.39017   7
  -4   0   6 1.95956 1.26585  11
  -4   0   6 3.53074 1.55623  12
  -4   0   6 1.48848 1.25073   1
  -4   0   6 2.25133 1.45010   4
  -4   0   6 0.20732 1.27412   7
  -4   0   6 2.78878 1.74586   1
   3   0  -6 33.9974 2.90912   7
   3   0  -6 36.4302 2.79222   1
   3   0  -6 39.5990 3.23250   1
   3   0  -6 30.0394 2.54495   6
   3   0  -6 36.2495 2.62913   9
   3   0  -6 38.1026 3.07934   6
  -3   0   6 34.2051 2.86232  12
  -3   0   6 35.1740 2.35972   8
  -3   0   6 38.7090 3.23048  10
  -3   0   6 33.8460 2.67068   1
  -3   0   6 36.6092 3.14825   4
  -3   0   6 36.3487 3.41000   1
  -3   0   6 35.9381 2.56858   3
  -3   0   6 34.4639 2.78154   7
  -3   0   6 41.5732 2.71108  11
   2   0  -6 67.2661 4.08063   1
   2   0  -6 76.2963 4.25206   7
   2   0  -6 69.6212 4.41586   2
   2   0  -6 72.6360 4.41451   1
   2   0  -6 69.1581 3.97194   6
   2   0  -6 76.2007 4.28341   6
  -2   0   6 65.7589 4.02830   1
  -2   0   6 72.0690 4.49116   1
  -2   0   6 73.5888 4.24767   4
  -2   0   6 72.3427 4.12665   7
  -2   0   6 76.4879 4.39280  10
  -2   0   6 75.8342 3.52304   8
   1   0  -6 5.60504 1.59629   2
   1   0  -6 3.78839 1.75440   1
   1   0  -6 5.49200 1.75454   7
   1   0  -6 6.20424 1.43884   6
   1   0  -6 6.14146 1.59537   6
   1   0  -6 5.59319 1.57338   1
  -1   0   6 5.90806 1.55239  10
  -1   0   6 5.87956 1.51236   7
  -1   0   6 6.96129 1.80423   1
  -1   0   6 5.19201 1.39202   4
  -1   0   6 4.10566 1.44924   1
   0   0  -6 2.71698 1.64424   1
   0   0  -6 0.79382 1.66748   7
   0   0  -6 0.24725 1.30282   6
   0   0  -6 1.63357 1.47945   1
   0   0  -6 -0.3989 1.31821   6
   0   0   6 1.32955 1.49591   7
   0   0   6 1.33779 1.60780   1
   0   0   6 1.11817 1.32657   4
   0   0   6 -1.3877 1.39236   1
   0   0   6 2.87754 1.41527  10
  -1   0  -6 18.6495 2.27813   6
  -1   0  -6 23.7891 3.01369   7
  -1   0  -6 20.0293 2.47308   1
  -1   0  -6 24.5630 2.39193   6
  -1   0  -6 22.4606 2.70583   1
   1   0   6 22.4830 2.52792   1
   1   0   6 20.8668 2.43924   4
   1   0   6 25.4687 2.66176   7
   1   0   6 24.2216 2.77954  10
  -2   0  -6 26.2224 3.57747   7
   2   0   6 31.2270 2.67878   4
  -3   0  -6 15.8662 2.84748   7
   9  -1  -6 19.3224 3.77517   6
   9  -1  -6 15.1447 3.98743   1
  -9   1   6 12.2199 2.91847   9
  -9   1   6 19.4263 2.82438   5
  -9   1   6 14.2370 3.83504   1
  -9   1   6 13.2594 2.69614  12
   8  -1  -6 17.1541 2.64689   9
   8  -1  -6 18.1010 3.30160   1
   8  -1  -6 16.9472 2.96560   6
  -8   1   6 14.0259 2.59413   9
  -8   1   6 23.1664 3.42938   1
  -8   1   6 18.6273 2.79216   5
  -8   1   6 16.0769 2.62792  12
   7  -1  -6 63.2802 4.64281   1
   7  -1  -6 59.5632 4.60527   9
   7  -1  -6 60.0858 4.12401   6
  -7   1   6 61.0019 4.45502  11
  -7   1   6 54.7730 4.62121   1
  -7   1   6 62.4043 4.54912   9
  -7   1   6 55.8814 4.73581   1
  -7   1   6 63.1811 4.36082   5
  -7   1   6 55.5740 4.38773   6
  -7   1   6 59.5122 4.41046  12
   6  -1  -6 101.988 5.41356   6
   6  -1  -6 108.849 5.79298   1
   6  -1  -6 95.9113 5.54433   9
  -6   1   6 81.0047 5.58238   1
  -6   1   6 102.404 5.56687   1
  -6   1   6 86.0279 5.27639   5
  -6   1   6 97.6222 5.45116  12
  -6   1   6 92.7998 5.43371  11
  -6   1   6 82.0469 5.43007   6
   5  -1  -6 13.1468 2.25017   1
   5  -1  -6 12.8004 2.29086   6
   5  -1  -6 11.1846 1.56560   7
   5  -1  -6 11.9256 2.31741   1
   5  -1  -6 13.8278 2.08004   6
   5  -1  -6 9.51001 1.82386   9
  -5   1   6 8.86842 1.77578  11
  -5   1   6 10.6976 1.79219  12
  -5   1   6 11.2273 2.07462   6
  -5   1   6 10.2020 1.64825   1
  -5   1   6 8.95053 2.20869   1
  -5   1   6 9.15126 1.62141   5
   4  -1  -6 7.92709 1.55579   7
   4  -1  -6 7.96396 1.95982   1
   4  -1  -6 5.15897 1.51993   9
   4  -1  -6 7.88642 1.63620   6
  -4   1   6 6.74303 1.39570   1
  -4   1   6 7.98491 1.46376  11
  -4   1   6 5.49172 1.29799   5
  -4   1   6 6.92826 1.44084   7
  -4   1   6 6.22060 1.44827   8
  -4   1   6 4.27540 1.78454   1
  -4   1   6 6.35276 1.69509  12
  -4   1   6 6.78149 1.79599   6
   3  -1  -6 81.8690 4.50096   1
   3  -1  -6 89.5365 4.91800   1
   3  -1  -6 79.7004 4.58215   7
   3  -1  -6 77.2418 4.41017   9
   3  -1  -6 82.1302 4.59686   6
   3  -1  -6 76.6897 4.37389   6
  -3   1   6 81.9136 4.09315   8
  -3   1   6 76.9055 4.38687  12
  -3   1   6 81.3596 4.39784   1
  -3   1   6 82.3622 4.90572   1
  -3   1   6 79.6912 4.78341   6
  -3   1   6 78.8181 4.36672   7
  -3   1   6 79.5065 4.12328   5
  -3   1   6 83.6956 4.34635  11
  -3   1   6 80.9647 4.65602   4
   2  -1  -6 109.606 5.71718   7
   2  -1  -6 106.354 5.60718   1
   2  -1  -6 110.859 5.37019   9
   2  -1  -6 107.151 5.51263   6
   2  -1  -6 119.548 5.75530   6
   2  -1  -6 117.812 5.97921   1
  -2   1   6 110.721 5.56567   1
  -2   1   6 118.245 6.02327   1
  -2   1   6 109.030 5.59867   4
  -2   1   6 110.763 5.39874  12
  -2   1   6 111.447 5.14501   3
  -2   1   6 103.795 5.79579  10
  -2   1   6 105.647 5.51885   7
  -2   1   6 110.590 5.17771   8
   1  -1  -6 30.6926 2.96195   7
   1  -1  -6 21.8211 2.50297   6
   1  -1  -6 32.5076 2.67804   6
   1  -1  -6 28.6631 2.76631   1
   1  -1  -6 27.5987 2.98610   1
  -1   1   6 24.9952 2.59088   1
  -1   1   6 27.0325 2.67446   7
  -1   1   6 25.1271 2.76829  10
  -1   1   6 28.8330 2.51729   4
  -1   1   6 27.5819 3.04179   1
   0  -1  -6 13.0382 1.75350   6
   0  -1  -6 14.6646 1.86029   1
   0  -1  -6 13.9822 1.92775   1
   0  -1  -6 11.2081 1.72699   6
   0   1   6 14.7187 1.95363   7
   0   1   6 12.5933 1.76045   1
   0   1   6 14.4293 2.00666   4
   0   1   6 12.1421 1.64800  10
   0   1   6 12.6299 1.96447   1
  -1  -1  -6 23.2506 2.63026   1
  -1  -1  -6 26.9600 2.66769   1
  -1  -1  -6 26.7427 2.48622   6
  -1  -1  -6 29.6445 3.27144   7
  -1  -1  -6 24.2080 2.38651   6
   1   1   6 28.2289 2.59070   1
   1   1   6 26.7824 2.55699  10
   1   1   6 24.7186 2.74610   7
  -2  -1  -6 13.2783 2.53346   7
  -3  -1  -6 25.3368 3.26457   7
  -4  -1  -6 19.0068 3.75715   2
  -4  -1  -6 11.6069 3.48541   7
   8  -2  -6 14.5645 3.05113   6
   8  -2  -6 13.7709 2.72351   9
   8  -2  -6 14.3599 3.43516   1
  -8   2   6 17.2611 2.60811   5
  -8   2   6 15.6445 2.47849   6
  -8   2   6 15.8694 3.36772   1
  -8   2   6 15.0502 2.51109  12
  -8   2   6 12.1373 2.75989   1
   7  -2  -6 38.5370 3.98041   1
   7  -2  -6 33.1091 4.09013   9
   7  -2  -6 33.3170 4.80527   6
   7  -2  -6 34.0474 3.65183   6
   7  -2  -6 30.3220 5.53145   1
  -7   2   6 39.1707 3.83435  11
  -7   2   6 39.4521 4.30867   1
  -7   2   6 39.4733 3.73611   5
  -7   2   6 39.4389 3.99218   1
  -7   2   6 34.6552 3.84215   6
   6  -2  -6 39.9705 3.52282   6
   6  -2  -6 29.1802 3.96666  11
   6  -2  -6 38.5522 3.85189   1
   6  -2  -6 38.1822 3.93436   9
  -6   2   6 38.1558 3.37525   5
  -6   2   6 38.7690 3.55438  11
  -6   2   6 41.1004 3.67938   1
   5  -2  -6 5.44649 2.02016  11
   5  -2  -6 9.73827 2.25705   1
   5  -2  -6 6.84768 1.85861   6
   5  -2  -6 4.53920 1.82044   9
  -5   2   6 6.19194 2.04603   1
  -5   2   6 6.62332 1.54388   5
  -5   2   6 7.27083 1.71609  11
  -5   2   6 6.52527 1.86054   6
  -5   2   6 8.01835 1.67122   1
  -5   2   6 7.42243 1.54045   8
   4  -2  -6 6.89117 1.51833   7
   4  -2  -6 4.20591 1.71720   9
   4  -2  -6 6.63240 1.70504  11
   4  -2  -6 9.21477 2.09366   1
   4  -2  -6 6.55199 1.88052   6
  -4   2   6 3.22002 1.86740   1
  -4   2   6 8.87600 1.76792   6
  -4   2   6 5.89751 1.42779   8
  -4   2   6 7.09246 1.30024   5
  -4   2   6 6.06036 1.33910   1
  -4   2   6 7.23096 1.56891  11
   3  -2  -6 47.5148 3.61615   1
   3  -2  -6 39.3147 3.26221   6
   3  -2  -6 39.7032 3.17372   9
   3  -2  -6 41.2348 3.08463   7
  -3   2   6 44.2962 3.66244   1
  -3   2   6 43.0536 2.91022   1
  -3   2   6 36.8983 2.75018   8
  -3   2   6 40.8860 3.33070   6
  -3   2   6 39.4087 2.93660  11
  -3   2   6 39.2020 2.87158   7
  -3   2   6 39.7164 2.71760   5
   2  -2  -6 130.503 6.56713   6
   2  -2  -6 147.977 6.96179   1
   2  -2  -6 133.090 6.65955   1
   2  -2  -6 127.854 6.51926   9
   2  -2  -6 133.325 6.71171   7
   2  -2  -6 146.212 6.84114   6
  -2   2   6 134.326 6.81212   6
  -2   2   6 137.152 6.57986   1
  -2   2   6 139.974 6.94533   1
  -2   2   6 135.871 6.37560  11
  -2   2   6 134.621 6.31904   8
  -2   2   6 140.418 6.42183  12
  -2   2   6 128.258 6.59103   4
  -2   2   6 135.856 6.58912   7
  -2   2   6 136.079 6.29871   3
   1  -2  -6 111.102 5.48610   6
   1  -2  -6 103.563 5.40965   6
   1  -2  -6 116.054 5.62647   1
   1  -2  -6 101.986 5.59448   7
   1  -2  -6 99.2274 5.49073   1
   1  -2  -6 99.0359 5.20092   9
  -1   2   6 97.3636 5.39929  10
  -1   2   6 104.350 5.41878   7
  -1   2   6 108.542 5.01781   8
  -1   2   6 108.296 5.73730   1
  -1   2   6 114.512 5.63085   6
  -1   2   6 99.5942 5.22801   4
  -1   2   6 104.113 5.34214   1
   0  -2  -6 104.703 5.22391   6
   0  -2  -6 97.9461 5.29227   1
   0  -2  -6 94.3178 5.13302   6
   0  -2  -6 112.423 5.39460   1
   0  -2  -6 98.4601 5.42359   7
   0   2   6 104.320 5.41904   1
   0   2   6 105.402 4.73626   8
   0   2   6 95.9038 5.28571   7
   0   2   6 96.7267 4.99989  10
   0   2   6 95.7525 4.73735   4
   0   2   6 87.4113 5.10891   1
  -1  -2  -6 21.4800 2.60498   1
  -1  -2  -6 20.2578 2.41844   6
  -1  -2  -6 25.8034 3.19728   7
  -1  -2  -6 19.3125 2.36236   6
  -1  -2  -6 19.7676 2.61391   1
   1   2   6 19.5790 2.10448  10
   1   2   6 21.3303 2.68813   7
   1   2   6 22.2347 2.38648   1
  -2  -2  -6 17.0453 2.72162   7
  -3  -2  -6 17.7537 2.86488   2
  -3  -2  -6 13.0312 3.19110   7
  -4  -2  -6 21.1327 3.76345   7
  -4  -2  -6 17.8725 3.66805   2
   8  -3  -6 13.2583 3.23374   6
   8  -3  -6 15.4666 2.99643   9
   8  -3  -6 11.8588 3.30241  11
   8  -3  -6 21.3933 4.02739   1
  -8   3   6 14.3940 2.58463   6
  -8   3   6 20.2922 3.91306   1
  -8   3   6 13.8933 2.70260   5
  -8   3   6 15.5464 2.92012   1
   7  -3  -6 44.0836 4.74742  11
   7  -3  -6 36.0351 4.52365   9
   7  -3  -6 37.4622 4.44426   6
   7  -3  -6 47.4597 3.89868   6
   7  -3  -6 40.2490 4.25985   1
   7  -3  -6 39.9915 4.92963   1
  -7   3   6 43.5020 4.74364   1
  -7   3   6 38.0812 3.99045   6
  -7   3   6 31.3592 4.41808   1
  -7   3   6 39.9254 3.98425  11
  -7   3   6 33.0840 3.95189   5
   6  -3  -6 16.3881 2.60705  11
   6  -3  -6 17.7355 2.48371   6
   6  -3  -6 18.6468 2.71751   1
   6  -3  -6 17.9336 2.65894   9
  -6   3   6 15.4417 2.15109   5
  -6   3   6 21.9434 2.88445   8
  -6   3   6 15.5066 2.29762  11
  -6   3   6 16.3942 2.52562   1
   5  -3  -6 17.7816 2.44221   6
   5  -3  -6 12.9192 2.26068   9
   5  -3  -6 18.4096 2.50784  11
   5  -3  -6 16.1370 2.40296   1
  -5   3   6 14.5682 2.36066   6
  -5   3   6 12.2355 2.06126  11
  -5   3   6 13.5143 1.98691   8
  -5   3   6 16.8603 2.61996   1
  -5   3   6 13.5800 1.89899   5
  -5   3   6 14.7748 1.94845   1
   4  -3  -6 23.0438 3.05419   9
   4  -3  -6 23.6474 3.08003   1
   4  -3  -6 22.0872 3.18174  11
   4  -3  -6 25.8227 2.90937   6
  -4   3   6 23.2420 2.47534   1
  -4   3   6 19.0244 2.16613  11
  -4   3   6 24.6276 2.48392   5
  -4   3   6 21.5367 2.51542   6
  -4   3   6 18.6804 2.56973   1
  -4   3   6 18.7539 2.48362   8
   3  -3  -6 7.28608 1.74314  11
   3  -3  -6 8.55956 1.96044   1
   3  -3  -6 6.99935 1.76045   9
   3  -3  -6 6.43268 1.78382   6
   3  -3  -6 4.93515 1.53366   7
  -3   3   6 6.39345 1.36910  11
  -3   3   6 6.89792 1.46711   8
  -3   3   6 6.07685 1.66167   7
  -3   3   6 6.51216 1.54853   3
  -3   3   6 6.82967 2.04040   1
  -3   3   6 6.51288 1.31238   5
  -3   3   6 4.92350 1.40151   1
  -3   3   6 7.25285 1.81419   6
   2  -3  -6 20.5542 2.80848   9
   2  -3  -6 25.5059 2.20442   6
   2  -3  -6 22.8696 2.66523  11
   2  -3  -6 24.6740 3.15206   1
   2  -3  -6 18.6969 2.48669   7
   2  -3  -6 24.9428 2.78370   6
   2  -3  -6 23.3263 2.37874   1
  -2   3   6 24.4733 2.31183  11
  -2   3   6 22.9971 2.97456   6
  -2   3   6 23.3186 2.40917   3
  -2   3   6 21.3474 3.27651   1
  -2   3   6 24.3314 2.35084   8
  -2   3   6 23.3667 2.39451   7
  -2   3   6 22.0644 2.34479   1
   1  -3  -6 27.8967 2.58365   6
   1  -3  -6 24.7476 2.88047   9
   1  -3  -6 28.0249 3.14956   1
   1  -3  -6 28.8109 2.92141   6
   1  -3  -6 29.2546 2.99263   7
   1  -3  -6 27.8662 2.78779   1
  -1   3   6 26.6588 2.32194   3
  -1   3   6 27.9154 2.61490   4
  -1   3   6 27.5758 3.35500   1
  -1   3   6 30.3168 2.65423   7
  -1   3   6 28.1486 2.63193   1
  -1   3   6 28.9082 2.98153   6
  -1   3   6 28.8632 2.58002   8
  -1   3   6 26.7835 2.91700  10
   0  -3  -6 14.7041 2.09374   1
   0  -3  -6 12.4248 2.15953   7
   0  -3  -6 12.4479 1.91352   1
   0  -3  -6 11.8194 1.80099   6
   0  -3  -6 11.5548 1.87577   6
   0   3   6 17.9268 2.30958   1
   0   3   6 10.9936 1.89529   7
   0   3   6 13.3113 1.68028   8
   0   3   6 12.9637 1.94257   6
   0   3   6 16.2726 2.24933   1
   0   3   6 9.81982 1.47806  10
  -1  -3  -6 6.30081 1.68835   6
  -1  -3  -6 7.03250 1.85332   1
  -1  -3  -6 7.39340 1.65675   6
  -1  -3  -6 8.02576 2.25227   7
  -1  -3  -6 9.41567 1.78384   1
   1   3   6 9.87822 1.68914   1
   1   3   6 8.18967 1.86725   1
   1   3   6 8.39595 1.50323   8
   1   3   6 8.01131 1.82912   7
  -2  -3  -6 21.4193 2.64044   8
  -2  -3  -6 17.8395 2.92446   7
   2   3   6 18.8678 2.68865   7
  -3  -3  -6 10.7383 3.04293   7
  -3  -3  -6 9.82801 2.57297   2
  -3  -3  -6 14.2655 2.20440   8
  -4  -3  -6 47.8581 5.75043   7
  -4  -3  -6 51.4567 5.73112   2
  -4  -3  -6 47.6300 4.55238   8
   8  -4  -6 4.59299 3.76731   1
   8  -4  -6 5.15939 3.28682   6
  -8   4   6 -0.0047 2.62707   5
  -8   4   6 0.11351 3.49450   1
   7  -4  -6 11.5913 2.59989   9
   7  -4  -6 18.8242 3.36369   1
   7  -4  -6 12.6020 2.67213   1
   7  -4  -6 11.3731 2.62821   6
   7  -4  -6 13.9846 2.86674   6
   7  -4  -6 13.1678 3.09886  11
  -7   4   6 10.0871 2.32266  11
  -7   4   6 15.2526 2.57618   6
  -7   4   6 17.6668 2.63218   8
  -7   4   6 15.8880 3.21686   1
  -7   4   6 10.2033 2.38287   5
  -7   4   6 10.0467 2.84103   1
   6  -4  -6 18.2246 2.91588   1
   6  -4  -6 14.5741 2.62450   1
   6  -4  -6 15.0684 2.49557   6
   6  -4  -6 13.7378 2.89498  11
   6  -4  -6 13.5033 2.45221   6
   6  -4  -6 10.6775 2.61685   9
  -6   4   6 14.3666 2.11215   5
  -6   4   6 17.3502 2.83892   1
  -6   4   6 11.7878 2.04844   8
  -6   4   6 7.76699 2.14716  11
  -6   4   6 17.8167 2.87195   6
  -6   4   6 13.0949 2.81228   1
   5  -4  -6 88.6768 5.51898   6
   5  -4  -6 85.0033 6.12654   6
   5  -4  -6 98.0130 5.68886   1
   5  -4  -6 85.8999 5.56375   9
   5  -4  -6 99.9274 7.34246   1
   5  -4  -6 81.0918 5.65561  11
  -5   4   6 96.4470 5.24268   1
  -5   4   6 82.2100 4.99067   8
  -5   4   6 89.9486 5.18889  11
  -5   4   6 89.3400 5.01941   5
   4  -4  -6 41.5309 3.84454   9
   4  -4  -6 41.1954 4.04232   1
   4  -4  -6 43.7885 3.89815  11
   4  -4  -6 41.2792 3.90104   6
  -4   4   6 52.1349 3.36908   5
  -4   4   6 44.6799 4.24232   1
  -4   4   6 51.9514 3.37456   1
  -4   4   6 47.9211 3.60631  11
  -4   4   6 50.9042 3.35005   8
  -4   4   6 42.8687 3.88483   6
   3  -4  -6 31.5304 3.25630   6
   3  -4  -6 30.8552 3.27761  11
   3  -4  -6 30.5332 3.48421   1
   3  -4  -6 25.4833 3.31655   9
  -3   4   6 31.4667 3.78759   1
  -3   4   6 27.0895 2.57248   5
  -3   4   6 32.4029 2.75126   1
  -3   4   6 30.7607 2.87345  11
  -3   4   6 34.2649 2.95886   3
  -3   4   6 25.9731 2.76113   8
  -3   4   6 30.5490 3.35156   6
   2  -4  -6 14.1293 2.06108   6
   2  -4  -6 18.0523 2.69904  11
   2  -4  -6 18.1014 2.41583   7
   2  -4  -6 13.9969 2.20345   9
   2  -4  -6 19.1491 2.52556   1
   2  -4  -6 17.4718 2.51873   1
   2  -4  -6 18.9938 2.78063   6
  -2   4   6 16.3671 2.50545   1
  -2   4   6 24.8986 2.59223   3
  -2   4   6 17.7444 2.25665   1
  -2   4   6 18.3154 2.40368  11
  -2   4   6 15.0261 1.84487   7
  -2   4   6 19.4330 2.42359   6
  -2   4   6 19.6575 2.47124   8
   1  -4  -6 11.2956 2.09652   1
   1  -4  -6 10.4564 1.98496   7
   1  -4  -6 8.89491 1.93318   6
   1  -4  -6 9.96080 1.66973   6
   1  -4  -6 10.3260 1.81401   1
   1  -4  -6 10.5274 1.63294  11
  -1   4   6 9.55197 2.13781   1
  -1   4   6 10.5646 1.59996   4
  -1   4   6 12.5225 2.00350   6
  -1   4   6 13.4221 1.79380   1
  -1   4   6 10.9635 1.62445   3
  -1   4   6 10.8700 1.83343   8
  -1   4   6 10.6404 1.76882   7
   0  -4  -6 5.46909 1.77891   6
   0  -4  -6 3.63386 1.94555   1
   0  -4  -6 5.91477 1.63896   1
   0  -4  -6 2.48466 1.85890   7
   0  -4  -6 5.16673 1.50634   6
   0   4   6 6.30420 1.64325   8
   0   4   6 1.63843 1.97096   1
   0   4   6 4.86533 1.28206  10
   0   4   6 5.91613 1.47466   3
   0   4   6 4.90896 1.67157   7
   0   4   6 2.51912 1.79429   6
   0   4   6 2.26159 1.46485   1
  -1  -4  -6 5.63944 2.09840   7
  -1  -4  -6 7.46430 1.82222   1
  -1  -4  -6 5.01702 1.74853   8
  -1  -4  -6 4.87413 1.70683   6
  -1  -4  -6 6.36641 1.88497   1
  -1  -4  -6 6.98005 1.74117   6
   1   4   6 10.0028 1.93805   7
   1   4   6 5.57964 1.81837   6
   1   4   6 4.51979 1.40055   3
   1   4   6 7.03760 1.98807   1
   1   4   6 3.26111 1.70068   8
  -2  -4  -6 0.08151 1.84567   8
  -2  -4  -6 0.69077 2.43243   7
  -2  -4  -6 -0.7666 1.58250   1
  -2  -4  -6 -1.2219 1.78859   1
   2   4   6 0.09341 2.13371   7
   2   4   6 -0.3911 1.78524   8
   2   4   6 -0.0614 1.47656   1
   2   4   6 -1.0498 1.81573   1
  -3  -4  -6 13.5429 2.44441   8
  -3  -4  -6 11.3035 2.89299   2
  -3  -4  -6 15.1190 3.20363   7
   7  -5  -6 3.95623 2.90562   9
   7  -5  -6 6.58079 3.07119  11
   7  -5  -6 5.47652 2.84267   6
   7  -5  -6 9.27371 2.63724   6
   7  -5  -6 9.57502 3.60301   1
   7  -5  -6 6.23604 2.80105   1
  -7   5   6 10.5496 2.92680   1
  -7   5   6 6.01573 2.69615   6
  -7   5   6 3.05121 2.41863  11
  -7   5   6 10.2891 2.36595   5
  -7   5   6 9.06258 3.21930   7
  -7   5   6 5.02370 2.48079   8
   6  -5  -6 12.8894 2.84317   1
   6  -5  -6 5.23196 2.38715   6
   6  -5  -6 4.88619 2.61599  11
   6  -5  -6 7.86792 2.93066   1
   6  -5  -6 10.9445 2.53933   6
   6  -5  -6 0.43495 2.53333   9
  -6   5   6 6.80380 2.07936   5
  -6   5   6 4.66831 1.98106   8
  -6   5   6 5.62454 2.25183   6
  -6   5   6 6.04565 2.17976  11
  -6   5   6 6.85764 2.66836   1
  -6   5   6 8.39456 2.54308   1
   5  -5  -6 28.3283 4.01107   1
   5  -5  -6 27.8316 3.59751   6
   5  -5  -6 26.6824 3.59693   1
   5  -5  -6 16.9960 2.62171   6
   5  -5  -6 25.0001 3.09038  11
   5  -5  -6 20.6423 2.77574   9
  -5   5   6 23.0996 3.40488  11
  -5   5   6 28.6182 3.21616   8
  -5   5   6 28.0293 3.37293   5
  -5   5   6 27.3292 3.24691   1
   4  -5  -6 39.5444 3.69491   6
   4  -5  -6 32.7304 3.98670  11
   4  -5  -6 30.4217 3.85021   9
   4  -5  -6 28.4783 3.79895   6
   4  -5  -6 40.0661 3.99794   1
  -4   5   6 30.9926 3.47089   3
  -4   5   6 31.5435 3.17963   8
  -4   5   6 29.5905 3.56245   6
  -4   5   6 30.9745 3.35652  11
  -4   5   6 33.3894 3.20133   5
  -4   5   6 32.5033 4.37555   1
   3  -5  -6 54.0268 4.27130   6
   3  -5  -6 50.0031 4.23915  11
   3  -5  -6 49.3040 4.11478   9
   3  -5  -6 55.9793 4.52265   1
  -3   5   6 55.1967 3.50952   5
  -3   5   6 56.5181 3.75571  11
  -3   5   6 51.9362 4.00358   3
  -3   5   6 59.0709 3.50147   1
  -3   5   6 52.3304 4.76397   1
  -3   5   6 59.2939 3.69147   8
  -3   5   6 47.0974 4.12827   6
   2  -5  -6 -0.6826 1.31456   7
   2  -5  -6 0.58668 1.76095  11
   2  -5  -6 2.13428 1.96885   1
   2  -5  -6 -1.0769 1.83518   9
   2  -5  -6 -1.1847 1.75576   6
  -2   5   6 1.07528 1.30251   1
  -2   5   6 0.78218 1.57912   8
  -2   5   6 0.25037 1.80794   6
  -2   5   6 1.44255 1.63593   3
  -2   5   6 1.69554 1.43541  11
  -2   5   6 -1.1771 2.18222   1
  -2   5   6 0.12817 1.13514   5
   1  -5  -6 -0.3188 1.96018   1
   1  -5  -6 1.29758 1.51196   7
   1  -5  -6 -0.9752 1.50066   6
   1  -5  -6 -0.2946 1.54781   1
   1  -5  -6 2.00804 1.66450  11
   1  -5  -6 0.60026 1.88398   6
  -1   5   6 -0.8256 1.20581   4
  -1   5   6 -1.8160 1.32338   1
  -1   5   6 0.24244 1.66150   8
  -1   5   6 1.74482 1.79682   6
  -1   5   6 1.03610 1.58056   3
  -1   5   6 -1.1248 2.00926   1
   0  -5  -6 51.0217 3.74300   6
   0  -5  -6 50.0175 4.03461   1
   0  -5  -6 44.9141 3.59976   6
   0  -5  -6 45.7187 3.68269   7
   0  -5  -6 45.4354 3.77058   1
   0   5   6 38.0466 3.40900   1
   0   5   6 48.8551 3.17455  10
   0   5   6 45.1378 3.36603   7
   0   5   6 47.6925 3.66842   8
   0   5   6 55.1635 3.79626   6
   0   5   6 46.0078 3.46259   3
   0   5   6 42.8619 4.15373   1
  -1  -5  -6 18.2114 2.74401   7
  -1  -5  -6 16.4328 2.38477   1
  -1  -5  -6 25.9673 3.30014   1
  -1  -5  -6 16.3446 2.30462   8
  -1  -5  -6 16.8228 2.18886   6
  -1  -5  -6 13.7785 2.06413   6
   1   5   6 16.6476 2.21206   6
   1   5   6 15.2370 2.07938   1
   1   5   6 13.6415 2.34940   7
   1   5   6 17.1527 2.35465   8
   1   5   6 16.9545 2.41997   1
   1   5   6 15.0517 2.02211   3
  -2  -5  -6 -0.1898 2.06825   8
  -2  -5  -6 1.37339 1.88547   6
  -2  -5  -6 -1.5680 1.89405   1
  -2  -5  -6 0.60544 1.73168   6
  -2  -5  -6 2.94816 2.07913   1
  -2  -5  -6 1.34669 2.35526   7
   2   5   6 -0.2823 2.11783   8
   2   5   6 0.42354 2.42827   7
   2   5   6 -0.5222 1.73786   3
   2   5   6 -1.1472 1.69460   1
  -3  -5  -6 2.09845 3.08542   7
  -3  -5  -6 8.50263 2.59233   8
   6  -6  -6 10.0015 3.02196  11
   6  -6  -6 8.81957 3.12191   1
   6  -6  -6 12.2594 2.99169   9
   6  -6  -6 14.3263 3.05825   1
   6  -6  -6 9.02289 3.05399   6
   6  -6  -6 14.3550 3.07062   6
   6  -6  -6 10.7133 2.56786   7
  -6   6   6 5.57230 2.85788   1
  -6   6   6 10.0135 2.64588   5
  -6   6   6 15.5762 2.63276   4
  -6   6   6 13.3232 2.95140   1
  -6   6   6 10.2379 2.30786  11
  -6   6   6 14.0417 2.50437   8
  -6   6   6 13.9597 2.61571   6
   5  -6  -6 15.8177 2.89804   6
   5  -6  -6 11.1188 2.96234  11
   5  -6  -6 12.0870 2.73708   1
   5  -6  -6 11.7304 2.80820   9
  -5   6   6 12.8177 2.33412   1
  -5   6   6 14.0317 2.42683  11
  -5   6   6 12.5041 2.41081   4
  -5   6   6 12.8127 3.01313   1
  -5   6   6 12.6329 2.82354   3
  -5   6   6 10.6865 2.17977   8
  -5   6   6 11.1825 2.41003   5
  -5   6   6 12.7066 2.64455   6
   4  -6  -6 29.3807 3.88828   6
   4  -6  -6 20.1996 3.00894   9
   4  -6  -6 22.5115 3.09533  11
   4  -6  -6 32.8313 4.27168   1
  -4   6   6 25.5755 3.58000   4
  -4   6   6 26.2142 3.18197   8
  -4   6   6 29.0494 3.61993   3
  -4   6   6 27.1075 3.37703  11
  -4   6   6 19.2188 2.44216   5
   3  -6  -6 10.6213 2.59674   1
   3  -6  -6 7.09598 2.44010   6
   3  -6  -6 2.09574 2.09243   9
   3  -6  -6 7.63327 2.36611  11
  -3   6   6 7.48061 2.08461   8
  -3   6   6 5.89154 2.13009   6
  -3   6   6 6.27227 1.88964   4
  -3   6   6 7.33435 2.04723   3
  -3   6   6 6.11476 1.76360   5
  -3   6   6 5.99986 1.90809  11
  -3   6   6 7.67219 2.73329   1
   2  -6  -6 8.50026 2.35841   9
   2  -6  -6 13.9409 2.59589   6
   2  -6  -6 13.7687 2.71380   1
   2  -6  -6 12.0114 2.30881  11
  -2   6   6 13.3108 2.75924   1
  -2   6   6 14.8786 2.26556   3
  -2   6   6 9.05027 1.95710  11
  -2   6   6 14.8278 1.97262   4
  -2   6   6 11.7875 2.01255   8
  -2   6   6 9.94708 2.30817   6
   1  -6  -6 37.9308 3.91553  11
   1  -6  -6 44.3365 4.27819   1
   1  -6  -6 48.2427 4.02038   6
   1  -6  -6 37.8314 3.61098   1
   1  -6  -6 41.3450 3.39224   7
  -1   6   6 43.4376 3.25086   4
  -1   6   6 52.2702 4.94016   1
  -1   6   6 39.8415 4.03377   6
  -1   6   6 42.5445 3.84131   8
  -1   6   6 40.7402 3.30078   1
  -1   6   6 45.6236 3.74862   3
   0  -6  -6 50.3929 4.35484   1
   0  -6  -6 47.2849 4.11102   1
   0  -6  -6 42.5016 3.70622   7
   0  -6  -6 46.8284 3.91829   6
   0  -6  -6 40.5127 3.88506   8
   0  -6  -6 36.4921 3.82027  11
   0   6   6 44.1534 4.03747   8
   0   6   6 52.2202 4.75553   1
   0   6   6 49.9193 3.84635   3
   0   6   6 44.2207 3.99766   6
   0   6   6 50.1856 3.06310  10
  -1  -6  -6 24.1147 2.89496   1
  -1  -6  -6 28.1054 3.45310   7
  -1  -6  -6 24.0013 3.41524   6
  -1  -6  -6 19.5932 2.59283   1
  -1  -6  -6 21.5039 2.72025   8
   1   6   6 22.1390 2.65657   3
   1   6   6 19.8691 2.53627   7
   1   6   6 27.6616 3.85348   8
   1   6   6 25.3855 3.27561   1
   1   6   6 27.5558 3.44775   6
   1   6   6 18.0181 2.85711   1
  -2  -6  -6 12.8821 2.58878   1
  -2  -6  -6 10.4385 2.41421   1
  -2  -6  -6 6.30520 2.30604   6
  -2  -6  -6 10.9851 2.90074   7
  -2  -6  -6 9.25579 2.26790   6
  -2  -6  -6 11.7950 2.76480   8
   2   6   6 13.2642 2.19572   1
   2   6   6 12.1692 2.61198   8
   2   6   6 11.4733 2.66322   1
   2   6   6 10.3735 2.70569   7
   2   6   6 9.38881 2.44320   3
   2   6   6 12.4454 2.36024   6
  -3  -6  -6 4.76906 2.83341   8
  -3  -6  -6 4.20067 3.18403   7
  -3  -6  -6 6.14050 2.41573   1
   3   6   6 -0.6069 2.77793   8
   6  -7  -6 12.4409 3.32618   6
   6  -7  -6 7.31269 3.72274   1
   6  -7  -6 11.5518 3.64969   1
   6  -7  -6 7.26168 3.15796   7
  -6   7   6 7.62266 2.65754  11
  -6   7   6 11.8370 3.38529   1
  -6   7   6 8.51435 3.17145   6
  -6   7   6 11.6241 2.99823   5
  -6   7   6 7.28536 3.50075   1
  -6   7   6 9.58689 2.94951   4
   5  -7  -6 12.7856 3.15977   1
   5  -7  -6 11.5867 3.24375   1
   5  -7  -6 10.6941 2.53048   7
   5  -7  -6 10.6324 2.99936   6
   5  -7  -6 10.6371 2.86577   9
   5  -7  -6 11.5826 3.15235  11
  -5   7   6 10.0933 2.56417   4
  -5   7   6 12.3653 2.77489   1
  -5   7   6 8.57309 3.56804   1
  -5   7   6 5.59288 2.44097   5
  -5   7   6 10.8386 2.72648   8
  -5   7   6 11.3510 2.56211  11
  -5   7   6 6.99784 2.83282   6
  -5   7   6 13.0780 2.79733   3
   4  -7  -6 10.8733 3.23738   1
   4  -7  -6 6.90262 2.73294   9
   4  -7  -6 9.67077 2.89316   6
   4  -7  -6 12.2984 3.01862  11
  -4   7   6 13.2337 2.33808   4
  -4   7   6 8.66684 2.25055   5
  -4   7   6 7.61531 2.36973  11
  -4   7   6 12.8064 2.35712   8
  -4   7   6 7.01660 2.66716   3
   3  -7  -6 16.2618 3.04731   1
   3  -7  -6 10.3589 2.57670   9
   3  -7  -6 12.3100 2.79894  11
   3  -7  -6 17.5360 2.90520   6
  -3   7   6 13.5673 3.16165   1
  -3   7   6 11.5347 2.27384  11
  -3   7   6 15.2994 2.43125   8
  -3   7   6 15.4660 2.36691   4
  -3   7   6 11.6738 2.13881   5
  -3   7   6 16.6828 2.63218   3
  -3   7   6 8.02164 2.59508   6
   2  -7  -6 35.0838 4.53045   1
   2  -7  -6 29.5883 4.10113   6
   2  -7  -6 25.2252 3.18973  11
  -2   7   6 30.2651 3.63543  11
  -2   7   6 37.6277 3.86985   8
  -2   7   6 29.2657 3.51516   4
  -2   7   6 27.6176 3.42724   1
  -2   7   6 28.6384 3.86818   3
  -2   7   6 27.0221 3.90574   6
   1  -7  -6 16.9053 2.73159   6
   1  -7  -6 11.9666 2.74130   1
   1  -7  -6 7.92250 2.54008  11
   1  -7  -6 13.3705 2.76285   1
  -1   7   6 8.60480 2.35044   8
  -1   7   6 11.2500 1.83762   4
  -1   7   6 12.8218 2.50949   3
  -1   7   6 9.08280 2.44139   6
  -1   7   6 6.67817 2.73370   1
  -1   7   6 13.6242 1.95339  10
   0  -7  -6 28.7916 3.89068   6
   0  -7  -6 27.8616 3.90305   1
   0  -7  -6 23.3664 3.03145   8
   0  -7  -6 23.7143 2.86106  11
   0  -7  -6 32.5651 4.36096   1
   0   7   6 20.0763 2.89262   6
   0   7   6 25.3355 2.68737  10
   0   7   6 26.7995 3.82078   8
   0   7   6 34.8317 3.97817   3
   0   7   6 22.2200 3.25328   1
   0   7   6 27.3080 3.22650   1
  -1  -7  -6 5.76779 2.21254  11
  -1  -7  -6 3.64630 2.51705   6
  -1  -7  -6 5.60869 2.55762   1
  -1  -7  -6 7.70680 2.25903   7
  -1  -7  -6 8.39448 2.71548   1
  -1  -7  -6 3.32700 2.48051   8
   1   7   6 6.01288 2.66310   8
   1   7   6 3.98669 2.48469   6
   1   7   6 8.62938 2.19037   1
   1   7   6 12.3406 3.04798   1
   1   7   6 4.41895 2.62338   3
   1   7   6 6.21506 3.62011   7
  -2  -7  -6 10.8262 2.74232   1
  -2  -7  -6 7.10865 2.81269   8
  -2  -7  -6 4.71579 2.83228   7
  -2  -7  -6 7.05387 2.54504   6
  -2  -7  -6 5.90555 2.81209   1
   2   7   6 9.93787 3.01887   3
   2   7   6 5.96999 2.37619   1
   2   7   6 7.56359 2.44506   6
   2   7   6 4.32537 2.97360   8
   2   7   6 4.38330 2.91694   1
   5  -8  -6 7.37541 3.93597  11
   5  -8  -6 8.71737 3.30028   6
   5  -8  -6 5.32843 2.95787   7
   5  -8  -6 4.06277 3.78762   1
  -5   8   6 3.26377 3.05681  11
  -5   8   6 5.02127 3.06238   4
  -5   8   6 0.53410 3.98369   1
  -5   8   6 -1.2024 2.94473   6
  -5   8   6 4.94781 2.71234   5
  -5   8   6 1.86585 2.83278   1
   4  -8  -6 0.41297 3.28686   6
   4  -8  -6 0.22889 2.37603   7
   4  -8  -6 2.17824 3.17583  11
   4  -8  -6 -1.5973 2.84336   9
   4  -8  -6 -0.2209 3.04480   1
  -4   8   6 -1.7443 2.71937   6
  -4   8   6 3.29527 2.36965  11
  -4   8   6 -1.0614 2.40892   5
  -4   8   6 3.02245 2.96252   3
  -4   8   6 -0.8331 3.06835   1
  -4   8   6 -0.9388 2.54792   8
  -4   8   6 2.81788 2.43107   4
   3  -8  -6 0.29176 2.79161  11
   3  -8  -6 9.41579 3.28180   1
   3  -8  -6 2.55041 2.82256   6
   3  -8  -6 -2.5006 2.73057   9
  -3   8   6 1.59975 2.39195   4
  -3   8   6 7.57256 2.79858   3
  -3   8   6 4.48150 2.43952   8
  -3   8   6 1.62251 2.50270  10
  -3   8   6 5.29384 2.25908  11
   2  -8  -6 -0.7847 2.93164   1
   2  -8  -6 4.96277 2.74720   6
   2  -8  -6 -0.2247 2.73340  11
  -2   8   6 7.58068 3.18515   1
  -2   8   6 5.40789 2.59961   6
  -2   8   6 1.28045 2.12875  10
  -2   8   6 3.66827 2.55305   8
  -2   8   6 3.92385 2.45031   3
  -2   8   6 2.24435 2.05598   4
   1  -8  -6 9.40466 2.78664  11
   1  -8  -6 5.50807 2.84132   6
   1  -8  -6 9.48059 3.09753   1
  -1   8   6 4.93942 1.85194   4
  -1   8   6 5.72849 2.69465   6
  -1   8   6 10.6527 3.33399   1
  -1   8   6 4.58425 1.98657  10
  -1   8   6 0.26264 3.23851   1
  -1   8   6 7.97553 2.68432   3
  -1   8   6 10.8544 2.71270   8
   0  -8  -6 1.87231 2.81497   6
   0  -8  -6 6.36914 2.57799   1
   0  -8  -6 1.15798 2.93076   1
   0  -8  -6 2.43482 2.60656  11
   0  -8  -6 -1.8968 2.58398   8
   0   8   6 0.04778 2.68403   8
   0   8   6 3.91008 2.70589   3
   0   8   6 2.85959 1.59598   4
   0   8   6 3.91287 2.24886   1
   0   8   6 3.85304 1.74577  10
   0   8   6 7.68720 3.11928   1
   0   8   6 3.78596 2.57043   6
  -1  -8  -6 1.48767 2.55214  11
  -1  -8  -6 7.74674 2.96164   1
  -1  -8  -6 5.61408 2.77737   8
  -1  -8  -6 17.6513 3.19843   1
  -1  -8  -6 7.82680 2.88933   6
   1   8   6 9.03323 3.11226   8
   1   8   6 6.45484 2.86882   6
   1   8   6 11.6483 2.55675   1
   1   8   6 9.88714 3.19142   3
   1   8   6 8.50954 3.36875   1
  -2  -8  -6 8.67441 3.77221   6
  -2  -8  -6 14.8840 4.69909   1
  -2  -8  -6 13.8523 3.18365   8
  -2  -8  -6 4.76214 3.35626   1
  -2  -8  -6 7.52575 2.98937   7
   2   8   6 8.72447 3.29926   3
   2   8   6 8.65955 2.82879   1
   2   8   6 15.4422 3.50655   8
   3  -9  -6 -1.0792 3.13659   9
   3  -9  -6 -4.4188 3.51306  11
   3  -9  -6 2.97302 3.46121   6
   3  -9  -6 2.33667 3.09369   5
   3  -9  -6 0.18122 3.52018   1
  -3   9   6 0.82735 3.16169   3
  -3   9   6 -2.8562 2.50461   4
  -3   9   6 -1.9509 3.18454   8
  -3   9   6 4.23071 3.80396   1
  -3   9   6 2.14407 2.87548  10
  -3   9   6 3.53944 3.43755   6
  -3   9   6 2.02918 2.97402  11
   2  -9  -6 0.70611 2.98843   6
   2  -9  -6 -1.9259 3.21155  11
   2  -9  -6 -0.9535 3.33294   1
   2  -9  -6 0.10173 2.82784   5
  -2   9   6 1.79518 2.43351  10
  -2   9   6 1.13647 2.49160   4
  -2   9   6 2.94379 2.92518   8
  -2   9   6 -0.2059 3.02321   3
   1  -9  -6 2.14352 3.04130  11
   1  -9  -6 -2.2624 2.66805   5
   1  -9  -6 2.75851 3.37019   6
   1  -9  -6 1.62935 3.36305   1
  -1   9   6 -3.8914 2.14766  10
  -1   9   6 1.38555 3.00004   3
  -1   9   6 0.07533 2.03146   4
  -1   9   6 2.55426 2.96069   6
  -1   9   6 5.82416 3.23479   8
  -1   9   6 7.93275 3.51958   1
   0  -9  -6 8.33784 2.87276   1
   0  -9  -6 2.85855 2.60421   5
   0  -9  -6 5.43279 3.40825   1
   0  -9  -6 1.93362 3.22884   6
   0  -9  -6 -2.9068 2.88755  11
   0  -9  -6 1.29805 2.73501   8
   0   9   6 5.07765 3.23191   3
   0   9   6 7.03612 3.09341   6
   0   9   6 11.3019 3.61775   1
   0   9   6 7.81229 2.47685   1
   0   9   6 5.14892 1.81293   4
   0   9   6 4.60842 3.12715   8
   0   9   6 7.38275 2.00528  10
   4   8  -7 1.47620 3.83010   1
  -4  -8   7 -0.6653 2.91680   3
   7   7  -7 26.8309 4.28333   1
   7   7  -7 23.1824 3.49141   6
  -7  -7   7 22.6219 3.64490   1
  -7  -7   7 22.9034 3.61119   6
  -7  -7   7 30.1082 3.81110   3
  -7  -7   7 24.9994 3.79804   7
   6   7  -7 7.26457 2.94832   6
   6   7  -7 12.0764 2.34341   6
   6   7  -7 8.31003 3.22207   1
   6   7  -7 11.2663 3.72604   1
  -6  -7   7 8.22638 2.61157   8
  -6  -7   7 7.75340 2.46421   9
  -6  -7   7 7.39402 3.62903   1
  -6  -7   7 9.12100 2.99438   7
   5   7  -7 4.21662 2.91673   6
   5   7  -7 1.81157 3.38085   1
   5   7  -7 -0.8762 2.72362  12
  -5  -7   7 -0.1918 2.20922   4
  -5  -7   7 2.35529 2.74610   3
  -5  -7   7 -1.3258 2.69291   7
  -5  -7   7 3.23513 3.38899   1
  -5  -7   7 1.83760 2.22813   8
  -5  -7   7 2.15070 2.09932   9
   4   7  -7 0.14650 2.99434   6
   4   7  -7 0.12154 2.80554  12
   4   7  -7 6.13246 3.47834   1
  -4  -7   7 -0.2208 2.71322  10
  -4  -7   7 3.77263 2.55294   3
  -4  -7   7 3.44469 2.55776   7
  -4  -7   7 0.17507 1.92976   8
  -4  -7   7 -0.8522 3.07007   1
  -4  -7   7 3.30939 2.89325   4
   3   7  -7 -4.6302 3.52964   1
   3   7  -7 2.63461 2.99059  12
   3   7  -7 -0.9103 2.97969   6
  -3  -7   7 -0.7517 2.84547   4
  -3  -7   7 1.58305 2.37422   3
  -3  -7   7 -1.5081 2.36738   7
  -3  -7   7 -0.4845 2.77982  10
  -3  -7   7 -1.9203 3.35349   1
   2   7  -7 -1.1113 2.89928   4
   2   7  -7 4.67074 2.95777  12
   2   7  -7 -2.8553 3.80209   1
   2   7  -7 8.26515 4.14529   1
   2   7  -7 2.34704 2.62881   6
  -2  -7   7 1.93447 3.70596   1
  -2  -7   7 5.46755 2.60745   6
  -2  -7   7 1.18278 3.23428  10
  -2  -7   7 1.34621 3.15925  11
  -2  -7   7 2.27545 3.11051   4
  -2  -7   7 3.28805 2.73044   1
   7   6  -7 6.18243 2.85240   1
   7   6  -7 6.14257 2.98918   1
   7   6  -7 4.17992 2.76323   6
   7   6  -7 3.30060 2.38190   6
  -7  -6   7 1.22911 2.63025   8
  -7  -6   7 4.78784 3.04941   1
  -7  -6   7 1.96729 2.61868  11
  -7  -6   7 4.92543 2.51392   6
  -7  -6   7 2.14121 2.98119   7
  -7  -6   7 4.28069 2.50270   9
  -7  -6   7 3.30513 2.82386   3
  -7  -6   7 -0.9895 2.54670   1
   6   6  -7 0.99341 1.85878   6
   6   6  -7 0.52407 2.44632   6
   6   6  -7 4.23429 2.00291   1
   6   6  -7 3.67045 3.10986   1
  -6  -6   7 3.70633 2.15475   9
  -6  -6   7 -4.8459 2.74927   1
  -6  -6   7 8.41621 2.65259   7
  -6  -6   7 -0.6173 1.86948   4
  -6  -6   7 0.50841 2.25397   3
  -6  -6   7 6.06892 2.32400   8
  -6  -6   7 0.30072 2.35515  11
   5   6  -7 3.48042 2.41191   6
   5   6  -7 2.53708 2.86197   1
  -5  -6   7 3.97358 1.84528   9
  -5  -6   7 6.30035 2.62035   7
  -5  -6   7 2.48209 2.18273   4
  -5  -6   7 4.23094 1.97106   8
  -5  -6   7 5.18257 2.56181   3
   4   6  -7 22.4652 3.59032   1
   4   6  -7 21.5123 2.96333  12
   4   6  -7 22.4695 3.13511   6
  -4  -6   7 22.3168 3.23045  10
  -4  -6   7 25.9566 2.86534   8
  -4  -6   7 25.8589 3.07285   7
  -4  -6   7 20.1612 3.51676   1
  -4  -6   7 30.1572 3.93127   3
   3   6  -7 18.8641 2.76011  12
   3   6  -7 17.7749 3.40786   2
   3   6  -7 20.2905 3.07197   6
   3   6  -7 20.0487 3.68422   1
  -3  -6   7 18.9213 2.41438   3
  -3  -6   7 17.5231 2.64338   7
  -3  -6   7 22.0561 3.66079   1
  -3  -6   7 18.5962 2.99154  10
  -3  -6   7 15.2339 2.85884   4
   2   6  -7 14.1067 2.69913  12
   2   6  -7 6.91401 2.33595   1
   2   6  -7 7.61508 2.19875   6
   2   6  -7 9.31574 3.17747   2
   2   6  -7 8.40371 2.75084   4
   2   6  -7 12.9539 3.07806   6
   2   6  -7 13.7543 3.58011   1
  -2  -6   7 10.8094 2.89680  11
  -2  -6   7 9.86749 2.48145   6
  -2  -6   7 11.6187 2.69012   1
  -2  -6   7 11.0826 3.38171   1
  -2  -6   7 9.53503 2.25555   7
  -2  -6   7 13.1992 2.99012   5
  -2  -6   7 12.3597 3.13926   4
  -2  -6   7 11.9054 3.16665  10
   1   6  -7 3.04690 2.24131   6
   1   6  -7 3.59025 2.95581   6
   1   6  -7 5.78862 3.66714   1
   1   6  -7 6.33586 2.57354   1
   1   6  -7 3.71290 3.07413   4
   1   6  -7 2.65741 3.27663   2
  -1  -6   7 2.70523 3.05644   4
  -1  -6   7 0.74694 3.07770  10
  -1  -6   7 3.87196 2.59939   6
  -1  -6   7 6.69912 2.94930   5
  -1  -6   7 -0.3660 3.36187   1
  -1  -6   7 8.72504 2.88755   1
   8   5  -7 6.21996 3.28671   1
   8   5  -7 7.43561 2.76632   6
   8   5  -7 12.4860 3.42798   1
   8   5  -7 13.1206 2.75462   6
  -8  -5   7 11.3111 3.12357   1
  -8  -5   7 10.1317 3.27648   3
  -8  -5   7 8.24767 2.98752   9
  -8  -5   7 15.3947 3.13620   1
  -8  -5   7 12.2277 2.91051  11
  -8  -5   7 11.8629 3.00424   8
  -8  -5   7 8.41845 3.02450   6
   7   5  -7 5.09662 2.55653   6
   7   5  -7 4.72364 2.57411   1
   7   5  -7 3.46589 3.16524   1
   7   5  -7 1.87770 2.26670   6
  -7  -5   7 7.12659 2.47426  11
  -7  -5   7 6.03334 2.49226   7
  -7  -5   7 6.00457 2.77435   3
  -7  -5   7 0.52344 2.77293   1
  -7  -5   7 -0.4619 2.51792   1
  -7  -5   7 1.76664 2.26848   9
  -7  -5   7 2.62576 2.26356   8
  -7  -5   7 6.26368 2.57123   6
   6   5  -7 -2.2723 2.27433   6
   6   5  -7 3.94300 1.85801   6
   6   5  -7 2.31247 2.00486   1
   6   5  -7 1.17390 2.77736   1
  -6  -5   7 -0.3094 1.89181   4
  -6  -5   7 1.09031 2.27614   3
  -6  -5   7 -1.3203 2.22029   7
  -6  -5   7 0.78904 2.19973   8
  -6  -5   7 -3.1339 1.82897   9
  -6  -5   7 0.55396 2.23573  11
  -6  -5   7 0.20155 2.85854   1
   5   5  -7 1.93139 2.68552   1
   5   5  -7 1.75170 2.08588   6
   5   5  -7 0.04936 2.36418   2
  -5  -5   7 0.77387 1.59782   9
  -5  -5   7 4.88999 2.18690   3
  -5  -5   7 -0.7339 2.00843   4
  -5  -5   7 3.61741 2.20121   7
  -5  -5   7 3.75024 1.78213   8
  -5  -5   7 2.20514 2.08453  11
  -5  -5   7 -4.3136 2.09360  10
  -5  -5   7 -1.4163 2.41352   1
   4   5  -7 48.3757 5.39694   1
   4   5  -7 45.3232 4.35269   2
   4   5  -7 46.6607 4.48351   6
  -4  -5   7 50.1282 4.25220  11
  -4  -5   7 48.2389 4.08679   3
  -4  -5   7 49.1814 4.29484   7
  -4  -5   7 44.8261 4.63101   4
  -4  -5   7 42.7178 4.98852  10
  -4  -5   7 46.6841 3.28111   8
  -4  -5   7 47.2894 4.96569   1
   3   5  -7 40.9380 5.09248   1
   3   5  -7 34.9514 4.24597   6
  -3  -5   7 37.5783 3.33716   3
  -3  -5   7 41.6259 4.51557   4
  -3  -5   7 34.3962 3.78140   7
  -3  -5   7 34.8265 4.74393  10
  -3  -5   7 37.5345 4.96954   1
   2   5  -7 24.5292 2.98824   6
   2   5  -7 21.2408 2.94940   6
   2   5  -7 25.7633 3.35902   1
   2   5  -7 25.9378 3.31712   2
   2   5  -7 21.7659 3.34588   1
  -2  -5   7 19.5045 2.68863   1
  -2  -5   7 29.2763 3.37431   6
  -2  -5   7 19.9135 2.48569   7
  -2  -5   7 22.5790 3.52879   4
  -2  -5   7 23.7108 3.41767   1
  -2  -5   7 21.8062 2.88003   5
  -2  -5   7 19.7373 2.93691  10
   1   5  -7 11.9279 2.48066   1
   1   5  -7 5.47375 2.16232   6
   1   5  -7 8.53180 2.80900   4
   1   5  -7 13.9242 3.39938   1
   1   5  -7 12.3883 3.16566   2
   1   5  -7 5.79600 2.67931   6
  -1  -5   7 7.69228 3.05377  10
  -1  -5   7 12.6725 3.08224   1
  -1  -5   7 12.0502 2.57646   5
  -1  -5   7 12.3641 3.35974   4
  -1  -5   7 9.79604 2.36548   6
  -1  -5   7 9.30476 2.53033   1
   0   5  -7 5.55618 2.36450   6
   0   5  -7 3.31622 2.88213   4
   0   5  -7 4.91460 3.36652   1
   0   5  -7 2.12739 2.85117   6
   0   5  -7 5.50671 3.10808   2
   0   5  -7 1.26558 2.59790   1
   0  -5   7 5.79640 3.17713  10
   0  -5   7 2.03403 2.51068   6
   0  -5   7 2.35429 3.03348   4
   0  -5   7 -1.4768 2.52686   5
   0  -5   7 1.88605 2.61010   1
   0  -5   7 5.20069 3.14210   1
   8   4  -7 37.0283 4.58166   6
   8   4  -7 27.2032 3.66778   6
   8   4  -7 35.5697 5.15273   1
   8   4  -7 38.2299 5.46794   1
  -8  -4   7 31.5784 3.88063   1
  -8  -4   7 34.4424 4.85041   6
  -8  -4   7 32.1525 4.65794   9
  -8  -4   7 26.8747 3.39749  11
  -8  -4   7 34.2319 4.82237   3
  -8  -4   7 24.3774 3.53457   1
  -8  -4   7 29.4445 3.51827   8
  -8  -4   7 33.1729 4.14827   7
   7   4  -7 3.31449 2.31741   6
   7   4  -7 8.40773 2.53170   6
   7   4  -7 7.37936 2.57803   1
   7   4  -7 3.75303 2.66799   1
  -7  -4   7 5.57260 2.19326   9
  -7  -4   7 6.56638 2.21522   8
  -7  -4   7 6.28737 2.20943  11
  -7  -4   7 12.8993 2.98797   1
  -7  -4   7 10.8021 2.29346   6
  -7  -4   7 6.42738 2.43126   7
  -7  -4   7 10.5433 2.51441   1
   6   4  -7 1.87903 2.07248   1
   6   4  -7 2.22772 2.35707   6
   6   4  -7 -0.3042 2.52244   1
   6   4  -7 2.80882 2.16549   2
   6   4  -7 -0.4670 2.80973   6
  -6  -4   7 -0.4942 1.81664   9
  -6  -4   7 3.40639 1.82197   4
  -6  -4   7 1.38734 2.24930   7
  -6  -4   7 3.25106 1.93844   8
  -6  -4   7 2.38342 1.94852  11
  -6  -4   7 2.65003 2.27157   3
   5   4  -7 21.0044 2.89916   2
   5   4  -7 22.6893 3.20574   1
   5   4  -7 19.1828 2.81322   6
  -5  -4   7 12.4759 2.18646   4
  -5  -4   7 19.2947 2.54527   7
  -5  -4   7 18.8081 2.75729  10
  -5  -4   7 20.7052 2.12013   8
  -5  -4   7 16.5517 2.06826   9
  -5  -4   7 18.9724 2.56582   3
  -5  -4   7 18.0771 3.02785   1
  -5  -4   7 24.8612 3.44953  11
   4   4  -7 18.0456 2.77282   2
   4   4  -7 16.2236 2.70193   6
   4   4  -7 20.7847 3.18647   1
  -4  -4   7 15.4992 2.26896   3
  -4  -4   7 18.3352 1.82253   8
  -4  -4   7 19.8308 2.48399   7
  -4  -4   7 16.1548 2.39280  11
  -4  -4   7 18.7032 2.94901  10
  -4  -4   7 18.9461 3.21548   1
   3   4  -7 12.6552 2.88314   1
   3   4  -7 13.9768 2.60961   6
  -3  -4   7 8.59394 2.72980   1
  -3  -4   7 15.2189 1.85043   3
  -3  -4   7 13.3108 2.30577   7
  -3  -4   7 10.5434 2.03060  11
  -3  -4   7 14.0339 1.91372   1
   2   4  -7 9.84572 2.06628   1
   2   4  -7 11.7469 1.89366   6
   2   4  -7 10.8294 2.83879   2
   2   4  -7 12.6473 2.54681   6
   2   4  -7 13.2287 2.81216   1
  -2  -4   7 11.5483 2.06219   1
  -2  -4   7 8.10978 2.14250   7
  -2  -4   7 11.0571 2.89039   1
  -2  -4   7 8.75002 1.97943   6
  -2  -4   7 11.0923 2.20654   5
   1   4  -7 3.34545 2.06050   1
   1   4  -7 4.30163 2.81023   2
   1   4  -7 6.28432 2.47558   6
   1   4  -7 6.25327 2.91095   1
   1   4  -7 3.33826 1.85204   6
  -1  -4   7 2.62589 2.54339   1
  -1  -4   7 6.02529 2.02978   7
  -1  -4   7 -1.2757 2.18867   4
  -1  -4   7 3.55727 2.17905   1
  -1  -4   7 4.26865 2.06362   6
  -1  -4   7 3.42308 1.97427   5
   0   4  -7 10.5369 2.39648   1
   0   4  -7 11.9942 2.92034   2
   0   4  -7 7.78143 2.89544   4
   0   4  -7 4.26917 2.20663   6
   0   4  -7 10.4424 3.09933   1
   0   4  -7 8.57220 2.60143   6
   0  -4   7 10.2891 2.38354   6
   0  -4   7 8.42310 3.04226   1
   0  -4   7 10.7378 2.55987   1
   0  -4   7 1.21437 2.46440   4
   0  -4   7 7.87443 2.08392   5
   1  -4   7 11.9592 2.89298   1
   1  -4   7 -0.5240 3.56707   4
   8   3  -7 2.36041 2.69942   6
   8   3  -7 4.52717 3.06768   1
   8   3  -7 2.07755 2.92014   1
   8   3  -7 3.47496 2.75182   6
  -8  -3   7 9.17048 2.38643   8
  -8  -3   7 3.48414 2.32610  11
  -8  -3   7 4.83178 2.47112   9
  -8  -3   7 1.57132 3.02786   1
  -8  -3   7 5.45641 2.75015   3
  -8  -3   7 3.79375 2.75836   1
   7   3  -7 3.81559 2.12412   6
   7   3  -7 6.82062 2.51664   1
   7   3  -7 11.9499 3.03736   1
   7   3  -7 12.3899 2.77847   6
  -7  -3   7 11.4075 2.87351   1
  -7  -3   7 10.0791 2.60900   1
  -7  -3   7 5.29109 2.30592  11
  -7  -3   7 6.18582 2.18967   7
  -7  -3   7 7.84502 2.05327   4
  -7  -3   7 6.44651 1.86642   8
  -7  -3   7 9.91235 2.39378   9
   6   3  -7 14.7170 2.78576   1
   6   3  -7 10.5820 2.25257   2
   6   3  -7 6.83708 1.96596   1
   6   3  -7 6.74245 2.31453   6
   6   3  -7 8.66748 2.37329   6
  -6  -3   7 9.74778 2.00625   9
  -6  -3   7 8.54052 2.26244   3
  -6  -3   7 7.92467 2.04249   4
  -6  -3   7 7.83127 2.09704  11
  -6  -3   7 13.4876 3.39475   1
  -6  -3   7 12.1664 2.21727  10
  -6  -3   7 9.75147 2.04461   8
  -6  -3   7 8.03469 2.20204   7
   5   3  -7 5.47152 2.13029   2
   5   3  -7 5.82770 2.28841   1
   5   3  -7 2.33885 2.11357   6
  -5  -3   7 7.03535 2.43840   1
  -5  -3   7 5.84113 1.63596   8
  -5  -3   7 3.86706 1.94495  10
  -5  -3   7 2.56574 1.80105  11
  -5  -3   7 4.10651 1.56137   9
  -5  -3   7 4.20918 1.89824   3
  -5  -3   7 7.84969 2.23365   7
   4   3  -7 -2.7737 1.90638   6
   4   3  -7 1.55950 2.06498   2
   4   3  -7 -0.7674 2.26101   1
  -4  -3   7 -0.9354 1.78176   7
  -4  -3   7 0.11155 1.60483   3
  -4  -3   7 -0.9349 1.30527   8
  -4  -3   7 -3.1577 1.51760  11
  -4  -3   7 0.97703 2.32870   1
  -4  -3   7 -0.2356 2.00177   4
   3   3  -7 10.3175 2.31198   6
   3   3  -7 10.1794 2.57321   1
   3   3  -7 8.28743 2.20451   2
  -3  -3   7 7.86118 1.74477  11
  -3  -3   7 10.4952 2.22270   7
  -3  -3   7 10.1377 1.89489   6
  -3  -3   7 9.20991 2.17610   4
  -3  -3   7 7.83287 1.81352   1
  -3  -3   7 10.0752 1.61879   3
  -3  -3   7 10.7071 2.63816   1
   2   3  -7 10.2781 1.91313   1
   2   3  -7 8.46169 2.42335   6
   2   3  -7 7.47792 2.67133   1
   2   3  -7 6.23826 1.70681   6
  -2  -3   7 8.68499 1.87499   6
  -2  -3   7 8.16514 2.40512  10
  -2  -3   7 6.91874 1.97461   7
  -2  -3   7 5.62597 2.40179   1
  -2  -3   7 8.91372 2.12937   4
  -2  -3   7 7.95769 1.83749   5
  -2  -3   7 4.40728 1.96052   1
   1   3  -7 8.76035 2.37436   6
   1   3  -7 12.0416 2.76812   2
   1   3  -7 10.3342 2.64158   1
   1   3  -7 7.89950 1.96087   6
   1   3  -7 9.70687 2.20651   1
  -1  -3   7 7.28041 2.36807   1
  -1  -3   7 9.74942 1.75539   5
  -1  -3   7 10.9560 2.60037   1
  -1  -3   7 7.94681 2.23866   4
  -1  -3   7 11.1460 2.25536   6
  -1  -3   7 9.42528 2.37497  10
  -1  -3   7 13.4538 2.13074   7
   0   3  -7 10.9346 2.52500   6
   0   3  -7 17.0775 2.83786   1
   0   3  -7 16.0195 2.66401   2
   0   3  -7 9.69263 2.30621   1
   0   3  -7 6.96062 2.16603   6
   0  -3   7 8.73233 1.96078   7
   0  -3   7 10.1312 2.77357  10
   0  -3   7 11.8227 2.35976   1
   0  -3   7 8.81243 2.63221   1
   0  -3   7 12.2911 2.45171   4
  -1   3  -7 5.00402 2.28801   1
  -1   3  -7 7.63919 2.39501   6
  -1   3  -7 5.45355 2.15425   6
  -1   3  -7 6.96383 2.69900   1
  -1   3  -7 6.53923 2.86458   4
   1  -3   7 6.77811 2.59488   1
   1  -3   7 7.88415 2.77018  10
   1  -3   7 3.38503 2.67396   4
   8   2  -7 26.2686 3.72317   1
   8   2  -7 40.1251 4.78335   1
   8   2  -7 30.9346 4.18837   6
   8   2  -7 27.9073 3.54764   6
  -8  -2   7 28.4671 3.30481  11
  -8  -2   7 30.0642 3.78060   1
  -8  -2   7 31.6350 4.47744   3
  -8  -2   7 22.4363 3.17421   9
  -8  -2   7 28.7862 3.74587  12
  -8  -2   7 31.1493 3.91274   1
   7   2  -7 28.1036 3.69972   1
   7   2  -7 29.0535 3.99044   6
   7   2  -7 28.8221 3.70712   6
   7   2  -7 27.4505 4.03309   1
  -7  -2   7 28.7108 4.34095   1
  -7  -2   7 28.4671 3.56083   4
  -7  -2   7 27.7295 2.93134   7
  -7  -2   7 24.5859 3.42910  12
  -7  -2   7 23.6015 3.04664  11
  -7  -2   7 24.0605 3.72667   9
  -7  -2   7 28.1206 3.57001   1
   6   2  -7 17.2817 2.45071   2
   6   2  -7 12.9883 2.21746   1
   6   2  -7 15.6421 2.09252   6
   6   2  -7 18.6416 2.81218   6
   6   2  -7 17.6855 3.01995   1
  -6  -2   7 14.2152 2.29963  11
  -6  -2   7 17.4806 2.35987   1
  -6  -2   7 14.6767 2.28133   7
  -6  -2   7 1.81586 4.03403   1
  -6  -2   7 14.1893 2.53884  10
  -6  -2   7 14.3613 2.12094   9
  -6  -2   7 14.1510 2.36469   3
  -6  -2   7 14.5889 2.41439   4
   5   2  -7 8.12262 2.70946   1
   5   2  -7 8.07697 2.21105   2
   5   2  -7 6.85015 2.44245   6
  -5  -2   7 7.15295 1.83741   3
  -5  -2   7 6.04650 1.92850   7
  -5  -2   7 2.30551 2.37115   1
  -5  -2   7 6.56491 1.85933  11
  -5  -2   7 6.04059 1.50234   8
   4   2  -7 16.2969 2.58332   6
   4   2  -7 13.1421 2.32182   2
   4   2  -7 14.1474 2.76627   1
  -4  -2   7 12.0429 1.95307   1
  -4  -2   7 13.8373 1.93570  11
  -4  -2   7 12.9872 1.61236   8
  -4  -2   7 12.2216 2.26874   4
  -4  -2   7 13.1649 2.61746   1
  -4  -2   7 14.6371 1.99213   3
  -4  -2   7 13.3826 2.14028   7
   3   2  -7 7.01288 2.05159   6
   3   2  -7 7.70196 2.39488   1
   3   2  -7 3.56485 2.10801   2
  -3  -2   7 6.88862 1.32132   3
  -3  -2   7 3.13252 1.47355  11
  -3  -2   7 5.48677 1.81279   4
  -3  -2   7 5.62130 2.11738  10
  -3  -2   7 5.31290 1.93428   7
  -3  -2   7 8.04631 2.40384   1
  -3  -2   7 5.10391 1.68643   1
   2   2  -7 7.33590 1.86426   1
   2   2  -7 7.85962 1.70261   6
   2   2  -7 9.91983 2.57076   1
   2   2  -7 8.80121 2.25531   6
  -2  -2   7 7.53019 2.19370  10
  -2  -2   7 8.08201 1.97238   1
  -2  -2   7 6.29371 1.94938   4
  -2  -2   7 8.23034 2.46346   1
  -2  -2   7 8.23742 1.93896   7
   1   2  -7 32.0821 3.56268   6
   1   2  -7 25.3275 3.26312   1
   1   2  -7 30.2207 3.77624   2
   1   2  -7 20.9304 2.99504   6
   1   2  -7 25.3063 3.32646   7
   1   2  -7 26.0269 2.99007   1
  -1  -2   7 21.3450 2.99626   1
  -1  -2   7 24.9895 3.58129   4
  -1  -2   7 30.9619 3.21805   7
  -1  -2   7 22.4155 2.74224  10
  -1  -2   7 24.7700 3.42474   1
   0   2  -7 8.01448 2.62617   1
   0   2  -7 7.58358 2.37421   7
   0   2  -7 6.05354 2.29933   2
   0   2  -7 6.03470 1.84275   6
   0   2  -7 3.61249 1.89948   1
   0   2  -7 7.50657 2.32079   6
   0  -2   7 1.92251 1.93732   4
   0  -2   7 2.30275 1.95952   7
   0  -2   7 9.19213 2.21550   1
   0  -2   7 4.28112 2.24480   1
   0  -2   7 5.17835 2.26462  10
  -1   2  -7 6.57314 2.12406   1
  -1   2  -7 6.89649 2.51273   7
  -1   2  -7 1.50752 1.82823   6
  -1   2  -7 11.3846 2.37242   1
  -1   2  -7 10.1188 2.06285   6
   1  -2   7 5.55890 2.38160   4
   1  -2   7 4.22644 2.92925   1
   1  -2   7 6.75437 2.65316  10
   1  -2   7 6.41560 2.19550   1
   8   1  -7 42.0118 5.00382   6
   8   1  -7 39.4371 4.46135   1
   8   1  -7 37.3248 4.79703   9
   8   1  -7 33.7189 4.26230   6
   8   1  -7 37.6248 5.13408   1
  -8  -1   7 39.6622 4.68406   9
  -8  -1   7 49.9150 4.87231   3
  -8  -1   7 38.5853 5.22422   1
  -8  -1   7 45.7397 4.74803  11
  -8  -1   7 36.6743 5.12440   1
  -8  -1   7 46.1482 4.86826  12
  -8  -1   7 42.4920 4.60746   5
   7   1  -7 21.8370 3.16104   2
   7   1  -7 20.1915 3.23863   1
   7   1  -7 17.2266 2.68053   9
   7   1  -7 20.0984 2.88161   6
   7   1  -7 16.8321 3.03471   1
   7   1  -7 24.6728 3.11438   6
  -7  -1   7 21.6442 2.74798  11
  -7  -1   7 18.8612 2.62337   9
  -7  -1   7 19.4154 3.12285  12
  -7  -1   7 22.8971 2.92921   1
  -7  -1   7 22.1752 2.68273   5
  -7  -1   7 15.4765 2.38427   4
  -7  -1   7 19.8532 3.28173   1
   6   1  -7 47.0008 3.83031   2
   6   1  -7 43.1062 4.04607   1
   6   1  -7 41.4398 3.99821   9
   6   1  -7 50.2457 4.19920   6
   6   1  -7 49.0646 4.57670   1
   6   1  -7 48.9214 3.75662   6
  -6  -1   7 51.6301 4.14018   4
  -6  -1   7 48.2179 3.87329   1
  -6  -1   7 45.8231 4.05973  11
  -6  -1   7 45.3823 3.69232   7
  -6  -1   7 41.5033 3.90352   3
   5   1  -7 82.2775 5.11898   9
   5   1  -7 98.6965 5.76532   6
   5   1  -7 86.6377 5.30522   2
   5   1  -7 94.6324 5.94342   1
  -5  -1   7 87.7132 5.15871   3
  -5  -1   7 97.8140 5.33475  11
  -5  -1   7 94.8929 5.57600  12
  -5  -1   7 83.9464 5.09051   7
  -5  -1   7 87.4016 5.95569   1
   4   1  -7 49.0506 3.98080   2
   4   1  -7 52.5915 4.51515   1
   4   1  -7 52.7255 4.17505   6
  -4  -1   7 48.2006 3.05047   8
  -4  -1   7 46.5094 3.51245   3
  -4  -1   7 50.8616 3.66637   7
  -4  -1   7 43.5871 4.17649  10
  -4  -1   7 42.7025 4.09518   4
  -4  -1   7 49.3958 4.41805   1
  -4  -1   7 49.9284 3.57113   1
  -4  -1   7 52.7204 3.63194  11
   3   1  -7 0.49724 2.00333   6
   3   1  -7 1.52184 1.93769   2
   3   1  -7 0.71775 1.79788   7
   3   1  -7 2.22725 2.22168   1
  -3  -1   7 1.18223 1.94106  10
  -3  -1   7 0.93548 1.66159   7
  -3  -1   7 2.25120 1.57313   1
  -3  -1   7 0.90360 1.24191   3
  -3  -1   7 -0.3698 2.15045   1
  -3  -1   7 -0.2580 1.76203   4
  -3  -1   7 -0.6288 1.34234  11
   2   1  -7 23.2983 3.38543   7
   2   1  -7 30.0191 3.87187   1
   2   1  -7 26.7539 2.83410   6
   2   1  -7 29.1697 3.06391   1
   2   1  -7 30.6367 3.48445   6
  -2  -1   7 29.5841 3.03796   7
  -2  -1   7 22.6997 3.05598   1
  -2  -1   7 29.3815 3.83046   1
  -2  -1   7 24.2407 3.41435   4
  -2  -1   7 23.2664 2.78099  10
   1   1  -7 23.7879 3.27472   6
   1   1  -7 22.6951 3.00590   6
   1   1  -7 25.5061 2.86809   1
   1   1  -7 23.1123 2.67175   7
   1   1  -7 21.7015 2.54953   1
   1   1  -7 27.7024 3.51604   2
  -1  -1   7 24.1511 3.19818   4
  -1  -1   7 27.7568 3.20288   7
  -1  -1   7 19.9116 2.52308  10
  -1  -1   7 22.1418 2.85725   1
  -1  -1   7 19.3247 2.43821   1
   0   1  -7 3.95667 2.27661   7
   0   1  -7 4.31410 2.23466   2
   0   1  -7 3.49991 1.97441   1
   0   1  -7 3.89791 1.86866   6
   0   1  -7 4.08620 1.85421   6
   0   1  -7 0.06938 2.28607   1
   0  -1   7 2.44543 2.19548   1
   0  -1   7 3.10438 2.04707   7
   0  -1   7 5.20400 2.04427   1
   0  -1   7 0.79362 2.03028  10
   0  -1   7 5.13699 1.89269   4
  -1   1  -7 4.44045 2.17259   1
  -1   1  -7 5.09485 2.63477   7
  -1   1  -7 -0.0277 1.74548   6
  -1   1  -7 2.37976 1.89722   1
  -1   1  -7 1.87441 1.85980   6
   1  -1   7 2.60318 1.95275   1
   1  -1   7 -2.4167 1.99979   1
   1  -1   7 2.06746 2.22095  10
   1  -1   7 2.99813 1.98208   4
   1  -1   7 4.77737 2.23471   7
  -2   1  -7 6.11198 2.91513   7
   2  -1   7 5.26043 2.22870   4
   8   0  -7 10.6086 2.43263   6
   8   0  -7 9.25632 2.71956   1
   8   0  -7 2.04377 2.96046   6
   8   0  -7 10.0130 3.11085   9
   8   0  -7 7.86675 3.31827   1
  -8   0   7 5.30845 2.96584   1
  -8   0   7 13.1180 2.66244   9
  -8   0   7 8.95026 2.90353  12
  -8   0   7 9.13690 2.54644   5
  -8   0   7 7.56236 2.95352   1
  -8   0   7 10.3505 2.63259  11
  -8   0   7 5.07395 2.86787   3
   7   0  -7 21.7892 3.21664   1
   7   0  -7 27.0518 3.61056   6
   7   0  -7 24.5434 3.22663   1
   7   0  -7 23.1612 3.04916   9
   7   0  -7 19.1436 2.90540   6
  -7   0   7 30.3158 4.13392   1
  -7   0   7 21.3170 3.10007  12
  -7   0   7 20.9568 2.95690  11
  -7   0   7 20.6174 3.14913   1
  -7   0   7 25.7592 3.69002   5
   6   0  -7 43.6742 4.08160   1
   6   0  -7 44.7273 4.79355   1
   6   0  -7 35.8471 3.64064   6
   6   0  -7 52.2452 4.03766   6
   6   0  -7 42.8461 4.04800   9
  -6   0   7 49.1807 3.82396   5
  -6   0   7 46.2241 4.54050   4
  -6   0   7 40.6571 3.94943   3
  -6   0   7 45.9798 4.16768  11
  -6   0   7 43.0141 3.77461   1
   5   0  -7 74.2523 5.40448   1
   5   0  -7 80.5134 5.05098   6
   5   0  -7 73.5351 4.74615   9
  -5   0   7 73.4732 4.98338  12
  -5   0   7 69.9231 4.49515   7
  -5   0   7 79.0638 4.56007   5
  -5   0   7 78.1876 4.93239  11
  -5   0   7 76.7572 5.42068   1
  -5   0   7 78.4054 4.75207   3
   4   0  -7 -3.0934 1.70798   6
   4   0  -7 -1.4259 1.91718   2
   4   0  -7 0.84577 1.69615   7
   4   0  -7 0.79512 1.40055   9
   4   0  -7 -0.6047 2.04008   1
  -4   0   7 -0.1360 1.81965  10
  -4   0   7 0.44952 1.79365   4
  -4   0   7 -0.6898 1.38688   1
  -4   0   7 1.14099 1.84980  12
  -4   0   7 -0.4803 1.44604  11
  -4   0   7 0.99710 1.29393   8
  -4   0   7 1.48163 2.25540   1
  -4   0   7 0.46248 1.30936   5
  -4   0   7 0.73566 1.47879   3
  -4   0   7 -0.5078 1.45961   7
   3   0  -7 0.70923 1.99826   6
   3   0  -7 1.03976 1.91480   2
   3   0  -7 1.97297 1.85831   7
   3   0  -7 -0.3845 2.18849   1
  -3   0   7 2.96305 1.44860  11
  -3   0   7 0.53908 1.16165   8
  -3   0   7 0.78704 1.77511   4
  -3   0   7 1.45529 1.30543   3
  -3   0   7 2.64919 1.52216   1
  -3   0   7 2.53945 1.19996   5
  -3   0   7 0.07133 2.17499   1
  -3   0   7 1.63612 1.68876   7
  -3   0   7 1.33549 1.98057  10
   2   0  -7 34.9497 4.02643   1
   2   0  -7 34.7150 3.24783   1
   2   0  -7 34.1878 3.36985   7
   2   0  -7 37.4371 3.40987   6
   2   0  -7 30.3755 3.00608   6
  -2   0   7 32.3302 3.18856   1
  -2   0   7 33.0772 3.48685   4
  -2   0   7 33.1032 3.86334   1
  -2   0   7 36.9687 3.25073   7
  -2   0   7 34.8004 3.82385  10
   1   0  -7 60.4889 4.41381   2
   1   0  -7 69.3028 4.69845   1
   1   0  -7 58.1261 4.33376   7
   1   0  -7 49.0426 3.90643   6
   1   0  -7 52.9238 4.14157   1
   1   0  -7 60.7672 4.16442   6
  -1   0   7 57.0427 4.11445   1
  -1   0   7 64.1645 4.62143   1
  -1   0   7 56.0498 4.13326   7
  -1   0   7 51.9699 3.98536   4
  -1   0   7 59.4234 4.38301  10
   0   0  -7 26.2449 3.10394   6
   0   0  -7 27.3303 3.01936   7
   0   0  -7 25.9055 3.12943   6
   0   0  -7 27.1964 3.35363   1
   0   0  -7 28.8485 3.76396   1
   0   0  -7 32.6296 3.45084   2
   0   0   7 24.5754 3.27561   1
   0   0   7 24.2087 3.13450   4
   0   0   7 31.8983 3.77960   1
   0   0   7 23.7090 2.67894   7
   0   0   7 29.3026 3.49650  10
  -1   0  -7 8.21015 2.06186   1
  -1   0  -7 11.0611 2.82772   7
  -1   0  -7 7.49710 1.84179   6
  -1   0  -7 3.59026 1.82162   6
  -1   0  -7 8.09297 1.99307   1
   1   0   7 8.37658 1.87589   4
   1   0   7 9.52622 2.43866   7
   1   0   7 9.92737 2.21864   1
   1   0   7 8.53661 2.15624  10
   1   0   7 8.77052 2.04998   1
  -2   0  -7 8.40864 3.10444   7
   8  -1  -7 12.2356 3.57514   1
   8  -1  -7 14.6766 3.30021   1
   8  -1  -7 9.93622 2.94599   6
   8  -1  -7 8.29568 3.14206   9
   8  -1  -7 13.7026 3.12078   6
  -8   1   7 18.8972 2.95487  11
  -8   1   7 13.2876 2.74230   5
  -8   1   7 11.1972 3.11615   1
  -8   1   7 11.7651 2.98886  12
  -8   1   7 13.9828 3.12792   1
   7  -1  -7 17.7311 3.00514   9
   7  -1  -7 21.4667 3.09440   1
   7  -1  -7 19.1075 2.98355   6
   7  -1  -7 20.0893 3.08305   1
   7  -1  -7 18.8382 2.91079   6
  -7   1   7 16.4479 2.55636   5
  -7   1   7 20.0969 3.07689   1
  -7   1   7 21.1254 3.01731   1
  -7   1   7 17.8275 2.98955  12
  -7   1   7 22.8563 2.86886  11
   6  -1  -7 49.9500 4.42187   9
   6  -1  -7 46.9810 4.21615   1
   6  -1  -7 48.1917 3.95444   6
   6  -1  -7 41.7556 4.67809   1
   6  -1  -7 46.6712 4.14352   6
  -6   1   7 44.4579 3.87817   5
  -6   1   7 41.4411 3.84654   1
  -6   1   7 52.0972 4.23548  11
   5  -1  -7 25.4984 3.44676   9
   5  -1  -7 22.7108 3.24838   6
   5  -1  -7 23.1265 3.05695   1
   5  -1  -7 18.1700 2.55996   7
  -5   1   7 28.4451 3.35086  11
  -5   1   7 23.4284 2.91595   5
  -5   1   7 19.8449 2.78397  12
  -5   1   7 28.5763 4.15308   1
  -5   1   7 25.4029 2.88938   8
   4  -1  -7 2.52219 2.18714   1
   4  -1  -7 1.35588 1.79433   7
   4  -1  -7 3.27342 1.74853   6
   4  -1  -7 2.16572 1.57204   9
  -4   1   7 2.04619 2.20837   1
  -4   1   7 1.84242 1.42955   8
  -4   1   7 3.73908 1.80163  12
  -4   1   7 3.50938 1.39614   5
  -4   1   7 1.61536 1.56073   7
  -4   1   7 0.43265 1.32855   1
  -4   1   7 2.69332 1.67084  11
  -4   1   7 2.79661 1.72719   4
   3  -1  -7 1.83725 1.91742   6
   3  -1  -7 1.43890 1.75068   7
   3  -1  -7 1.98457 2.25758   1
   3  -1  -7 1.20614 1.31753   9
  -3   1   7 2.15629 1.85304  10
  -3   1   7 1.39846 1.65528   7
  -3   1   7 3.58340 2.17477   1
  -3   1   7 0.37463 1.43441  11
  -3   1   7 0.28070 1.38771   1
  -3   1   7 1.17512 1.27373   8
  -3   1   7 0.10679 1.39641   3
  -3   1   7 3.38909 1.73386   4
  -3   1   7 0.63214 1.61975  12
   2  -1  -7 14.9450 2.08396   1
   2  -1  -7 12.9114 2.43408   1
   2  -1  -7 13.2348 2.32707   7
   2  -1  -7 10.5094 1.85680   6
   2  -1  -7 15.6691 2.23352   6
  -2   1   7 13.8887 2.20393  10
  -2   1   7 13.0059 2.08048   4
  -2   1   7 14.0364 1.50585   8
  -2   1   7 10.5262 2.49129   1
  -2   1   7 14.7165 2.25506   7
  -2   1   7 12.6058 1.97805   1
   1  -1  -7 52.2217 3.93457   6
   1  -1  -7 46.1266 3.71449   6
   1  -1  -7 53.9519 4.31414   1
   1  -1  -7 45.1733 4.14597   7
   1  -1  -7 48.3706 3.98767   1
  -1   1   7 48.7359 3.77418   1
  -1   1   7 49.0509 3.67006   4
  -1   1   7 49.9221 3.81603   7
  -1   1   7 52.4746 4.35936   1
  -1   1   7 46.4654 4.11105  10
   0  -1  -7 45.0250 4.04723   1
   0  -1  -7 49.2418 3.70186   6
   0  -1  -7 47.4170 3.96602   2
   0  -1  -7 46.0849 4.30416   7
   0  -1  -7 39.3028 3.74747   1
   0  -1  -7 39.4182 3.54226   6
   0   1   7 42.7591 3.67049   1
   0   1   7 39.1571 3.21994   4
   0   1   7 42.9833 3.58394  10
   0   1   7 52.4320 4.11714   1
   0   1   7 42.5205 3.79657   7
  -1  -1  -7 34.0854 3.20892   6
  -1  -1  -7 29.1665 3.34421   6
  -1  -1  -7 42.7098 3.64592   1
  -1  -1  -7 41.6048 3.54729   1
  -1  -1  -7 42.3669 4.49900   7
   1   1   7 44.5453 3.75730   1
   1   1   7 39.0577 3.42004  10
   1   1   7 43.3763 3.41038   1
   1   1   7 36.9371 4.01229   7
  -2  -1  -7 11.4365 3.23540   7
   8  -2  -7 -1.6440 3.74177   1
   8  -2  -7 -0.6607 2.83461   9
   8  -2  -7 -0.3721 3.11153   6
   8  -2  -7 4.99639 3.00968   1
   8  -2  -7 2.51128 2.86218   6
  -8   2   7 3.87690 2.97176  11
  -8   2   7 9.68684 2.88448   6
  -8   2   7 1.16660 2.40663   5
  -8   2   7 1.58723 2.75154  12
  -8   2   7 -1.0391 3.34235   1
  -8   2   7 4.08623 2.93676   1
   7  -2  -7 12.9910 2.85775   9
   7  -2  -7 18.4348 3.15281   1
   7  -2  -7 12.2141 3.20327   1
   7  -2  -7 15.6533 2.84616   6
   7  -2  -7 14.0861 2.96439   6
  -7   2   7 13.4023 3.30358   1
  -7   2   7 16.5870 2.59516   5
  -7   2   7 12.9331 2.71756  11
  -7   2   7 17.2330 2.87402  12
  -7   2   7 19.7689 2.83412   8
  -7   2   7 14.5039 2.94422   1
  -7   2   7 16.2317 3.03178   6
   6  -2  -7 49.0941 4.51362   1
   6  -2  -7 45.4308 4.13092   6
   6  -2  -7 45.7565 4.55220   6
   6  -2  -7 54.3214 4.93521   1
   6  -2  -7 48.1842 4.72578   9
  -6   2   7 56.2189 4.68018  11
  -6   2   7 51.6252 4.16630   1
  -6   2   7 55.2702 4.11770   8
  -6   2   7 53.0455 4.23043   5
   5  -2  -7 13.9450 2.61095   6
   5  -2  -7 15.0434 2.72811   1
   5  -2  -7 13.8958 2.40829   9
  -5   2   7 18.2895 2.72139   6
  -5   2   7 23.7213 3.25180  12
  -5   2   7 15.8961 3.14872   1
  -5   2   7 18.0176 2.14584   8
  -5   2   7 16.3802 2.10230   5
  -5   2   7 19.0760 2.33393  11
   4  -2  -7 24.9609 2.82848   7
   4  -2  -7 25.5996 3.58872   6
   4  -2  -7 28.3094 3.51662   9
   4  -2  -7 27.6000 3.95604   1
  -4   2   7 30.2081 3.88472   6
  -4   2   7 25.8425 3.31304   1
  -4   2   7 27.8202 2.87293   1
  -4   2   7 25.1962 2.83852   5
  -4   2   7 28.3518 3.69165   4
  -4   2   7 23.1800 3.02902  11
  -4   2   7 27.8547 3.33999  12
  -4   2   7 22.6760 2.87073   7
  -4   2   7 28.3120 2.85837   8
   3  -2  -7 25.7270 3.36699   9
   3  -2  -7 32.2590 3.97393   1
   3  -2  -7 27.0604 3.19763   7
   3  -2  -7 24.7190 3.54655   6
  -3   2   7 29.2794 3.79162   6
  -3   2   7 27.9028 3.01262   7
  -3   2   7 26.7501 3.83474  10
  -3   2   7 33.5732 2.71869   8
  -3   2   7 32.5984 4.12405   1
  -3   2   7 31.6519 2.75588   3
  -3   2   7 25.1291 3.53525   4
  -3   2   7 26.0380 2.75938   1
  -3   2   7 25.3208 3.10046  12
  -3   2   7 25.0981 2.83084  11
   2  -2  -7 9.18828 1.79760   1
   2  -2  -7 9.61919 2.22991   7
   2  -2  -7 9.59391 1.96193   9
   2  -2  -7 12.6781 2.31709   1
   2  -2  -7 10.0941 2.10494   6
   2  -2  -7 6.85551 1.58892   6
  -2   2   7 11.6745 2.52330   1
  -2   2   7 10.2017 1.64094   8
  -2   2   7 8.86569 1.50412   3
  -2   2   7 7.87118 2.08492  10
  -2   2   7 8.49807 2.00177   7
  -2   2   7 6.72104 1.88008   4
  -2   2   7 10.0066 1.90590   1
   1  -2  -7 9.33103 2.29306   1
   1  -2  -7 6.51755 2.23461   1
   1  -2  -7 7.58476 1.99282   6
   1  -2  -7 9.60631 2.49970   7
   1  -2  -7 5.16044 1.91792   6
  -1   2   7 6.15749 2.47549   1
  -1   2   7 8.58718 1.91416   1
  -1   2   7 9.47287 2.02419  10
  -1   2   7 10.3366 1.52036   8
  -1   2   7 7.23367 2.28221   7
  -1   2   7 6.40654 1.64930   4
   0  -2  -7 10.3656 2.61449   7
   0  -2  -7 2.97135 1.92790   6
   0  -2  -7 3.28878 2.27479   1
   0  -2  -7 6.86408 2.11182   1
   0  -2  -7 3.62519 2.17798   2
   0  -2  -7 6.96415 1.92602   6
   0   2   7 8.05363 2.01376   1
   0   2   7 6.09272 2.30913   1
   0   2   7 8.20524 1.71101  10
   0   2   7 7.27625 2.10731   7
  -1  -2  -7 5.26619 2.21523   1
  -1  -2  -7 5.09951 2.03590   1
  -1  -2  -7 1.79522 1.98965   6
  -1  -2  -7 2.84241 2.85451   7
  -1  -2  -7 2.32085 1.83427   6
   1   2   7 3.61467 2.34057   1
   1   2   7 1.88717 2.28247   7
   1   2   7 -1.4986 1.83740   1
  -2  -2  -7 7.59320 3.31318   7
   7  -3  -7 2.83819 2.69058   6
   7  -3  -7 5.47790 3.16677   9
   7  -3  -7 0.48257 2.99720   1
   7  -3  -7 5.16000 2.74576   6
   7  -3  -7 0.31113 2.97123   1
  -7   3   7 3.61007 3.01508   6
  -7   3   7 8.61669 3.06772   1
  -7   3   7 4.23101 2.53138   5
  -7   3   7 4.42591 2.61515   8
  -7   3   7 5.79351 2.97201   1
  -7   3   7 2.91390 2.56953  11
   6  -3  -7 8.17991 2.88119  11
   6  -3  -7 12.3307 2.75068   1
   6  -3  -7 13.6952 2.89340   1
   6  -3  -7 7.73029 2.57563   6
   6  -3  -7 7.16451 2.60376   9
   6  -3  -7 10.1847 2.23223   6
  -6   3   7 5.24724 2.26032  11
  -6   3   7 7.92399 2.23086   5
  -6   3   7 9.05306 3.01313   1
  -6   3   7 12.0150 2.44314   1
  -6   3   7 12.1770 2.65720   6
  -6   3   7 9.13475 2.33353   8
   5  -3  -7 14.8851 2.87133  11
   5  -3  -7 20.7911 2.98268   6
   5  -3  -7 12.5966 2.61685   9
   5  -3  -7 21.1025 2.98659   1
  -5   3   7 10.3530 2.17098  11
  -5   3   7 14.8157 2.22244   8
  -5   3   7 15.0800 2.03948   5
   4  -3  -7 71.4766 5.29151   9
   4  -3  -7 83.4173 5.77110   1
   4  -3  -7 77.4373 5.47246   6
   4  -3  -7 80.0325 5.42227  11
   4  -3  -7 80.3741 5.44216   7
  -4   3   7 85.7559 5.43453   6
  -4   3   7 89.5900 5.86386   1
  -4   3   7 83.6172 6.11070   1
  -4   3   7 77.0437 4.75786   8
  -4   3   7 85.7053 4.59881   5
  -4   3   7 79.6062 4.94151  11
   3  -3  -7 41.0870 4.00048   9
   3  -3  -7 45.2168 4.40798   1
   3  -3  -7 40.6445 3.54524   7
   3  -3  -7 46.4374 4.00164   6
  -3   3   7 44.6611 4.13933   4
  -3   3   7 43.8473 3.41269   7
  -3   3   7 51.8041 4.37483   6
  -3   3   7 45.3053 3.53824   3
  -3   3   7 49.3587 4.62895   1
  -3   3   7 44.8290 3.51659   8
  -3   3   7 46.7214 3.51908   1
  -3   3   7 47.1712 3.52134  11
   2  -3  -7 31.2763 3.24668   6
   2  -3  -7 40.5537 3.43227   7
   2  -3  -7 37.6471 3.80011   6
   2  -3  -7 43.6996 4.27864   1
   2  -3  -7 30.0267 3.56050   1
   2  -3  -7 33.2319 3.66444   9
  -2   3   7 34.1255 3.38436   7
  -2   3   7 30.6201 2.95988   3
  -2   3   7 37.9713 3.08248  12
  -2   3   7 43.0219 4.47750   1
  -2   3   7 40.2406 3.61762   4
  -2   3   7 31.0252 3.91128  10
  -2   3   7 34.7856 3.10653   8
  -2   3   7 34.8080 4.03702   6
  -2   3   7 41.1354 3.40904   1
   1  -3  -7 0.40792 2.31831   1
   1  -3  -7 1.53657 2.08106   7
   1  -3  -7 2.77364 2.02014   9
   1  -3  -7 2.93761 1.84317   6
   1  -3  -7 3.71386 2.01515   6
   1  -3  -7 2.30493 2.05377   1
  -1   3   7 4.76925 1.85200  10
  -1   3   7 3.29991 1.61627   8
  -1   3   7 1.91924 1.76730   1
  -1   3   7 4.32468 2.15193   7
  -1   3   7 1.76545 1.49201   4
  -1   3   7 3.64950 2.38575   1
   0  -3  -7 3.70551 2.39611   1
   0  -3  -7 3.58668 2.09557   6
   0  -3  -7 2.91478 2.65406   7
   0  -3  -7 6.43993 2.35992   1
   0  -3  -7 2.71654 2.07416   6
   0   3   7 2.46927 1.55673   8
   0   3   7 3.20598 1.86008   1
   0   3   7 2.14486 1.55346  10
   0   3   7 5.38638 2.46741   1
   0   3   7 1.53146 2.03866   7
  -1  -3  -7 1.39599 2.77486   7
  -1  -3  -7 -1.8664 2.07073   1
  -1  -3  -7 0.24128 2.03206   6
  -1  -3  -7 1.87234 1.85203   6
  -1  -3  -7 -1.2851 2.40228   2
  -1  -3  -7 0.37386 2.25266   1
   1   3   7 0.51823 2.39684   7
   1   3   7 -1.3670 1.97674   1
  -2  -3  -7 6.75355 3.42332   7
   7  -4  -7 8.94219 3.45899   1
   7  -4  -7 7.14855 3.16151   6
   7  -4  -7 15.2833 3.79261  11
   7  -4  -7 4.69425 3.15297   1
   7  -4  -7 4.96854 3.10419   6
   7  -4  -7 6.58736 3.28264   9
  -7   4   7 11.1913 3.10006   8
  -7   4   7 8.48271 3.42689   1
  -7   4   7 11.4515 3.52434   1
  -7   4   7 12.7536 2.63916   5
  -7   4   7 6.35872 2.72771  11
  -7   4   7 9.83657 3.14502   6
   6  -4  -7 13.9926 3.41605  11
   6  -4  -7 13.3338 3.17035   1
   6  -4  -7 13.8319 2.91966   1
   6  -4  -7 15.3036 2.68776   6
   6  -4  -7 11.4195 3.17954   6
   6  -4  -7 14.1306 3.17418   9
  -6   4   7 14.4874 2.50585   8
  -6   4   7 9.36602 2.33656  11
  -6   4   7 9.48763 3.08239   6
  -6   4   7 12.2507 3.33820   1
  -6   4   7 13.0555 2.50961   5
  -6   4   7 11.8602 2.62862   1
   5  -4  -7 13.5115 2.89574   1
   5  -4  -7 12.4605 2.82872   9
   5  -4  -7 14.3410 2.86371  11
   5  -4  -7 16.9714 3.16649   6
  -5   4   7 14.1277 2.26951   8
  -5   4   7 17.3148 2.24136   5
  -5   4   7 12.1841 2.41896  11
   4  -4  -7 13.8996 2.78538   6
   4  -4  -7 12.9300 2.61280   9
   4  -4  -7 13.7374 2.33375   1
   4  -4  -7 11.4475 2.63292  11
   4  -4  -7 16.2992 3.06104   1
  -4   4   7 13.8964 2.48536   3
  -4   4   7 11.6668 1.96871   5
  -4   4   7 11.9242 2.23240   8
  -4   4   7 11.0682 2.17767  11
  -4   4   7 13.7543 3.02934   1
  -4   4   7 12.3179 2.74115   6
   3  -4  -7 30.5778 3.95329   9
   3  -4  -7 24.7838 3.18336   7
   3  -4  -7 31.2720 3.95709  11
   3  -4  -7 32.7279 4.00601   6
   3  -4  -7 31.1648 4.47961   1
  -3   4   7 34.6409 2.76778   5
  -3   4   7 31.0974 3.39212   8
  -3   4   7 31.6578 3.46394   3
  -3   4   7 33.7187 4.54295   1
  -3   4   7 31.3730 4.06274   6
  -3   4   7 32.2020 3.23368  11
   2  -4  -7 27.8079 3.00322   6
   2  -4  -7 29.5436 3.72186   6
   2  -4  -7 30.3284 3.58368  11
   2  -4  -7 22.8929 2.87944   7
   2  -4  -7 32.9607 4.31393   1
   2  -4  -7 32.6929 3.97263   9
   2  -4  -7 31.6221 3.39144   1
  -2   4   7 30.5101 2.99813  11
  -2   4   7 24.2522 3.12474   3
  -2   4   7 29.8769 3.18723   1
  -2   4   7 29.7005 3.30094   8
  -2   4   7 33.3249 3.18146   7
  -2   4   7 27.8875 3.94438   6
  -2   4   7 30.9351 4.48963   1
  -2   4   7 36.7246 3.55982   4
   1  -4  -7 4.66364 2.25363   1
   1  -4  -7 0.80209 1.98229   6
   1  -4  -7 1.10777 2.38239   1
   1  -4  -7 -0.2711 2.14937   9
   1  -4  -7 -0.4212 2.22804   6
   1  -4  -7 0.28035 2.04701   7
  -1   4   7 1.01173 1.93789  10
  -1   4   7 -0.4353 1.74838   8
  -1   4   7 0.57789 1.67318   3
  -1   4   7 2.01376 1.93819   1
  -1   4   7 2.14077 2.45804   1
  -1   4   7 1.41246 2.16529   6
  -1   4   7 0.96621 1.54719   4
  -1   4   7 -0.9399 1.92838   7
   0  -4  -7 2.45754 2.20613   6
   0  -4  -7 1.47502 2.49415   1
   0  -4  -7 0.93442 2.22900   6
   0  -4  -7 0.91137 2.41074   1
   0  -4  -7 0.19887 2.31521   9
   0  -4  -7 2.13879 2.48065   7
   0   4   7 2.50500 2.65847   1
   0   4   7 5.37952 2.45426   6
   0   4   7 3.07467 2.05181   8
   0   4   7 4.53386 1.51606  10
   0   4   7 3.48704 2.18318   7
   0   4   7 4.73288 2.00364   1
  -1  -4  -7 28.8100 3.83862   6
  -1  -4  -7 28.1421 4.26773   1
  -1  -4  -7 31.2950 3.71946   7
  -1  -4  -7 23.3582 2.93088   1
  -1  -4  -7 26.8047 3.47443   6
   1   4   7 33.8019 4.02041   1
   1   4   7 28.6567 4.04728   7
   1   4   7 35.5877 3.51368   8
  -2  -4  -7 12.1935 3.67018   7
   6  -5  -7 15.0262 3.17513   6
   6  -5  -7 10.7257 3.40372   9
   6  -5  -7 13.3529 3.20145   1
   6  -5  -7 13.9273 3.70413  11
   6  -5  -7 11.4582 2.64085   6
   6  -5  -7 18.5025 3.70275   1
  -6   5   7 8.20309 2.86260  11
  -6   5   7 11.3042 2.86238   1
  -6   5   7 14.0145 3.07761   6
  -6   5   7 13.8071 3.03763   8
  -6   5   7 14.3718 2.74197   5
  -6   5   7 6.58527 3.14074   1
   5  -5  -7 21.2639 3.48770  11
   5  -5  -7 21.0182 3.33673   9
   5  -5  -7 26.3817 3.40145   6
   5  -5  -7 25.4731 3.55582   1
  -5   5   7 21.3005 2.83320   8
  -5   5   7 24.7996 2.82595   5
  -5   5   7 18.9028 3.62495   1
  -5   5   7 24.5948 3.37607   3
  -5   5   7 33.5634 3.91202  11
  -5   5   7 16.3645 3.36235   6
   4  -5  -7 33.2598 4.76905   1
   4  -5  -7 29.0930 4.45917   9
   4  -5  -7 32.5441 4.30657   6
   4  -5  -7 24.6808 3.36624  11
  -4   5   7 20.5540 3.18315   6
  -4   5   7 28.1784 3.74655  11
  -4   5   7 28.5525 3.35448   5
  -4   5   7 31.6638 3.80436   8
  -4   5   7 18.3769 3.53235   1
  -4   5   7 30.5388 4.06468   3
   3  -5  -7 24.8699 3.48349   6
   3  -5  -7 21.7845 2.89752  11
   3  -5  -7 19.4419 2.98626   9
   3  -5  -7 27.7733 3.62916   1
  -3   5   7 27.2658 3.54108   8
  -3   5   7 28.0345 3.70624   3
  -3   5   7 24.6201 3.13112   6
  -3   5   7 23.8697 3.43418   1
  -3   5   7 21.2175 2.87976   5
  -3   5   7 22.3948 3.41096  11
   2  -5  -7 4.77772 2.30021   1
   2  -5  -7 5.33794 1.90852   7
   2  -5  -7 10.0046 2.78509   1
   2  -5  -7 2.61577 2.00453   6
   2  -5  -7 4.46246 2.59754   6
   2  -5  -7 4.99072 2.24137  11
   2  -5  -7 6.76420 2.38131   9
  -2   5   7 2.43622 2.02371   3
  -2   5   7 5.29436 1.78121   4
  -2   5   7 5.56937 2.54958   6
  -2   5   7 4.88291 1.96345  11
  -2   5   7 7.85298 1.89645   1
  -2   5   7 7.34166 2.20338   8
  -2   5   7 4.00090 2.85159   1
   1  -5  -7 20.0684 2.70000   1
   1  -5  -7 11.5886 2.65208   7
   1  -5  -7 11.6738 2.70325   9
   1  -5  -7 20.8856 3.26964   1
   1  -5  -7 17.6674 3.09638   6
   1  -5  -7 23.1495 3.36883   6
  -1   5   7 16.8647 1.87056   4
  -1   5   7 17.6885 2.68659   8
  -1   5   7 15.9979 2.34659  10
  -1   5   7 12.2332 2.37243   7
  -1   5   7 22.6907 3.04572   4
  -1   5   7 16.1080 2.45930   1
  -1   5   7 16.0691 2.34362   3
  -1   5   7 18.9939 2.96873   6
  -1   5   7 15.9648 3.19672   1
   0  -5  -7 35.2118 4.47030   1
   0  -5  -7 28.2570 3.98171   7
   0  -5  -7 33.6026 4.39939   1
   0  -5  -7 29.8068 4.03749   6
   0  -5  -7 28.0392 3.99311   6
   0   5   7 34.1408 4.16744   6
   0   5   7 28.5656 3.86309   8
   0   5   7 22.1319 2.87200   7
   0   5   7 25.6903 3.43807   1
   0   5   7 23.7425 2.79935   1
   0   5   7 28.9089 3.37196   3
  -1  -5  -7 29.6926 3.85324   6
  -1  -5  -7 35.7388 4.66933   1
  -1  -5  -7 32.9439 4.23967   6
  -1  -5  -7 35.9667 4.36386   1
  -1  -5  -7 38.0515 4.93774   7
   1   5   7 41.1774 4.31287   6
   1   5   7 26.6384 3.95375   1
   1   5   7 32.1453 4.43377   7
   1   5   7 35.1078 4.27098   8
   1   5   7 39.1138 4.89220   1
   5  -6  -7 11.3603 3.51342  11
   5  -6  -7 18.0895 3.39376   6
   5  -6  -7 12.6905 3.33038   9
   5  -6  -7 25.6873 3.96215   1
  -5   6   7 15.7723 2.74838   5
  -5   6   7 16.3639 3.05709   8
  -5   6   7 23.9588 3.10588   4
  -5   6   7 16.9909 3.37452   6
  -5   6   7 20.3653 3.33902   3
  -5   6   7 20.6406 4.01330   1
  -5   6   7 15.7261 2.94080  11
   4  -6  -7 7.24893 3.03625   9
   4  -6  -7 10.6234 3.26287   1
   4  -6  -7 9.83266 3.10913  11
   4  -6  -7 12.4929 3.25789   6
  -4   6   7 11.2075 2.55672   4
  -4   6   7 15.0309 2.75955   8
  -4   6   7 9.94264 2.35742   5
  -4   6   7 9.35102 2.48657  11
  -4   6   7 7.99312 2.67431   3
   3  -6  -7 6.40949 3.09071   1
   3  -6  -7 9.49747 3.05614   6
   3  -6  -7 5.91151 2.71350  11
   3  -6  -7 5.53753 2.74312   9
  -3   6   7 6.19165 3.04773   1
  -3   6   7 3.12305 1.88469   5
  -3   6   7 9.20973 2.77831   6
  -3   6   7 7.83091 2.24263   4
  -3   6   7 7.15884 2.50867   8
  -3   6   7 7.51851 2.21662  11
  -3   6   7 8.24651 2.59669   3
   2  -6  -7 14.2733 3.08135   9
   2  -6  -7 19.4758 2.84141  11
   2  -6  -7 25.5237 3.80359   1
   2  -6  -7 22.7682 3.48266   6
  -2   6   7 14.7054 2.67169   3
  -2   6   7 17.9158 3.09656   6
  -2   6   7 22.6271 3.11658   1
  -2   6   7 21.1475 2.92765   8
  -2   6   7 26.0439 3.56768   4
  -2   6   7 18.6519 3.35774   1
   1  -6  -7 24.4537 3.08352   1
   1  -6  -7 19.7298 2.83664   6
   1  -6  -7 24.5848 3.40359   6
   1  -6  -7 24.4505 3.61482   1
   1  -6  -7 27.6078 4.08838  11
   1  -6  -7 21.7073 3.01511   7
   1  -6  -7 18.2969 3.20686   9
  -1   6   7 28.8193 3.30129   4
  -1   6   7 23.0126 3.60136   1
  -1   6   7 25.4291 3.04624   4
  -1   6   7 20.4189 2.98264   8
  -1   6   7 22.1272 3.34058   6
  -1   6   7 19.8409 2.70498   3
  -1   6   7 16.1384 2.53818   1
   0  -6  -7 15.9408 2.73629   6
   0  -6  -7 15.3101 3.05947   1
   0  -6  -7 16.2843 2.98813   6
   0  -6  -7 18.5703 3.18544   7
   0  -6  -7 16.4041 3.37517   1
   0   6   7 26.3261 3.74606   1
   0   6   7 16.5496 3.07859   6
   0   6   7 8.63433 2.68383   7
   0   6   7 10.9258 3.37725   1
   0   6   7 18.2147 3.03078   8
   0   6   7 18.8167 2.82122   3
  -1  -6  -7 11.8947 2.94623   6
  -1  -6  -7 10.6935 3.48967   1
  -1  -6  -7 12.5727 3.49737   7
  -1  -6  -7 11.5197 3.15764   1
  -1  -6  -7 5.93256 2.91083   6
   1   6   7 10.9618 3.30935   7
   1   6   7 6.84746 5.12149   1
   1   6   7 7.48324 2.54087   3
   1   6   7 6.79132 2.61995   1
   1   6   7 9.31171 3.06295   8
   1   6   7 9.73559 3.52629   6
   4  -7  -7 7.86092 3.93939   1
   4  -7  -7 5.55468 3.64100  11
   4  -7  -7 6.58845 3.56038   6
   4  -7  -7 2.90360 3.20657   9
  -4   7   7 0.34045 3.89445   1
  -4   7   7 7.70335 2.70383  11
  -4   7   7 11.1927 2.73266   4
  -4   7   7 4.80068 3.14474   3
  -4   7   7 2.93862 2.63253   5
  -4   7   7 -1.4091 2.67676   8
  -4   7   7 2.16694 3.16065   6
   3  -7  -7 0.54603 2.97668  11
   3  -7  -7 5.16433 3.32914   6
   3  -7  -7 -0.5034 2.99990   9
   3  -7  -7 4.48654 3.53258   1
  -3   7   7 1.54416 2.67711   8
  -3   7   7 3.13514 2.44941   4
  -3   7   7 -1.4809 2.73375   6
  -3   7   7 -3.4402 3.30465   1
  -3   7   7 3.07954 2.78748   3
  -3   7   7 4.08682 2.55505  11
   2  -7  -7 3.41146 3.52226   1
   2  -7  -7 -0.9243 3.28909   6
   2  -7  -7 2.72328 2.84706  11
   2  -7  -7 -1.3052 2.84838   9
  -2   7   7 -4.0075 3.38105   1
  -2   7   7 2.40939 2.20586   4
  -2   7   7 -2.6704 2.72516   6
  -2   7   7 2.19449 2.78883   3
  -2   7   7 4.62916 2.80735   8
   1  -7  -7 1.73165 2.63320   6
   1  -7  -7 5.32411 2.71814   1
   1  -7  -7 9.15124 3.26803   6
   1  -7  -7 2.92696 2.93651  11
   1  -7  -7 -1.9100 3.45748   1
  -1   7   7 3.01962 2.08744  10
  -1   7   7 -3.4853 3.47100   1
  -1   7   7 0.86812 2.81484   8
  -1   7   7 2.60054 1.87524   4
  -1   7   7 0.76996 2.67467   3
  -1   7   7 5.17577 3.07362   6
   0  -7  -7 3.61092 2.70459   7
   0  -7  -7 0.33890 3.38079   1
   0  -7  -7 3.04985 3.09473   1
   0  -7  -7 3.18551 3.00548   6
   0  -7  -7 0.73502 2.97484   6
   0   7   7 7.43429 3.11785   3
   0   7   7 5.49040 3.12955   8
   0   7   7 1.45421 2.62447   1
   0   7   7 1.33157 3.30025   1
   0   7   7 5.04696 2.98874   6
   6   5  -8 0.76289 3.85213   1
   6   5  -8 4.26311 3.40920   6
  -6  -5   8 6.56855 2.81287   3
  -6  -5   8 7.87800 2.82053  11
  -6  -5   8 2.82390 3.60635   1
  -6  -5   8 5.33071 3.32400   7
   5   5  -8 1.81455 3.25640   6
   5   5  -8 8.90827 3.99191   1
  -5  -5   8 -1.3400 3.18998   4
  -5  -5   8 -0.5608 2.69538  11
  -5  -5   8 4.92141 2.64408   3
  -5  -5   8 1.71004 2.03023   8
  -5  -5   8 1.33094 3.09701   7
   4   5  -8 5.54603 3.27475   2
   4   5  -8 2.24301 3.23569   6
   4   5  -8 5.72327 3.73637   1
  -4  -5   8 1.05058 2.93297   4
  -4  -5   8 4.22600 2.64651  11
  -4  -5   8 8.65160 3.24492  10
  -4  -5   8 9.59160 2.40971   3
  -4  -5   8 9.68363 3.58244   1
  -4  -5   8 7.75512 3.04846   7
   3   5  -8 5.06486 3.33754   6
   3   5  -8 8.78061 3.86016   1
   3   5  -8 2.07227 3.50680   2
  -3  -5   8 6.82963 2.51417   6
  -3  -5   8 11.0397 3.57360  10
  -3  -5   8 8.04397 3.98506   1
  -3  -5   8 5.65582 2.33204  11
  -3  -5   8 7.14241 2.60142   1
  -3  -5   8 2.03032 2.89025   7
  -3  -5   8 6.29201 3.09935   4
  -3  -5   8 4.82120 3.13311   5
   6   4  -8 6.11851 3.22588   6
   6   4  -8 6.93603 3.05705   2
   6   4  -8 11.7015 3.65759   1
  -6  -4   8 6.47445 2.91899   7
  -6  -4   8 7.17839 5.30557  10
  -6  -4   8 2.29688 2.76040   4
  -6  -4   8 6.31045 2.36732   8
  -6  -4   8 7.72530 2.78019  11
  -6  -4   8 4.49105 2.84600   3
  -6  -4   8 5.05803 2.26673   9
  -6  -4   8 8.78830 3.76844   1
   5   4  -8 -0.4458 2.95938   6
   5   4  -8 0.99250 2.98366   2
   5   4  -8 7.38728 3.38553   1
  -5  -4   8 -0.4631 2.37657  11
  -5  -4   8 2.22532 1.90616   8
  -5  -4   8 -3.0042 3.14550  10
  -5  -4   8 -2.5111 2.71152   4
  -5  -4   8 7.03694 2.43940   3
  -5  -4   8 3.10862 2.79802   7
   4   4  -8 0.23313 2.91714   6
   4   4  -8 1.81590 3.49618   1
   4   4  -8 4.97397 3.24078   2
  -4  -4   8 2.41611 3.14853  10
  -4  -4   8 4.68958 2.96789   4
  -4  -4   8 1.12147 2.15256   3
  -4  -4   8 -0.8612 2.11075  11
  -4  -4   8 0.91946 3.24459   1
  -4  -4   8 1.00104 2.80769   7
   3   4  -8 1.20846 3.50096   1
   3   4  -8 5.34541 2.16853   6
   3   4  -8 0.26516 3.05572   6
   3   4  -8 1.27744 3.06485   2
   3   4  -8 -2.1659 2.27796   1
  -3  -4   8 0.01338 2.41344   6
  -3  -4   8 -0.7541 2.53255   1
  -3  -4   8 -1.8815 2.99532  10
  -3  -4   8 -0.9933 3.31247   1
  -3  -4   8 -2.5637 2.68559   7
  -3  -4   8 1.26724 2.97616   4
   2   4  -8 2.69817 3.50839   1
   2   4  -8 -0.9155 3.07781   6
   2   4  -8 -2.7539 2.50336   1
   2   4  -8 -0.0903 3.36054   2
   2   4  -8 -5.8157 2.34630   6
  -2  -4   8 -5.6774 2.68675   7
  -2  -4   8 1.39601 3.57669   1
  -2  -4   8 -0.0508 3.08500   4
  -2  -4   8 -0.0865 3.25309  10
  -2  -4   8 2.56572 2.89941   1
  -2  -4   8 1.93256 2.48193   5
  -2  -4   8 0.79294 2.61985   6
   7   3  -8 28.5192 4.08462   6
   7   3  -8 24.1729 4.21470   1
   7   3  -8 24.1959 3.39374   2
  -7  -3   8 21.6526 2.91196   9
  -7  -3   8 25.8728 4.07838   7
  -7  -3   8 23.7438 3.94840   1
  -7  -3   8 19.8806 3.38986  11
   6   3  -8 14.7373 3.00925   2
   6   3  -8 16.6886 3.86139   1
   6   3  -8 16.7527 3.39606   6
  -6  -3   8 11.9711 2.98805   4
  -6  -3   8 12.7781 3.54002   1
  -6  -3   8 13.3870 2.86583  11
  -6  -3   8 15.0616 2.91563   3
  -6  -3   8 14.1535 2.87699   7
  -6  -3   8 17.1762 3.08658  10
  -6  -3   8 17.6087 2.44671   8
   5   3  -8 11.5142 3.48598   1
   5   3  -8 12.2712 3.25199   6
  -5  -3   8 9.92142 2.69518   4
  -5  -3   8 9.85978 2.49627   3
  -5  -3   8 9.56673 2.77881   7
  -5  -3   8 6.32777 1.89071   8
  -5  -3   8 8.38172 2.48702  11
  -5  -3   8 3.66880 2.90588   1
  -5  -3   8 6.93806 3.04946  10
   4   3  -8 11.3036 3.10704   6
   4   3  -8 12.8392 3.51733   1
   4   3  -8 8.01075 3.21501   2
  -4  -3   8 10.0081 2.14375   3
  -4  -3   8 9.21799 2.61124   7
  -4  -3   8 1.36112 2.60016   4
  -4  -3   8 10.3069 3.36373   1
  -4  -3   8 6.64121 2.94577  10
  -4  -3   8 5.73885 2.17592  11
   3   3  -8 8.74204 2.98333   6
   3   3  -8 9.68900 2.89378   2
   3   3  -8 6.69614 2.35450   1
   3   3  -8 9.88729 3.38673   1
   3   3  -8 3.22891 2.06995   6
  -3  -3   8 8.54064 3.32384   1
  -3  -3   8 2.60637 2.41232   1
  -3  -3   8 5.74455 2.71895   7
  -3  -3   8 6.87805 3.53615   4
  -3  -3   8 6.72720 3.30588  10
   2   3  -8 2.77379 3.10737   6
   2   3  -8 2.68442 3.36086   1
   2   3  -8 5.05711 2.39450   6
   2   3  -8 -1.6386 2.91144   2
   2   3  -8 1.61953 2.59080   1
  -2  -3   8 1.61650 2.64080   7
  -2  -3   8 -0.4117 2.57029   1
  -2  -3   8 3.89810 3.12454   1
  -2  -3   8 3.08337 3.08674  10
   1   3  -8 4.45072 3.39725   2
   1   3  -8 0.57479 2.62151   1
   1   3  -8 5.86920 2.56191   6
   1   3  -8 6.40381 3.92386   1
   1   3  -8 6.82373 3.33176   6
  -1  -3   8 1.51890 2.72598   7
  -1  -3   8 -0.6896 2.86332   1
  -1  -3   8 -4.8873 5.04645  10
  -1  -3   8 3.07211 5.11076   1
  -1  -3   8 -0.8809 3.53463   4
   7   2  -8 23.5292 3.78765   1
   7   2  -8 25.9185 3.61537   6
   7   2  -8 16.2867 3.35086   6
   7   2  -8 26.5221 3.30453   2
  -7  -2   8 21.9506 3.75306   4
  -7  -2   8 21.1945 3.99081   1
  -7  -2   8 21.6780 3.29295  11
   6   2  -8 13.9405 3.36968   1
   6   2  -8 12.7541 3.09851   6
   6   2  -8 12.1499 2.95393   2
  -6  -2   8 10.1582 2.55150  11
  -6  -2   8 14.4666 3.42901   1
  -6  -2   8 11.8725 2.71580   7
  -6  -2   8 5.78007 2.60352  10
  -6  -2   8 10.7427 2.67829   3
  -6  -2   8 6.94648 2.73606   4
  -6  -2   8 12.0469 2.20782   8
   5   2  -8 22.8138 3.43142   6
   5   2  -8 23.0271 4.07829   1
  -5  -2   8 27.9896 3.86545   3
  -5  -2   8 28.5775 4.00418  11
  -5  -2   8 29.5401 4.05249   7
  -5  -2   8 35.1809 4.86840  10
  -5  -2   8 24.4758 3.23977   8
  -5  -2   8 22.5691 3.38949   4
  -5  -2   8 26.1587 2.96834   8
   4   2  -8 57.2507 5.21357   6
   4   2  -8 52.3988 5.89237   1
  -4  -2   8 50.3252 5.47934   1
  -4  -2   8 46.5170 5.49446  10
  -4  -2   8 44.7746 5.77170   4
  -4  -2   8 46.7858 3.84648   3
  -4  -2   8 44.7014 4.54394   7
  -4  -2   8 53.5333 4.30312  11
   3   2  -8 18.1281 3.06032   6
   3   2  -8 20.4709 3.64507   1
   3   2  -8 16.6586 3.16749   2
   3   2  -8 11.2570 2.26815   6
   3   2  -8 8.75574 2.41659   1
  -3  -2   8 12.9338 2.48027   1
  -3  -2   8 17.9062 3.44664   1
  -3  -2   8 14.0570 2.74742   7
   2   2  -8 0.42099 2.76617   2
   2   2  -8 -2.9020 2.12194   6
   2   2  -8 4.97073 2.96120   6
   2   2  -8 -0.0725 2.45125   1
   2   2  -8 0.15915 2.99802   1
  -2  -2   8 0.98993 2.38740   1
  -2  -2   8 -1.6312 2.57195   7
  -2  -2   8 0.34373 2.86280   1
  -2  -2   8 1.51490 2.38141   4
   1   2  -8 9.38057 3.11369   1
   1   2  -8 11.0470 2.84299   6
   1   2  -8 7.54211 3.40970   2
   1   2  -8 10.6345 2.81889   1
   1   2  -8 9.82347 2.52513   6
  -1  -2   8 12.1344 2.77879   1
  -1  -2   8 7.49828 2.82117   4
  -1  -2   8 11.5616 3.30972   1
  -1  -2   8 1.89792 2.76133  10
  -1  -2   8 7.47799 2.92950   7
   7   1  -8 6.57951 3.67460   1
   7   1  -8 3.66876 2.50834   6
   7   1  -8 4.26930 2.88790   6
   7   1  -8 9.13569 2.85043   2
   7   1  -8 5.09509 3.25112   1
  -7  -1   8 6.46705 2.69779  11
  -7  -1   8 9.73943 3.33223  12
  -7  -1   8 2.53820 5.53188  10
  -7  -1   8 6.45670 2.66323   5
  -7  -1   8 7.46849 3.23040   4
  -7  -1   8 7.47094 3.61944   1
  -7  -1   8 6.89168 3.25069   3
   6   1  -8 13.8443 2.71559   2
   6   1  -8 13.1491 3.28810   1
   6   1  -8 9.22272 2.95595   6
  -6  -1   8 14.2943 2.78823  11
  -6  -1   8 12.1009 2.41058   5
  -6  -1   8 10.7866 3.33297   1
  -6  -1   8 11.9607 2.88174   4
  -6  -1   8 13.9483 2.74472   7
  -6  -1   8 13.8659 3.07894  10
  -6  -1   8 11.8965 2.73579   3
   5   1  -8 24.1233 3.68947   1
   5   1  -8 23.3726 3.33039   6
  -5  -1   8 21.4952 3.11400   4
  -5  -1   8 25.3910 3.67175   1
  -5  -1   8 31.3473 4.02955   7
  -5  -1   8 27.1105 3.83512   3
  -5  -1   8 22.1013 2.87980  11
  -5  -1   8 21.0798 3.26692  10
  -5  -1   8 23.0805 3.02895   8
   4   1  -8 29.5184 3.80826   1
   4   1  -8 34.9927 4.38018   6
  -4  -1   8 34.9488 5.33755  10
  -4  -1   8 35.0348 3.82702  11
  -4  -1   8 40.2376 4.05257   7
  -4  -1   8 29.9259 2.82682   8
  -4  -1   8 31.3410 3.94621   1
  -4  -1   8 34.3181 3.43743   3
  -4  -1   8 35.7261 2.90622   8
   3   1  -8 0.50111 1.83016   6
   3   1  -8 -3.4930 2.84466   1
   3   1  -8 3.42210 2.52683   2
   3   1  -8 -2.7287 2.57322   6
   3   1  -8 1.68637 2.00627   1
  -3  -1   8 -0.2886 2.75796   1
  -3  -1   8 -4.2273 2.21138   4
  -3  -1   8 -0.6280 2.43014   7
  -3  -1   8 -0.5403 2.08921   1
   2   1  -8 -2.2437 2.37391   1
   2   1  -8 -5.9924 2.75843   1
   2   1  -8 0.22834 2.21285   6
   2   1  -8 1.04771 2.75940   7
   2   1  -8 -0.4615 2.53133   6
   2   1  -8 2.90314 2.84706   2
  -2  -1   8 1.53047 3.02597   1
  -2  -1   8 1.58194 2.60705  10
  -2  -1   8 -2.0615 2.25699   1
  -2  -1   8 -1.1888 2.77307   7
  -2  -1   8 -1.5211 2.35260   4
   1   1  -8 10.8470 2.71985   1
   1   1  -8 10.2307 3.04430   7
   1   1  -8 13.5780 3.13668   2
   1   1  -8 11.6066 3.24514   1
   1   1  -8 6.66469 2.41953   6
   1   1  -8 11.6548 2.72035   6
  -1  -1   8 10.2073 2.62406   4
  -1  -1   8 8.09321 3.14197   1
  -1  -1   8 8.59681 3.06549   7
  -1  -1   8 5.13353 2.74210  10
  -1  -1   8 11.8758 2.80178   1
   7   0  -8 7.07697 2.80495   6
   7   0  -8 10.1413 2.91227   6
   7   0  -8 11.5756 2.92729   2
   7   0  -8 9.77589 3.35980   1
   7   0  -8 8.87533 2.88045   9
  -7   0   8 12.9180 2.99511   3
  -7   0   8 9.20148 2.87035   4
  -7   0   8 10.2247 3.12822  11
  -7   0   8 7.35730 2.61011   5
  -7   0   8 13.9708 3.26786  12
  -7   0   8 5.81532 3.33553   1
   6   0  -8 18.4209 3.08967   2
   6   0  -8 11.5439 2.65696   9
   6   0  -8 21.6145 3.73426   1
   6   0  -8 17.4493 2.97364   6
  -6   0   8 18.7488 2.56489   8
  -6   0   8 9.60485 3.36724   1
  -6   0   8 13.8812 2.70521   7
  -6   0   8 14.8213 2.48795   5
  -6   0   8 11.6179 2.81405   4
  -6   0   8 15.9279 2.83546   3
  -6   0   8 18.8575 2.90153  11
  -6   0   8 14.8538 3.31844  10
   5   0  -8 29.4096 4.47523   1
   5   0  -8 42.4897 5.60790   1
   5   0  -8 30.9445 4.11629   9
   5   0  -8 37.3759 4.49918   6
  -5   0   8 30.1907 3.33376   8
  -5   0   8 34.7513 3.87686   3
  -5   0   8 35.8313 3.97483   7
  -5   0   8 38.3471 4.94648   4
  -5   0   8 42.0341 4.21002  11
  -5   0   8 35.3804 4.91389  10
  -5   0   8 36.7123 4.57152  12
  -5   0   8 31.8416 3.74622   5
   4   0  -8 15.8371 2.76477   6
   4   0  -8 12.2365 2.51569   7
   4   0  -8 10.0091 4.70850   2
   4   0  -8 10.9900 3.17160   1
  -4   0   8 9.20924 1.79106   5
  -4   0   8 12.3631 2.19167  11
  -4   0   8 12.7656 2.12447   3
  -4   0   8 7.29303 2.40859   7
  -4   0   8 9.92545 3.24592   1
  -4   0   8 10.5229 1.79466   8
   3   0  -8 4.14483 3.10738   1
   3   0  -8 3.93041 2.58237   6
   3   0  -8 -1.1744 1.98620   1
   3   0  -8 3.37841 2.59061   2
   3   0  -8 2.83849 1.80906   6
   3   0  -8 -3.9238 2.28258   7
  -3   0   8 -0.4055 2.46367  10
  -3   0   8 1.05356 2.75228   1
  -3   0   8 4.73559 2.45242   7
  -3   0   8 -0.3429 2.28242   4
  -3   0   8 1.33451 2.12140   1
   2   0  -8 1.21062 2.48064   6
   2   0  -8 -1.5120 2.04068   6
   2   0  -8 2.75181 2.96675   1
   2   0  -8 1.10529 2.39756   1
   2   0  -8 -4.0934 2.56855   7
   2   0  -8 4.29414 2.75520   2
  -2   0   8 0.05909 2.28821   4
  -2   0   8 3.46116 2.95375   1
  -2   0   8 -1.0023 2.17113   1
  -2   0   8 0.65992 2.54548   7
  -2   0   8 -2.8679 2.60932  10
   1   0  -8 1.47680 2.56808   6
   1   0  -8 0.13427 2.70564   1
   1   0  -8 1.83581 2.57044   6
   1   0  -8 5.67924 3.00182   1
   1   0  -8 3.54789 2.99207   7
   1   0  -8 5.63254 2.84968   2
  -1   0   8 7.36503 2.55554  10
  -1   0   8 0.51960 2.51546   1
  -1   0   8 1.33304 2.96373   7
  -1   0   8 8.45052 3.09622   1
  -1   0   8 1.93029 2.29294   4
   0   0  -8 9.14445 2.57940   6
   0   0  -8 16.7382 3.56345   7
   0   0  -8 9.05954 2.74365   1
   0   0  -8 23.6243 4.92293   2
   0   0   8 9.79835 2.72216   1
   0   0   8 10.4003 2.99621   7
   0   0   8 10.6390 2.36559   4
   0   0   8 6.35373 2.82609  10
   7  -1  -8 1.40192 3.47623   1
   7  -1  -8 7.15193 3.00770   6
   7  -1  -8 1.63336 2.96874   9
  -7   1   8 6.14583 3.23444  12
  -7   1   8 5.68671 2.91901  11
  -7   1   8 1.85638 2.64369   3
  -7   1   8 1.06896 2.41278   5
  -7   1   8 2.97967 2.78985   1
  -7   1   8 4.82613 3.43382   1
  -7   1   8 2.02879 2.83930   8
  -7   1   8 1.31988 2.75368   4
   6  -1  -8 5.55291 2.77946   6
   6  -1  -8 7.58420 3.28051   1
   6  -1  -8 6.94342 2.77132   9
  -6   1   8 5.53297 2.60052   7
  -6   1   8 5.64939 2.30554   8
  -6   1   8 7.00274 2.23739   5
  -6   1   8 7.85252 2.81590   4
  -6   1   8 11.9381 3.31570   1
  -6   1   8 8.95550 5.08050  12
  -6   1   8 6.67361 2.74252  11
   5  -1  -8 30.4301 4.42793   6
   5  -1  -8 25.5983 3.95284   9
   5  -1  -8 32.0440 3.89158   1
   5  -1  -8 28.8972 3.54705   7
  -5   1   8 26.2715 3.94225   3
  -5   1   8 32.9628 4.16821  11
  -5   1   8 24.1201 3.44700   4
  -5   1   8 27.8498 3.09949   7
  -5   1   8 29.7738 4.41283  12
  -5   1   8 29.2398 3.48315   8
  -5   1   8 26.3293 3.67930  10
  -5   1   8 28.8235 3.68271   5
   4  -1  -8 11.7358 2.94039   2
   4  -1  -8 9.64703 2.10475   9
   4  -1  -8 11.0264 2.52745   7
   4  -1  -8 13.4111 2.78164   6
   4  -1  -8 14.3991 3.21243   1
  -4   1   8 4.81026 2.31697   4
  -4   1   8 10.4241 1.94965   8
  -4   1   8 12.8685 2.16740   3
  -4   1   8 11.7877 2.52204   7
  -4   1   8 5.76457 1.97015  11
  -4   1   8 8.92775 1.80724   5
  -4   1   8 6.15912 3.17681   1
  -4   1   8 10.8055 2.50151  12
   3  -1  -8 28.4662 3.54740   2
   3  -1  -8 32.5835 3.43201   6
   3  -1  -8 26.8410 3.43752   6
   3  -1  -8 33.5521 5.06806   1
   3  -1  -8 29.6216 3.89340   1
   3  -1  -8 26.1320 3.12715   7
  -3   1   8 23.9365 2.99967   4
  -3   1   8 29.9782 3.90325   7
  -3   1   8 33.3598 4.65298  10
  -3   1   8 29.6623 3.66009   1
  -3   1   8 21.9555 3.70944   1
  -3   1   8 30.0276 2.90697   8
   2  -1  -8 14.1593 2.58064   6
   2  -1  -8 18.6712 3.14519   2
   2  -1  -8 19.0215 3.23394   1
   2  -1  -8 13.2050 2.96685   6
   2  -1  -8 13.6090 2.76108   1
   2  -1  -8 21.5929 3.28947   7
  -2   1   8 15.9522 2.64671   1
  -2   1   8 9.80530 2.40179   4
  -2   1   8 17.8501 3.33167   1
  -2   1   8 20.5026 3.08187   7
  -2   1   8 13.4865 2.85340  10
   1  -1  -8 11.1505 3.04781   1
   1  -1  -8 9.12905 2.96522   1
   1  -1  -8 8.32119 3.09716   7
   1  -1  -8 7.40657 2.63848   6
   1  -1  -8 9.78440 2.87614   6
   1  -1  -8 9.73224 3.02433   2
  -1   1   8 11.6232 3.05010   1
  -1   1   8 6.78108 2.52117   1
  -1   1   8 8.78804 2.88355   7
  -1   1   8 8.46883 2.15750   4
  -1   1   8 4.69069 2.49451  10
   0  -1  -8 6.26838 2.94316   1
   0  -1  -8 4.84583 2.55173   6
   0  -1  -8 -0.1588 3.28930   7
   0   1   8 4.58053 2.87352   7
   0   1   8 2.81488 2.06828   4
   0   1   8 0.28001 2.33793  10
   0   1   8 2.15197 2.62470   1
   6  -2  -8 7.13328 3.22754   6
   6  -2  -8 11.5494 3.42412   1
   6  -2  -8 8.36259 2.87562   9
  -6   2   8 6.01089 3.07524  12
  -6   2   8 6.40229 2.57276   5
  -6   2   8 4.59707 2.44669   8
  -6   2   8 13.1234 3.57519   1
  -6   2   8 5.76254 2.50366  11
   5  -2  -8 3.42597 2.85988   6
   5  -2  -8 3.26943 2.24249   7
   5  -2  -8 5.01228 3.13801   1
   5  -2  -8 0.64404 2.35162   9
  -5   2   8 3.00789 2.31395   7
  -5   2   8 2.78569 2.03310   8
  -5   2   8 1.56338 2.62862  12
  -5   2   8 3.69132 1.93146   5
  -5   2   8 5.88149 2.81613   4
  -5   2   8 -1.1917 2.14158  11
   4  -2  -8 10.8442 2.42700   9
   4  -2  -8 14.4147 3.25770   1
   4  -2  -8 16.5577 3.25957   6
   4  -2  -8 12.2789 2.74775   7
  -4   2   8 13.6684 2.13593   8
  -4   2   8 14.5171 2.90675  12
  -4   2   8 15.0687 3.29804   1
  -4   2   8 14.5698 2.65565   7
  -4   2   8 14.9365 1.80602   5
  -4   2   8 14.0204 2.33251   3
  -4   2   8 13.3490 2.37514  11
   3  -2  -8 49.4828 5.20168   1
   3  -2  -8 38.0102 4.24360   1
   3  -2  -8 43.8766 4.77068   6
   3  -2  -8 32.0944 3.71988   6
   3  -2  -8 37.7155 3.95926   9
   3  -2  -8 36.4537 4.31715   7
  -3   2   8 34.9548 4.66535   4
  -3   2   8 40.7391 3.89268  12
  -3   2   8 38.8594 4.32850   7
  -3   2   8 38.2599 3.60231   8
  -3   2   8 45.0576 3.49132   3
  -3   2   8 38.1144 3.38689   3
  -3   2   8 45.3036 5.26915   1
  -3   2   8 39.0011 3.95356   1
  -3   2   8 34.1169 5.02903  10
   2  -2  -8 31.9798 4.39027   1
   2  -2  -8 32.8466 3.75768   1
   2  -2  -8 35.8758 4.43408   6
   2  -2  -8 19.6162 2.97387   6
   2  -2  -8 31.1783 4.45036   7
  -2   2   8 35.7579 4.09872   7
  -2   2   8 20.6460 3.67636   1
  -2   2   8 22.8552 3.20392  10
  -2   2   8 28.1347 3.93756   4
  -2   2   8 33.2808 3.04760   8
  -2   2   8 24.6210 2.93613   1
   1  -2  -8 23.9893 3.26190   6
   1  -2  -8 27.5306 3.67265   2
   1  -2  -8 33.0828 4.76218   1
   1  -2  -8 25.9037 3.64304   7
   1  -2  -8 26.3449 3.44245   1
   1  -2  -8 33.4063 4.30348   6
  -1   2   8 22.7241 3.46236   7
  -1   2   8 26.2723 3.63098   1
  -1   2   8 25.3913 3.24295   1
  -1   2   8 32.7018 4.48790  10
  -1   2   8 30.5325 3.52013   4
   0  -2  -8 9.78547 3.39138   7
   0  -2  -8 -1.2764 2.63564   6
   0  -2  -8 3.65856 2.87095   1
   0   2   8 -1.6710 2.08233  10
   0   2   8 0.84265 2.43456   1
   0   2   8 1.50694 3.00294   7
   6  -3  -8 13.9843 3.53754   6
   6  -3  -8 8.32267 3.48752   9
   6  -3  -8 11.7095 3.81703   1
  -6   3   8 15.0359 3.12646  12
  -6   3   8 10.8026 4.29097   1
  -6   3   8 14.1688 2.53940   5
  -6   3   8 7.20947 2.66123  11
  -6   3   8 13.0901 2.83719   8
  -6   3   8 14.1385 3.78094   6
   5  -3  -8 22.5915 3.43643   6
   5  -3  -8 13.1960 3.02836   9
   5  -3  -8 17.9859 3.53406   1
  -5   3   8 15.2705 2.70496   8
  -5   3   8 11.9153 2.76077  11
  -5   3   8 14.7413 2.28814   5
   4  -3  -8 17.4789 3.67583   1
   4  -3  -8 22.7400 3.31606   6
   4  -3  -8 20.3849 2.80273   7
   4  -3  -8 16.9132 2.94222   9
  -4   3   8 26.2353 3.11707   7
  -4   3   8 15.7292 3.74460   1
  -4   3   8 16.4035 2.47022  11
  -4   3   8 14.6106 2.13157   5
  -4   3   8 18.3189 3.01299  12
  -4   3   8 19.5789 2.77726   3
  -4   3   8 28.5333 3.68617   8
  -4   3   8 20.0535 3.59633   6
   3  -3  -8 7.82189 2.53138   6
   3  -3  -8 11.0991 2.74262   1
   3  -3  -8 12.9864 3.45546   1
   3  -3  -8 7.97246 2.70485   9
   3  -3  -8 10.7930 3.26661   6
   3  -3  -8 10.9380 2.70290   7
  -3   3   8 13.6074 2.16983   3
  -3   3   8 12.9155 2.47386   1
  -3   3   8 17.1093 3.65727   1
  -3   3   8 10.1990 2.10849  11
  -3   3   8 6.59340 2.70541   7
  -3   3   8 9.58083 2.45084  12
  -3   3   8 11.2836 2.50177   8
  -3   3   8 11.6795 2.75435   4
  -3   3   8 9.35058 2.90074  10
   2  -3  -8 29.6019 4.07794   6
   2  -3  -8 20.8511 3.21837   1
   2  -3  -8 22.1615 3.44610   6
   2  -3  -8 19.6689 3.26771   7
   2  -3  -8 26.5617 3.70895   1
   2  -3  -8 22.8177 3.04000   9
  -2   3   8 26.0306 3.29396   7
  -2   3   8 19.3015 2.86410   4
  -2   3   8 22.5526 3.82337   1
  -2   3   8 30.7593 4.63102  10
  -2   3   8 24.7266 3.08982   1
  -2   3   8 29.2311 3.47705   8
   1  -3  -8 10.1064 3.14684   1
   1  -3  -8 11.4010 3.17705   7
   1  -3  -8 11.9931 3.23882   1
   1  -3  -8 4.05070 2.75634   6
   1  -3  -8 11.5490 2.98015   6
  -1   3   8 8.26362 2.49908  10
  -1   3   8 6.00862 3.01411   7
  -1   3   8 4.59439 3.26955   1
  -1   3   8 4.78101 2.00225   4
  -1   3   8 13.1288 2.72922   1
  -1   3   8 9.88563 2.02337   8
   5  -4  -8 10.3520 3.76599   6
   5  -4  -8 9.56251 3.77039   1
   5  -4  -8 10.4538 3.47531   9
  -5   4   8 10.2998 2.67211  11
  -5   4   8 6.53494 2.63182   8
  -5   4   8 11.4886 3.14659   3
  -5   4   8 15.8925 3.76610   1
  -5   4   8 14.6581 3.65175   6
  -5   4   8 8.58905 2.49845   5
   4  -4  -8 21.8307 3.41303   9
   4  -4  -8 25.6141 3.92825   1
   4  -4  -8 21.8725 3.69752   6
   4  -4  -8 15.0289 2.85314   7
  -4   4   8 12.1462 3.64400   6
  -4   4   8 20.2035 2.97708   3
  -4   4   8 16.1428 3.72583   1
  -4   4   8 23.5160 2.84841  11
  -4   4   8 21.5571 3.01647   8
  -4   4   8 18.7712 2.27556   5
   3  -4  -8 33.1041 4.88067   6
   3  -4  -8 33.2982 4.15609   1
   3  -4  -8 26.0223 3.41268   9
   3  -4  -8 26.6966 3.47259   7
  -3   4   8 28.9271 4.19117   1
  -3   4   8 31.9686 4.11996   3
  -3   4   8 23.1132 3.86150   6
  -3   4   8 34.7798 4.29056   7
  -3   4   8 25.8655 3.27148   4
  -3   4   8 26.3583 3.87582   1
  -3   4   8 31.0600 4.23469   8
  -3   4   8 29.4301 3.63724  11
  -3   4   8 38.5874 4.18140  12
   2  -4  -8 12.4372 3.19319   1
   2  -4  -8 12.7015 3.38262   6
   2  -4  -8 10.8682 2.93219   7
   2  -4  -8 10.8762 3.00918   6
   2  -4  -8 15.3168 3.62225   1
   2  -4  -8 12.8963 2.93966   9
  -2   4   8 12.6568 2.97127  10
  -2   4   8 11.5498 2.68094   4
  -2   4   8 15.2032 3.42796   6
  -2   4   8 13.4339 2.37991   3
  -2   4   8 10.3657 2.65073   8
  -2   4   8 10.1446 3.67992   1
  -2   4   8 15.0277 2.87730   7
   1  -4  -8 -1.9906 3.00340   7
   1  -4  -8 6.93114 3.12001   6
   1  -4  -8 11.4409 3.13233   1
   1  -4  -8 12.6122 3.59358   1
   1  -4  -8 7.62541 2.98440   9
   1  -4  -8 6.28306 2.81482   6
  -1   4   8 11.2083 2.76971   1
  -1   4   8 9.73269 2.65361   8
  -1   4   8 5.22062 2.38441  10
  -1   4   8 8.56234 3.05088   7
  -1   4   8 13.1522 3.66283   1
   4  -5  -8 18.0537 3.80613  11
   4  -5  -8 17.3389 4.15433   1
   4  -5  -8 13.3477 3.81268   6
   4  -5  -8 12.3160 3.49295   9
  -4   5   8 17.6533 2.53442   5
  -4   5   8 17.2237 3.05141  11
  -4   5   8 14.5058 3.11685   8
  -4   5   8 19.1195 3.34486   3
   3  -5  -8 9.18225 3.19350  11
   3  -5  -8 3.43147 3.13870   9
   3  -5  -8 6.99024 3.62000   1
   3  -5  -8 5.06116 3.45843   6
   3  -5  -8 0.30071 2.60371   7
  -3   5   8 4.65607 2.53720  11
  -3   5   8 8.66535 3.03914   4
  -3   5   8 7.30704 3.30151   6
  -3   5   8 4.57189 2.75309   8
  -3   5   8 4.37255 3.64019   1
  -3   5   8 3.13037 2.80462   3
   2  -5  -8 4.86731 2.79470   6
   2  -5  -8 5.23782 3.34335   6
   2  -5  -8 2.87331 2.78867   7
   2  -5  -8 1.72613 3.21899   9
   2  -5  -8 9.12777 3.53231   1
   2  -5  -8 6.99627 3.79845   1
  -2   5   8 7.73059 3.40482   6
  -2   5   8 5.34817 2.85040   8
  -2   5   8 6.16368 3.03097  10
  -2   5   8 5.67187 2.59062   1
  -2   5   8 1.52109 3.66516   1
  -2   5   8 6.01094 2.65392   3
  -2   5   8 2.06329 2.33999   4
  -2   5   8 8.07164 2.57868   4
   0   0   0    0.00    0.00   0

 _exptl_absorpt_process_details
)
 SADABS 2016/2: Krause, L., Herbst-Irmer, R., Sheldrick G.M. & Stalke D.,
 J. Appl. Cryst. 48 (2015) 3-10
)
 _exptl_absorpt_correction_type   multi-scan
 _exptl_absorpt_correction_T_max  0.7452
 _exptl_absorpt_correction_T_min  0.6307
 _exptl_special_details
)
 The following wavelength and cell were deduced by SADABS from the
 direction cosines etc. They are given here for emergency use only:
 CELL 0.71125    8.456   10.912    7.291   90.472  113.137   78.049
)

;
_shelx_hkl_checksum              5059
loop_
_space_group_symop_operation_xyz
'x, y, z'
'-x, -y, -z'
loop_
_atom_site_type_symbol
_atom_site_label
_atom_site_fract_x
_atom_site_fract_y
_atom_site_fract_z
_atom_site_U_iso_or_equiv
_atom_site_adp_type
_atom_site_calc_flag
_atom_site_refinement_flags_adp
_atom_site_refinement_flags_occupancy
_atom_site_refinement_flags_posn
_atom_site_occupancy
_atom_site_disorder_assembly
_atom_site_disorder_group
Ni Ni1 0.5 0.5 0.5 0.0445(2) Uani d U P S 1.0 . .
N N1 0.6443(3) 0.6220(3) 0.5051(3) 0.0506(6) Uani d U . . 1.0 . .
N N2 0.4250(3) 0.5918(3) 0.6893(3) 0.0474(6) Uani d U . . 1.0 . .
C C1 0.7537(4) 0.6235(3) 0.4030(5) 0.0581(8) Uani d U . . 1.0 . .
C C2 0.8650(11) 0.7047(9) 0.4766(16) 0.0284(19) Uani d U P D 0.378(7) A 1
C C3 0.8030(11) 0.7754(8) 0.6030(16) 0.0392(19) Uani d U P D 0.5 A 1
C C4 0.6804(12) 0.7115(9) 0.6304(17) 0.036(2) Uani d U P D 0.5 A 1
C C5 0.5907(19) 0.7476(12) 0.753(2) 0.042(3) Uani d U P D 0.5 A 1
H H5 0.6222 0.8161 0.8303 0.05 Uiso calc U P R 0.5 A 1
C C11 1.0013(14) 0.7364(11) 0.4079(18) 0.036(2) Uani d U P D 0.378(7) A 1
H H11A 1.0574 0.6602 0.3623 0.043 Uiso calc U P R 0.378(7) A 1
H H11B 1.0946 0.7641 0.522 0.043 Uiso calc U P R 0.378(7) A 1
C C12 0.9157(13) 0.8402(9) 0.2374(13) 0.054(2) Uani d U P D 0.378(7) A 1
H H12A 0.8251 0.812 0.1235 0.08 Uiso calc U P R 0.378(7) A 1
H H12B 1.0058 0.8594 0.196 0.08 Uiso calc U P R 0.378(7) A 1
H H12C 0.8611 0.9158 0.283 0.08 Uiso calc U P R 0.378(7) A 1
C C13 0.8520(15) 0.8926(9) 0.6995(17) 0.053(3) Uani d U P D 0.5 A 1
H H13A 0.9661 0.8996 0.7002 0.079 Uiso calc U P R 0.5 A 1
H H13B 0.8606 0.888 0.8377 0.079 Uiso calc U P R 0.5 A 1
H H13C 0.7612 0.9666 0.6235 0.079 Uiso calc U P R 0.5 A 1
C C15 0.1597(19) 0.6141(14) 0.9728(18) 0.049(3) Uani d U P . 0.5 B 1
H H15A 0.053 0.6828 0.9382 0.059 Uiso calc U P R 0.5 B 1
H H15B 0.2126 0.5917 1.1193 0.059 Uiso calc U P R 0.5 B 1
C C16 0.1160(9) 0.4961(6) 0.8515(11) 0.0616(17) Uani d U P . 0.5 B 1
H H16A 0.14 0.4229 0.9459 0.074 Uiso calc U P R 0.5 B 1
H H16B -0.0109 0.514 0.761 0.074 Uiso calc U P R 0.5 B 1
C C6 0.4658(4) 0.6994(3) 0.7770(4) 0.0505(7) Uani d U . . 1.0 . .
C C7 0.3796(4) 0.7354(3) 0.9134(4) 0.0497(7) Uani d U . . 1.0 . .
C C8 0.2847(3) 0.6483(3) 0.9057(4) 0.0460(7) Uani d U . D 1.0 . .
C C9 0.3137(3) 0.5612(3) 0.7692(4) 0.0483(7) Uani d U . . 1.0 . .
C C10 0.2280(4) 0.4642(3) 0.7277(5) 0.0566(8) Uani d U . . 1.0 . .
H H10 0.1518 0.4573 0.7927 0.068 Uiso calc U P R 0.5 B 2
C C14 0.3975(5) 0.8462(4) 1.0357(5) 0.0655(9) Uani d U . . 1.0 . .
H H14A 0.4755 0.892 1.0088 0.098 Uiso calc U P R 0.5 . .
H H14B 0.2809 0.9021 1.0002 0.098 Uiso calc U P R 0.5 . .
H H14C 0.4477 0.8174 1.1784 0.098 Uiso calc U P R 0.5 . .
H H14D 0.3272 0.849 1.1161 0.098 Uiso calc U P R 0.5 . .
H H14E 0.5219 0.8389 1.1248 0.098 Uiso calc U P R 0.5 . .
H H14F 0.3551 0.9236 0.9465 0.098 Uiso calc U P R 0.5 . .
C C2' 0.816(2) 0.7507(12) 0.437(2) 0.066(4) Uani d U P D 0.5 A 2
C C3' 0.751(3) 0.804(2) 0.552(4) 0.054(8) Uani d U P D 0.277(8) A 2
C C4' 0.6330(13) 0.7453(11) 0.5908(16) 0.046(3) Uani d U P D 0.5 A 2
C C5' 0.5548(18) 0.7837(13) 0.724(2) 0.051(3) Uani d U P D 0.5 A 2
H H5' 0.56 0.8631 0.7785 0.061 Uiso calc U P R 0.5 A 2
C C11' 0.9529(17) 0.7716(12) 0.3585(19) 0.065(3) Uani d U P D 0.5 A 2
H H11D 0.8969 0.787 0.2121 0.097 Uiso calc U P R 0.5 A 2
H H11E 1.0496 0.6967 0.396 0.097 Uiso calc U P R 0.5 A 2
H H11F 0.9997 0.8445 0.4171 0.097 Uiso calc U P R 0.5 A 2
C C13' 0.800(3) 0.923(2) 0.642(3) 0.053(5) Uani d U P D 0.277(8) A 2
H H13D 0.777 0.9297 0.7659 0.08 Uiso calc U P R 0.277(8) A 2
H H13E 0.9291 0.9125 0.6843 0.08 Uiso calc U P R 0.277(8) A 2
C C14' 0.730(2) 1.0224(14) 0.543(2) 0.067(4) Uani d U P . 0.277(8) A 2
H H14G 0.7523 1.0196 0.4211 0.101 Uiso calc U P R 0.277(8) A 2
H H14H 0.777 1.09 0.6212 0.101 Uiso calc U P R 0.277(8) A 2
H H14I 0.6019 1.0384 0.5071 0.101 Uiso calc U P R 0.277(8) A 2
C C15' 0.177(2) 0.6322(15) 1.0340(19) 0.054(3) Uani d U P D 0.5 B 2
H H15D 0.0519 0.6417 0.9453 0.08 Uiso calc U P R 0.5 B 2
H H15E 0.1891 0.6964 1.1307 0.08 Uiso calc U P R 0.5 B 2
H H15F 0.2222 0.5483 1.1059 0.08 Uiso calc U P R 0.5 B 2
C C2" 0.801(5) 0.732(5) 0.407(5) 0.050(8) Uani d U P D 0.122(7) A 3
C C11" 0.855(3) 0.805(2) 0.270(4) 0.028(5) Uani d U P D 0.122(7) A 3
H H11G 0.8088 0.7777 0.1322 0.034 Uiso calc U P R 0.122(7) A 3
H H11H 0.8049 0.8966 0.2636 0.034 Uiso calc U P R 0.122(7) A 3
C C12" 1.055(3) 0.780(2) 0.355(4) 0.047(7) Uani d U P D 0.122(7) A 3
H H12D 1.0986 0.8158 0.4848 0.07 Uiso calc U P R 0.122(7) A 3
H H12E 1.0924 0.8187 0.2621 0.07 Uiso calc U P R 0.122(7) A 3
H H12F 1.1035 0.6889 0.3729 0.07 Uiso calc U P R 0.122(7) A 3
C C3" 0.731(4) 0.8328(18) 0.540(5) 0.049(5) Uani d U P D 0.223(8) A 3
C C13" 0.744(3) 0.9651(18) 0.604(3) 0.055(5) Uani d U P D 0.223(8) A 3
H H13F 0.6374 1.0052 0.6265 0.066 Uiso calc U P R 0.223(8) A 3
H H13G 0.7494 1.0165 0.4958 0.066 Uiso calc U P R 0.223(8) A 3
C C14" 0.9138(17) 0.9606(12) 0.8025(18) 0.042(4) Uani d U P . 0.223(8) A 3
H H14J 0.9017 0.9186 0.9133 0.063 Uiso calc U P R 0.223(8) A 3
H H14K 0.9272 1.0466 0.8334 0.063 Uiso calc U P R 0.223(8) A 3
H H14L 1.0182 0.9138 0.784 0.063 Uiso calc U P R 0.223(8) A 3
loop_
_atom_site_aniso_label
_atom_site_aniso_U_11
_atom_site_aniso_U_22
_atom_site_aniso_U_33
_atom_site_aniso_U_12
_atom_site_aniso_U_13
_atom_site_aniso_U_23
Ni1 0.0268(3) 0.0813(4) 0.0345(3) -0.0229(2) 0.0165(2) -0.0126(2)
N1 0.0427(13) 0.0856(18) 0.0423(13) -0.0330(12) 0.0276(11) -0.0145(12)
N2 0.0254(10) 0.0832(17) 0.0385(12) -0.0181(11) 0.0149(9) -0.0120(11)
C1 0.0625(19) 0.085(2) 0.0592(18) -0.0461(17) 0.0439(16) -0.0227(16)
C2 0.013(3) 0.035(4) 0.031(4) -0.001(3) 0.006(3) 0.002(3)
C3 0.025(3) 0.054(4) 0.040(5) -0.012(3) 0.013(3) -0.008(3)
C4 0.020(4) 0.050(4) 0.034(4) -0.005(3) 0.009(4) -0.001(3)
C5 0.028(4) 0.053(5) 0.045(5) -0.006(3) 0.015(4) -0.007(4)
C11 0.026(3) 0.041(4) 0.042(4) -0.011(3) 0.015(3) -0.002(3)
C12 0.051(5) 0.071(6) 0.044(4) -0.026(4) 0.018(4) 0.003(4)
C13 0.042(5) 0.063(5) 0.062(6) -0.024(4) 0.024(4) -0.021(4)
C15 0.041(4) 0.054(5) 0.067(7) -0.014(3) 0.037(5) -0.010(4)
C16 0.064(4) 0.071(4) 0.085(4) -0.034(3) 0.058(4) -0.025(3)
C6 0.0352(14) 0.091(2) 0.0367(14) -0.0315(14) 0.0175(12) -0.0183(14)
C7 0.0401(14) 0.080(2) 0.0411(15) -0.0285(14) 0.0221(12) -0.0160(13)
C8 0.0340(13) 0.0663(18) 0.0486(15) -0.0184(12) 0.0245(12) -0.0143(13)
C9 0.0296(13) 0.0740(19) 0.0466(15) -0.0152(13) 0.0192(12) -0.0133(13)
C10 0.0482(17) 0.089(2) 0.0562(18) -0.0305(16) 0.0380(15) -0.0147(16)
C14 0.073(2) 0.096(3) 0.0571(19) -0.052(2) 0.0417(17) -0.0300(18)
C2' 0.093(9) 0.076(7) 0.075(8) -0.058(6) 0.063(8) -0.029(6)
C3' 0.062(15) 0.072(9) 0.047(15) -0.035(10) 0.031(14) -0.012(10)
C4' 0.036(6) 0.085(6) 0.029(4) -0.031(5) 0.015(5) -0.007(4)
C5' 0.054(8) 0.085(8) 0.033(5) -0.041(7) 0.025(6) -0.020(5)
C11' 0.067(7) 0.086(7) 0.071(7) -0.047(6) 0.043(6) -0.017(5)
C13' 0.070(14) 0.073(8) 0.048(9) -0.037(7) 0.047(9) -0.017(6)
C14' 0.104(10) 0.060(7) 0.056(7) -0.040(7) 0.040(7) -0.020(6)
C15' 0.059(5) 0.066(7) 0.059(7) -0.027(4) 0.042(5) -0.014(4)
C2" 0.062(18) 0.071(8) 0.048(15) -0.036(10) 0.045(15) -0.017(8)
C11" 0.022(10) 0.037(10) 0.040(10) -0.014(8) 0.023(8) -0.003(7)
C12" 0.032(10) 0.061(15) 0.054(13) -0.018(8) 0.022(9) 0.010(11)
C3" 0.064(12) 0.063(7) 0.043(9) -0.029(7) 0.040(9) -0.008(6)
C13" 0.055(7) 0.059(7) 0.052(6) -0.015(4) 0.022(4) -0.006(4)
C14" 0.052(6) 0.043(6) 0.043(5) -0.020(5) 0.026(4) -0.011(4)
loop_
_atom_type_symbol
_atom_type_description
_atom_type_scat_dispersion_real
_atom_type_scat_dispersion_imag
_atom_type_scat_source
C C 0.0033 0.0016 'International Tables Vol C Tables 4.2.6.8 and 6.1.1.4'
H H 0.0000 0.0000 'International Tables Vol C Tables 4.2.6.8 and 6.1.1.4'
N N 0.0061 0.0033 'International Tables Vol C Tables 4.2.6.8 and 6.1.1.4'
Ni Ni 0.3393 1.1124 'International Tables Vol C Tables 4.2.6.8 and 6.1.1.4'
loop_
_geom_angle_atom_site_label_1
_geom_angle_atom_site_label_2
_geom_angle_atom_site_label_3
_geom_angle_site_symmetry_1
_geom_angle_site_symmetry_3
_geom_angle
N2 Ni1 N2 2_666 . 180.0
N2 Ni1 N1 2_666 2_666 89.68(10)
N2 Ni1 N1 . 2_666 90.32(10)
N2 Ni1 N1 2_666 . 90.32(10)
N2 Ni1 N1 . . 89.68(10)
N1 Ni1 N1 2_666 . 180.0
C4 N1 C1 . . 103.4(5)
C1 N1 C4' . . 104.6(4)
C4 N1 Ni1 . . 127.1(5)
C1 N1 Ni1 . . 128.9(2)
C4' N1 Ni1 . . 125.7(4)
C6 N2 C9 . . 103.5(2)
C6 N2 Ni1 . . 130.27(18)
C9 N2 Ni1 . . 126.2(2)
C2" C1 C10 . 2_666 122.7(17)
C10 C1 C2 2_666 . 123.3(5)
C2" C1 N1 . . 112.6(19)
C10 C1 N1 2_666 . 122.8(3)
C2 C1 N1 . . 112.7(5)
C10 C1 C2' 2_666 . 128.8(5)
N1 C1 C2' . . 107.5(5)
C1 C2 C3 . . 105.1(7)
C1 C2 C11 . . 129.9(9)
C3 C2 C11 . . 123.7(10)
C2 C3 C4 . . 105.1(8)
C2 C3 C13 . . 129.4(9)
C4 C3 C13 . . 125.5(9)
N1 C4 C5 . . 122.5(11)
N1 C4 C3 . . 112.1(8)
C5 C4 C3 . . 124.9(11)
C6 C5 C4 . . 129.1(13)
C6 C5 H5 . . 115.5
C4 C5 H5 . . 115.5
C2 C11 C12 . . 110.8(8)
C2 C11 H11A . . 109.5
C12 C11 H11A . . 109.5
C2 C11 H11B . . 109.5
C12 C11 H11B . . 109.5
H11A C11 H11B . . 108.1
C11 C12 H12A . . 109.5
C11 C12 H12B . . 109.5
H12A C12 H12B . . 109.5
C11 C12 H12C . . 109.5
H12A C12 H12C . . 109.5
H12B C12 H12C . . 109.5
C3 C13 H13A . . 109.5
C3 C13 H13B . . 109.5
H13A C13 H13B . . 109.5
C3 C13 H13C . . 109.5
H13A C13 H13C . . 109.5
H13B C13 H13C . . 109.5
C8 C15 C16 . . 101.5(6)
C8 C15 H15A . . 111.5
C16 C15 H15A . . 111.5
C8 C15 H15B . . 111.5
C16 C15 H15B . . 111.5
H15A C15 H15B . . 109.3
C10 C16 C15 . . 110.6(6)
C10 C16 H16A . . 109.5
C15 C16 H16A . . 109.5
C10 C16 H16B . . 109.5
C15 C16 H16B . . 109.5
H16A C16 H16B . . 108.1
C5 C6 N2 . . 119.9(6)
N2 C6 C5' . . 127.3(6)
C5 C6 C7 . . 127.9(7)
N2 C6 C7 . . 111.5(2)
C5' C6 C7 . . 120.3(6)
C8 C7 C6 . . 105.9(3)
C8 C7 C14 . . 128.6(3)
C6 C7 C14 . . 125.5(3)
C7 C8 C9 . . 106.7(2)
C7 C8 C15 . . 144.3(5)
C9 C8 C15 . . 108.8(5)
C7 C8 C15' . . 128.9(5)
C9 C8 C15' . . 124.1(5)
C10 C9 N2 . . 128.5(3)
C10 C9 C8 . . 119.2(3)
N2 C9 C8 . . 112.3(3)
C9 C10 C1 . 2_666 123.3(3)
C9 C10 C16 . . 99.7(3)
C1 C10 C16 2_666 . 136.8(3)
C9 C10 H10 . . 118.3
C1 C10 H10 2_666 . 118.3
C7 C14 H14A . . 109.5
C7 C14 H14B . . 109.5
H14A C14 H14B . . 109.5
C7 C14 H14C . . 109.5
H14A C14 H14C . . 109.5
H14B C14 H14C . . 109.5
C7 C14 H14D . . 109.5
H14A C14 H14D . . 141.1
H14B C14 H14D . . 56.3
H14C C14 H14D . . 56.3
C7 C14 H14E . . 109.5
H14A C14 H14E . . 56.3
H14B C14 H14E . . 141.1
H14C C14 H14E . . 56.3
H14D C14 H14E . . 109.5
C7 C14 H14F . . 109.5
H14A C14 H14F . . 56.3
H14B C14 H14F . . 56.3
H14C C14 H14F . . 141.1
H14D C14 H14F . . 109.5
H14E C14 H14F . . 109.5
C3' C2' C11' . . 135.7(13)
C3' C2' C1 . . 105.0(10)
C11' C2' C1 . . 118.5(9)
C2' C3' C4' . . 115.5(16)
C2' C3' C13' . . 121.1(17)
C4' C3' C13' . . 123.(2)
C5' C4' C3' . . 125.1(15)
C5' C4' N1 . . 126.6(10)
C3' C4' N1 . . 106.8(12)
C4' C5' C6 . . 117.9(11)
C4' C5' H5' . . 121.0
C6 C5' H5' . . 121.0
C2' C11' H11D . . 109.5
C2' C11' H11E . . 109.5
H11D C11' H11E . . 109.5
C2' C11' H11F . . 109.5
H11D C11' H11F . . 109.5
H11E C11' H11F . . 109.5
C14' C13' C3' . . 119.2(17)
C14' C13' H13D . . 107.5
C3' C13' H13D . . 107.5
C14' C13' H13E . . 107.5
C3' C13' H13E . . 107.5
H13D C13' H13E . . 107.0
C13' C14' H14G . . 109.5
C13' C14' H14H . . 109.5
H14G C14' H14H . . 109.5
C13' C14' H14I . . 109.5
H14G C14' H14I . . 109.5
H14H C14' H14I . . 109.5
C8 C15' H15D . . 109.5
C8 C15' H15E . . 109.5
H15D C15' H15E . . 109.5
C8 C15' H15F . . 109.5
H15D C15' H15F . . 109.5
H15E C15' H15F . . 109.5
C1 C2" C11" . . 135.(3)
C1 C2" C3" . . 114.(2)
C11" C2" C3" . . 108.(3)
C12" C11" C2" . . 108.(2)
C12" C11" H11G . . 110.0
C2" C11" H11G . . 110.0
C12" C11" H11H . . 110.0
C2" C11" H11H . . 110.0
H11G C11" H11H . . 108.4
C11" C12" H12D . . 109.5
C11" C12" H12E . . 109.5
H12D C12" H12E . . 109.5
C11" C12" H12F . . 109.5
H12D C12" H12F . . 109.5
H12E C12" H12F . . 109.5
C13" C3" C2" . . 139.(2)
C3" C13" C14" . . 110.5(19)
C3" C13" H13F . . 109.6
C14" C13" H13F . . 109.6
C3" C13" H13G . . 109.6
C14" C13" H13G . . 109.6
H13F C13" H13G . . 108.1
C13" C14" H14J . . 109.5
C13" C14" H14K . . 109.5
H14J C14" H14K . . 109.5
C13" C14" H14L . . 109.5
H14J C14" H14L . . 109.5
H14K C14" H14L . . 109.5
loop_
_geom_bond_atom_site_label_1
_geom_bond_atom_site_label_2
_geom_bond_site_symmetry_2
_geom_bond_distance
Ni1 N2 2_666 1.923(2)
Ni1 N2 . 1.923(2)
Ni1 N1 2_666 1.970(2)
Ni1 N1 . 1.970(2)
N1 C4 . 1.328(12)
N1 C1 . 1.397(3)
N1 C4' . 1.477(12)
N2 C6 . 1.372(4)
N2 C9 . 1.376(3)
C1 C2" . 1.32(4)
C1 C10 2_666 1.371(4)
C1 C2 . 1.376(11)
C1 C2' . 1.565(11)
C2 C3 . 1.383(11)
C2 C11 . 1.520(8)
C3 C4 . 1.434(9)
C3 C13 . 1.506(9)
C4 C5 . 1.387(10)
C5 C6 . 1.340(14)
C5 H5 . 0.95
C11 C12 . 1.523(12)
C11 H11A . 0.99
C11 H11B . 0.99
C12 H12A . 0.98
C12 H12B . 0.98
C12 H12C . 0.98
C13 H13A . 0.98
C13 H13B . 0.98
C13 H13C . 0.98
C15 C8 . 1.436(12)
C15 C16 . 1.578(13)
C15 H15A . 0.99
C15 H15B . 0.99
C16 C10 . 1.534(6)
C16 H16A . 0.99
C16 H16B . 0.99
C6 C5' . 1.440(14)
C6 C7 . 1.453(4)
C7 C8 . 1.350(4)
C7 C14 . 1.491(4)
C8 C9 . 1.424(4)
C8 C15' . 1.571(11)
C9 C10 . 1.367(4)
C10 C1 2_666 1.371(4)
C10 H10 . 0.95
C14 H14A . 0.98
C14 H14B . 0.98
C14 H14C . 0.98
C14 H14D . 0.98
C14 H14E . 0.98
C14 H14F . 0.98
C2' C3' . 1.25(3)
C2' C11' . 1.534(7)
C3' C4' . 1.403(15)
C3' C13' . 1.510(15)
C4' C5' . 1.390(10)
C5' H5' . 0.95
C11' H11D . 0.98
C11' H11E . 0.98
C11' H11F . 0.98
C13' C14' . 1.21(3)
C13' H13D . 0.99
C13' H13E . 0.99
C14' H14G . 0.98
C14' H14H . 0.98
C14' H14I . 0.98
C15' H15D . 0.98
C15' H15E . 0.98
C15' H15F . 0.98
C2" C11" . 1.532(10)
C2" C3" . 1.63(6)
C11" C12" . 1.519(19)
C11" H11G . 0.99
C11" H11H . 0.99
C12" H12D . 0.98
C12" H12E . 0.98
C12" H12F . 0.98
C3" C13" . 1.522(15)
C13" C14" . 1.58(2)
C13" H13F . 0.99
C13" H13G . 0.99
C14" H14J . 0.98
C14" H14K . 0.98
C14" H14L . 0.98
