#------------------------------------------------------------------------------
#$Date: 2019-08-21 10:00:15 +0300 (Wed, 21 Aug 2019) $
#$Revision: 217633 $
#$URL: file:///home/coder/svn-repositories/cod/cif/1/55/10/1551032.cif $
#------------------------------------------------------------------------------
#
# This file is available in the Crystallography Open Database (COD),
# http://www.crystallography.net/
#
# All data on this site have been placed in the public domain by the
# contributors.
#
data_1551032
loop_
_publ_author_name
'Osuka, Atsuhiro'
'Shimizu, Daiki'
'Furukawa, Ko'
'Adinarayana, Bellamkonda'
_publ_section_title
;
 Stable radical versus reversible \s-bond formation of
 (porphyrinyl)dicyanomethyl radicals
;
_journal_name_full               'Chemical Science'
_journal_paper_doi               10.1039/C9SC01631G
_journal_year                    2019
_chemical_formula_sum            'C66.5 H72 Cl5 N6 Ni'
_chemical_formula_weight         1191.25
_space_group_crystal_system      triclinic
_space_group_IT_number           2
_space_group_name_Hall           '-P 1'
_space_group_name_H-M_alt        'P -1'
_symmetry_space_group_name_Hall  '-P 1'
_symmetry_space_group_name_H-M   'P -1'
_atom_sites_solution_hydrogens   geom
_audit_creation_method           SHELXL-2014/7
_audit_update_record
;
2019-03-23 deposited with the CCDC.    2019-05-13 downloaded from the CCDC.
;
_cell_angle_alpha                76.353(4)
_cell_angle_beta                 82.030(3)
_cell_angle_gamma                78.350(3)
_cell_formula_units_Z            4
_cell_length_a                   14.2135(4)
_cell_length_b                   17.6443(8)
_cell_length_c                   26.4127(11)
_cell_measurement_temperature    93(2)
_cell_volume                     6275.5(4)
_computing_structure_refinement  'SHELXL-2014/7 (Sheldrick, 2014)'
_diffrn_ambient_temperature      93(2)
_diffrn_measured_fraction_theta_full 0.972
_diffrn_measured_fraction_theta_max 0.950
_diffrn_radiation_type           CuK\a
_diffrn_radiation_wavelength     1.54184
_diffrn_reflns_av_R_equivalents  0.0900
_diffrn_reflns_av_unetI/netI     0.0861
_diffrn_reflns_Laue_measured_fraction_full 0.972
_diffrn_reflns_Laue_measured_fraction_max 0.950
_diffrn_reflns_limit_h_max       17
_diffrn_reflns_limit_h_min       -17
_diffrn_reflns_limit_k_max       21
_diffrn_reflns_limit_k_min       -21
_diffrn_reflns_limit_l_max       32
_diffrn_reflns_limit_l_min       -31
_diffrn_reflns_number            85166
_diffrn_reflns_point_group_measured_fraction_full 0.972
_diffrn_reflns_point_group_measured_fraction_max 0.950
_diffrn_reflns_theta_full        67.684
_diffrn_reflns_theta_max         73.145
_diffrn_reflns_theta_min         1.729
_exptl_absorpt_coefficient_mu    2.742
_exptl_crystal_density_diffrn    1.261
_exptl_crystal_F_000             2504
_exptl_crystal_size_max          0.150
_exptl_crystal_size_mid          0.120
_exptl_crystal_size_min          0.020
_refine_diff_density_max         4.197
_refine_diff_density_min         -1.141
_refine_diff_density_rms         0.161
_refine_ls_extinction_method     none
_refine_ls_goodness_of_fit_ref   1.420
_refine_ls_hydrogen_treatment    constr
_refine_ls_matrix_type           full
_refine_ls_number_parameters     1506
_refine_ls_number_reflns         23864
_refine_ls_number_restraints     160
_refine_ls_restrained_S_all      1.421
_refine_ls_R_factor_all          0.1945
_refine_ls_R_factor_gt           0.1495
_refine_ls_shift/su_max          0.003
_refine_ls_shift/su_mean         0.000
_refine_ls_structure_factor_coef Fsqd
_refine_ls_weighting_details
'w=1/[\s^2^(Fo^2^)+(0.2000P)^2^] where P=(Fo^2^+2Fc^2^)/3'
_refine_ls_weighting_scheme      calc
_refine_ls_wR_factor_gt          0.3772
_refine_ls_wR_factor_ref         0.4111
_reflns_Friedel_coverage         0.000
_reflns_number_gt                14273
_reflns_number_total             23864
_reflns_threshold_expression     'I > 2\s(I)'
_cod_data_source_file            c9sc01631g2.cif
_cod_data_source_block           18032adi
_cod_depositor_comments
;

2019-08-02
Z value and formula fixed to values more according to usual
chemical conventions.                 miguel
;
_cod_original_formula_sum            'C133 H144 Cl10 N12 Ni2'
_cod_original_formula_weight         2382.51
_cod_original_formula_units_Z            2
_cod_database_code               1551032
_shelx_shelxl_version_number     2014/7
_shelx_space_group_comment
;
The symmetry employed for this shelxl refinement is uniquely defined
by the following loop, which should always be used as a source of
symmetry information in preference to the above space-group names.
They are only intended as comments.
;
_shelx_estimated_absorpt_t_min   0.684
_shelx_estimated_absorpt_t_max   0.947
_shelx_res_file
;

    18032adi.res created by SHELXL-2014/7

TITL 18032adi_a.res in P-1
REM  Yadorkari-X generated
CELL 1.54184 14.2135 17.6443 26.4127 76.3530 82.0300 78.3500
ZERR 2.0 0.0004 0.0008 0.0011 0.0040 0.0030 0.0030
LATT 1
REM  SPGR P-1 triclinic
SFAC C H N Ni Cl
UNIT 266 288 24 4 20
SIZE 0.15 0.12 0.02
TEMP -180.0
L.S. 20
FMAP 2
PLAN -50
ACTA
CONF
HTAB
LIST 4
BOND $H
MERG 2
EQIV $1 2-X, 2-Y, 1-Z
EQIV $2 1-X, 1-Y, 2-Z
EQIV $3 1-X, 2-Y, 1-Z

DFIX 1.77 0.02 C133 Cl9 C133 Cl10
DFIX 1.77 0.02 C138 Cl11 C138 Cl12
SADI 0.02 C127 C128 C127 C129 C127 C130
SADI 0.02 C128 C129 C129 C130 C130 C128
SADI 0.02 C127 C136 C127 C137 C127 C135
SADI 0.02 C135 C136 C136 C137 C137 C135
SIMU 0.02 C127 C128 C129 C130
SIMU 0.02 C127 C135 C136 C137
SIMU 0.01 C133 Cl9 C133 Cl10
SIMU 0.01 C138 Cl11 C138 Cl12
ISOR 0.02 C133 Cl9 C133 Cl10
ISOR 0.02 C138 Cl11 C138 Cl12
SADI 0.02 C48 C49 C48 C50 C48 C51
SADI 0.02 C49 C50 C50 C51 C51 C49
SIMU 0.02 C48 C49 C50 C51
ISOR 0.02 C48 C49 C50 C51
HTAB C2 Cl1_$1
HTAB C73 Cl4_$2
HTAB C132 N6
HTAB C2 Cl1_$1
HTAB C73 Cl4_$2
HTAB C132 N1_$3

WGHT    0.200000
FVAR       0.91885   0.44400
C1    1    0.833198    0.879239    0.572480    11.00000    0.02969    0.06753 =
         0.04895   -0.00433   -0.00501   -0.00436
C2    1    0.886381    0.930985    0.532917    11.00000    0.02698    0.06020 =
         0.05034   -0.00221   -0.00370   -0.00571
AFIX  43
H1    2    0.954196    0.923698    0.523984    11.00000   -1.20000
AFIX   0
C3    1    0.819377    0.991725    0.511407    11.00000    0.03543    0.06715 =
         0.04551    0.00401   -0.00658   -0.01108
C4    1    0.727296    0.979410    0.535989    11.00000    0.03383    0.07056 =
         0.04773   -0.00519   -0.01040   -0.00768
C5    1    0.635257    1.030510    0.527229    11.00000    0.03293    0.05858 =
         0.05822   -0.00333   -0.01259   -0.00783
C6    1    0.573034    1.044443    0.573961    11.00000    0.03214    0.06558 =
         0.05508   -0.00329   -0.00931   -0.01040
C7    1    0.521074    1.116489    0.585915    11.00000    0.04418    0.06597 =
         0.06910   -0.00466   -0.01620   -0.01038
C8    1    0.475208    1.100375    0.634660    11.00000    0.04362    0.07541 =
         0.05801   -0.02265   -0.00969   -0.00092
AFIX  43
H2    2    0.435062    1.137069    0.653032    11.00000   -1.20000
AFIX   0
C9    1    0.499570    1.017705    0.652403    11.00000    0.03971    0.06798 =
         0.05740   -0.00957   -0.01483   -0.00571
C10   1    0.455067    0.970911    0.696841    11.00000    0.03386    0.08115 =
         0.04885   -0.01599   -0.00701   -0.00643
C11   1    0.469701    0.888934    0.706137    11.00000    0.03757    0.07395 =
         0.04419   -0.00514   -0.00966   -0.00678
C12   1    0.404865    0.841739    0.738078    11.00000    0.02688    0.09411 =
         0.04908   -0.00446   -0.00366   -0.01335
AFIX  43
H3    2    0.351437    0.858994    0.761015    11.00000   -1.20000
AFIX   0
C13   1    0.434005    0.766871    0.729514    11.00000    0.03481    0.06697 =
         0.04816   -0.00049   -0.00473   -0.00893
AFIX  43
H4    2    0.402592    0.722795    0.743932    11.00000   -1.20000
AFIX   0
C14   1    0.521237    0.767125    0.694550    11.00000    0.03480    0.06977 =
         0.03755    0.00520   -0.00379   -0.01243
C15   1    0.581666    0.700407    0.682123    11.00000    0.03690    0.07454 =
         0.04274    0.00441   -0.00247   -0.01266
C16   1    0.676832    0.705496    0.661017    11.00000    0.03022    0.06611 =
         0.04626    0.00098   -0.00353   -0.00705
C17   1    0.754814    0.639027    0.662489    11.00000    0.03839    0.06933 =
         0.05516    0.00008   -0.00843   -0.00695
AFIX  43
H5    2    0.749324    0.584755    0.674211    11.00000   -1.20000
AFIX   0
C18   1    0.838302    0.667945    0.643991    11.00000    0.03766    0.07075 =
         0.04536    0.00427   -0.00580   -0.00022
AFIX  43
H6    2    0.901868    0.638239    0.641948    11.00000   -1.20000
AFIX   0
C19   1    0.809994    0.753124    0.628150    11.00000    0.03161    0.05828 =
         0.03709   -0.00166   -0.00504   -0.00569
C20   1    0.869451    0.804712    0.598303    11.00000    0.03763    0.06292 =
         0.04725    0.00017   -0.00906   -0.00911
C21   1    0.610456    1.061537    0.476119    11.00000    0.03111    0.06112 =
         0.05359   -0.00021   -0.01087   -0.01169
C22   1    0.521258    1.113352    0.464772    11.00000    0.04159    0.06437 =
         0.05267   -0.00378   -0.01619   -0.00514
N1    3    0.449942    1.153532    0.451073    11.00000    0.05365    0.08018 =
         0.07243   -0.00815   -0.02425   -0.00871
C23   1    0.663803    1.035867    0.432796    11.00000    0.03837    0.06393 =
         0.05694    0.00094   -0.01181   -0.01078
N2    3    0.702180    1.012438    0.395575    11.00000    0.05871    0.08269 =
         0.07426   -0.01098   -0.01324   -0.00874
CL1   5    0.844845    1.074326    0.465486    11.00000    0.04052    0.07140 =
         0.07160    0.01014   -0.01014   -0.01578
CL2   5    0.524296    1.210037    0.547082    11.00000    0.05454    0.06361 =
         0.07518   -0.00627   -0.01309   -0.01030
N3    3    0.735576    0.913078    0.575317    11.00000    0.02964    0.06718 =
         0.04671    0.00238   -0.00995   -0.00396
N4    3    0.563538    0.983828    0.615816    11.00000    0.02973    0.07475 =
         0.04891   -0.00699   -0.01115   -0.00342
N5    3    0.540544    0.843046    0.679313    11.00000    0.03608    0.07051 =
         0.04027   -0.00395   -0.00836   -0.00641
N6    3    0.711463    0.774567    0.640527    11.00000    0.03026    0.06564 =
         0.04162   -0.00345   -0.00651   -0.00172
NI1   4    0.636583    0.877879    0.626535    11.00000    0.02966    0.06410 =
         0.04385   -0.00085   -0.00676   -0.00513
C24   1    0.382543    1.008695    0.733853    11.00000    0.04134    0.06973 =
         0.06026   -0.01956   -0.01259    0.00597
C25   1    0.291800    1.049599    0.717984    11.00000    0.04764    0.09012 =
         0.05074   -0.01216   -0.01234    0.00031
AFIX  43
H7    2    0.277510    1.054254    0.683179    11.00000   -1.20000
AFIX   0
C26   1    0.222831    1.083303    0.753238    11.00000    0.04907    0.08263 =
         0.06207   -0.00470   -0.01004    0.00373
C27   1    0.245340    1.075050    0.804059    11.00000    0.05610    0.07612 =
         0.06498   -0.01298   -0.00512    0.00762
AFIX  43
H8    2    0.197700    1.096532    0.828293    11.00000   -1.20000
AFIX   0
C28   1    0.335052    1.036503    0.821019    11.00000    0.06346    0.06831 =
         0.06040   -0.02002   -0.00635   -0.00529
C29   1    0.402510    1.004524    0.784693    11.00000    0.04139    0.07871 =
         0.05662   -0.01865   -0.01065    0.00565
AFIX  43
H9    2    0.464508    0.978889    0.794989    11.00000   -1.20000
AFIX   0
C30   1    0.125428    1.130077    0.737500    11.00000    0.04991    0.11352 =
         0.07048    0.00438   -0.00280    0.00681
C31   1    0.114669    1.143561    0.681664    11.00000    0.07200    0.12547 =
         0.10760    0.02136   -0.03718    0.00889
AFIX 137
H137  2    0.166214    1.170455    0.661389    11.00000   -1.50000
H138  2    0.051870    1.176646    0.674205    11.00000   -1.50000
H139  2    0.118712    1.092620    0.671970    11.00000   -1.50000
AFIX   0
C32   1    0.112404    1.215755    0.752166    11.00000    0.08606    0.09093 =
         0.10981    0.00988    0.00061    0.00445
AFIX 137
H140  2    0.163498    1.243782    0.732536    11.00000   -1.50000
H141  2    0.116495    1.208671    0.789778    11.00000   -1.50000
H142  2    0.049322    1.246755    0.743075    11.00000   -1.50000
AFIX   0
C33   1    0.044851    1.090410    0.773947    11.00000    0.06005    0.08834 =
         0.08869    0.01083   -0.01666   -0.00630
AFIX 137
H143  2   -0.018504    1.121476    0.765446    11.00000   -1.50000
H144  2    0.053056    1.088272    0.810519    11.00000   -1.50000
H145  2    0.049325    1.036534    0.768797    11.00000   -1.50000
AFIX   0
C34   1    0.352455    1.034068    0.876968    11.00000    0.07485    0.08036 =
         0.06399   -0.02688   -0.01506   -0.00282
C35   1    0.336539    1.115059    0.887359    11.00000    0.10026    0.10858 =
         0.08440   -0.04260   -0.01490   -0.01764
AFIX 137
H146  2    0.373767    1.148276    0.860173    11.00000   -1.50000
H147  2    0.357583    1.112307    0.921645    11.00000   -1.50000
H148  2    0.267765    1.138035    0.887116    11.00000   -1.50000
AFIX   0
C36   1    0.286065    0.985140    0.917167    11.00000    0.10129    0.12163 =
         0.05704   -0.01945   -0.00379   -0.02705
AFIX 137
H149  2    0.301325    0.982776    0.952630    11.00000   -1.50000
H150  2    0.296151    0.931343    0.910959    11.00000   -1.50000
H151  2    0.218559    1.010232    0.913437    11.00000   -1.50000
AFIX   0
C37   1    0.458340    0.995382    0.887485    11.00000    0.09579    0.08346 =
         0.05903   -0.01775   -0.02410   -0.00062
AFIX 137
H152  2    0.502720    1.023308    0.861392    11.00000   -1.50000
H153  2    0.469375    0.939625    0.885113    11.00000   -1.50000
H154  2    0.469634    0.998840    0.922575    11.00000   -1.50000
AFIX   0
C38   1    0.548310    0.624358    0.691490    11.00000    0.03530    0.06383 =
         0.05153   -0.00376   -0.00408   -0.00455
C39   1    0.513885    0.584848    0.739858    11.00000    0.04784    0.06635 =
         0.04668   -0.00675    0.00366   -0.00416
AFIX  43
H10   2    0.514883    0.606494    0.769437    11.00000   -1.20000
AFIX   0
C40   1    0.477931    0.515239    0.747534    11.00000    0.04737    0.06485 =
         0.07437   -0.01210    0.01763   -0.01078
C41   1    0.476691    0.485510    0.702014    11.00000    0.04996    0.06296 =
         0.09774   -0.02122    0.00765   -0.01194
AFIX  43
H11   2    0.449526    0.439400    0.705335    11.00000   -1.20000
AFIX   0
C42   1    0.513828    0.521727    0.653131    11.00000    0.05421    0.09725 =
         0.07264   -0.03370    0.00006   -0.00938
C43   1    0.549931    0.591545    0.647788    11.00000    0.05127    0.08097 =
         0.05486   -0.01305   -0.00425   -0.00765
AFIX  43
H12   2    0.575700    0.616924    0.614406    11.00000   -1.20000
AFIX   0
C44   1    0.432481    0.473861    0.800167    11.00000    0.07037    0.08249 =
         0.07902   -0.00063    0.02388   -0.01185
C45   1    0.476077    0.493491    0.846473    11.00000    0.25076    0.11509 =
         0.06517   -0.01257    0.04721   -0.06775
AFIX 137
H67   2    0.454037    0.549526    0.847394    11.00000   -1.50000
H68   2    0.546702    0.482621    0.841013    11.00000   -1.50000
H69   2    0.454531    0.460500    0.879732    11.00000   -1.50000
AFIX   0
C46   1    0.329280    0.501687    0.805303    11.00000    0.06507    0.25676 =
         0.13716    0.10191    0.03536    0.03664
AFIX 137
H70   2    0.299880    0.487660    0.778116    11.00000   -1.50000
H71   2    0.316390    0.559369    0.801396    11.00000   -1.50000
H72   2    0.301722    0.476867    0.839875    11.00000   -1.50000
AFIX   0
C47   1    0.459676    0.385944    0.806179    11.00000    0.11730    0.08388 =
         0.10147   -0.00504   -0.01118   -0.01616
AFIX  33
H159  2    0.530131    0.371035    0.802298    11.00000   -1.50000
H160  2    0.434377    0.359730    0.840914    11.00000   -1.50000
H161  2    0.432328    0.369496    0.779260    11.00000   -1.50000
AFIX   0
C48   1    0.515838    0.485567    0.605413    11.00000    0.10576    0.14991 =
         0.11360   -0.08013    0.01993   -0.04147
C49   1    0.566109    0.526583    0.556636    11.00000    0.22140    0.25505 =
         0.14690   -0.10381    0.05655   -0.12880
AFIX  33
H112  2    0.632165    0.527732    0.562823    11.00000   -1.50000
H113  2    0.567896    0.498146    0.528718    11.00000   -1.50000
H114  2    0.531424    0.580922    0.546197    11.00000   -1.50000
AFIX   0
C50   1    0.568941    0.400896    0.614409    11.00000    0.17026    0.17922 =
         0.19959   -0.11441   -0.02908   -0.00905
AFIX 137
H79   2    0.543370    0.370938    0.647863    11.00000   -1.50000
H80   2    0.637863    0.400108    0.615210    11.00000   -1.50000
H81   2    0.560019    0.376746    0.585986    11.00000   -1.50000
AFIX   0
C51   1    0.416196    0.483707    0.596247    11.00000    0.14432    0.28294 =
         0.16559   -0.13352   -0.00616   -0.05809
AFIX 137
H82   2    0.383488    0.537659    0.582382    11.00000   -1.50000
H83   2    0.381145    0.461580    0.629314    11.00000   -1.50000
H84   2    0.417864    0.450650    0.570968    11.00000   -1.50000
AFIX   0
C52   1    0.975195    0.773936    0.586267    11.00000    0.03428    0.05796 =
         0.05239   -0.00167   -0.00586   -0.00618
C53   1    1.007051    0.758173    0.537408    11.00000    0.03431    0.06545 =
         0.05115   -0.00199   -0.01041   -0.00843
AFIX  43
H13   2    0.961439    0.765495    0.512809    11.00000   -1.20000
AFIX   0
C54   1    1.105239    0.731531    0.522899    11.00000    0.03880    0.06754 =
         0.04446    0.00276   -0.00509   -0.01176
C55   1    1.168094    0.724664    0.560026    11.00000    0.03206    0.06697 =
         0.06211   -0.00593   -0.00594   -0.00558
AFIX  43
H14   2    1.234727    0.706713    0.551376    11.00000   -1.20000
AFIX   0
C56   1    1.140064    0.742369    0.609348    11.00000    0.03556    0.05851 =
         0.04543    0.00523   -0.00849   -0.00871
C57   1    1.040669    0.764891    0.622339    11.00000    0.03520    0.06717 =
         0.04353    0.00148   -0.00468   -0.00782
AFIX  43
H15   2    1.018149    0.774022    0.656337    11.00000   -1.20000
AFIX   0
C58   1    1.141133    0.715209    0.469005    11.00000    0.04829    0.08331 =
         0.05204   -0.00889   -0.00321   -0.01790
C59   1    1.063727    0.748560    0.430303    11.00000    0.06135    0.18689 =
         0.05667   -0.02899   -0.00854   -0.00627
AFIX 137
H85   2    0.999488    0.748813    0.449429    11.00000   -1.50000
H86   2    1.071843    0.715329    0.404514    11.00000   -1.50000
H87   2    1.070555    0.802775    0.412319    11.00000   -1.50000
AFIX   0
C60   1    1.169210    0.623416    0.473985    11.00000    0.13205    0.09714 =
         0.07149   -0.03610    0.00669   -0.02328
AFIX 137
H88   2    1.209520    0.600511    0.502985    11.00000   -1.50000
H89   2    1.205152    0.612248    0.441345    11.00000   -1.50000
H90   2    1.110528    0.600050    0.480741    11.00000   -1.50000
AFIX   0
C61   1    1.229479    0.754272    0.445894    11.00000    0.07641    0.12765 =
         0.04725   -0.00759    0.00728   -0.05202
AFIX 137
H91   2    1.219029    0.807446    0.453183    11.00000   -1.50000
H92   2    1.238802    0.758129    0.407967    11.00000   -1.50000
H93   2    1.286929    0.722146    0.461799    11.00000   -1.50000
AFIX   0
C62   1    1.212484    0.738918    0.648995    11.00000    0.03163    0.09246 =
         0.03797    0.00276   -0.00903   -0.01065
C63   1    1.311357    0.748512    0.620346    11.00000    0.03629    0.09008 =
         0.05787   -0.00451   -0.01126   -0.01086
AFIX 137
H94   2    1.305859    0.798606    0.594311    11.00000   -1.50000
H95   2    1.336052    0.704386    0.602753    11.00000   -1.50000
H96   2    1.355817    0.748720    0.645528    11.00000   -1.50000
AFIX   0
C64   1    1.221294    0.656451    0.685965    11.00000    0.07529    0.08272 =
         0.08472    0.02303   -0.04441   -0.02805
AFIX 137
H97   2    1.264706    0.653202    0.712463    11.00000   -1.50000
H98   2    1.247322    0.615641    0.665724    11.00000   -1.50000
H99   2    1.157454    0.648083    0.703212    11.00000   -1.50000
AFIX   0
C65   1    1.182208    0.803806    0.679083    11.00000    0.03854    0.11355 =
         0.06169   -0.02039   -0.00818   -0.01357
AFIX 137
H100  2    1.236000    0.806852    0.697633    11.00000   -1.50000
H101  2    1.126954    0.792360    0.704436    11.00000   -1.50000
H102  2    1.163948    0.854477    0.654780    11.00000   -1.50000
AFIX   0
C66   1    0.086674    0.474445    0.848789    11.00000    0.04497    0.06255 =
         0.04412   -0.00879   -0.00166   -0.01810
C67   1    0.096995    0.390728    0.867261    11.00000    0.04602    0.06032 =
         0.06237   -0.01094   -0.00113   -0.01601
AFIX  43
H16   2    0.087640    0.352971    0.848909    11.00000   -1.20000
AFIX   0
C68   1    0.123517    0.376189    0.917566    11.00000    0.04032    0.05604 =
         0.05646   -0.01175   -0.00278   -0.00404
C69   1    0.133880    0.449009    0.927952    11.00000    0.03682    0.05713 =
         0.05176   -0.00102   -0.00623   -0.00891
C70   1    0.164158    0.465561    0.974226    11.00000    0.03252    0.05920 =
         0.05244   -0.00058   -0.00538   -0.00498
C71   1    0.234042    0.515245    0.964687    11.00000    0.04025    0.06429 =
         0.04044   -0.00224   -0.00314   -0.01375
C72   1    0.319800    0.504908    0.990200    11.00000    0.03343    0.06559 =
         0.05194   -0.00116   -0.00991   -0.00521
C73   1    0.368370    0.565878    0.966145    11.00000    0.03269    0.05052 =
         0.05179   -0.00487   -0.00602   -0.00431
AFIX  43
H17   2    0.428179    0.573821    0.974335    11.00000   -1.20000
AFIX   0
C74   1    0.310750    0.614972    0.926294    11.00000    0.03787    0.05679 =
         0.04383    0.00096   -0.00669   -0.01008
C75   1    0.323363    0.689777    0.898409    11.00000    0.03693    0.06416 =
         0.04031   -0.00655   -0.00310   -0.00847
C76   1    0.252616    0.741675    0.869455    11.00000    0.03367    0.05546 =
         0.04287    0.00731   -0.00752   -0.01796
C77   1    0.245109    0.825379    0.853207    11.00000    0.04509    0.06629 =
         0.04513   -0.00212   -0.01300   -0.01579
AFIX  43
H18   2    0.292391    0.855593    0.854926    11.00000   -1.20000
AFIX   0
C78   1    0.157519    0.853679    0.834810    11.00000    0.04268    0.05369 =
         0.05543   -0.00243   -0.00522   -0.01052
AFIX  43
H19   2    0.130829    0.907764    0.822426    11.00000   -1.20000
AFIX   0
C79   1    0.112578    0.786694    0.837522    11.00000    0.03833    0.05346 =
         0.03985    0.00071   -0.00015   -0.01164
C80   1    0.025889    0.790292    0.816537    11.00000    0.03979    0.06458 =
         0.03627   -0.00108   -0.00612   -0.00584
C81   1    0.004847    0.724921    0.802940    11.00000    0.03522    0.06686 =
         0.03890    0.00239   -0.00948   -0.00908
C82   1   -0.062609    0.722913    0.767378    11.00000    0.04212    0.07371 =
         0.03862   -0.00468   -0.00922   -0.01206
AFIX  43
H20   2   -0.107897    0.766530    0.751645    11.00000   -1.20000
AFIX   0
C83   1   -0.049892    0.648108    0.760470    11.00000    0.03901    0.06867 =
         0.04897   -0.00781   -0.01015   -0.01152
AFIX  43
H21   2   -0.082004    0.629766    0.737697    11.00000   -1.20000
AFIX   0
C84   1    0.021322    0.601477    0.794027    11.00000    0.04178    0.06666 =
         0.04419   -0.00880    0.00069   -0.02061
C85   1    0.043312    0.518833    0.803770    11.00000    0.03709    0.06919 =
         0.05280   -0.01196    0.00005   -0.01490
C86   1    0.127329    0.434840    1.025493    11.00000    0.03154    0.04987 =
         0.05271   -0.00329   -0.00151   -0.00441
C87   1    0.145176    0.463703    1.069528    11.00000    0.03693    0.07358 =
         0.05298   -0.00220   -0.00228   -0.00705
N7    3    0.153788    0.487302    1.104987    11.00000    0.05928    0.09533 =
         0.05165   -0.00984    0.00149   -0.01565
C88   1    0.058819    0.383738    1.037069    11.00000    0.03942    0.06747 =
         0.05739   -0.00305   -0.00587   -0.00573
N8    3    0.001562    0.343401    1.051356    11.00000    0.05063    0.09295 =
         0.07432   -0.01201    0.00451   -0.02326
CL3   5    0.153673    0.283747    0.956679    11.00000    0.05376    0.05937 =
         0.06920   -0.00382   -0.00763   -0.00838
CL4   5    0.362144    0.425210    1.036948    11.00000    0.03989    0.06729 =
         0.06328    0.00916   -0.01300   -0.00861
N9    3    0.114945    0.509071    0.885205    11.00000    0.03369    0.05908 =
         0.04211   -0.00064   -0.00286   -0.01034
N10   3    0.231167    0.580501    0.924513    11.00000    0.03659    0.05687 =
         0.04136    0.00161   -0.00587   -0.00981
N11   3    0.171126    0.719010    0.858108    11.00000    0.03476    0.06745 =
         0.03388    0.00018   -0.00252   -0.01530
N12   3    0.055800    0.648426    0.819918    11.00000    0.04231    0.05502 =
         0.04175   -0.00474   -0.00350   -0.01177
NI2   4    0.140498    0.615292    0.872880    11.00000    0.03294    0.05787 =
         0.04367   -0.00116   -0.00584   -0.01207
C89   1    0.406459    0.721366    0.910443    11.00000    0.03680    0.05566 =
         0.04918    0.00108   -0.00783   -0.00673
C90   1    0.406399    0.736947    0.959834    11.00000    0.03932    0.06696 =
         0.05388   -0.00413   -0.00461   -0.01482
AFIX  43
H22   2    0.352159    0.730043    0.984779    11.00000   -1.20000
AFIX   0
C91   1    0.484082    0.762354    0.973254    11.00000    0.03773    0.06535 =
         0.05052   -0.00072   -0.01113   -0.00807
C92   1    0.562491    0.770197    0.935172    11.00000    0.03715    0.06702 =
         0.05086    0.00019   -0.01195   -0.01357
AFIX  43
H23   2    0.616095    0.787952    0.943504    11.00000   -1.20000
AFIX   0
C93   1    0.566781    0.753711    0.886185    11.00000    0.03379    0.06255 =
         0.05209    0.00350   -0.01195   -0.01076
C94   1    0.486644    0.729937    0.873846    11.00000    0.04574    0.05736 =
         0.04293   -0.00146   -0.00971   -0.01348
AFIX  43
H24   2    0.486516    0.719444    0.840195    11.00000   -1.20000
AFIX   0
C95   1    0.485511    0.776320    1.028675    11.00000    0.04942    0.07742 =
         0.05193   -0.01219   -0.00514   -0.00939
C96   1    0.404356    0.749612    1.066848    11.00000    0.07166    0.11057 =
         0.05404   -0.00868    0.00040   -0.03147
AFIX 137
H31   2    0.343797    0.785427    1.058082    11.00000   -1.50000
H32   2    0.416811    0.750225    1.102312    11.00000   -1.50000
H33   2    0.399344    0.695705    1.065134    11.00000   -1.50000
AFIX   0
C97   1    0.584722    0.732915    1.049177    11.00000    0.08577    0.08896 =
         0.05437    0.00005   -0.02498   -0.01797
AFIX 137
H34   2    0.590770    0.747032    1.082164    11.00000   -1.50000
H35   2    0.637242    0.749029    1.023203    11.00000   -1.50000
H36   2    0.588293    0.675499    1.055005    11.00000   -1.50000
AFIX   0
C98   1    0.479677    0.865966    1.023555    11.00000    0.08988    0.09279 =
         0.07935   -0.02374   -0.02474    0.00104
AFIX 137
H37   2    0.422704    0.895006    1.005890    11.00000   -1.50000
H38   2    0.537858    0.882458    1.003054    11.00000   -1.50000
H39   2    0.474761    0.877424    1.058466    11.00000   -1.50000
AFIX   0
C99   1    0.658054    0.756282    0.847740    11.00000    0.03651    0.07452 =
         0.04563   -0.00425   -0.00333   -0.01816
C100  1    0.748385    0.750316    0.874917    11.00000    0.03467    0.07119 =
         0.05742    0.00194   -0.00593   -0.01716
AFIX 137
H40   2    0.746351    0.711152    0.908063    11.00000   -1.50000
H41   2    0.750752    0.802058    0.881814    11.00000   -1.50000
H42   2    0.805922    0.733916    0.852283    11.00000   -1.50000
AFIX   0
C101  1    0.645914    0.839780    0.807763    11.00000    0.05808    0.09914 =
         0.06857    0.02579   -0.00695   -0.02228
AFIX 137
H43   2    0.704185    0.842806    0.783267    11.00000   -1.50000
H44   2    0.636016    0.882231    0.827119    11.00000   -1.50000
H45   2    0.590062    0.845757    0.788268    11.00000   -1.50000
AFIX   0
C102  1    0.675706    0.692665    0.816687    11.00000    0.04098    0.10872 =
         0.07161   -0.01570   -0.00013   -0.02403
AFIX 137
H46   2    0.740835    0.689626    0.798446    11.00000   -1.50000
H47   2    0.628193    0.705275    0.791016    11.00000   -1.50000
H48   2    0.669598    0.641616    0.840353    11.00000   -1.50000
AFIX   0
C103  1   -0.041961    0.867852    0.807886    11.00000    0.03778    0.05444 =
         0.05076   -0.00256   -0.00982   -0.01007
C104  1   -0.073635    0.907543    0.759153    11.00000    0.05744    0.05687 =
         0.05144   -0.00572   -0.01910   -0.00935
AFIX  43
H25   2   -0.047692    0.887505    0.728808    11.00000   -1.20000
AFIX   0
C105  1   -0.143244    0.976517    0.754910    11.00000    0.06681    0.05547 =
         0.07641   -0.01888   -0.03563   -0.00056
C106  1   -0.178160    1.003406    0.800450    11.00000    0.05190    0.07088 =
         0.08217   -0.01333   -0.02066   -0.00650
AFIX  43
H26   2   -0.225889    1.050016    0.798018    11.00000   -1.20000
AFIX   0
C107  1   -0.147291    0.965995    0.849725    11.00000    0.05021    0.06879 =
         0.07391   -0.01786   -0.00640   -0.01099
C108  1   -0.077705    0.897598    0.852218    11.00000    0.05056    0.06082 =
         0.04961   -0.00240   -0.00803   -0.01145
AFIX  43
H27   2   -0.054282    0.870816    0.884889    11.00000   -1.20000
AFIX   0
C109  1   -0.181286    1.023090    0.702176    11.00000    0.10598    0.08298 =
         0.08314    0.01777   -0.06376   -0.02815
C110  1   -0.114251    0.998315    0.656083    11.00000    0.26944    0.10761 =
         0.06550   -0.01045   -0.07004    0.05881
AFIX 137
H49   2   -0.146469    1.018835    0.623871    11.00000   -1.50000
H50   2   -0.098648    0.940373    0.662397    11.00000   -1.50000
H51   2   -0.054711    1.019871    0.652467    11.00000   -1.50000
AFIX   0
C111  1   -0.187670    1.109744    0.695465    11.00000    0.11050    0.08033 =
         0.07287   -0.00353   -0.03201   -0.01371
AFIX 137
H52   2   -0.219275    1.137293    0.663832    11.00000   -1.50000
H53   2   -0.122610    1.122105    0.692159    11.00000   -1.50000
H54   2   -0.225347    1.127115    0.725968    11.00000   -1.50000
AFIX   0
C112  1   -0.283550    1.006183    0.703993    11.00000    0.18238    0.14600 =
         0.17222    0.08011   -0.13441   -0.09281
AFIX 137
H55   2   -0.321094    1.017115    0.736310    11.00000   -1.50000
H56   2   -0.280053    0.950470    0.703086    11.00000   -1.50000
H57   2   -0.314836    1.040161    0.673742    11.00000   -1.50000
AFIX   0
C113  1   -0.186906    0.997563    0.899183    11.00000    0.06511    0.07590 =
         0.09196   -0.02485   -0.00601   -0.00862
C114  1   -0.113299    0.980182    0.935872    11.00000    0.20355    0.35645 =
         0.15670   -0.19011   -0.10082    0.12214
AFIX 137
H58   2   -0.051523    0.990631    0.916646    11.00000   -1.50000
H59   2   -0.106440    0.924381    0.954039    11.00000   -1.50000
H60   2   -0.132613    1.013887    0.961517    11.00000   -1.50000
AFIX   0
C115  1   -0.216158    1.083026    0.890582    11.00000    0.40217    0.11803 =
         0.11807   -0.06460   -0.02516    0.07207
AFIX 137
H61   2   -0.239525    1.098088    0.924139    11.00000   -1.50000
H62   2   -0.267855    1.100122    0.867209    11.00000   -1.50000
H63   2   -0.160833    1.108532    0.874593    11.00000   -1.50000
AFIX   0
C116  1   -0.263959    0.951084    0.926860    11.00000    0.27194    0.32501 =
         0.18008   -0.17654    0.15922   -0.19989
AFIX 137
H64   2   -0.281257    0.961109    0.962214    11.00000   -1.50000
H65   2   -0.239716    0.894427    0.929076    11.00000   -1.50000
H66   2   -0.321087    0.967447    0.907316    11.00000   -1.50000
AFIX   0
C117  1    0.009281    0.478073    0.768207    11.00000    0.05044    0.06377 =
         0.04616   -0.01267   -0.00010   -0.01760
C118  1   -0.067694    0.437451    0.783994    11.00000    0.04586    0.07262 =
         0.05823   -0.01496    0.00126   -0.01821
AFIX  43
H28   2   -0.096831    0.432070    0.818974    11.00000   -1.20000
AFIX   0
C119  1   -0.102522    0.404371    0.748481    11.00000    0.05150    0.06134 =
         0.07062   -0.01303   -0.01082   -0.01274
C120  1   -0.058270    0.412986    0.698482    11.00000    0.06309    0.06721 =
         0.05795   -0.01234   -0.01234   -0.01790
AFIX  43
H29   2   -0.082269    0.391146    0.674298    11.00000   -1.20000
AFIX   0
C121  1    0.019437    0.451738    0.681270    11.00000    0.06506    0.06798 =
         0.05728   -0.01160   -0.01058   -0.01347
C122  1    0.052400    0.485079    0.716328    11.00000    0.04767    0.06851 =
         0.05311   -0.00646    0.00258   -0.02024
AFIX  43
H30   2    0.104753    0.513052    0.705312    11.00000   -1.20000
AFIX   0
C123  1    0.070532    0.453059    0.625758    11.00000    0.08540    0.08169 =
         0.05861   -0.01790   -0.00267   -0.02201
C124  1    0.113496    0.368315    0.621020    11.00000    0.14779    0.10880 =
         0.06671   -0.03113    0.02639   -0.02955
AFIX 137
H103  2    0.146681    0.368488    0.585911    11.00000   -1.50000
H104  2    0.061783    0.337047    0.626910    11.00000   -1.50000
H105  2    0.159650    0.344918    0.647193    11.00000   -1.50000
AFIX   0
C125  1   -0.005900    0.486005    0.585685    11.00000    0.10838    0.12879 =
         0.06395   -0.00822   -0.02626   -0.01515
AFIX 137
H106  2   -0.033250    0.541228    0.586947    11.00000   -1.50000
H107  2   -0.057430    0.454297    0.594412    11.00000   -1.50000
H108  2    0.024750    0.483279    0.550407    11.00000   -1.50000
AFIX   0
C126  1    0.148724    0.502085    0.613186    11.00000    0.09479    0.13417 =
         0.05304   -0.01259    0.00708   -0.04845
AFIX 137
H109  2    0.200359    0.477620    0.636012    11.00000   -1.50000
H110  2    0.122157    0.555545    0.618767    11.00000   -1.50000
H111  2    0.174809    0.505162    0.576555    11.00000   -1.50000
AFIX   0
C127  1   -0.190237    0.362579    0.766138    11.00000    0.05592    0.09415 =
         0.09483   -0.01995   -0.00007   -0.03300
PART 3
C128  1   -0.231548    0.361934    0.821564    10.50000    0.07759    0.14246 =
         0.08065   -0.02948    0.01460   -0.06594
AFIX 137
H119  2   -0.180743    0.338614    0.845083    10.50000   -1.50000
H120  2   -0.283288    0.330437    0.830479    10.50000   -1.50000
H121  2   -0.257635    0.416327    0.825387    10.50000   -1.50000
AFIX   0
C129  1   -0.163218    0.277799    0.757623    10.50000    0.06977    0.06144 =
         0.13363   -0.03285    0.00981   -0.01916
AFIX 137
H122  2   -0.108629    0.249460    0.777513    10.50000   -1.50000
H123  2   -0.145149    0.278978    0.720302    10.50000   -1.50000
H124  2   -0.218560    0.250627    0.769599    10.50000   -1.50000
AFIX   0
C130  1   -0.268910    0.404630    0.729107    10.50000    0.03730    0.13377 =
         0.10312   -0.00763   -0.01269   -0.03262
AFIX 137
H125  2   -0.323465    0.376136    0.737337    10.50000   -1.50000
H126  2   -0.242231    0.405321    0.692772    10.50000   -1.50000
H127  2   -0.290976    0.459125    0.733704    10.50000   -1.50000
PART 0
AFIX   0
C131  1   -0.105339    0.231423    1.011150    11.00000    0.09293    0.17244 =
         0.09093   -0.05532   -0.02531    0.03092
AFIX  23
H115  2   -0.033998    0.223488    1.008381    11.00000   -1.20000
H116  2   -0.129362    0.240892    1.046534    11.00000   -1.20000
AFIX   0
CL5   5   -0.134325    0.155691    1.006353    11.00000    0.14530    0.16324 =
         0.25417   -0.04261   -0.06620   -0.03414
CL6   5   -0.149032    0.321494    0.962462    11.00000    0.09903    0.15409 =
         0.09277   -0.00911   -0.00950   -0.01566
C132  1    0.726412    0.725349    0.511656    11.00000    0.08098    0.11419 =
         0.07558   -0.00840   -0.00702   -0.01044
AFIX  23
H117  2    0.715294    0.742826    0.545294    11.00000   -1.20000
H118  2    0.663968    0.715954    0.504053    11.00000   -1.20000
AFIX   0
CL7   5    0.804367    0.638815    0.519200    11.00000    0.13403    0.17614 =
         0.11013   -0.01976   -0.01642    0.01020
CL8   5    0.762578    0.803204    0.461984    11.00000    0.09126    0.13422 =
         0.08343   -0.00210   -0.00673   -0.02612
PART 1
C133  1    0.466609    0.786647    0.269855    21.00000    0.13198    0.13933 =
         0.15774   -0.05574   -0.02246   -0.01542
CL9   5    0.424167    0.817659    0.206100    21.00000    0.10361    0.12247 =
         0.12060   -0.03892   -0.01075   -0.00734
CL10  5    0.595313    0.764691    0.265614    21.00000    0.13127    0.15233 =
         0.16267   -0.06919   -0.03537   -0.01683
PART 2
C138  1    0.595855    0.760788    0.242614   -21.00000    0.19707    0.17464 =
         0.21104   -0.00601   -0.01426   -0.03604
CL11  5    0.474002    0.812244    0.246912   -21.00000    0.18324    0.16445 =
         0.25296    0.01425   -0.00983   -0.00377
CL12  5    0.633431    0.712204    0.305998   -21.00000    0.19307    0.14336 =
         0.16407    0.00763   -0.02521   -0.06709
PART 4
C136  1   -0.161357    0.293249    0.814575    10.50000    0.10158    0.11891 =
         0.13126   -0.03216    0.02572   -0.04965
AFIX 137
H128  2   -0.099896    0.260691    0.805094    10.50000   -1.50000
H129  2   -0.211628    0.260330    0.824463    10.50000   -1.50000
H130  2   -0.154670    0.315806    0.844154    10.50000   -1.50000
AFIX   0
C137  1   -0.215360    0.330337    0.720846    10.50000    0.14076    0.13245 =
         0.16793   -0.04326   -0.06898   -0.06351
AFIX 137
H131  2   -0.223401    0.373325    0.689738    10.50000   -1.50000
H132  2   -0.275499    0.309227    0.731342    10.50000   -1.50000
H133  2   -0.163059    0.288079    0.712828    10.50000   -1.50000
AFIX   0
C135  1   -0.272317    0.426807    0.784461    10.50000    0.06968    0.12000 =
         0.17331   -0.00511   -0.00374   -0.05104
AFIX 137
H134  2   -0.246227    0.455149    0.805522    10.50000   -1.50000
H135  2   -0.324137    0.401111    0.805557    10.50000   -1.50000
H136  2   -0.297999    0.464391    0.753780    10.50000   -1.50000
PART 0

AFIX   0
HKLF 4 1 1 0 0 0 1 0 0 0 1

REM  18032adi_a.res in P-1
REM R1 =  0.1495 for   14273 Fo > 4sig(Fo)  and  0.1945 for all   23864 data
REM   1506 parameters refined using    160 restraints

END

WGHT      0.2000      0.0000

REM Instructions for potential hydrogen bonds
HTAB C2 Cl1_$1
HTAB C73 Cl4_$2
HTAB C132 N1_$3
HTAB C132 N6

REM Highest difference peak  4.197,  deepest hole -1.141,  1-sigma level  0.161
Q1    1   0.6397  0.6210  0.8735  11.00000  0.05    4.20
Q2    1   1.1345  0.8819  0.6277  11.00000  0.05    4.05
Q3    1   0.1365  0.5750  0.9646  11.00000  0.05    2.47
Q4    1   0.9762  0.7836  0.4572  11.00000  0.05    2.44
Q5    1   0.3467  0.7120  1.0480  11.00000  0.05    2.40
Q6    1   0.6943  0.6438  0.4972  11.00000  0.05    2.39
Q7    1   0.6567  0.9234  0.5374  11.00000  0.05    2.38
Q8    1  -0.0406  0.2139  0.9107  11.00000  0.05    1.68
Q9    1   0.6472  0.6951  1.0375  11.00000  0.05    1.44
Q10   1   1.2591  0.8214  0.4628  11.00000  0.05    1.44
Q11   1   0.6158  0.9212  0.6456  11.00000  0.05    1.28
Q12   1   0.1209  0.6605  0.8933  11.00000  0.05    1.22
Q13   1   0.6282  0.8617  0.9816  11.00000  0.05    1.15
Q14   1   0.4413  0.5598  0.5631  11.00000  0.05    1.10
Q15   1   1.3045  0.6542  0.5087  11.00000  0.05    1.09
Q16   1   0.1600  0.5702  0.8500  11.00000  0.05    1.08
Q17   1  -0.0510  0.1522  0.9874  11.00000  0.05    1.07
Q18   1   1.0370  0.8490  0.6801  11.00000  0.05    0.98
Q19   1   0.7453  0.6920  0.2488  11.00000  0.05    0.98
Q20   1   0.2755  0.4166  1.0735  11.00000  0.05    0.97
Q21   1   0.6597  0.8317  0.6033  11.00000  0.05    0.92
Q22   1   0.5518  0.6528  0.8178  11.00000  0.05    0.88
Q23   1  -0.1052  0.2602  0.9507  11.00000  0.05    0.85
Q24   1   0.6178  0.5115  0.8838  11.00000  0.05    0.84
Q25   1   0.3415  0.4697  1.0595  11.00000  0.05    0.81
Q26   1   0.0428  0.5999  0.6493  11.00000  0.05    0.81
Q27   1   0.9672  0.8947  0.7101  11.00000  0.05    0.81
Q28   1   0.2628  0.4798  1.0377  11.00000  0.05    0.81
Q29   1   0.1800  0.6869  0.8308  11.00000  0.05    0.81
Q30   1   0.7727  1.0846  0.4226  11.00000  0.05    0.81
Q31   1   0.8640  0.9690  0.4740  11.00000  0.05    0.80
Q32   1  -0.0585  0.2256  1.0607  11.00000  0.05    0.80
Q33   1   0.0025  0.5916  0.7392  11.00000  0.05    0.80
Q34   1  -0.0852  0.2477  0.9574  11.00000  0.05    0.80
Q35   1   0.1959  0.3820  1.0691  11.00000  0.05    0.80
Q36   1   1.0589  0.9928  0.6144  11.00000  0.05    0.79
Q37   1  -0.0246  0.4932  0.7001  11.00000  0.05    0.79
Q38   1   0.6725  1.1092  0.4263  11.00000  0.05    0.79
Q39   1   0.3347  0.5322  1.0276  11.00000  0.05    0.78
Q40   1   0.0434  0.6334  0.6915  11.00000  0.05    0.78
Q41   1   0.0203  0.2403  1.0204  11.00000  0.05    0.78
Q42   1   0.3325  1.0017  0.8012  11.00000  0.05    0.77
Q43   1   0.5132  0.4562  0.6790  11.00000  0.05    0.77
Q44   1   0.0970  0.2552  1.0388  11.00000  0.05    0.77
Q45   1   0.6799  0.8200  0.6713  11.00000  0.05    0.77
Q46   1   0.8646  1.0346  0.4434  11.00000  0.05    0.76
Q47   1   0.9036  0.8526  0.7398  11.00000  0.05    0.76
Q48   1   0.6667  0.7242  0.8596  11.00000  0.05    0.76
Q49   1   0.6363  0.7477  0.6107  11.00000  0.05    0.75
Q50   1   0.4256  0.9120  0.7591  11.00000  0.05    0.75
;
_shelx_res_checksum              326
loop_
_space_group_symop_operation_xyz
'x, y, z'
'-x, -y, -z'
loop_
_atom_site_label
_atom_site_type_symbol
_atom_site_fract_x
_atom_site_fract_y
_atom_site_fract_z
_atom_site_U_iso_or_equiv
_atom_site_adp_type
_atom_site_occupancy
_atom_site_site_symmetry_order
_atom_site_calc_flag
_atom_site_refinement_flags_posn
_atom_site_refinement_flags_adp
_atom_site_refinement_flags_occupancy
_atom_site_disorder_assembly
_atom_site_disorder_group
C1 C 0.8332(4) 0.8792(5) 0.5725(3) 0.0506(17) Uani 1 1 d . . . . .
C2 C 0.8864(4) 0.9310(4) 0.5329(3) 0.0478(16) Uani 1 1 d . . . . .
H1 H 0.9542 0.9237 0.5240 0.057 Uiso 1 1 calc R U . . .
C3 C 0.8194(5) 0.9917(5) 0.5114(3) 0.0515(17) Uani 1 1 d . . . . .
C4 C 0.7273(5) 0.9794(5) 0.5360(3) 0.0516(17) Uani 1 1 d . . . . .
C5 C 0.6353(5) 1.0305(5) 0.5272(3) 0.0507(17) Uani 1 1 d . . . . .
C6 C 0.5730(4) 1.0444(5) 0.5740(3) 0.0518(17) Uani 1 1 d . . . . .
C7 C 0.5211(5) 1.1165(5) 0.5859(3) 0.060(2) Uani 1 1 d . . . . .
C8 C 0.4752(5) 1.1004(5) 0.6347(3) 0.058(2) Uani 1 1 d . . . . .
H2 H 0.4351 1.1371 0.6530 0.070 Uiso 1 1 calc R U . . .
C9 C 0.4996(5) 1.0177(5) 0.6524(3) 0.0552(18) Uani 1 1 d . . . . .
C10 C 0.4551(5) 0.9709(5) 0.6968(3) 0.0545(19) Uani 1 1 d . . . . .
C11 C 0.4697(5) 0.8889(5) 0.7061(3) 0.0531(18) Uani 1 1 d . . . . .
C12 C 0.4049(4) 0.8417(6) 0.7381(3) 0.058(2) Uani 1 1 d . . . . .
H3 H 0.3514 0.8590 0.7610 0.070 Uiso 1 1 calc R U . . .
C13 C 0.4340(5) 0.7669(5) 0.7295(3) 0.0519(17) Uani 1 1 d . . . . .
H4 H 0.4026 0.7228 0.7439 0.062 Uiso 1 1 calc R U . . .
C14 C 0.5212(5) 0.7671(5) 0.6945(3) 0.0497(17) Uani 1 1 d . . . . .
C15 C 0.5817(5) 0.7004(5) 0.6821(3) 0.0540(18) Uani 1 1 d . . . . .
C16 C 0.6768(4) 0.7055(5) 0.6610(3) 0.0500(17) Uani 1 1 d . . . . .
C17 C 0.7548(5) 0.6390(5) 0.6625(3) 0.0566(18) Uani 1 1 d . . . . .
H5 H 0.7493 0.5848 0.6742 0.068 Uiso 1 1 calc R U . . .
C18 C 0.8383(5) 0.6679(5) 0.6440(3) 0.0553(19) Uani 1 1 d . . . . .
H6 H 0.9019 0.6382 0.6419 0.066 Uiso 1 1 calc R U . . .
C19 C 0.8100(4) 0.7531(4) 0.6282(3) 0.0439(15) Uani 1 1 d . . . . .
C20 C 0.8695(5) 0.8047(5) 0.5983(3) 0.0508(17) Uani 1 1 d . . . . .
C21 C 0.6105(4) 1.0615(5) 0.4761(3) 0.0495(16) Uani 1 1 d . . . . .
C22 C 0.5213(5) 1.1134(5) 0.4648(3) 0.0538(18) Uani 1 1 d . . . . .
N1 N 0.4499(5) 1.1535(5) 0.4511(3) 0.0688(19) Uani 1 1 d . . . . .
C23 C 0.6638(5) 1.0359(5) 0.4328(3) 0.0545(18) Uani 1 1 d . . . . .
N2 N 0.7022(5) 1.0124(5) 0.3956(3) 0.073(2) Uani 1 1 d . . . . .
Cl1 Cl 0.84484(12) 1.07433(13) 0.46549(8) 0.0642(5) Uani 1 1 d . . . . .
Cl2 Cl 0.52430(14) 1.21004(13) 0.54708(9) 0.0652(5) Uani 1 1 d . . . . .
N3 N 0.7356(4) 0.9131(4) 0.5753(2) 0.0504(14) Uani 1 1 d . . . . .
N4 N 0.5635(4) 0.9838(4) 0.6158(2) 0.0523(15) Uani 1 1 d . . . . .
N5 N 0.5405(4) 0.8430(4) 0.6793(2) 0.0503(14) Uani 1 1 d . . . . .
N6 N 0.7115(4) 0.7746(4) 0.6405(2) 0.0479(14) Uani 1 1 d . . . . .
Ni1 Ni 0.63658(7) 0.87788(8) 0.62653(5) 0.0478(3) Uani 1 1 d . . . . .
C24 C 0.3825(5) 1.0087(5) 0.7339(3) 0.0577(19) Uani 1 1 d . . . . .
C25 C 0.2918(6) 1.0496(6) 0.7180(3) 0.064(2) Uani 1 1 d . . . . .
H7 H 0.2775 1.0543 0.6832 0.077 Uiso 1 1 calc R U . . .
C26 C 0.2228(6) 1.0833(6) 0.7532(4) 0.068(2) Uani 1 1 d . . . . .
C27 C 0.2453(6) 1.0751(6) 0.8041(4) 0.069(2) Uani 1 1 d . . . . .
H8 H 0.1977 1.0965 0.8283 0.083 Uiso 1 1 calc R U . . .
C28 C 0.3351(6) 1.0365(5) 0.8210(3) 0.064(2) Uani 1 1 d . . . . .
C29 C 0.4025(5) 1.0045(5) 0.7847(3) 0.060(2) Uani 1 1 d . . . . .
H9 H 0.4645 0.9789 0.7950 0.072 Uiso 1 1 calc R U . . .
C30 C 0.1254(6) 1.1301(7) 0.7375(4) 0.085(3) Uani 1 1 d . . . . .
C31 C 0.1147(8) 1.1436(8) 0.6817(5) 0.111(4) Uani 1 1 d . . . . .
H137 H 0.1662 1.1705 0.6614 0.166 Uiso 1 1 calc R U . . .
H138 H 0.0519 1.1766 0.6742 0.166 Uiso 1 1 calc R U . . .
H139 H 0.1187 1.0926 0.6720 0.166 Uiso 1 1 calc R U . . .
C32 C 0.1124(9) 1.2158(8) 0.7522(5) 0.105(4) Uani 1 1 d . . . . .
H140 H 0.1635 1.2438 0.7325 0.157 Uiso 1 1 calc R U . . .
H141 H 0.1165 1.2087 0.7898 0.157 Uiso 1 1 calc R U . . .
H142 H 0.0493 1.2468 0.7431 0.157 Uiso 1 1 calc R U . . .
C33 C 0.0449(7) 1.0904(7) 0.7739(4) 0.084(3) Uani 1 1 d . . . . .
H143 H -0.0185 1.1215 0.7654 0.126 Uiso 1 1 calc R U . . .
H144 H 0.0531 1.0883 0.8105 0.126 Uiso 1 1 calc R U . . .
H145 H 0.0493 1.0365 0.7688 0.126 Uiso 1 1 calc R U . . .
C34 C 0.3525(7) 1.0341(6) 0.8770(4) 0.072(2) Uani 1 1 d . . . . .
C35 C 0.3365(9) 1.1151(7) 0.8874(5) 0.094(3) Uani 1 1 d . . . . .
H146 H 0.3738 1.1483 0.8602 0.140 Uiso 1 1 calc R U . . .
H147 H 0.3576 1.1123 0.9216 0.140 Uiso 1 1 calc R U . . .
H148 H 0.2678 1.1380 0.8871 0.140 Uiso 1 1 calc R U . . .
C36 C 0.2861(9) 0.9851(8) 0.9172(4) 0.093(3) Uani 1 1 d . . . . .
H149 H 0.3013 0.9828 0.9526 0.139 Uiso 1 1 calc R U . . .
H150 H 0.2962 0.9313 0.9110 0.139 Uiso 1 1 calc R U . . .
H151 H 0.2186 1.0102 0.9134 0.139 Uiso 1 1 calc R U . . .
C37 C 0.4583(8) 0.9954(6) 0.8875(4) 0.080(3) Uani 1 1 d . . . . .
H152 H 0.5027 1.0233 0.8614 0.119 Uiso 1 1 calc R U . . .
H153 H 0.4694 0.9396 0.8851 0.119 Uiso 1 1 calc R U . . .
H154 H 0.4696 0.9988 0.9226 0.119 Uiso 1 1 calc R U . . .
C38 C 0.5483(5) 0.6244(5) 0.6915(3) 0.0523(17) Uani 1 1 d . . . . .
C39 C 0.5139(5) 0.5848(5) 0.7399(3) 0.0562(18) Uani 1 1 d . . . . .
H10 H 0.5149 0.6065 0.7694 0.067 Uiso 1 1 calc R U . . .
C40 C 0.4779(6) 0.5152(5) 0.7475(4) 0.065(2) Uani 1 1 d . . . . .
C41 C 0.4767(6) 0.4855(6) 0.7020(4) 0.071(2) Uani 1 1 d . . . . .
H11 H 0.4495 0.4394 0.7053 0.085 Uiso 1 1 calc R U . . .
C42 C 0.5138(6) 0.5217(7) 0.6531(4) 0.073(3) Uani 1 1 d . . . . .
C43 C 0.5499(6) 0.5915(6) 0.6478(3) 0.063(2) Uani 1 1 d . . . . .
H12 H 0.5757 0.6169 0.6144 0.076 Uiso 1 1 calc R U . . .
C44 C 0.4325(7) 0.4739(7) 0.8002(4) 0.083(3) Uani 1 1 d . . . . .
C45 C 0.4761(15) 0.4935(10) 0.8465(5) 0.146(7) Uani 1 1 d . . . . .
H67 H 0.4540 0.5495 0.8474 0.219 Uiso 1 1 calc R U . . .
H68 H 0.5467 0.4826 0.8410 0.219 Uiso 1 1 calc R U . . .
H69 H 0.4545 0.4605 0.8797 0.219 Uiso 1 1 calc R U . . .
C46 C 0.3293(9) 0.5017(13) 0.8053(7) 0.191(11) Uani 1 1 d . . . . .
H70 H 0.2999 0.4877 0.7781 0.287 Uiso 1 1 calc R U . . .
H71 H 0.3164 0.5594 0.8014 0.287 Uiso 1 1 calc R U . . .
H72 H 0.3017 0.4769 0.8399 0.287 Uiso 1 1 calc R U . . .
C47 C 0.4597(11) 0.3859(7) 0.8062(5) 0.104(4) Uani 1 1 d . . . . .
H159 H 0.5301 0.3710 0.8023 0.155 Uiso 1 1 calc R U . . .
H160 H 0.4344 0.3597 0.8409 0.155 Uiso 1 1 calc R U . . .
H161 H 0.4323 0.3695 0.7793 0.155 Uiso 1 1 calc R U . . .
C48 C 0.5158(9) 0.4856(8) 0.6054(5) 0.115(4) Uani 1 1 d D U . . .
C49 C 0.5661(14) 0.5266(12) 0.5566(7) 0.192(8) Uani 1 1 d D U . . .
H112 H 0.6322 0.5277 0.5628 0.288 Uiso 1 1 calc R U . . .
H113 H 0.5679 0.4981 0.5287 0.288 Uiso 1 1 calc R U . . .
H114 H 0.5314 0.5809 0.5462 0.288 Uiso 1 1 calc R U . . .
C50 C 0.5689(13) 0.4009(10) 0.6144(8) 0.172(8) Uani 1 1 d D U . . .
H79 H 0.5434 0.3709 0.6479 0.259 Uiso 1 1 calc R U . . .
H80 H 0.6379 0.4001 0.6152 0.259 Uiso 1 1 calc R U . . .
H81 H 0.5600 0.3767 0.5860 0.259 Uiso 1 1 calc R U . . .
C51 C 0.4162(12) 0.4837(12) 0.5962(7) 0.181(8) Uani 1 1 d D U . . .
H82 H 0.3835 0.5377 0.5824 0.271 Uiso 1 1 calc R U . . .
H83 H 0.3811 0.4616 0.6293 0.271 Uiso 1 1 calc R U . . .
H84 H 0.4179 0.4507 0.5710 0.271 Uiso 1 1 calc R U . . .
C52 C 0.9752(5) 0.7739(5) 0.5863(3) 0.0500(16) Uani 1 1 d . . . . .
C53 C 1.0071(5) 0.7582(5) 0.5374(3) 0.0515(17) Uani 1 1 d . . . . .
H13 H 0.9614 0.7655 0.5128 0.062 Uiso 1 1 calc R U . . .
C54 C 1.1052(5) 0.7315(5) 0.5229(3) 0.0523(17) Uani 1 1 d . . . . .
C55 C 1.1681(5) 0.7247(5) 0.5600(3) 0.0554(18) Uani 1 1 d . . . . .
H14 H 1.2347 0.7067 0.5514 0.066 Uiso 1 1 calc R U . . .
C56 C 1.1401(5) 0.7424(5) 0.6093(3) 0.0488(16) Uani 1 1 d . . . . .
C57 C 1.0407(5) 0.7649(5) 0.6223(3) 0.0510(17) Uani 1 1 d . . . . .
H15 H 1.0181 0.7740 0.6563 0.061 Uiso 1 1 calc R U . . .
C58 C 1.1411(5) 0.7152(6) 0.4690(3) 0.061(2) Uani 1 1 d . . . . .
C59 C 1.0637(7) 0.7486(9) 0.4303(4) 0.103(4) Uani 1 1 d . . . . .
H85 H 0.9995 0.7488 0.4494 0.155 Uiso 1 1 calc R U . . .
H86 H 1.0718 0.7153 0.4045 0.155 Uiso 1 1 calc R U . . .
H87 H 1.0706 0.8028 0.4123 0.155 Uiso 1 1 calc R U . . .
C60 C 1.1692(10) 0.6234(7) 0.4740(4) 0.098(4) Uani 1 1 d . . . . .
H88 H 1.2095 0.6005 0.5030 0.147 Uiso 1 1 calc R U . . .
H89 H 1.2052 0.6122 0.4413 0.147 Uiso 1 1 calc R U . . .
H90 H 1.1105 0.6000 0.4807 0.147 Uiso 1 1 calc R U . . .
C61 C 1.2295(7) 0.7543(8) 0.4459(3) 0.082(3) Uani 1 1 d . . . . .
H91 H 1.2190 0.8074 0.4532 0.123 Uiso 1 1 calc R U . . .
H92 H 1.2388 0.7581 0.4080 0.123 Uiso 1 1 calc R U . . .
H93 H 1.2869 0.7221 0.4618 0.123 Uiso 1 1 calc R U . . .
C62 C 1.2125(5) 0.7389(5) 0.6490(3) 0.056(2) Uani 1 1 d . . . . .
C63 C 1.3114(5) 0.7485(6) 0.6203(3) 0.063(2) Uani 1 1 d . . . . .
H94 H 1.3059 0.7986 0.5943 0.094 Uiso 1 1 calc R U . . .
H95 H 1.3361 0.7044 0.6028 0.094 Uiso 1 1 calc R U . . .
H96 H 1.3558 0.7487 0.6455 0.094 Uiso 1 1 calc R U . . .
C64 C 1.2213(7) 0.6565(6) 0.6860(4) 0.082(3) Uani 1 1 d . . . . .
H97 H 1.2647 0.6532 0.7125 0.123 Uiso 1 1 calc R U . . .
H98 H 1.2473 0.6156 0.6657 0.123 Uiso 1 1 calc R U . . .
H99 H 1.1575 0.6481 0.7032 0.123 Uiso 1 1 calc R U . . .
C65 C 1.1822(5) 0.8038(6) 0.6791(3) 0.071(2) Uani 1 1 d . . . . .
H100 H 1.2360 0.8069 0.6976 0.106 Uiso 1 1 calc R U . . .
H101 H 1.1270 0.7924 0.7044 0.106 Uiso 1 1 calc R U . . .
H102 H 1.1639 0.8545 0.6548 0.106 Uiso 1 1 calc R U . . .
C66 C 0.0867(5) 0.4744(5) 0.8488(3) 0.0500(16) Uani 1 1 d . . . . .
C67 C 0.0970(5) 0.3907(5) 0.8673(3) 0.0560(18) Uani 1 1 d . . . . .
H16 H 0.0876 0.3530 0.8489 0.067 Uiso 1 1 calc R U . . .
C68 C 0.1235(5) 0.3762(5) 0.9176(3) 0.0518(17) Uani 1 1 d . . . . .
C69 C 0.1339(5) 0.4490(5) 0.9280(3) 0.0501(16) Uani 1 1 d . . . . .
C70 C 0.1642(4) 0.4656(5) 0.9742(3) 0.0503(17) Uani 1 1 d . . . . .
C71 C 0.2340(5) 0.5152(5) 0.9647(3) 0.0493(16) Uani 1 1 d . . . . .
C72 C 0.3198(5) 0.5049(5) 0.9902(3) 0.0522(17) Uani 1 1 d . . . . .
C73 C 0.3684(4) 0.5659(4) 0.9661(3) 0.0463(15) Uani 1 1 d . . . . .
H17 H 0.4282 0.5738 0.9743 0.056 Uiso 1 1 calc R U . . .
C74 C 0.3108(5) 0.6150(4) 0.9263(3) 0.0476(16) Uani 1 1 d . . . . .
C75 C 0.3234(5) 0.6898(5) 0.8984(3) 0.0480(16) Uani 1 1 d . . . . .
C76 C 0.2526(4) 0.7417(4) 0.8695(3) 0.0452(15) Uani 1 1 d . . . . .
C77 C 0.2451(5) 0.8254(5) 0.8532(3) 0.0521(17) Uani 1 1 d . . . . .
H18 H 0.2924 0.8556 0.8549 0.063 Uiso 1 1 calc R U . . .
C78 C 0.1575(5) 0.8537(5) 0.8348(3) 0.0518(17) Uani 1 1 d . . . . .
H19 H 0.1308 0.9078 0.8224 0.062 Uiso 1 1 calc R U . . .
C79 C 0.1126(5) 0.7867(4) 0.8375(3) 0.0455(15) Uani 1 1 d . . . . .
C80 C 0.0259(5) 0.7903(5) 0.8165(3) 0.0488(16) Uani 1 1 d . . . . .
C81 C 0.0048(4) 0.7249(5) 0.8029(3) 0.0487(16) Uani 1 1 d . . . . .
C82 C -0.0626(5) 0.7229(5) 0.7674(3) 0.0519(17) Uani 1 1 d . . . . .
H20 H -0.1079 0.7665 0.7516 0.062 Uiso 1 1 calc R U . . .
C83 C -0.0499(5) 0.6481(5) 0.7605(3) 0.0522(17) Uani 1 1 d . . . . .
H21 H -0.0820 0.6298 0.7377 0.063 Uiso 1 1 calc R U . . .
C84 C 0.0213(5) 0.6015(5) 0.7940(3) 0.0503(17) Uani 1 1 d . . . . .
C85 C 0.0433(5) 0.5188(5) 0.8038(3) 0.0528(17) Uani 1 1 d . . . . .
C86 C 0.1273(4) 0.4348(4) 1.0255(3) 0.0467(15) Uani 1 1 d . . . . .
C87 C 0.1452(5) 0.4637(5) 1.0695(3) 0.0570(19) Uani 1 1 d . . . . .
N7 N 0.1538(5) 0.4873(5) 1.1050(3) 0.0701(19) Uani 1 1 d . . . . .
C88 C 0.0588(5) 0.3837(5) 1.0371(3) 0.0569(19) Uani 1 1 d . . . . .
N8 N 0.0016(5) 0.3434(5) 1.0514(3) 0.073(2) Uani 1 1 d . . . . .
Cl3 Cl 0.15367(14) 0.28375(12) 0.95668(9) 0.0625(5) Uani 1 1 d . . . . .
Cl4 Cl 0.36214(12) 0.42521(12) 1.03695(8) 0.0601(5) Uani 1 1 d . . . . .
N9 N 0.1149(4) 0.5091(4) 0.8852(2) 0.0465(13) Uani 1 1 d . . . . .
N10 N 0.2312(4) 0.5805(4) 0.9245(2) 0.0466(13) Uani 1 1 d . . . . .
N11 N 0.1711(4) 0.7190(4) 0.8581(2) 0.0464(13) Uani 1 1 d . . . . .
N12 N 0.0558(4) 0.6484(4) 0.8199(2) 0.0469(13) Uani 1 1 d . . . . .
Ni2 Ni 0.14050(7) 0.61529(7) 0.87288(5) 0.0457(3) Uani 1 1 d . . . . .
C89 C 0.4065(5) 0.7214(4) 0.9104(3) 0.0491(16) Uani 1 1 d . . . . .
C90 C 0.4064(5) 0.7369(5) 0.9598(3) 0.0541(18) Uani 1 1 d . . . . .
H22 H 0.3522 0.7300 0.9848 0.065 Uiso 1 1 calc R U . . .
C91 C 0.4841(5) 0.7624(5) 0.9733(3) 0.0527(17) Uani 1 1 d . . . . .
C92 C 0.5625(5) 0.7702(5) 0.9352(3) 0.0525(17) Uani 1 1 d . . . . .
H23 H 0.6161 0.7880 0.9435 0.063 Uiso 1 1 calc R U . . .
C93 C 0.5668(5) 0.7537(5) 0.8862(3) 0.0511(17) Uani 1 1 d . . . . .
C94 C 0.4866(5) 0.7299(4) 0.8738(3) 0.0491(16) Uani 1 1 d . . . . .
H24 H 0.4865 0.7194 0.8402 0.059 Uiso 1 1 calc R U . . .
C95 C 0.4855(6) 0.7763(5) 1.0287(3) 0.060(2) Uani 1 1 d . . . . .
C96 C 0.4044(7) 0.7496(7) 1.0668(4) 0.079(3) Uani 1 1 d . . . . .
H31 H 0.3438 0.7854 1.0581 0.118 Uiso 1 1 calc R U . . .
H32 H 0.4168 0.7502 1.1023 0.118 Uiso 1 1 calc R U . . .
H33 H 0.3993 0.6957 1.0651 0.118 Uiso 1 1 calc R U . . .
C97 C 0.5847(7) 0.7329(6) 1.0492(4) 0.077(3) Uani 1 1 d . . . . .
H34 H 0.5908 0.7470 1.0822 0.115 Uiso 1 1 calc R U . . .
H35 H 0.6372 0.7490 1.0232 0.115 Uiso 1 1 calc R U . . .
H36 H 0.5883 0.6755 1.0550 0.115 Uiso 1 1 calc R U . . .
C98 C 0.4797(8) 0.8660(7) 1.0236(4) 0.087(3) Uani 1 1 d . . . . .
H37 H 0.4227 0.8950 1.0059 0.131 Uiso 1 1 calc R U . . .
H38 H 0.5379 0.8825 1.0031 0.131 Uiso 1 1 calc R U . . .
H39 H 0.4748 0.8774 1.0585 0.131 Uiso 1 1 calc R U . . .
C99 C 0.6581(5) 0.7563(5) 0.8477(3) 0.0525(17) Uani 1 1 d . . . . .
C100 C 0.7484(5) 0.7503(5) 0.8749(3) 0.0558(18) Uani 1 1 d . . . . .
H40 H 0.7464 0.7112 0.9081 0.084 Uiso 1 1 calc R U . . .
H41 H 0.7508 0.8021 0.8818 0.084 Uiso 1 1 calc R U . . .
H42 H 0.8059 0.7339 0.8523 0.084 Uiso 1 1 calc R U . . .
C101 C 0.6459(7) 0.8398(7) 0.8078(4) 0.081(3) Uani 1 1 d . . . . .
H43 H 0.7042 0.8428 0.7833 0.122 Uiso 1 1 calc R U . . .
H44 H 0.6360 0.8822 0.8271 0.122 Uiso 1 1 calc R U . . .
H45 H 0.5901 0.8458 0.7883 0.122 Uiso 1 1 calc R U . . .
C102 C 0.6757(6) 0.6927(6) 0.8167(4) 0.073(3) Uani 1 1 d . . . . .
H46 H 0.7408 0.6896 0.7984 0.110 Uiso 1 1 calc R U . . .
H47 H 0.6282 0.7053 0.7910 0.110 Uiso 1 1 calc R U . . .
H48 H 0.6696 0.6416 0.8404 0.110 Uiso 1 1 calc R U . . .
C103 C -0.0420(5) 0.8679(4) 0.8079(3) 0.0483(16) Uani 1 1 d . . . . .
C104 C -0.0736(6) 0.9075(5) 0.7592(3) 0.0550(18) Uani 1 1 d . . . . .
H25 H -0.0477 0.8875 0.7288 0.066 Uiso 1 1 calc R U . . .
C105 C -0.1432(6) 0.9765(5) 0.7549(4) 0.064(2) Uani 1 1 d . . . . .
C106 C -0.1782(6) 1.0034(6) 0.8005(4) 0.068(2) Uani 1 1 d . . . . .
H26 H -0.2259 1.0500 0.7980 0.082 Uiso 1 1 calc R U . . .
C107 C -0.1473(6) 0.9660(5) 0.8497(4) 0.064(2) Uani 1 1 d . . . . .
C108 C -0.0777(5) 0.8976(5) 0.8522(3) 0.0547(18) Uani 1 1 d . . . . .
H27 H -0.0543 0.8708 0.8849 0.066 Uiso 1 1 calc R U . . .
C109 C -0.1813(9) 1.0231(7) 0.7022(4) 0.090(3) Uani 1 1 d . . . . .
C110 C -0.1143(15) 0.9983(9) 0.6561(5) 0.157(9) Uani 1 1 d . . . . .
H49 H -0.1465 1.0188 0.6239 0.235 Uiso 1 1 calc R U . . .
H50 H -0.0986 0.9404 0.6624 0.235 Uiso 1 1 calc R U . . .
H51 H -0.0547 1.0199 0.6525 0.235 Uiso 1 1 calc R U . . .
C111 C -0.1877(9) 1.1097(7) 0.6955(4) 0.088(3) Uani 1 1 d . . . . .
H52 H -0.2193 1.1373 0.6638 0.132 Uiso 1 1 calc R U . . .
H53 H -0.1226 1.1221 0.6922 0.132 Uiso 1 1 calc R U . . .
H54 H -0.2253 1.1271 0.7260 0.132 Uiso 1 1 calc R U . . .
C112 C -0.2836(13) 1.0062(10) 0.7040(7) 0.166(9) Uani 1 1 d . . . . .
H55 H -0.3211 1.0171 0.7363 0.248 Uiso 1 1 calc R U . . .
H56 H -0.2801 0.9505 0.7031 0.248 Uiso 1 1 calc R U . . .
H57 H -0.3148 1.0402 0.6737 0.248 Uiso 1 1 calc R U . . .
C113 C -0.1869(7) 0.9976(6) 0.8992(4) 0.077(3) Uani 1 1 d . . . . .
C114 C -0.1133(16) 0.9802(16) 0.9359(7) 0.232(15) Uani 1 1 d . . . . .
H58 H -0.0515 0.9906 0.9166 0.349 Uiso 1 1 calc R U . . .
H59 H -0.1064 0.9244 0.9540 0.349 Uiso 1 1 calc R U . . .
H60 H -0.1326 1.0139 0.9615 0.349 Uiso 1 1 calc R U . . .
C115 C -0.216(2) 1.0830(11) 0.8906(7) 0.223(14) Uani 1 1 d . . . . .
H61 H -0.2395 1.0981 0.9241 0.335 Uiso 1 1 calc R U . . .
H62 H -0.2679 1.1001 0.8672 0.335 Uiso 1 1 calc R U . . .
H63 H -0.1608 1.1085 0.8746 0.335 Uiso 1 1 calc R U . . .
C116 C -0.2640(19) 0.9511(16) 0.9269(8) 0.235(15) Uani 1 1 d . . . . .
H64 H -0.2813 0.9611 0.9622 0.352 Uiso 1 1 calc R U . . .
H65 H -0.2397 0.8944 0.9291 0.352 Uiso 1 1 calc R U . . .
H66 H -0.3211 0.9674 0.9073 0.352 Uiso 1 1 calc R U . . .
C117 C 0.0093(5) 0.4781(5) 0.7682(3) 0.0527(17) Uani 1 1 d . . . . .
C118 C -0.0677(5) 0.4375(5) 0.7840(3) 0.0582(19) Uani 1 1 d . . . . .
H28 H -0.0968 0.4321 0.8190 0.070 Uiso 1 1 calc R U . . .
C119 C -0.1025(6) 0.4044(5) 0.7485(4) 0.060(2) Uani 1 1 d . . . . .
C120 C -0.0583(6) 0.4130(5) 0.6985(3) 0.061(2) Uani 1 1 d . . . . .
H29 H -0.0823 0.3911 0.6743 0.074 Uiso 1 1 calc R U . . .
C121 C 0.0194(6) 0.4517(5) 0.6813(3) 0.063(2) Uani 1 1 d . . . . .
C122 C 0.0524(5) 0.4851(5) 0.7163(3) 0.0568(18) Uani 1 1 d . . . . .
H30 H 0.1048 0.5131 0.7053 0.068 Uiso 1 1 calc R U . . .
C123 C 0.0705(8) 0.4531(6) 0.6258(4) 0.074(2) Uani 1 1 d . . . . .
C124 C 0.1135(11) 0.3683(8) 0.6210(5) 0.108(4) Uani 1 1 d . . . . .
H103 H 0.1467 0.3685 0.5859 0.162 Uiso 1 1 calc R U . . .
H104 H 0.0618 0.3370 0.6269 0.162 Uiso 1 1 calc R U . . .
H105 H 0.1597 0.3449 0.6472 0.162 Uiso 1 1 calc R U . . .
C125 C -0.0059(10) 0.4860(9) 0.5857(4) 0.102(4) Uani 1 1 d . . . . .
H106 H -0.0332 0.5412 0.5869 0.152 Uiso 1 1 calc R U . . .
H107 H -0.0574 0.4543 0.5944 0.152 Uiso 1 1 calc R U . . .
H108 H 0.0247 0.4833 0.5504 0.152 Uiso 1 1 calc R U . . .
C126 C 0.1487(9) 0.5021(8) 0.6132(4) 0.093(3) Uani 1 1 d . . . . .
H109 H 0.2004 0.4776 0.6360 0.139 Uiso 1 1 calc R U . . .
H110 H 0.1222 0.5555 0.6188 0.139 Uiso 1 1 calc R U . . .
H111 H 0.1748 0.5052 0.5766 0.139 Uiso 1 1 calc R U . . .
C127 C -0.1902(6) 0.3626(6) 0.7661(4) 0.080(3) Uani 1 1 d D U . . .
C128 C -0.2315(14) 0.3619(14) 0.8216(7) 0.095(7) Uani 0.5 1 d D U P A 3
H119 H -0.1807 0.3386 0.8451 0.142 Uiso 0.5 1 calc R U P A 3
H120 H -0.2833 0.3304 0.8305 0.142 Uiso 0.5 1 calc R U P A 3
H121 H -0.2576 0.4163 0.8254 0.142 Uiso 0.5 1 calc R U P A 3
C129 C -0.1632(14) 0.2778(10) 0.7576(9) 0.087(6) Uani 0.5 1 d D U P A 3
H122 H -0.1086 0.2495 0.7775 0.131 Uiso 0.5 1 calc R U P A 3
H123 H -0.1451 0.2790 0.7203 0.131 Uiso 0.5 1 calc R U P A 3
H124 H -0.2186 0.2506 0.7696 0.131 Uiso 0.5 1 calc R U P A 3
C130 C -0.2689(11) 0.4046(13) 0.7291(8) 0.091(6) Uani 0.5 1 d D U P A 3
H125 H -0.3235 0.3761 0.7373 0.137 Uiso 0.5 1 calc R U P A 3
H126 H -0.2422 0.4053 0.6928 0.137 Uiso 0.5 1 calc R U P A 3
H127 H -0.2910 0.4591 0.7337 0.137 Uiso 0.5 1 calc R U P A 3
C131 C -0.1053(10) 0.2314(10) 1.0111(5) 0.120(6) Uani 1 1 d . . . . .
H115 H -0.0340 0.2235 1.0084 0.144 Uiso 1 1 calc R U . . .
H116 H -0.1294 0.2409 1.0465 0.144 Uiso 1 1 calc R U . . .
Cl5 Cl -0.1343(4) 0.1557(4) 1.0064(3) 0.182(2) Uani 1 1 d . . . . .
Cl6 Cl -0.1490(3) 0.3215(3) 0.96246(14) 0.1192(12) Uani 1 1 d . . . . .
C132 C 0.7264(8) 0.7253(8) 0.5117(4) 0.093(3) Uani 1 1 d . . . . .
H117 H 0.7153 0.7428 0.5453 0.112 Uiso 1 1 calc R U . . .
H118 H 0.6640 0.7160 0.5041 0.112 Uiso 1 1 calc R U . . .
Cl7 Cl 0.8044(3) 0.6388(3) 0.51920(17) 0.1469(16) Uani 1 1 d . . . . .
Cl8 Cl 0.7626(2) 0.8032(2) 0.46198(12) 0.1058(10) Uani 1 1 d . . . . .
C133 C 0.4666(16) 0.787(3) 0.2699(9) 0.139(8) Uani 0.444(11) 1 d D U P B 1
Cl9 Cl 0.4242(6) 0.8177(6) 0.2061(4) 0.115(3) Uani 0.444(11) 1 d D U P B 1
Cl10 Cl 0.5953(8) 0.7647(9) 0.2656(5) 0.142(5) Uani 0.444(11) 1 d D U P B 1
C138 C 0.596(2) 0.761(3) 0.2426(10) 0.200(10) Uani 0.556(11) 1 d D U P B 2
Cl11 Cl 0.4740(11) 0.8122(9) 0.2469(7) 0.215(7) Uani 0.556(11) 1 d D U P B 2
Cl12 Cl 0.6334(9) 0.7122(6) 0.3060(4) 0.168(4) Uani 0.556(11) 1 d D U P B 2
C136 C -0.1614(19) 0.2932(14) 0.8146(9) 0.116(8) Uani 0.5 1 d D U P A 4
H128 H -0.0999 0.2607 0.8051 0.173 Uiso 0.5 1 calc R U P A 4
H129 H -0.2116 0.2603 0.8245 0.173 Uiso 0.5 1 calc R U P A 4
H130 H -0.1547 0.3158 0.8442 0.173 Uiso 0.5 1 calc R U P A 4
C137 C -0.215(2) 0.3303(15) 0.7208(11) 0.134(10) Uani 0.5 1 d D U P A 4
H131 H -0.2234 0.3733 0.6897 0.201 Uiso 0.5 1 calc R U P A 4
H132 H -0.2755 0.3092 0.7313 0.201 Uiso 0.5 1 calc R U P A 4
H133 H -0.1631 0.2881 0.7128 0.201 Uiso 0.5 1 calc R U P A 4
C135 C -0.2723(14) 0.4268(14) 0.7845(11) 0.121(9) Uani 0.5 1 d D U P A 4
H134 H -0.2462 0.4551 0.8055 0.182 Uiso 0.5 1 calc R U P A 4
H135 H -0.3241 0.4011 0.8056 0.182 Uiso 0.5 1 calc R U P A 4
H136 H -0.2980 0.4644 0.7538 0.182 Uiso 0.5 1 calc R U P A 4
loop_
_atom_site_aniso_label
_atom_site_aniso_U_11
_atom_site_aniso_U_22
_atom_site_aniso_U_33
_atom_site_aniso_U_23
_atom_site_aniso_U_13
_atom_site_aniso_U_12
C1 0.030(3) 0.068(5) 0.049(4) -0.004(4) -0.005(3) -0.004(3)
C2 0.027(3) 0.060(4) 0.050(4) -0.002(3) -0.004(3) -0.006(3)
C3 0.035(3) 0.067(5) 0.046(4) 0.004(4) -0.007(3) -0.011(3)
C4 0.034(3) 0.071(5) 0.048(4) -0.005(4) -0.010(3) -0.008(3)
C5 0.033(3) 0.059(4) 0.058(4) -0.003(4) -0.013(3) -0.008(3)
C6 0.032(3) 0.066(5) 0.055(4) -0.003(4) -0.009(3) -0.010(3)
C7 0.044(3) 0.066(5) 0.069(5) -0.005(4) -0.016(4) -0.010(3)
C8 0.044(3) 0.075(5) 0.058(5) -0.023(4) -0.010(3) -0.001(3)
C9 0.040(3) 0.068(5) 0.057(4) -0.010(4) -0.015(3) -0.006(3)
C10 0.034(3) 0.081(6) 0.049(4) -0.016(4) -0.007(3) -0.006(3)
C11 0.038(3) 0.074(5) 0.044(4) -0.005(4) -0.010(3) -0.007(3)
C12 0.027(3) 0.094(6) 0.049(4) -0.004(4) -0.004(3) -0.013(3)
C13 0.035(3) 0.067(5) 0.048(4) 0.000(4) -0.005(3) -0.009(3)
C14 0.035(3) 0.070(5) 0.038(3) 0.005(3) -0.004(3) -0.012(3)
C15 0.037(3) 0.075(5) 0.043(4) 0.004(4) -0.002(3) -0.013(3)
C16 0.030(3) 0.066(5) 0.046(4) 0.001(4) -0.004(3) -0.007(3)
C17 0.038(3) 0.069(5) 0.055(4) 0.000(4) -0.008(3) -0.007(3)
C18 0.038(3) 0.071(5) 0.045(4) 0.004(4) -0.006(3) 0.000(3)
C19 0.032(3) 0.058(4) 0.037(3) -0.002(3) -0.005(2) -0.006(3)
C20 0.038(3) 0.063(5) 0.047(4) 0.000(4) -0.009(3) -0.009(3)
C21 0.031(3) 0.061(4) 0.054(4) 0.000(4) -0.011(3) -0.012(3)
C22 0.042(3) 0.064(5) 0.053(4) -0.004(4) -0.016(3) -0.005(3)
N1 0.054(4) 0.080(5) 0.072(5) -0.008(4) -0.024(3) -0.009(3)
C23 0.038(3) 0.064(5) 0.057(5) 0.001(4) -0.012(3) -0.011(3)
N2 0.059(4) 0.083(5) 0.074(5) -0.011(4) -0.013(4) -0.009(4)
Cl1 0.0405(8) 0.0714(12) 0.0716(12) 0.0101(10) -0.0101(8) -0.0158(8)
Cl2 0.0545(9) 0.0636(12) 0.0752(13) -0.0063(10) -0.0131(9) -0.0103(8)
N3 0.030(2) 0.067(4) 0.047(3) 0.002(3) -0.010(2) -0.004(2)
N4 0.030(2) 0.075(4) 0.049(3) -0.007(3) -0.011(2) -0.003(2)
N5 0.036(3) 0.071(4) 0.040(3) -0.004(3) -0.008(2) -0.006(3)
N6 0.030(2) 0.066(4) 0.042(3) -0.003(3) -0.007(2) -0.002(2)
Ni1 0.0297(5) 0.0641(8) 0.0439(6) -0.0008(6) -0.0068(4) -0.0051(5)
C24 0.041(3) 0.070(5) 0.060(5) -0.020(4) -0.013(3) 0.006(3)
C25 0.048(4) 0.090(6) 0.051(4) -0.012(4) -0.012(3) 0.000(4)
C26 0.049(4) 0.083(6) 0.062(5) -0.005(5) -0.010(4) 0.004(4)
C27 0.056(4) 0.076(6) 0.065(5) -0.013(5) -0.005(4) 0.008(4)
C28 0.063(5) 0.068(5) 0.060(5) -0.020(4) -0.006(4) -0.005(4)
C29 0.041(3) 0.079(6) 0.057(4) -0.019(4) -0.011(3) 0.006(3)
C30 0.050(4) 0.114(9) 0.070(6) 0.004(6) -0.003(4) 0.007(5)
C31 0.072(6) 0.125(10) 0.108(9) 0.021(8) -0.037(6) 0.009(6)
C32 0.086(7) 0.091(8) 0.110(9) 0.010(7) 0.001(7) 0.004(6)
C33 0.060(5) 0.088(7) 0.089(7) 0.011(6) -0.017(5) -0.006(5)
C34 0.075(5) 0.080(6) 0.064(5) -0.027(5) -0.015(4) -0.003(5)
C35 0.100(8) 0.109(9) 0.084(7) -0.043(7) -0.015(6) -0.018(7)
C36 0.101(8) 0.122(10) 0.057(6) -0.019(6) -0.004(5) -0.027(7)
C37 0.096(7) 0.083(7) 0.059(5) -0.018(5) -0.024(5) -0.001(5)
C38 0.035(3) 0.064(5) 0.052(4) -0.004(4) -0.004(3) -0.005(3)
C39 0.048(4) 0.066(5) 0.047(4) -0.007(4) 0.004(3) -0.004(3)
C40 0.047(4) 0.065(5) 0.074(6) -0.012(5) 0.018(4) -0.011(3)
C41 0.050(4) 0.063(5) 0.098(7) -0.021(5) 0.008(4) -0.012(4)
C42 0.054(4) 0.097(7) 0.073(6) -0.034(6) 0.000(4) -0.009(4)
C43 0.051(4) 0.081(6) 0.055(5) -0.013(4) -0.004(3) -0.008(4)
C44 0.070(6) 0.082(7) 0.079(7) -0.001(6) 0.024(5) -0.012(5)
C45 0.25(2) 0.115(11) 0.065(7) -0.013(8) 0.047(10) -0.068(13)
C46 0.065(7) 0.26(2) 0.137(13) 0.102(14) 0.035(8) 0.037(10)
C47 0.117(10) 0.084(8) 0.101(9) -0.005(7) -0.011(8) -0.016(7)
C48 0.106(8) 0.150(10) 0.114(8) -0.080(8) 0.020(7) -0.041(7)
C49 0.221(18) 0.255(19) 0.147(14) -0.104(14) 0.057(13) -0.129(16)
C50 0.170(15) 0.179(16) 0.200(16) -0.114(14) -0.029(13) -0.009(13)
C51 0.144(14) 0.28(2) 0.166(14) -0.134(14) -0.006(11) -0.058(14)
C52 0.034(3) 0.058(4) 0.052(4) -0.002(4) -0.006(3) -0.006(3)
C53 0.034(3) 0.065(5) 0.051(4) -0.002(4) -0.010(3) -0.008(3)
C54 0.039(3) 0.068(5) 0.044(4) 0.003(4) -0.005(3) -0.012(3)
C55 0.032(3) 0.067(5) 0.062(5) -0.006(4) -0.006(3) -0.006(3)
C56 0.036(3) 0.059(4) 0.045(4) 0.005(3) -0.008(3) -0.009(3)
C57 0.035(3) 0.067(5) 0.044(4) 0.001(4) -0.005(3) -0.008(3)
C58 0.048(4) 0.083(6) 0.052(4) -0.009(4) -0.003(3) -0.018(4)
C59 0.061(5) 0.187(14) 0.057(5) -0.029(7) -0.009(4) -0.006(7)
C60 0.132(10) 0.097(8) 0.071(7) -0.036(6) 0.007(7) -0.023(7)
C61 0.076(6) 0.128(9) 0.047(5) -0.008(5) 0.007(4) -0.052(6)
C62 0.032(3) 0.092(6) 0.038(3) 0.003(4) -0.009(3) -0.011(3)
C63 0.036(3) 0.090(6) 0.058(5) -0.005(4) -0.011(3) -0.011(3)
C64 0.075(6) 0.083(6) 0.085(7) 0.023(5) -0.044(5) -0.028(5)
C65 0.039(3) 0.114(8) 0.062(5) -0.020(5) -0.008(3) -0.014(4)
C66 0.045(3) 0.063(5) 0.044(4) -0.009(4) -0.002(3) -0.018(3)
C67 0.046(3) 0.060(5) 0.062(5) -0.011(4) -0.001(3) -0.016(3)
C68 0.040(3) 0.056(4) 0.056(4) -0.012(4) -0.003(3) -0.004(3)
C69 0.037(3) 0.057(4) 0.052(4) -0.001(4) -0.006(3) -0.009(3)
C70 0.033(3) 0.059(4) 0.052(4) -0.001(4) -0.005(3) -0.005(3)
C71 0.040(3) 0.064(5) 0.040(4) -0.002(3) -0.003(3) -0.014(3)
C72 0.033(3) 0.066(5) 0.052(4) -0.001(4) -0.010(3) -0.005(3)
C73 0.033(3) 0.051(4) 0.052(4) -0.005(3) -0.006(3) -0.004(3)
C74 0.038(3) 0.057(4) 0.044(4) 0.001(3) -0.007(3) -0.010(3)
C75 0.037(3) 0.064(5) 0.040(4) -0.007(3) -0.003(3) -0.008(3)
C76 0.034(3) 0.055(4) 0.043(4) 0.007(3) -0.008(3) -0.018(3)
C77 0.045(3) 0.066(5) 0.045(4) -0.002(4) -0.013(3) -0.016(3)
C78 0.043(3) 0.054(4) 0.055(4) -0.002(4) -0.005(3) -0.011(3)
C79 0.038(3) 0.053(4) 0.040(3) 0.001(3) 0.000(3) -0.012(3)
C80 0.040(3) 0.065(5) 0.036(3) -0.001(3) -0.006(3) -0.006(3)
C81 0.035(3) 0.067(5) 0.039(3) 0.002(3) -0.009(3) -0.009(3)
C82 0.042(3) 0.074(5) 0.039(4) -0.005(4) -0.009(3) -0.012(3)
C83 0.039(3) 0.069(5) 0.049(4) -0.008(4) -0.010(3) -0.012(3)
C84 0.042(3) 0.067(5) 0.044(4) -0.009(4) 0.001(3) -0.021(3)
C85 0.037(3) 0.069(5) 0.053(4) -0.012(4) 0.000(3) -0.015(3)
C86 0.032(3) 0.050(4) 0.053(4) -0.003(3) -0.002(3) -0.004(3)
C87 0.037(3) 0.074(5) 0.053(4) -0.002(4) -0.002(3) -0.007(3)
N7 0.059(4) 0.095(6) 0.052(4) -0.010(4) 0.001(3) -0.016(4)
C88 0.039(3) 0.067(5) 0.057(4) -0.003(4) -0.006(3) -0.006(3)
N8 0.051(4) 0.093(6) 0.074(5) -0.012(4) 0.005(3) -0.023(4)
Cl3 0.0538(9) 0.0594(11) 0.0692(12) -0.0038(10) -0.0076(9) -0.0084(8)
Cl4 0.0399(8) 0.0673(11) 0.0633(11) 0.0092(9) -0.0130(7) -0.0086(7)
N9 0.034(2) 0.059(4) 0.042(3) -0.001(3) -0.003(2) -0.010(2)
N10 0.037(2) 0.057(3) 0.041(3) 0.002(3) -0.006(2) -0.010(2)
N11 0.035(2) 0.067(4) 0.034(3) 0.000(3) -0.003(2) -0.015(2)
N12 0.042(3) 0.055(3) 0.042(3) -0.005(3) -0.003(2) -0.012(2)
Ni2 0.0329(5) 0.0579(7) 0.0437(6) -0.0012(6) -0.0058(4) -0.0121(5)
C89 0.037(3) 0.056(4) 0.049(4) 0.001(3) -0.008(3) -0.007(3)
C90 0.039(3) 0.067(5) 0.054(4) -0.004(4) -0.005(3) -0.015(3)
C91 0.038(3) 0.065(5) 0.051(4) -0.001(4) -0.011(3) -0.008(3)
C92 0.037(3) 0.067(5) 0.051(4) 0.000(4) -0.012(3) -0.014(3)
C93 0.034(3) 0.063(4) 0.052(4) 0.003(4) -0.012(3) -0.011(3)
C94 0.046(3) 0.057(4) 0.043(4) -0.001(3) -0.010(3) -0.013(3)
C95 0.049(4) 0.077(6) 0.052(4) -0.012(4) -0.005(3) -0.009(4)
C96 0.072(5) 0.111(8) 0.054(5) -0.009(5) 0.000(4) -0.031(5)
C97 0.086(6) 0.089(7) 0.054(5) 0.000(5) -0.025(5) -0.018(5)
C98 0.090(7) 0.093(8) 0.079(7) -0.024(6) -0.025(6) 0.001(6)
C99 0.037(3) 0.075(5) 0.046(4) -0.004(4) -0.003(3) -0.018(3)
C100 0.035(3) 0.071(5) 0.057(4) 0.002(4) -0.006(3) -0.017(3)
C101 0.058(5) 0.099(7) 0.069(6) 0.026(6) -0.007(4) -0.022(5)
C102 0.041(4) 0.109(8) 0.072(6) -0.016(6) 0.000(4) -0.024(4)
C103 0.038(3) 0.054(4) 0.051(4) -0.003(3) -0.010(3) -0.010(3)
C104 0.057(4) 0.057(4) 0.051(4) -0.006(4) -0.019(3) -0.009(3)
C105 0.067(5) 0.055(5) 0.076(6) -0.019(4) -0.036(4) -0.001(4)
C106 0.052(4) 0.071(5) 0.082(6) -0.013(5) -0.021(4) -0.007(4)
C107 0.050(4) 0.069(5) 0.074(6) -0.018(5) -0.006(4) -0.011(4)
C108 0.051(4) 0.061(5) 0.050(4) -0.002(4) -0.008(3) -0.011(3)
C109 0.106(8) 0.083(7) 0.083(7) 0.018(6) -0.064(7) -0.028(6)
C110 0.27(2) 0.108(11) 0.065(7) -0.010(7) -0.070(11) 0.059(13)
C111 0.111(8) 0.080(7) 0.073(6) -0.004(6) -0.032(6) -0.014(6)
C112 0.182(16) 0.146(13) 0.172(15) 0.080(12) -0.134(14) -0.093(12)
C113 0.065(5) 0.076(6) 0.092(7) -0.025(6) -0.006(5) -0.009(4)
C114 0.20(2) 0.36(3) 0.157(15) -0.19(2) -0.101(15) 0.12(2)
C115 0.40(4) 0.118(14) 0.118(13) -0.065(12) -0.025(18) 0.072(19)
C116 0.27(3) 0.33(3) 0.180(18) -0.18(2) 0.16(2) -0.20(3)
C117 0.050(4) 0.064(5) 0.046(4) -0.013(4) 0.000(3) -0.018(3)
C118 0.046(4) 0.073(5) 0.058(5) -0.015(4) 0.001(3) -0.018(3)
C119 0.051(4) 0.061(5) 0.071(5) -0.013(4) -0.011(4) -0.013(3)
C120 0.063(4) 0.067(5) 0.058(5) -0.012(4) -0.012(4) -0.018(4)
C121 0.065(5) 0.068(5) 0.057(5) -0.012(4) -0.011(4) -0.013(4)
C122 0.048(4) 0.069(5) 0.053(4) -0.006(4) 0.003(3) -0.020(3)
C123 0.085(6) 0.082(6) 0.059(5) -0.018(5) -0.003(5) -0.022(5)
C124 0.148(12) 0.109(10) 0.067(7) -0.031(7) 0.026(7) -0.030(8)
C125 0.108(9) 0.129(11) 0.064(6) -0.008(7) -0.026(6) -0.015(8)
C126 0.095(7) 0.134(10) 0.053(5) -0.013(6) 0.007(5) -0.048(7)
C127 0.056(4) 0.094(7) 0.095(7) -0.020(6) 0.000(5) -0.033(4)
C128 0.078(12) 0.142(19) 0.081(13) -0.029(14) 0.015(10) -0.066(13)
C129 0.070(11) 0.061(11) 0.134(18) -0.033(12) 0.010(12) -0.019(9)
C130 0.037(7) 0.134(18) 0.103(15) -0.008(14) -0.013(9) -0.033(9)
C131 0.093(8) 0.172(15) 0.091(8) -0.055(9) -0.025(7) 0.031(9)
Cl5 0.145(4) 0.163(5) 0.254(7) -0.043(5) -0.066(4) -0.034(3)
Cl6 0.099(2) 0.154(3) 0.093(2) -0.009(2) -0.0095(17) -0.016(2)
C132 0.081(7) 0.114(9) 0.076(7) -0.008(7) -0.007(5) -0.010(6)
Cl7 0.134(3) 0.176(4) 0.110(3) -0.020(3) -0.016(2) 0.010(3)
Cl8 0.0913(18) 0.134(3) 0.0834(18) -0.0021(18) -0.0067(15) -0.0261(18)
C133 0.132(12) 0.139(13) 0.158(13) -0.056(11) -0.022(11) -0.015(11)
Cl9 0.104(5) 0.122(6) 0.121(6) -0.039(5) -0.011(4) -0.007(4)
Cl10 0.131(7) 0.152(9) 0.163(10) -0.069(8) -0.035(6) -0.017(6)
C138 0.197(14) 0.175(13) 0.211(14) -0.006(12) -0.014(12) -0.036(12)
Cl11 0.183(10) 0.164(10) 0.253(14) 0.014(9) -0.010(10) -0.004(8)
Cl12 0.193(9) 0.143(7) 0.164(8) 0.008(6) -0.025(7) -0.067(6)
C136 0.102(16) 0.119(19) 0.13(2) -0.032(17) 0.026(15) -0.050(15)
C137 0.14(2) 0.13(2) 0.17(2) -0.043(19) -0.069(19) -0.064(17)
C135 0.070(12) 0.120(19) 0.17(2) -0.005(19) -0.004(15) -0.051(13)
loop_
_atom_type_symbol
_atom_type_description
_atom_type_scat_dispersion_real
_atom_type_scat_dispersion_imag
_atom_type_scat_source
C C 0.0181 0.0091 'International Tables Vol C Tables 4.2.6.8 and 6.1.1.4'
H H 0.0000 0.0000 'International Tables Vol C Tables 4.2.6.8 and 6.1.1.4'
N N 0.0311 0.0180 'International Tables Vol C Tables 4.2.6.8 and 6.1.1.4'
Ni Ni -3.0029 0.5091 'International Tables Vol C Tables 4.2.6.8 and 6.1.1.4'
Cl Cl 0.3639 0.7018 'International Tables Vol C Tables 4.2.6.8 and 6.1.1.4'
loop_
_geom_angle_atom_site_label_1
_geom_angle_atom_site_label_2
_geom_angle_atom_site_label_3
_geom_angle
C20 C1 N3 124.3(7)
C20 C1 C2 125.9(6)
N3 C1 C2 109.3(6)
C3 C2 C1 105.7(6)
C3 C2 H1 127.1
C1 C2 H1 127.1
C2 C3 C4 108.8(7)
C2 C3 Cl1 124.8(5)
C4 C3 Cl1 126.2(6)
N3 C4 C3 110.3(6)
N3 C4 C5 121.3(6)
C3 C4 C5 128.1(7)
C21 C5 C4 119.6(7)
C21 C5 C6 124.4(6)
C4 C5 C6 116.0(6)
N4 C6 C7 109.9(7)
N4 C6 C5 120.4(7)
C7 C6 C5 129.6(7)
C8 C7 C6 108.4(8)
C8 C7 Cl2 125.7(7)
C6 C7 Cl2 125.6(7)
C7 C8 C9 105.5(7)
C7 C8 H2 127.3
C9 C8 H2 127.3
N4 C9 C8 111.1(7)
N4 C9 C10 121.8(7)
C8 C9 C10 126.4(7)
C11 C10 C9 122.8(7)
C11 C10 C24 116.2(7)
C9 C10 C24 120.7(8)
N5 C11 C10 124.5(7)
N5 C11 C12 110.4(8)
C10 C11 C12 124.4(7)
C13 C12 C11 106.9(7)
C13 C12 H3 126.6
C11 C12 H3 126.6
C12 C13 C14 107.2(7)
C12 C13 H4 126.4
C14 C13 H4 126.4
N5 C14 C15 124.9(6)
N5 C14 C13 109.4(7)
C15 C14 C13 125.4(7)
C14 C15 C16 119.3(7)
C14 C15 C38 121.3(6)
C16 C15 C38 119.4(7)
N6 C16 C15 125.2(7)
N6 C16 C17 109.8(6)
C15 C16 C17 124.7(7)
C18 C17 C16 107.8(7)
C18 C17 H5 126.1
C16 C17 H5 126.1
C17 C18 C19 106.0(6)
C17 C18 H6 127.0
C19 C18 H6 127.0
N6 C19 C20 124.5(7)
N6 C19 C18 109.8(6)
C20 C19 C18 125.2(6)
C1 C20 C19 122.2(6)
C1 C20 C52 117.4(7)
C19 C20 C52 119.6(7)
C5 C21 C23 122.7(6)
C5 C21 C22 122.4(7)
C23 C21 C22 114.3(6)
N1 C22 C21 173.7(9)
N2 C23 C21 174.7(8)
C4 N3 C1 105.7(6)
C4 N3 Ni1 127.3(4)
C1 N3 Ni1 126.8(5)
C6 N4 C9 105.0(6)
C6 N4 Ni1 127.6(5)
C9 N4 Ni1 126.9(5)
C14 N5 C11 106.0(6)
C14 N5 Ni1 126.0(5)
C11 N5 Ni1 127.6(6)
C16 N6 C19 106.5(6)
C16 N6 Ni1 126.1(4)
C19 N6 Ni1 127.2(5)
N5 Ni1 N6 89.4(3)
N5 Ni1 N3 178.1(2)
N6 Ni1 N3 90.2(3)
N5 Ni1 N4 90.1(3)
N6 Ni1 N4 176.6(3)
N3 Ni1 N4 90.2(3)
C29 C24 C25 118.6(7)
C29 C24 C10 120.9(6)
C25 C24 C10 120.4(7)
C26 C25 C24 120.3(7)
C26 C25 H7 119.8
C24 C25 H7 119.8
C27 C26 C25 118.7(7)
C27 C26 C30 119.1(8)
C25 C26 C30 122.2(8)
C26 C27 C28 122.8(8)
C26 C27 H8 118.6
C28 C27 H8 118.6
C29 C28 C27 117.0(8)
C29 C28 C34 125.0(8)
C27 C28 C34 118.0(8)
C24 C29 C28 122.5(7)
C24 C29 H9 118.7
C28 C29 H9 118.7
C31 C30 C26 114.2(9)
C31 C30 C33 114.2(10)
C26 C30 C33 108.5(8)
C31 C30 C32 107.6(10)
C26 C30 C32 107.9(9)
C33 C30 C32 103.9(9)
C30 C31 H137 109.5
C30 C31 H138 109.5
H137 C31 H138 109.5
C30 C31 H139 109.5
H137 C31 H139 109.5
H138 C31 H139 109.5
C30 C32 H140 109.5
C30 C32 H141 109.5
H140 C32 H141 109.5
C30 C32 H142 109.5
H140 C32 H142 109.5
H141 C32 H142 109.5
C30 C33 H143 109.5
C30 C33 H144 109.5
H143 C33 H144 109.5
C30 C33 H145 109.5
H143 C33 H145 109.5
H144 C33 H145 109.5
C35 C34 C28 111.3(9)
C35 C34 C36 108.5(9)
C28 C34 C36 111.7(8)
C35 C34 C37 107.0(9)
C28 C34 C37 110.8(7)
C36 C34 C37 107.2(9)
C34 C35 H146 109.5
C34 C35 H147 109.5
H146 C35 H147 109.5
C34 C35 H148 109.5
H146 C35 H148 109.5
H147 C35 H148 109.5
C34 C36 H149 109.5
C34 C36 H150 109.5
H149 C36 H150 109.5
C34 C36 H151 109.5
H149 C36 H151 109.5
H150 C36 H151 109.5
C34 C37 H152 109.5
C34 C37 H153 109.5
H152 C37 H153 109.5
C34 C37 H154 109.5
H152 C37 H154 109.5
H153 C37 H154 109.5
C39 C38 C43 118.7(8)
C39 C38 C15 124.2(7)
C43 C38 C15 117.1(7)
C38 C39 C40 123.4(8)
C38 C39 H10 118.3
C40 C39 H10 118.3
C39 C40 C41 116.4(8)
C39 C40 C44 124.1(9)
C41 C40 C44 119.3(9)
C42 C41 C40 122.0(9)
C42 C41 H11 119.0
C40 C41 H11 119.0
C41 C42 C43 119.1(8)
C41 C42 C48 120.5(10)
C43 C42 C48 120.4(9)
C42 C43 C38 120.4(8)
C42 C43 H12 119.8
C38 C43 H12 119.8
C46 C44 C47 113.5(14)
C46 C44 C40 110.4(10)
C47 C44 C40 109.7(9)
C46 C44 C45 107.8(14)
C47 C44 C45 105.4(11)
C40 C44 C45 109.9(10)
C44 C45 H67 109.5
C44 C45 H68 109.5
H67 C45 H68 109.5
C44 C45 H69 109.5
H67 C45 H69 109.5
H68 C45 H69 109.5
C44 C46 H70 109.5
C44 C46 H71 109.5
H70 C46 H71 109.5
C44 C46 H72 109.5
H70 C46 H72 109.5
H71 C46 H72 109.5
C44 C47 H159 109.5
C44 C47 H160 109.5
H159 C47 H160 109.5
C44 C47 H161 109.5
H159 C47 H161 109.5
H160 C47 H161 109.5
C51 C48 C49 109.6(11)
C51 C48 C50 106.8(10)
C49 C48 C50 104.7(10)
C51 C48 C42 109.6(10)
C49 C48 C42 114.4(12)
C50 C48 C42 111.4(12)
C48 C49 H112 109.5
C48 C49 H113 109.5
H112 C49 H113 109.5
C48 C49 H114 109.5
H112 C49 H114 109.5
H113 C49 H114 109.5
C48 C50 H79 109.5
C48 C50 H80 109.5
H79 C50 H80 109.5
C48 C50 H81 109.5
H79 C50 H81 109.5
H80 C50 H81 109.5
C48 C51 H82 109.5
C48 C51 H83 109.5
H82 C51 H83 109.5
C48 C51 H84 109.5
H82 C51 H84 109.5
H83 C51 H84 109.5
C53 C52 C57 119.9(6)
C53 C52 C20 118.9(6)
C57 C52 C20 121.2(7)
C52 C53 C54 122.0(6)
C52 C53 H13 119.0
C54 C53 H13 119.0
C55 C54 C53 115.9(7)
C55 C54 C58 121.7(6)
C53 C54 C58 122.4(6)
C54 C55 C56 124.4(6)
C54 C55 H14 117.8
C56 C55 H14 117.8
C55 C56 C57 116.8(6)
C55 C56 C62 123.4(6)
C57 C56 C62 119.8(7)
C52 C57 C56 120.9(7)
C52 C57 H15 119.6
C56 C57 H15 119.6
C54 C58 C61 110.8(7)
C54 C58 C59 111.8(7)
C61 C58 C59 107.0(8)
C54 C58 C60 108.6(7)
C61 C58 C60 109.6(9)
C59 C58 C60 109.1(9)
C58 C59 H85 109.5
C58 C59 H86 109.5
H85 C59 H86 109.5
C58 C59 H87 109.5
H85 C59 H87 109.5
H86 C59 H87 109.5
C58 C60 H88 109.5
C58 C60 H89 109.5
H88 C60 H89 109.5
C58 C60 H90 109.5
H88 C60 H90 109.5
H89 C60 H90 109.5
C58 C61 H91 109.5
C58 C61 H92 109.5
H91 C61 H92 109.5
C58 C61 H93 109.5
H91 C61 H93 109.5
H92 C61 H93 109.5
C65 C62 C63 107.1(7)
C65 C62 C64 111.3(7)
C63 C62 C64 108.4(7)
C65 C62 C56 112.3(6)
C63 C62 C56 110.1(6)
C64 C62 C56 107.5(7)
C62 C63 H94 109.5
C62 C63 H95 109.5
H94 C63 H95 109.5
C62 C63 H96 109.5
H94 C63 H96 109.5
H95 C63 H96 109.5
C62 C64 H97 109.5
C62 C64 H98 109.5
H97 C64 H98 109.5
C62 C64 H99 109.5
H97 C64 H99 109.5
H98 C64 H99 109.5
C62 C65 H100 109.5
C62 C65 H101 109.5
H100 C65 H101 109.5
C62 C65 H102 109.5
H100 C65 H102 109.5
H101 C65 H102 109.5
N9 C66 C85 123.0(7)
N9 C66 C67 110.4(6)
C85 C66 C67 126.1(7)
C68 C67 C66 105.4(7)
C68 C67 H16 127.3
C66 C67 H16 127.3
C67 C68 C69 108.1(7)
C67 C68 Cl3 125.0(6)
C69 C68 Cl3 126.3(6)
N9 C69 C68 110.1(6)
N9 C69 C70 119.9(7)
C68 C69 C70 129.9(7)
C86 C70 C71 120.9(7)
C86 C70 C69 123.2(7)
C71 C70 C69 115.8(7)
N10 C71 C70 122.1(6)
N10 C71 C72 109.2(6)
C70 C71 C72 128.5(7)
C73 C72 C71 108.1(6)
C73 C72 Cl4 125.3(5)
C71 C72 Cl4 126.2(6)
C72 C73 C74 106.3(6)
C72 C73 H17 126.9
C74 C73 H17 126.9
C75 C74 N10 124.2(6)
C75 C74 C73 125.9(6)
N10 C74 C73 109.3(6)
C74 C75 C76 122.7(6)
C74 C75 C89 116.8(6)
C76 C75 C89 119.0(7)
N11 C76 C75 123.4(7)
N11 C76 C77 109.7(6)
C75 C76 C77 126.5(6)
C78 C77 C76 106.8(6)
C78 C77 H18 126.6
C76 C77 H18 126.6
C77 C78 C79 107.3(7)
C77 C78 H19 126.4
C79 C78 H19 126.4
N11 C79 C80 124.9(7)
N11 C79 C78 109.9(6)
C80 C79 C78 124.8(7)
C81 C80 C79 121.2(7)
C81 C80 C103 120.9(6)
C79 C80 C103 117.8(7)
C80 C81 N12 122.1(6)
C80 C81 C82 128.3(7)
N12 C81 C82 109.4(7)
C83 C82 C81 107.8(7)
C83 C82 H20 126.1
C81 C82 H20 126.1
C82 C83 C84 107.0(6)
C82 C83 H21 126.5
C84 C83 H21 126.5
N12 C84 C85 125.0(7)
N12 C84 C83 110.8(7)
C85 C84 C83 123.8(7)
C84 C85 C66 121.5(7)
C84 C85 C117 117.9(7)
C66 C85 C117 120.2(7)
C70 C86 C88 123.0(7)
C70 C86 C87 121.5(7)
C88 C86 C87 114.7(7)
N7 C87 C86 176.1(8)
N8 C88 C86 173.4(9)
C69 N9 C66 105.7(6)
C69 N9 Ni2 127.6(5)
C66 N9 Ni2 126.2(5)
C71 N10 C74 106.9(5)
C71 N10 Ni2 127.0(5)
C74 N10 Ni2 126.1(5)
C79 N11 C76 106.2(6)
C79 N11 Ni2 125.6(4)
C76 N11 Ni2 128.0(5)
C84 N12 C81 105.0(6)
C84 N12 Ni2 127.7(5)
C81 N12 Ni2 126.9(5)
N12 Ni2 N11 89.7(2)
N12 Ni2 N10 177.5(3)
N11 Ni2 N10 90.2(2)
N12 Ni2 N9 90.3(3)
N11 Ni2 N9 177.1(2)
N10 Ni2 N9 89.6(2)
C90 C89 C94 119.8(6)
C90 C89 C75 119.7(6)
C94 C89 C75 120.4(6)
C91 C90 C89 121.3(7)
C91 C90 H22 119.4
C89 C90 H22 119.4
C90 C91 C92 116.7(7)
C90 C91 C95 121.1(7)
C92 C91 C95 122.1(6)
C93 C92 C91 124.1(6)
C93 C92 H23 118.0
C91 C92 H23 118.0
C92 C93 C94 117.5(7)
C92 C93 C99 121.8(6)
C94 C93 C99 120.6(7)
C93 C94 C89 120.7(7)
C93 C94 H24 119.7
C89 C94 H24 119.7
C96 C95 C98 108.8(8)
C96 C95 C91 114.0(7)
C98 C95 C91 107.4(7)
C96 C95 C97 110.2(8)
C98 C95 C97 108.0(8)
C91 C95 C97 108.2(7)
C95 C96 H31 109.5
C95 C96 H32 109.5
H31 C96 H32 109.5
C95 C96 H33 109.5
H31 C96 H33 109.5
H32 C96 H33 109.5
C95 C97 H34 109.5
C95 C97 H35 109.5
H34 C97 H35 109.5
C95 C97 H36 109.5
H34 C97 H36 109.5
H35 C97 H36 109.5
C95 C98 H37 109.5
C95 C98 H38 109.5
H37 C98 H38 109.5
C95 C98 H39 109.5
H37 C98 H39 109.5
H38 C98 H39 109.5
C102 C99 C100 108.7(6)
C102 C99 C93 112.8(6)
C100 C99 C93 112.5(6)
C102 C99 C101 108.0(7)
C100 C99 C101 106.2(7)
C93 C99 C101 108.4(7)
C99 C100 H40 109.5
C99 C100 H41 109.5
H40 C100 H41 109.5
C99 C100 H42 109.5
H40 C100 H42 109.5
H41 C100 H42 109.5
C99 C101 H43 109.5
C99 C101 H44 109.5
H43 C101 H44 109.5
C99 C101 H45 109.5
H43 C101 H45 109.5
H44 C101 H45 109.5
C99 C102 H46 109.5
C99 C102 H47 109.5
H46 C102 H47 109.5
C99 C102 H48 109.5
H46 C102 H48 109.5
H47 C102 H48 109.5
C108 C103 C104 120.3(7)
C108 C103 C80 116.0(6)
C104 C103 C80 123.6(7)
C105 C104 C103 120.3(8)
C105 C104 H25 119.8
C103 C104 H25 119.8
C106 C105 C104 117.4(8)
C106 C105 C109 119.8(8)
C104 C105 C109 122.8(9)
C105 C106 C107 123.9(8)
C105 C106 H26 118.0
C107 C106 H26 118.0
C108 C107 C106 116.8(8)
C108 C107 C113 120.6(8)
C106 C107 C113 122.6(8)
C103 C108 C107 121.2(7)
C103 C108 H27 119.4
C107 C108 H27 119.4
C111 C109 C110 107.1(11)
C111 C109 C112 108.2(12)
C110 C109 C112 112.8(13)
C111 C109 C105 112.1(8)
C110 C109 C105 110.8(9)
C112 C109 C105 105.9(10)
C109 C110 H49 109.5
C109 C110 H50 109.5
H49 C110 H50 109.5
C109 C110 H51 109.5
H49 C110 H51 109.5
H50 C110 H51 109.5
C109 C111 H52 109.5
C109 C111 H53 109.5
H52 C111 H53 109.5
C109 C111 H54 109.5
H52 C111 H54 109.5
H53 C111 H54 109.5
C109 C112 H55 109.5
C109 C112 H56 109.5
H55 C112 H56 109.5
C109 C112 H57 109.5
H55 C112 H57 109.5
H56 C112 H57 109.5
C115 C113 C114 103.6(16)
C115 C113 C116 114.8(17)
C114 C113 C116 105.1(17)
C115 C113 C107 114.9(11)
C114 C113 C107 111.1(9)
C116 C113 C107 107.0(9)
C113 C114 H58 109.5
C113 C114 H59 109.5
H58 C114 H59 109.5
C113 C114 H60 109.5
H58 C114 H60 109.5
H59 C114 H60 109.5
C113 C115 H61 109.5
C113 C115 H62 109.5
H61 C115 H62 109.5
C113 C115 H63 109.5
H61 C115 H63 109.5
H62 C115 H63 109.5
C113 C116 H64 109.5
C113 C116 H65 109.5
H64 C116 H65 109.5
C113 C116 H66 109.5
H64 C116 H66 109.5
H65 C116 H66 109.5
C118 C117 C122 119.3(7)
C118 C117 C85 121.6(7)
C122 C117 C85 119.0(7)
C117 C118 C119 120.3(7)
C117 C118 H28 119.9
C119 C118 H28 119.9
C120 C119 C118 118.1(8)
C120 C119 C127 122.4(7)
C118 C119 C127 119.4(8)
C119 C120 C121 123.6(8)
C119 C120 H29 118.2
C121 C120 H29 118.2
C122 C121 C120 117.8(8)
C122 C121 C123 121.6(8)
C120 C121 C123 120.5(8)
C121 C122 C117 120.8(7)
C121 C122 H30 119.6
C117 C122 H30 119.6
C126 C123 C124 109.4(10)
C126 C123 C121 112.6(8)
C124 C123 C121 108.8(8)
C126 C123 C125 109.8(10)
C124 C123 C125 107.6(10)
C121 C123 C125 108.6(9)
C123 C124 H103 109.5
C123 C124 H104 109.5
H103 C124 H104 109.5
C123 C124 H105 109.5
H103 C124 H105 109.5
H104 C124 H105 109.5
C123 C125 H106 109.5
C123 C125 H107 109.5
H106 C125 H107 109.5
C123 C125 H108 109.5
H106 C125 H108 109.5
H107 C125 H108 109.5
C123 C126 H109 109.5
C123 C126 H110 109.5
H109 C126 H110 109.5
C123 C126 H111 109.5
H109 C126 H111 109.5
H110 C126 H111 109.5
C128 C127 C129 109.9(10)
C128 C127 C119 114.8(10)
C129 C127 C119 109.3(10)
C128 C127 C130 109.1(9)
C129 C127 C130 105.6(9)
C119 C127 C130 107.6(10)
C119 C127 C137 110.4(13)
C119 C127 C135 104.8(10)
C137 C127 C135 113.6(11)
C119 C127 C136 106.3(11)
C137 C127 C136 111.5(11)
C135 C127 C136 109.8(10)
C127 C128 H119 109.5
C127 C128 H120 109.5
H119 C128 H120 109.5
C127 C128 H121 109.5
H119 C128 H121 109.5
H120 C128 H121 109.5
C127 C129 H122 109.5
C127 C129 H123 109.5
H122 C129 H123 109.5
C127 C129 H124 109.5
H122 C129 H124 109.5
H123 C129 H124 109.5
C127 C130 H125 109.5
C127 C130 H126 109.5
H125 C130 H126 109.5
C127 C130 H127 109.5
H125 C130 H127 109.5
H126 C130 H127 109.5
Cl5 C131 Cl6 116.0(8)
Cl5 C131 H115 108.3
Cl6 C131 H115 108.3
Cl5 C131 H116 108.3
Cl6 C131 H116 108.3
H115 C131 H116 107.4
Cl7 C132 Cl8 115.7(7)
Cl7 C132 H117 108.3
Cl8 C132 H117 108.3
Cl7 C132 H118 108.3
Cl8 C132 H118 108.3
H117 C132 H118 107.4
Cl10 C133 Cl9 111.2(15)
Cl11 C138 Cl12 111.5(17)
C127 C136 H128 109.5
C127 C136 H129 109.5
H128 C136 H129 109.5
C127 C136 H130 109.5
H128 C136 H130 109.5
H129 C136 H130 109.5
C127 C137 H131 109.5
C127 C137 H132 109.5
H131 C137 H132 109.5
C127 C137 H133 109.5
H131 C137 H133 109.5
H132 C137 H133 109.5
C127 C135 H134 109.5
C127 C135 H135 109.5
H134 C135 H135 109.5
C127 C135 H136 109.5
H134 C135 H136 109.5
H135 C135 H136 109.5
loop_
_geom_bond_atom_site_label_1
_geom_bond_atom_site_label_2
_geom_bond_distance
C1 C20 1.364(11)
C1 N3 1.395(8)
C1 C2 1.451(10)
C2 C3 1.352(10)
C2 H1 0.9500
C3 C4 1.412(9)
C3 Cl1 1.727(8)
C4 N3 1.366(10)
C4 C5 1.445(9)
C5 C21 1.397(10)
C5 C6 1.456(11)
C6 N4 1.358(10)
C6 C7 1.417(12)
C7 C8 1.354(12)
C7 Cl2 1.731(9)
C8 C9 1.409(12)
C8 H2 0.9500
C9 N4 1.388(10)
C9 C10 1.417(12)
C10 C11 1.386(12)
C10 C24 1.488(10)
C11 N5 1.384(10)
C11 C12 1.420(11)
C12 C13 1.364(12)
C12 H3 0.9500
C13 C14 1.440(9)
C13 H4 0.9500
C14 N5 1.377(10)
C14 C15 1.388(11)
C15 C16 1.402(9)
C15 C38 1.468(12)
C16 N6 1.370(10)
C16 C17 1.439(10)
C17 C18 1.369(11)
C17 H5 0.9500
C18 C19 1.450(11)
C18 H6 0.9500
C19 N6 1.389(8)
C19 C20 1.397(10)
C20 C52 1.508(9)
C21 C23 1.398(11)
C21 C22 1.429(9)
C22 N1 1.163(10)
C23 N2 1.178(11)
N3 Ni1 1.904(6)
N4 Ni1 1.924(6)
N5 Ni1 1.895(6)
N6 Ni1 1.897(6)
C24 C29 1.393(11)
C24 C25 1.411(10)
C25 C26 1.398(12)
C25 H7 0.9500
C26 C27 1.390(12)
C26 C30 1.519(11)
C27 C28 1.398(12)
C27 H8 0.9500
C28 C29 1.393(11)
C28 C34 1.521(12)
C29 H9 0.9500
C30 C31 1.462(15)
C30 C33 1.558(15)
C30 C32 1.616(18)
C31 H137 0.9800
C31 H138 0.9800
C31 H139 0.9800
C32 H140 0.9800
C32 H141 0.9800
C32 H142 0.9800
C33 H143 0.9800
C33 H144 0.9800
C33 H145 0.9800
C34 C35 1.485(15)
C34 C36 1.543(16)
C34 C37 1.556(13)
C35 H146 0.9800
C35 H147 0.9800
C35 H148 0.9800
C36 H149 0.9800
C36 H150 0.9800
C36 H151 0.9800
C37 H152 0.9800
C37 H153 0.9800
C37 H154 0.9800
C38 C39 1.379(11)
C38 C43 1.404(11)
C39 C40 1.385(12)
C39 H10 0.9500
C40 C41 1.424(13)
C40 C44 1.531(13)
C41 C42 1.383(14)
C41 H11 0.9500
C42 C43 1.398(14)
C42 C48 1.536(15)
C43 H12 0.9500
C44 C46 1.448(15)
C44 C47 1.497(16)
C44 C45 1.58(2)
C45 H67 0.9800
C45 H68 0.9800
C45 H69 0.9800
C46 H70 0.9800
C46 H71 0.9800
C46 H72 0.9800
C47 H159 0.9800
C47 H160 0.9800
C47 H161 0.9800
C48 C51 1.478(15)
C48 C49 1.486(15)
C48 C50 1.512(15)
C49 H112 0.9800
C49 H113 0.9800
C49 H114 0.9800
C50 H79 0.9800
C50 H80 0.9800
C50 H81 0.9800
C51 H82 0.9800
C51 H83 0.9800
C51 H84 0.9800
C52 C53 1.380(11)
C52 C57 1.383(10)
C53 C54 1.410(9)
C53 H13 0.9500
C54 C55 1.385(10)
C54 C58 1.517(11)
C55 C56 1.397(11)
C55 H14 0.9500
C56 C57 1.405(9)
C56 C62 1.550(9)
C57 H15 0.9500
C58 C61 1.537(12)
C58 C59 1.539(12)
C58 C60 1.566(15)
C59 H85 0.9800
C59 H86 0.9800
C59 H87 0.9800
C60 H88 0.9800
C60 H89 0.9800
C60 H90 0.9800
C61 H91 0.9800
C61 H92 0.9800
C61 H93 0.9800
C62 C65 1.504(13)
C62 C63 1.522(10)
C62 C64 1.542(12)
C63 H94 0.9800
C63 H95 0.9800
C63 H96 0.9800
C64 H97 0.9800
C64 H98 0.9800
C64 H99 0.9800
C65 H100 0.9800
C65 H101 0.9800
C65 H102 0.9800
C66 N9 1.394(9)
C66 C85 1.406(11)
C66 C67 1.426(11)
C67 C68 1.383(11)
C67 H16 0.9500
C68 C69 1.415(11)
C68 Cl3 1.720(8)
C69 N9 1.369(9)
C69 C70 1.459(11)
C70 C86 1.405(10)
C70 C71 1.413(10)
C71 N10 1.367(9)
C71 C72 1.433(9)
C72 C73 1.376(11)
C72 Cl4 1.706(8)
C73 C74 1.432(9)
C73 H17 0.9500
C74 C75 1.385(11)
C74 N10 1.399(9)
C75 C76 1.395(9)
C75 C89 1.503(10)
C76 N11 1.390(8)
C76 C77 1.424(11)
C77 C78 1.356(10)
C77 H18 0.9500
C78 C79 1.436(10)
C78 H19 0.9500
C79 N11 1.354(9)
C79 C80 1.404(9)
C80 C81 1.383(11)
C80 C103 1.495(10)
C81 N12 1.399(9)
C81 C82 1.443(9)
C82 C83 1.348(11)
C82 H20 0.9500
C83 C84 1.434(10)
C83 H21 0.9500
C84 N12 1.385(9)
C84 C85 1.397(11)
C85 C117 1.490(10)
C86 C88 1.413(11)
C86 C87 1.446(11)
C87 N7 1.141(11)
C88 N8 1.155(11)
N9 Ni2 1.925(6)
N10 Ni2 1.916(5)
N11 Ni2 1.905(6)
N12 Ni2 1.883(6)
C89 C90 1.395(11)
C89 C94 1.397(10)
C90 C91 1.389(10)
C90 H22 0.9500
C91 C92 1.400(10)
C91 C95 1.544(11)
C92 C93 1.382(11)
C92 H23 0.9500
C93 C94 1.393(9)
C93 C99 1.534(10)
C94 H24 0.9500
C95 C96 1.497(12)
C95 C98 1.542(14)
C95 C97 1.565(12)
C96 H31 0.9800
C96 H32 0.9800
C96 H33 0.9800
C97 H34 0.9800
C97 H35 0.9800
C97 H36 0.9800
C98 H37 0.9800
C98 H38 0.9800
C98 H39 0.9800
C99 C102 1.503(13)
C99 C100 1.530(9)
C99 C101 1.590(13)
C100 H40 0.9800
C100 H41 0.9800
C100 H42 0.9800
C101 H43 0.9800
C101 H44 0.9800
C101 H45 0.9800
C102 H46 0.9800
C102 H47 0.9800
C102 H48 0.9800
C103 C108 1.386(11)
C103 C104 1.399(10)
C104 C105 1.397(11)
C104 H25 0.9500
C105 C106 1.388(13)
C105 C109 1.548(12)
C106 C107 1.399(13)
C106 H26 0.9500
C107 C108 1.392(12)
C107 C113 1.532(13)
C108 H27 0.9500
C109 C111 1.483(15)
C109 C110 1.53(2)
C109 C112 1.534(18)
C110 H49 0.9800
C110 H50 0.9800
C110 H51 0.9800
C111 H52 0.9800
C111 H53 0.9800
C111 H54 0.9800
C112 H55 0.9800
C112 H56 0.9800
C112 H57 0.9800
C113 C115 1.452(19)
C113 C114 1.463(18)
C113 C116 1.50(2)
C114 H58 0.9800
C114 H59 0.9800
C114 H60 0.9800
C115 H61 0.9800
C115 H62 0.9800
C115 H63 0.9800
C116 H64 0.9800
C116 H65 0.9800
C116 H66 0.9800
C117 C118 1.391(11)
C117 C122 1.409(10)
C118 C119 1.403(11)
C118 H28 0.9500
C119 C120 1.370(12)
C119 C127 1.537(12)
C120 C121 1.383(12)
C120 H29 0.9500
C121 C122 1.383(11)
C121 C123 1.541(13)
C122 H30 0.9500
C123 C126 1.498(15)
C123 C124 1.524(16)
C123 C125 1.553(14)
C124 H103 0.9800
C124 H104 0.9800
C124 H105 0.9800
C125 H106 0.9800
C125 H107 0.9800
C125 H108 0.9800
C126 H109 0.9800
C126 H110 0.9800
C126 H111 0.9800
C127 C128 1.498(15)
C127 C129 1.529(15)
C127 C130 1.544(15)
C127 C137 1.550(18)
C127 C135 1.565(19)
C127 C136 1.58(2)
C128 H119 0.9800
C128 H120 0.9800
C128 H121 0.9800
C129 H122 0.9800
C129 H123 0.9800
C129 H124 0.9800
C130 H125 0.9800
C130 H126 0.9800
C130 H127 0.9800
C131 Cl5 1.513(18)
C131 Cl6 1.850(15)
C131 H115 0.9900
C131 H116 0.9900
C132 Cl7 1.683(13)
C132 Cl8 1.766(13)
C132 H117 0.9900
C132 H118 0.9900
C133 Cl10 1.785(19)
C133 Cl9 1.792(19)
C138 Cl11 1.79(2)
C138 Cl12 1.791(19)
C136 H128 0.9800
C136 H129 0.9800
C136 H130 0.9800
C137 H131 0.9800
C137 H132 0.9800
C137 H133 0.9800
C135 H134 0.9800
C135 H135 0.9800
C135 H136 0.9800
loop_
_geom_hbond_atom_site_label_D
_geom_hbond_atom_site_label_H
_geom_hbond_atom_site_label_A
_geom_hbond_distance_DH
_geom_hbond_distance_HA
_geom_hbond_distance_DA
_geom_hbond_angle_DHA
_geom_hbond_site_symmetry_A
C2 H1 Cl1 0.95 2.92 3.808(6) 157.0 2_776
C73 H17 Cl4 0.95 2.96 3.854(6) 158.0 2_667
C132 H117 N6 0.99 2.69 3.675(13) 170.9 .
C2 H1 Cl1 0.95 2.92 3.808(6) 157.0 2_776
C73 H17 Cl4 0.95 2.96 3.854(6) 158.0 2_667
C132 H117 N1 0.99 2.67 3.157(14) 110.2 2_676
loop_
_geom_torsion_atom_site_label_1
_geom_torsion_atom_site_label_2
_geom_torsion_atom_site_label_3
_geom_torsion_atom_site_label_4
_geom_torsion
C20 C1 C2 C3 169.1(8)
N3 C1 C2 C3 -3.1(9)
C1 C2 C3 C4 -0.1(9)
C1 C2 C3 Cl1 174.8(6)
C2 C3 C4 N3 3.4(9)
Cl1 C3 C4 N3 -171.4(6)
C2 C3 C4 C5 177.2(8)
Cl1 C3 C4 C5 2.4(12)
N3 C4 C5 C21 -138.6(8)
C3 C4 C5 C21 48.2(12)
N3 C4 C5 C6 40.0(10)
C3 C4 C5 C6 -133.2(8)
C21 C5 C6 N4 136.1(8)
C4 C5 C6 N4 -42.5(10)
C21 C5 C6 C7 -48.7(12)
C4 C5 C6 C7 132.7(8)
N4 C6 C7 C8 -2.8(8)
C5 C6 C7 C8 -178.4(7)
N4 C6 C7 Cl2 172.1(5)
C5 C6 C7 Cl2 -3.5(11)
C6 C7 C8 C9 0.0(8)
Cl2 C7 C8 C9 -174.9(6)
C7 C8 C9 N4 2.8(8)
C7 C8 C9 C10 -167.1(7)
N4 C9 C10 C11 -2.0(10)
C8 C9 C10 C11 167.0(7)
N4 C9 C10 C24 -176.5(6)
C8 C9 C10 C24 -7.5(11)
C9 C10 C11 N5 12.0(10)
C24 C10 C11 N5 -173.3(6)
C9 C10 C11 C12 -157.1(7)
C24 C10 C11 C12 17.6(10)
N5 C11 C12 C13 -2.1(8)
C10 C11 C12 C13 168.4(7)
C11 C12 C13 C14 3.7(8)
C12 C13 C14 N5 -4.2(8)
C12 C13 C14 C15 170.0(7)
N5 C14 C15 C16 12.5(11)
C13 C14 C15 C16 -160.8(7)
N5 C14 C15 C38 -168.6(6)
C13 C14 C15 C38 18.2(11)
C14 C15 C16 N6 -15.1(11)
C38 C15 C16 N6 165.9(7)
C14 C15 C16 C17 158.3(7)
C38 C15 C16 C17 -20.7(11)
N6 C16 C17 C18 1.6(9)
C15 C16 C17 C18 -172.7(7)
C16 C17 C18 C19 -3.3(9)
C17 C18 C19 N6 4.0(8)
C17 C18 C19 C20 -167.5(7)
N3 C1 C20 C19 3.7(12)
C2 C1 C20 C19 -167.3(7)
N3 C1 C20 C52 173.4(7)
C2 C1 C20 C52 2.3(12)
N6 C19 C20 C1 -9.0(12)
C18 C19 C20 C1 161.3(7)
N6 C19 C20 C52 -178.4(6)
C18 C19 C20 C52 -8.1(11)
C4 C5 C21 C23 10.4(12)
C6 C5 C21 C23 -168.1(7)
C4 C5 C21 C22 -179.0(7)
C6 C5 C21 C22 2.5(12)
C3 C4 N3 C1 -5.2(9)
C5 C4 N3 C1 -179.5(7)
C3 C4 N3 Ni1 170.8(5)
C5 C4 N3 Ni1 -3.5(11)
C20 C1 N3 C4 -167.2(7)
C2 C1 N3 C4 5.1(8)
C20 C1 N3 Ni1 16.8(11)
C2 C1 N3 Ni1 -170.9(5)
C7 C6 N4 C9 4.3(7)
C5 C6 N4 C9 -179.6(6)
C7 C6 N4 Ni1 -167.4(5)
C5 C6 N4 Ni1 8.7(9)
C8 C9 N4 C6 -4.4(7)
C10 C9 N4 C6 166.1(6)
C8 C9 N4 Ni1 167.4(5)
C10 C9 N4 Ni1 -22.1(9)
C15 C14 N5 C11 -171.3(7)
C13 C14 N5 C11 2.9(7)
C15 C14 N5 Ni1 14.9(10)
C13 C14 N5 Ni1 -170.9(4)
C10 C11 N5 C14 -171.0(6)
C12 C11 N5 C14 -0.6(7)
C10 C11 N5 Ni1 2.7(10)
C12 C11 N5 Ni1 173.1(5)
C15 C16 N6 C19 175.2(7)
C17 C16 N6 C19 0.9(8)
C15 C16 N6 Ni1 -9.8(10)
C17 C16 N6 Ni1 176.0(5)
C20 C19 N6 C16 168.6(7)
C18 C19 N6 C16 -3.0(8)
C20 C19 N6 Ni1 -6.4(10)
C18 C19 N6 Ni1 -178.0(5)
C14 N5 Ni1 N6 -28.8(5)
C11 N5 Ni1 N6 158.8(6)
C14 N5 Ni1 N4 154.6(5)
C11 N5 Ni1 N4 -17.9(6)
C16 N6 Ni1 N5 26.3(6)
C19 N6 Ni1 N5 -159.6(6)
C16 N6 Ni1 N3 -155.6(6)
C19 N6 Ni1 N3 18.5(6)
C11 C10 C24 C29 73.0(10)
C9 C10 C24 C29 -112.1(9)
C11 C10 C24 C25 -107.0(10)
C9 C10 C24 C25 67.9(11)
C29 C24 C25 C26 -1.6(15)
C10 C24 C25 C26 178.3(9)
C24 C25 C26 C27 -0.5(15)
C24 C25 C26 C30 178.0(10)
C25 C26 C27 C28 1.9(16)
C30 C26 C27 C28 -176.6(10)
C26 C27 C28 C29 -1.1(15)
C26 C27 C28 C34 177.6(10)
C25 C24 C29 C28 2.5(15)
C10 C24 C29 C28 -177.4(9)
C27 C28 C29 C24 -1.2(15)
C34 C28 C29 C24 -179.9(9)
C27 C26 C30 C31 172.4(11)
C25 C26 C30 C31 -6.1(17)
C27 C26 C30 C33 -59.0(14)
C25 C26 C30 C33 122.5(11)
C27 C26 C30 C32 52.9(13)
C25 C26 C30 C32 -125.6(11)
C29 C28 C34 C35 122.4(11)
C27 C28 C34 C35 -56.2(13)
C29 C28 C34 C36 -116.1(11)
C27 C28 C34 C36 65.3(12)
C29 C28 C34 C37 3.5(14)
C27 C28 C34 C37 -175.2(9)
C14 C15 C38 C39 -58.5(10)
C16 C15 C38 C39 120.5(8)
C14 C15 C38 C43 120.0(8)
C16 C15 C38 C43 -61.1(9)
C43 C38 C39 C40 -2.0(11)
C15 C38 C39 C40 176.5(7)
C38 C39 C40 C41 -0.8(12)
C38 C39 C40 C44 -175.2(8)
C39 C40 C41 C42 3.2(12)
C44 C40 C41 C42 177.9(8)
C40 C41 C42 C43 -2.8(13)
C40 C41 C42 C48 176.9(9)
C41 C42 C43 C38 -0.1(12)
C48 C42 C43 C38 -179.8(8)
C39 C38 C43 C42 2.4(11)
C15 C38 C43 C42 -176.1(7)
C39 C40 C44 C46 91.1(16)
C41 C40 C44 C46 -83.2(16)
C39 C40 C44 C47 -143.1(10)
C41 C40 C44 C47 42.6(13)
C39 C40 C44 C45 -27.7(14)
C41 C40 C44 C45 158.0(10)
C41 C42 C48 C51 61.9(14)
C43 C42 C48 C51 -118.4(12)
C41 C42 C48 C49 -174.5(11)
C43 C42 C48 C49 5.2(15)
C41 C42 C48 C50 -56.0(13)
C43 C42 C48 C50 123.7(12)
C1 C20 C52 C53 -68.2(10)
C19 C20 C52 C53 101.6(9)
C1 C20 C52 C57 108.8(9)
C19 C20 C52 C57 -81.4(10)
C57 C52 C53 C54 1.1(12)
C20 C52 C53 C54 178.1(7)
C52 C53 C54 C55 -2.1(12)
C52 C53 C54 C58 -179.1(8)
C53 C54 C55 C56 -0.1(12)
C58 C54 C55 C56 176.9(8)
C54 C55 C56 C57 3.2(12)
C54 C55 C56 C62 -176.3(8)
C53 C52 C57 C56 2.2(12)
C20 C52 C57 C56 -174.8(7)
C55 C56 C57 C52 -4.2(12)
C62 C56 C57 C52 175.3(7)
C55 C54 C58 C61 -44.8(12)
C53 C54 C58 C61 132.1(9)
C55 C54 C58 C59 -164.0(9)
C53 C54 C58 C59 12.8(13)
C55 C54 C58 C60 75.6(10)
C53 C54 C58 C60 -107.5(10)
C55 C56 C62 C65 142.9(8)
C57 C56 C62 C65 -36.5(10)
C55 C56 C62 C63 23.6(11)
C57 C56 C62 C63 -155.8(8)
C55 C56 C62 C64 -94.3(9)
C57 C56 C62 C64 86.2(10)
N9 C66 C67 C68 5.4(8)
C85 C66 C67 C68 -167.2(7)
C66 C67 C68 C69 -3.0(8)
C66 C67 C68 Cl3 -175.3(5)
C67 C68 C69 N9 -0.3(8)
Cl3 C68 C69 N9 171.8(5)
C67 C68 C69 C70 -177.4(7)
Cl3 C68 C69 C70 -5.3(11)
N9 C69 C70 C86 136.1(7)
C68 C69 C70 C86 -47.0(11)
N9 C69 C70 C71 -43.9(9)
C68 C69 C70 C71 133.0(8)
C86 C70 C71 N10 -139.4(7)
C69 C70 C71 N10 40.6(10)
C86 C70 C71 C72 46.0(12)
C69 C70 C71 C72 -134.1(8)
N10 C71 C72 C73 1.6(9)
C70 C71 C72 C73 176.9(7)
N10 C71 C72 Cl4 -171.3(6)
C70 C71 C72 Cl4 3.9(12)
C71 C72 C73 C74 1.3(8)
Cl4 C72 C73 C74 174.3(6)
C72 C73 C74 C75 168.3(7)
C72 C73 C74 N10 -3.7(8)
N10 C74 C75 C76 6.5(12)
C73 C74 C75 C76 -164.4(7)
N10 C74 C75 C89 172.2(7)
C73 C74 C75 C89 1.3(11)
C74 C75 C76 N11 -11.9(11)
C89 C75 C76 N11 -177.3(6)
C74 C75 C76 C77 159.4(7)
C89 C75 C76 C77 -6.1(11)
N11 C76 C77 C78 3.3(9)
C75 C76 C77 C78 -169.0(7)
C76 C77 C78 C79 -2.6(8)
C77 C78 C79 N11 1.1(8)
C77 C78 C79 C80 -172.3(7)
N11 C79 C80 C81 -16.8(11)
C78 C79 C80 C81 155.6(7)
N11 C79 C80 C103 164.9(6)
C78 C79 C80 C103 -22.7(10)
C79 C80 C81 N12 15.1(11)
C103 C80 C81 N12 -166.7(6)
C79 C80 C81 C82 -159.1(7)
C103 C80 C81 C82 19.1(12)
C80 C81 C82 C83 171.6(7)
N12 C81 C82 C83 -3.2(8)
C81 C82 C83 C84 3.5(8)
C82 C83 C84 N12 -2.7(8)
C82 C83 C84 C85 169.9(7)
N12 C84 C85 C66 13.9(11)
C83 C84 C85 C66 -157.8(7)
N12 C84 C85 C117 -173.1(6)
C83 C84 C85 C117 15.3(10)
N9 C66 C85 C84 -3.2(11)
C67 C66 C85 C84 168.4(7)
N9 C66 C85 C117 -176.2(6)
C67 C66 C85 C117 -4.5(11)
C71 C70 C86 C88 -178.7(7)
C69 C70 C86 C88 1.3(11)
C71 C70 C86 C87 11.6(10)
C69 C70 C86 C87 -168.4(7)
C68 C69 N9 C66 3.6(7)
C70 C69 N9 C66 -179.0(6)
C68 C69 N9 Ni2 -167.7(5)
C70 C69 N9 Ni2 9.7(9)
C85 C66 N9 C69 167.3(6)
C67 C66 N9 C69 -5.5(7)
C85 C66 N9 Ni2 -21.3(9)
C67 C66 N9 Ni2 165.9(5)
C70 C71 N10 C74 -179.5(7)
C72 C71 N10 C74 -3.9(8)
C70 C71 N10 Ni2 -2.8(10)
C72 C71 N10 Ni2 172.8(5)
C75 C74 N10 C71 -167.5(7)
C73 C74 N10 C71 4.7(8)
C75 C74 N10 Ni2 15.8(10)
C73 C74 N10 Ni2 -172.0(5)
C80 C79 N11 C76 174.3(7)
C78 C79 N11 C76 0.9(8)
C80 C79 N11 Ni2 -10.1(10)
C78 C79 N11 Ni2 176.6(5)
C75 C76 N11 C79 170.0(7)
C77 C76 N11 C79 -2.5(8)
C75 C76 N11 Ni2 -5.5(10)
C77 C76 N11 Ni2 -178.1(5)
C85 C84 N12 C81 -171.8(7)
C83 C84 N12 C81 0.7(8)
C85 C84 N12 Ni2 1.0(10)
C83 C84 N12 Ni2 173.6(5)
C80 C81 N12 C84 -173.8(7)
C82 C81 N12 C84 1.4(7)
C80 C81 N12 Ni2 13.3(10)
C82 C81 N12 Ni2 -171.5(5)
C84 N12 Ni2 N11 159.8(6)
C81 N12 Ni2 N11 -28.9(6)
C84 N12 Ni2 N9 -17.2(6)
C81 N12 Ni2 N9 154.1(6)
C74 C75 C89 C90 -65.2(9)
C76 C75 C89 C90 101.1(9)
C74 C75 C89 C94 110.3(8)
C76 C75 C89 C94 -83.4(9)
C94 C89 C90 C91 1.2(12)
C75 C89 C90 C91 176.7(7)
C89 C90 C91 C92 -1.0(12)
C89 C90 C91 C95 -177.5(7)
C90 C91 C92 C93 -0.5(12)
C95 C91 C92 C93 176.0(8)
C91 C92 C93 C94 1.8(12)
C91 C92 C93 C99 -174.5(7)
C92 C93 C94 C89 -1.6(11)
C99 C93 C94 C89 174.8(7)
C90 C89 C94 C93 0.2(11)
C75 C89 C94 C93 -175.3(7)
C90 C91 C95 C96 8.0(12)
C92 C91 C95 C96 -168.4(8)
C90 C91 C95 C98 -112.7(9)
C92 C91 C95 C98 70.9(10)
C90 C91 C95 C97 130.9(8)
C92 C91 C95 C97 -45.4(11)
C92 C93 C99 C102 142.8(8)
C94 C93 C99 C102 -33.4(10)
C92 C93 C99 C100 19.5(11)
C94 C93 C99 C100 -156.7(7)
C92 C93 C99 C101 -97.6(9)
C94 C93 C99 C101 86.2(9)
C81 C80 C103 C108 120.1(8)
C79 C80 C103 C108 -61.6(9)
C81 C80 C103 C104 -56.2(10)
C79 C80 C103 C104 122.1(8)
C108 C103 C104 C105 -1.5(12)
C80 C103 C104 C105 174.7(7)
C103 C104 C105 C106 0.4(12)
C103 C104 C105 C109 -180.0(8)
C104 C105 C106 C107 0.5(14)
C109 C105 C106 C107 -179.1(9)
C105 C106 C107 C108 -0.3(13)
C105 C106 C107 C113 179.6(9)
C104 C103 C108 C107 1.7(12)
C80 C103 C108 C107 -174.8(7)
C106 C107 C108 C103 -0.8(12)
C113 C107 C108 C103 179.3(8)
C106 C105 C109 C111 43.9(14)
C104 C105 C109 C111 -135.7(11)
C106 C105 C109 C110 163.5(12)
C104 C105 C109 C110 -16.1(15)
C106 C105 C109 C112 -73.9(14)
C104 C105 C109 C112 106.5(14)
C108 C107 C113 C115 149.3(16)
C106 C107 C113 C115 -30.7(19)
C108 C107 C113 C114 32.1(18)
C106 C107 C113 C114 -147.9(16)
C108 C107 C113 C116 -82.1(16)
C106 C107 C113 C116 98.0(17)
C84 C85 C117 C118 -106.0(9)
C66 C85 C117 C118 67.2(10)
C84 C85 C117 C122 70.0(9)
C66 C85 C117 C122 -116.8(8)
C122 C117 C118 C119 -0.5(13)
C85 C117 C118 C119 175.5(8)
C117 C118 C119 C120 0.4(13)
C117 C118 C119 C127 -177.6(8)
C118 C119 C120 C121 0.7(14)
C127 C119 C120 C121 178.6(8)
C119 C120 C121 C122 -1.6(14)
C119 C120 C121 C123 175.0(9)
C120 C121 C122 C117 1.4(13)
C123 C121 C122 C117 -175.1(8)
C118 C117 C122 C121 -0.4(13)
C85 C117 C122 C121 -176.5(8)
C122 C121 C123 C126 -7.2(14)
C120 C121 C123 C126 176.4(10)
C122 C121 C123 C124 114.2(11)
C120 C121 C123 C124 -62.2(13)
C122 C121 C123 C125 -129.0(10)
C120 C121 C123 C125 54.6(12)
C120 C119 C127 C128 -177.5(12)
C118 C119 C127 C128 0.4(14)
C120 C119 C127 C129 58.5(13)
C118 C119 C127 C129 -123.6(11)
C120 C119 C127 C130 -55.7(13)
C118 C119 C127 C130 122.1(11)
C120 C119 C127 C137 2.5(14)
C118 C119 C127 C137 -179.6(12)
C120 C119 C127 C135 -120.2(13)
C118 C119 C127 C135 57.7(13)
C120 C119 C127 C136 123.5(12)
C118 C119 C127 C136 -58.6(13)
