#------------------------------------------------------------------------------
#$Date: 2019-06-18 03:20:27 +0300 (Tue, 18 Jun 2019) $
#$Revision: 216034 $
#$URL: file:///home/coder/svn-repositories/cod/cif/1/55/14/1551476.cif $
#------------------------------------------------------------------------------
#
# This file is available in the Crystallography Open Database (COD),
# http://www.crystallography.net/
#
# All data on this site have been placed in the public domain by the
# contributors.
#
data_1551476
loop_
_publ_author_name
'Li, Chengming'
'Zhu, Lei'
'Liang, Wenbo'
'Su, Rongchuan'
'Yin, Jiangliang'
'Hu, Yanmei'
'Lan, Yu'
'Wu, Di'
'You, Jingsong'
_publ_section_title
;
 Unusual [4+2] Fusion Strategy to Forge meso-N/O-Heteroarene-Fused
 (Quinoidal) Porphyrins with Intense Near-Infrared Q-Bands
;
_journal_name_full               'Chemical Science'
_journal_paper_doi               10.1039/C9SC01596E
_journal_year                    2019
_chemical_formula_moiety         'C64 H44 N4 O3 Zn'
_chemical_formula_sum            'C64 H44 N4 O3 Zn'
_chemical_formula_weight         982.40
_space_group_crystal_system      triclinic
_space_group_IT_number           2
_space_group_name_Hall           '-P 1'
_space_group_name_H-M_alt        'P -1'
_symmetry_space_group_name_Hall  '-P 1'
_symmetry_space_group_name_H-M   'P -1'
_atom_sites_solution_hydrogens   mixed
_atom_sites_solution_primary     direct
_audit_creation_date             2017-12-06
_audit_creation_method
;
Olex2 1.2
(compiled 2017.03.28 svn.r3405 for OlexSys, GUI svn.r5337)
;
_audit_update_record
;
2018-09-05 deposited with the CCDC.    2019-06-17 downloaded from the CCDC.
;
_cell_angle_alpha                103.438(2)
_cell_angle_beta                 101.949(2)
_cell_angle_gamma                98.725(2)
_cell_formula_units_Z            2
_cell_length_a                   13.4002(4)
_cell_length_b                   13.4625(4)
_cell_length_c                   17.1704(5)
_cell_measurement_reflns_used    8982
_cell_measurement_temperature    293.75(10)
_cell_measurement_theta_max      72.1200
_cell_measurement_theta_min      4.3210
_cell_volume                     2881.75(15)
_computing_cell_refinement
;
CrysAlisPro, Agilent Technologies,
Version 1.171.37.35 (release 13-08-2014 CrysAlis171 .NET)
(compiled Aug 13 2014,18:06:01)
;
_computing_data_reduction
;
CrysAlisPro, Agilent Technologies,
Version 1.171.37.35 (release 13-08-2014 CrysAlis171 .NET)
(compiled Aug 13 2014,18:06:01)
;
_computing_molecular_graphics    'Olex2 (Dolomanov et al., 2009)'
_computing_publication_material  'Olex2 (Dolomanov et al., 2009)'
_computing_structure_refinement  'ShelXL (Sheldrick, 2015)'
_computing_structure_solution    'SIR2004 (Burla et al., 2007)'
_diffrn_ambient_environment      air
_diffrn_ambient_temperature      293.75(10)
_diffrn_detector                 'CCD plate'
_diffrn_detector_area_resol_mean 15.9595
_diffrn_detector_type            EosS2
_diffrn_measured_fraction_theta_full 0.999
_diffrn_measured_fraction_theta_max 0.974
_diffrn_measurement_details
;
#__ type_ start__ end____ width___ exp.time_
  1 omega   18.00  106.00   1.0000    6.6400
omega____ theta____ kappa____ phi______ frames
    -       36.5421   38.0000  150.0000 88

#__ type_ start__ end____ width___ exp.time_
  2 omega   20.00  104.00   1.0000    6.6400
omega____ theta____ kappa____ phi______ frames
    -       36.5421   57.0000   30.0000 84

#__ type_ start__ end____ width___ exp.time_
  3 omega   10.00  104.00   1.0000    6.6400
omega____ theta____ kappa____ phi______ frames
    -       36.5421   77.0000  150.0000 94

#__ type_ start__ end____ width___ exp.time_
  4 omega    1.00   75.00   1.0000    6.6400
omega____ theta____ kappa____ phi______ frames
    -       36.5421  -99.0000    0.0000 74

#__ type_ start__ end____ width___ exp.time_
  5 omega   23.00   90.00   1.0000    6.6400
omega____ theta____ kappa____ phi______ frames
    -       36.5421 -125.0000  120.0000 67

#__ type_ start__ end____ width___ exp.time_
  6 omega   18.00  106.00   1.0000    6.6400
omega____ theta____ kappa____ phi______ frames
    -       36.5421   38.0000 -120.0000 88

#__ type_ start__ end____ width___ exp.time_
  7 omega    1.00   75.00   1.0000    6.6400
omega____ theta____ kappa____ phi______ frames
    -       36.5421  -99.0000 -150.0000 74

#__ type_ start__ end____ width___ exp.time_
  8 omega  -31.00   53.00   1.0000    6.6400
omega____ theta____ kappa____ phi______ frames
    -       36.5421  -57.0000  -90.0000 84

#__ type_ start__ end____ width___ exp.time_
  9 omega   20.00  104.00   1.0000    6.6400
omega____ theta____ kappa____ phi______ frames
    -       36.5421   57.0000   90.0000 84

#__ type_ start__ end____ width___ exp.time_
 10 omega   10.00  104.00   1.0000    6.6400
omega____ theta____ kappa____ phi______ frames
    -       36.5421   77.0000  -60.0000 94

#__ type_ start__ end____ width___ exp.time_
 11 omega   40.00   98.00   1.0000   26.5550
omega____ theta____ kappa____ phi______ frames
    -      108.0000  -45.0000  -30.0000 58

#__ type_ start__ end____ width___ exp.time_
 12 omega   40.00   98.00   1.0000   26.5550
omega____ theta____ kappa____ phi______ frames
    -      108.0000  -45.0000   30.0000 58

#__ type_ start__ end____ width___ exp.time_
 13 omega   38.00   91.00   1.0000   26.5550
omega____ theta____ kappa____ phi______ frames
    -      108.0000  -30.0000  150.0000 53

#__ type_ start__ end____ width___ exp.time_
 14 omega   40.00   98.00   1.0000   26.5550
omega____ theta____ kappa____ phi______ frames
    -      108.0000  -45.0000 -180.0000 58

#__ type_ start__ end____ width___ exp.time_
 15 omega   39.00  109.00   1.0000   26.5550
omega____ theta____ kappa____ phi______ frames
    -      108.0000  -94.0000 -150.0000 70

#__ type_ start__ end____ width___ exp.time_
 16 omega   40.00   98.00   1.0000   26.5550
omega____ theta____ kappa____ phi______ frames
    -      108.0000  -45.0000 -120.0000 58

#__ type_ start__ end____ width___ exp.time_
 17 omega   39.00  109.00   1.0000   26.5550
omega____ theta____ kappa____ phi______ frames
    -      108.0000  -94.0000  120.0000 70

#__ type_ start__ end____ width___ exp.time_
 18 omega   39.00  109.00   1.0000   26.5550
omega____ theta____ kappa____ phi______ frames
    -      108.0000  -94.0000   30.0000 70

#__ type_ start__ end____ width___ exp.time_
 19 omega   57.00  150.00   1.0000   26.5550
omega____ theta____ kappa____ phi______ frames
    -      108.0000  178.0000   30.0000 93

#__ type_ start__ end____ width___ exp.time_
 20 omega   40.00   98.00   1.0000   26.5550
omega____ theta____ kappa____ phi______ frames
    -      108.0000  -45.0000   90.0000 58

#__ type_ start__ end____ width___ exp.time_
 21 omega   38.00   91.00   1.0000   26.5550
omega____ theta____ kappa____ phi______ frames
    -      108.0000  -30.0000  120.0000 53

#__ type_ start__ end____ width___ exp.time_
 22 omega   38.00   91.00   1.0000   26.5550
omega____ theta____ kappa____ phi______ frames
    -      108.0000  -30.0000 -180.0000 53

#__ type_ start__ end____ width___ exp.time_
 23 omega   91.00  176.00   1.0000   26.5550
omega____ theta____ kappa____ phi______ frames
    -      108.0000   45.0000  150.0000 85

#__ type_ start__ end____ width___ exp.time_
 24 omega   39.00  109.00   1.0000   26.5550
omega____ theta____ kappa____ phi______ frames
    -      108.0000  -94.0000   60.0000 70

#__ type_ start__ end____ width___ exp.time_
 25 omega   70.00  178.00   1.0000   26.5550
omega____ theta____ kappa____ phi______ frames
    -      108.0000   15.0000   90.0000 108

#__ type_ start__ end____ width___ exp.time_
 26 omega   38.00   91.00   1.0000   26.5550
omega____ theta____ kappa____ phi______ frames
    -      108.0000  -30.0000  -90.0000 53

#__ type_ start__ end____ width___ exp.time_
 27 omega   38.00  116.00   1.0000   26.5550
omega____ theta____ kappa____ phi______ frames
    -      108.0000 -111.0000    0.0000 78

#__ type_ start__ end____ width___ exp.time_
 28 omega   37.00  146.00   1.0000   26.5550
omega____ theta____ kappa____ phi______ frames
    -      108.0000  -15.0000  -30.0000 109

#__ type_ start__ end____ width___ exp.time_
 29 omega  -33.00   55.00   1.0000    6.6400
omega____ theta____ kappa____ phi______ frames
    -       36.5421  -38.0000  150.0000 88

#__ type_ start__ end____ width___ exp.time_
 30 omega   10.00  104.00   1.0000    6.6400
omega____ theta____ kappa____ phi______ frames
    -       36.5421   77.0000 -120.0000 94

#__ type_ start__ end____ width___ exp.time_
 31 omega  -33.00   55.00   1.0000    6.6400
omega____ theta____ kappa____ phi______ frames
    -       36.5421  -38.0000   60.0000 88
;
_diffrn_measurement_device       'four-circle diffractometer'
_diffrn_measurement_device_type  'New Gemini, Dual, Cu at zero, EosS2'
_diffrn_measurement_method       '\w scans'
_diffrn_orient_matrix_UB_11      -0.0607250000
_diffrn_orient_matrix_UB_12      -0.0045444000
_diffrn_orient_matrix_UB_13      0.0665339000
_diffrn_orient_matrix_UB_21      0.1023694000
_diffrn_orient_matrix_UB_22      0.0073892000
_diffrn_orient_matrix_UB_23      0.0636502000
_diffrn_orient_matrix_UB_31      0.0167035000
_diffrn_orient_matrix_UB_32      0.1200247000
_diffrn_orient_matrix_UB_33      0.0246737000
_diffrn_radiation_monochromator  graphite
_diffrn_radiation_probe          x-ray
_diffrn_radiation_type           CuK\a
_diffrn_radiation_wavelength     1.54184
_diffrn_reflns_av_R_equivalents  0.0613
_diffrn_reflns_av_unetI/netI     0.0615
_diffrn_reflns_Laue_measured_fraction_full 0.999
_diffrn_reflns_Laue_measured_fraction_max 0.974
_diffrn_reflns_limit_h_max       16
_diffrn_reflns_limit_h_min       -16
_diffrn_reflns_limit_k_max       16
_diffrn_reflns_limit_k_min       -10
_diffrn_reflns_limit_l_max       21
_diffrn_reflns_limit_l_min       -21
_diffrn_reflns_number            31404
_diffrn_reflns_point_group_measured_fraction_full 0.999
_diffrn_reflns_point_group_measured_fraction_max 0.974
_diffrn_reflns_theta_full        67.684
_diffrn_reflns_theta_max         72.985
_diffrn_reflns_theta_min         4.338
_diffrn_source                   'Enhance (Cu) X-ray Source'
_exptl_absorpt_coefficient_mu    0.949
_exptl_absorpt_correction_T_max  1.00000
_exptl_absorpt_correction_T_min  0.51281
_exptl_absorpt_correction_type   multi-scan
_exptl_absorpt_process_details
;
CrysAlisPro, Agilent Technologies,
Version 1.171.37.35 (release 13-08-2014 CrysAlis171 .NET)
(compiled Aug 13 2014,18:06:01)
Empirical absorption correction using spherical harmonics,
 implemented in SCALE3 ABSPACK scaling algorithm.
;
_exptl_crystal_colour            'dull blackish black'
_exptl_crystal_colour_lustre     dull
_exptl_crystal_colour_modifier   blackish
_exptl_crystal_colour_primary    black
_exptl_crystal_density_diffrn    1.132
_exptl_crystal_description       block
_exptl_crystal_F_000             1020
_exptl_crystal_size_max          0.6
_exptl_crystal_size_mid          0.4
_exptl_crystal_size_min          0.2
_platon_squeeze_details
;
TITL lcm-159_a.res in P-1
CELL   13.4002   13.4625   17.1704    103.44    101.95     98.72
SPGR P-1
# Solvent Accessible Volume =       546
# Electrons Found in S.A.V. =       121
# Note: Atoms in Void as Cxxx and Qxxx all others
C101 0.628 0.291 0.093 !       1.84 eA-3
C102 0.824 0.713 0.190 !       1.75 eA-3
C103 0.611 0.245 0.143 !       1.73 eA-3
C104 0.781 0.655 0.172 !       1.70 eA-3
C105 0.675 0.308 0.216 !       1.58 eA-3
C106 0.779 0.796 0.265 !       1.58 eA-3
C107 0.717 0.330 0.234 !       1.53 eA-3
C108 0.718 0.728 0.264 !       1.43 eA-3
Q109 0.840 0.794 0.217 !       1.41 eA-3
C110 0.721 0.632 0.237 !       1.40 eA-3
C111 0.699 0.388 0.126 !       1.30 eA-3
Q112 0.808 0.935 0.091 !       1.10 eA-3
Q113 0.920 0.907 0.221 !       1.07 eA-3
Q114 0.955 0.212 0.034 !       1.02 eA-3
Q115 0.902 0.962 0.159 !       0.98 eA-3
Q116 0.348 0.234 0.347 !       0.87 eA-3
Q117 0.251 0.130 0.347 !       0.86 eA-3
Q118 0.126 0.750 0.110 !       0.86 eA-3
Q119 0.093 0.826 0.062 !       0.83 eA-3
Q120 0.113 0.670 0.095 !       0.82 eA-3
Q121 0.709 0.896 0.095 !       0.73 eA-3
Q122 0.199 0.557 0.388 !       0.62 eA-3
Q123 0.314 0.170 0.301 !       0.61 eA-3
Q124 0.142 0.169 0.218 !       0.61 eA-3
Q125 0.247 1.002 0.476 !       0.60 eA-3
Q126 0.184 0.058 0.367 !       0.59 eA-3
Q127 0.621 0.877 0.028 !       0.59 eA-3
Q128 0.221 0.221 0.253 !       0.59 eA-3
Q129 0.378 0.660 0.436 !       0.59 eA-3
Q130 0.282 0.090 0.044 !       0.58 eA-3
Q131 0.813 0.935 0.021 !       0.58 eA-3
Q132 0.376 0.158 0.473 !       0.58 eA-3
Q133 0.377 0.435 0.208 !       0.58 eA-3
Q134 0.831 0.041 0.044 !       0.55 eA-3
Q135 0.764 0.548 0.473 !       0.54 eA-3
Q136 0.972 0.047 0.170 !       0.54 eA-3
Q137 0.418 0.306 0.381 !       0.53 eA-3
Q138 0.265 0.209 0.376 !       0.53 eA-3
Q139 0.074 0.628 0.014 !       0.52 eA-3
;
_refine_diff_density_max         0.859
_refine_diff_density_min         -0.401
_refine_diff_density_rms         0.070
_refine_ls_extinction_method     none
_refine_ls_goodness_of_fit_ref   1.016
_refine_ls_hydrogen_treatment    constr
_refine_ls_matrix_type           full
_refine_ls_number_parameters     711
_refine_ls_number_reflns         11234
_refine_ls_number_restraints     237
_refine_ls_restrained_S_all      1.028
_refine_ls_R_factor_all          0.1050
_refine_ls_R_factor_gt           0.0824
_refine_ls_shift/su_max          0.001
_refine_ls_shift/su_mean         0.000
_refine_ls_structure_factor_coef Fsqd
_refine_ls_weighting_details
'w=1/[\s^2^(Fo^2^)+(0.1584P)^2^+0.6365P] where P=(Fo^2^+2Fc^2^)/3'
_refine_ls_weighting_scheme      calc
_refine_ls_wR_factor_gt          0.2351
_refine_ls_wR_factor_ref         0.2705
_reflns_Friedel_coverage         0.000
_reflns_number_gt                7927
_reflns_number_total             11234
_reflns_threshold_expression     'I > 2\s(I)'
_iucr_refine_instructions_details
;

    lcm-159_sq.res created by SHELXL-2014/7

TITL lcm-159_a.res in P-1
CELL 1.54184 13.400226 13.462495 17.170364 103.4383 101.9493 98.7254
ZERR 2 0.000376 0.000378 0.000488 0.0024 0.0024 0.0023
LATT 1
SFAC C H N O Zn
UNIT 128 88 8 6 2
DFIX 1.5 C13S C16S C16S C15S C15S C14S
DFIX 2.35 O1 C16S
DFIX 2.4 C14S C16S
DELU O1 C13S C14S C15S C16S
DELU C1 C2 C3 C4 C5 C6
DELU C7 C8 C9 C10 C11 C12
DELU C1A C2A C3A C4A C5A C6A
DELU C7A C8A C9A C10A C11A C12A
SIMU 0.01 0.02 2 O1 C13S C14S C15S C16S
SIMU 0.01 0.02 2 C1 C2 C3 C4 C5 C6
SIMU 0.01 0.02 2 C7 C8 C9 C10 C11 C12
SIMU 0.01 0.02 2 C1A C2A C3A C4A C5A C6A
SIMU 0.01 0.02 2 C7A C8A C9A C10A C11A C12A
 
L.S. 10
PLAN  20
BOND $H
ABIN
fmap 2
acta
REM <olex2.extras>
REM <HklSrc "%.\\lcm-159_sq.hkl">
REM </olex2.extras>
 
WGHT    0.158400    0.636500
FVAR       2.05709   0.59331   0.51193
ZN01  5    0.691396    0.819028    0.647164    11.00000    0.05841    0.06116 =
         0.06544    0.02685    0.01670    0.00664
PART 1
AFIX  66
C1A   1    1.164492    0.977925    0.941844    21.00000    0.08834    0.13039 =
         0.06470    0.02546    0.00779    0.02885
C2A   1    1.236800    1.010543    0.900621    21.00000    0.10510    0.16884 =
         0.08401    0.01891    0.00797   -0.01037
AFIX  43
H2A   2    1.220852    0.989846    0.843116    21.00000   -1.20000
AFIX  65
C3A   1    1.332945    1.074094    0.945344    21.00000    0.10426    0.15902 =
         0.10908    0.01106    0.03027    0.00008
AFIX  43
H3A   2    1.381324    1.095918    0.917762    21.00000   -1.20000
AFIX  65
C4A   1    1.356783    1.105029    1.031291    21.00000    0.07342    0.12831 =
         0.10328    0.00856   -0.00047    0.02571
AFIX  43
H4A   2    1.421111    1.147550    1.061214    21.00000   -1.20000
AFIX  65
C5A   1    1.284476    1.072411    1.072516    21.00000    0.08739    0.13283 =
         0.08855    0.00070    0.00870    0.02468
AFIX  43
H5A   2    1.300426    1.093108    1.130021    21.00000   -1.20000
AFIX  65
C6A   1    1.188331    1.008860    1.027794    21.00000    0.09156    0.14119 =
         0.08259    0.00791    0.00695    0.02712
AFIX  43
H6A   2    1.139952    0.987036    1.055376    21.00000   -1.20000
AFIX  66
PART 0
PART 2
C1    1    1.172127    0.955566    0.939067   -21.00000    0.08155    0.22768 =
         0.21039   -0.05786   -0.01358    0.01950
C2    1    1.256266    0.907819    0.933085   -21.00000    0.08385    0.23774 =
         0.20886   -0.04980   -0.00445    0.02067
AFIX  43
H2    2    1.244882    0.838024    0.903712   -21.00000   -1.20000
AFIX  65
C3    1    1.357419    0.964389    0.971004   -21.00000    0.08194    0.24793 =
         0.21856   -0.04508   -0.00963    0.02359
AFIX  43
H3    2    1.413713    0.932442    0.967002   -21.00000   -1.20000
AFIX  65
C4    1    1.374434    1.068706    1.014905   -21.00000    0.07343    0.24601 =
         0.23282   -0.05223   -0.02511    0.01728
AFIX  43
H4    2    1.442112    1.106555    1.040275   -21.00000   -1.20000
AFIX  65
C5    1    1.290295    1.116453    1.020887   -21.00000    0.08923    0.23504 =
         0.23554   -0.06416   -0.03196    0.01832
AFIX  43
H5    2    1.301680    1.186249    1.050260   -21.00000   -1.20000
AFIX  65
C6    1    1.189142    1.059885    0.982969   -21.00000    0.07220    0.21944 =
         0.21974   -0.06097   -0.02663    0.01755
AFIX  43
H6    2    1.132848    1.091832    0.986972   -21.00000   -1.20000
AFIX  66
PART 0
PART 1
C7A   1    1.042879    0.782633    0.974549    31.00000    0.09570    0.16238 =
         0.09164    0.07674    0.03619    0.05409
C8A   1    0.994014    0.781449    1.038373    31.00000    0.12636    0.18388 =
         0.09723    0.08049    0.03991    0.06474
AFIX  43
H8A   2    0.937162    0.812975    1.040692    31.00000   -1.20000
AFIX  65
C9A   1    1.030120    0.733146    1.098731    31.00000    0.15300    0.19317 =
         0.10767    0.09568    0.04272    0.06460
AFIX  43
H9A   2    0.997425    0.732353    1.141433    31.00000   -1.20000
AFIX  65
C10A  1    1.115091    0.686026    1.095265    31.00000    0.15531    0.20017 =
         0.12240    0.09940    0.02773    0.07193
AFIX  43
H10A  2    1.139248    0.653707    1.135649    31.00000   -1.20000
AFIX  65
C11A  1    1.163957    0.687209    1.031442    31.00000    0.13944    0.18917 =
         0.13000    0.08511    0.02871    0.08070
AFIX  43
H11A  2    1.220809    0.655683    1.029123    31.00000   -1.20000
AFIX  65
C12A  1    1.127852    0.735512    0.971083    31.00000    0.11741    0.17790 =
         0.11812    0.07719    0.02999    0.07174
AFIX  43
H12A  2    1.160547    0.736304    0.928381    31.00000   -1.20000
AFIX  66
PART 0
PART 2
C7    1    1.050082    0.667238    0.956182   -31.00000    0.14845    0.21566 =
         0.09788    0.02317    0.01037    0.08264
AFIX  43
H7    2    1.028251    0.628813    0.900905   -31.00000   -1.20000
AFIX  65
C8    1    1.043911    0.771786    0.978364   -31.00000    0.12923    0.21394 =
         0.07403    0.00087    0.00379    0.07072
C9    1    1.076541    0.829217    1.060981   -31.00000    0.14962    0.22886 =
         0.08226    0.01100    0.00338    0.06787
AFIX  43
H9    2    1.072411    0.899166    1.075822   -31.00000   -1.20000
AFIX  65
C10   1    1.115342    0.782100    1.121416   -31.00000    0.16121    0.23517 =
         0.08692    0.02938    0.01192    0.06542
AFIX  43
H10   2    1.137174    0.820526    1.176692   -31.00000   -1.20000
AFIX  65
C11   1    1.121514    0.677552    1.099235   -31.00000    0.17646    0.24190 =
         0.10689    0.03535    0.01151    0.06772
AFIX  43
H11   2    1.147475    0.646028    1.139670   -31.00000   -1.20000
AFIX  65
C12   1    1.088885    0.620120    1.016618   -31.00000    0.16786    0.22858 =
         0.10887    0.03336    0.01229    0.07493
AFIX  43
H12   2    1.093015    0.550171    1.001777   -31.00000   -1.20000
AFIX   0
PART 0
O1    4    0.618533    0.924483    0.724224    11.00000    0.10223    0.08219 =
         0.09436    0.03128    0.04447    0.03389
C13S  1    0.639583    1.031892    0.740933    11.00000    0.17476    0.09185 =
         0.16311    0.02499    0.07591    0.03650
AFIX  23
H13A  2    0.627571    1.052200    0.689703    11.00000   -1.20000
H13B  2    0.711908    1.060337    0.771014    11.00000   -1.20000
AFIX   0
C14S  1    0.513430    0.894029    0.724539    11.00000    0.11512    0.13574 =
         0.15146    0.01517    0.05788    0.03856
AFIX  23
H14A  2    0.504672    0.835005    0.747684    11.00000   -1.20000
H14B  2    0.469447    0.873670    0.668538    11.00000   -1.20000
AFIX   0
C15S  1    0.484026    0.984916    0.775824    11.00000    0.15562    0.13260 =
         0.13923    0.04003    0.07308    0.06356
AFIX  23
H15A  2    0.419644    0.998294    0.746404    11.00000   -1.20000
H15B  2    0.474742    0.972091    0.827437    11.00000   -1.20000
AFIX   0
C16S  1    0.569771    1.072454    0.791260    11.00000    0.17699    0.10960 =
         0.15459    0.02560    0.07324    0.06610
AFIX  23
H16A  2    0.605847    1.096247    0.849522    11.00000   -1.20000
H16B  2    0.544858    1.130121    0.774410    11.00000   -1.20000
AFIX   0
C009  1    0.570717    0.619992    0.676880    11.00000    0.06153    0.06104 =
         0.05844    0.02507    0.01863    0.01080
C010  1    0.583972    0.899290    0.420998    11.00000    0.07831    0.07811 =
         0.07448    0.04308    0.02146    0.00431
AFIX   3
H010  2    0.592852    0.942650    0.393638    11.00000   -1.20000
AFIX   0
C011  1    0.747744    1.196246    0.417489    11.00000    0.09614    0.07047 =
         0.10674    0.04384    0.03340    0.02231
AFIX  43
H011  2    0.708563    1.246037    0.409275    11.00000   -1.20000
AFIX   0
C012  1    0.901508    0.782596    0.857312    11.00000    0.06881    0.09091 =
         0.06871    0.02688    0.01231    0.01431
C013  1    0.969717    1.052215    0.708131    11.00000    0.06525    0.07368 =
         0.09067    0.02129    0.01215   -0.00464
AFIX  43
H013  2    1.033017    1.089894    0.744077    11.00000   -1.20000
AFIX   0
C014  1    0.057978    0.436273    0.286671    11.00000    0.08036    0.10248 =
         0.08052   -0.00061    0.01235   -0.00405
AFIX  43
H014  2    0.018583    0.368713    0.262955    11.00000   -1.20000
AFIX   0
C015  1    0.073783    0.414270    0.559017    11.00000    0.06755    0.09253 =
         0.10502    0.04159    0.03581    0.01254
AFIX  43
H015  2    0.013610    0.434087    0.570311    11.00000   -1.20000
AFIX   0
C016  1    0.830020    1.188882    0.382909    11.00000    0.11151    0.08067 =
         0.10270    0.05006    0.04853    0.01262
AFIX  43
H016  2    0.846918    1.233005    0.351049    11.00000   -1.20000
AFIX   0
C017  1    0.822768    0.702939    0.850103    11.00000    0.07133    0.08478 =
         0.06691    0.03480    0.01478    0.01321
AFIX  43
H017  2    0.821360    0.659048    0.884625    11.00000   -1.20000
AFIX   0
C018  1    0.862882    1.050125    0.443176    11.00000    0.08108    0.07082 =
         0.10603    0.04038    0.04556    0.02165
AFIX  43
H018  2    0.902490    1.000701    0.451517    11.00000   -1.20000
AFIX   0
C019  1    0.083266    0.617149    0.292785    11.00000    0.07862    0.12015 =
         0.07875    0.03864    0.01218    0.02436
AFIX  43
H019  2    0.061895    0.671557    0.273526    11.00000   -1.20000
AFIX   0
C00A  1    0.240919    0.457853    0.531098    11.00000    0.05768    0.06095 =
         0.07030    0.02366    0.02323    0.00813
C01A  1    0.177571    0.286537    0.540089    11.00000    0.11661    0.06321 =
         0.15458    0.04315    0.06068    0.01238
AFIX  43
H01A  2    0.186597    0.218845    0.537695    11.00000   -1.20000
AFIX   0
C00B  1    0.645870    0.625443    0.749581    11.00000    0.06505    0.06700 =
         0.06218    0.03013    0.02270    0.01346
C01B  1    0.086441    0.314866    0.554484    11.00000    0.09490    0.08900 =
         0.13928    0.04505    0.05637   -0.00247
AFIX  43
H01B  2    0.034037    0.266037    0.561033    11.00000   -1.20000
AFIX   0
C00C  1    0.826081    0.994861    0.603251    11.00000    0.06199    0.05852 =
         0.07097    0.02434    0.02083    0.00449
C01C  1    0.026761    0.517998    0.258902    11.00000    0.07172    0.14021 =
         0.07364    0.02152    0.00471    0.00772
AFIX  43
H01C  2   -0.033506    0.504901    0.216620    11.00000   -1.20000
AFIX   0
C00D  1    0.472029    0.549245    0.644590    11.00000    0.06932    0.06400 =
         0.06646    0.03324    0.02428    0.00861
AFIX  43
H00D  2    0.445816    0.497569    0.667152    11.00000   -1.20000
AFIX   0
C01D  1    0.887647    1.115506    0.395699    11.00000    0.10778    0.09352 =
         0.13061    0.04974    0.07367    0.02111
AFIX  43
H01D  2    0.943845    1.109761    0.372199    11.00000   -1.20000
AFIX   0
C00E  1    0.422979    0.571216    0.574441    11.00000    0.05757    0.05534 =
         0.06664    0.02590    0.02221    0.00892
C01E  1    1.003586    0.828473    0.909369    11.00000    0.08242    0.12489 =
         0.07487    0.02935    0.01263    0.02309
C00F  1    0.321382    0.534031    0.515846    11.00000    0.05960    0.05592 =
         0.06584    0.01842    0.02265    0.00813
C01F  1    1.060392    0.912856    0.894661    11.00000    0.08392    0.13046 =
         0.07711    0.02384    0.01377    0.02027
C00G  1    0.204883    0.555012    0.384821    11.00000    0.05817    0.08393 =
         0.06188    0.02337    0.02083    0.01096
C01G  1    0.623258    0.446854    0.768576    11.00000    0.17476    0.08332 =
         0.09966    0.04809    0.06304    0.03966
AFIX  43
H01G  2    0.635373    0.421973    0.716864    11.00000   -1.20000
AFIX   0
C00H  1    0.301781    0.578177    0.452554    11.00000    0.05943    0.06823 =
         0.06830    0.02515    0.02277    0.01065
C00I  1    0.149936    0.485155    0.546899    11.00000    0.06490    0.07117 =
         0.08354    0.03003    0.02858    0.01707
AFIX  43
H00I  2    0.140387    0.552700    0.549322    11.00000   -1.20000
AFIX   0
C00J  1    0.467214    0.699978    0.500588    11.00000    0.05075    0.06447 =
         0.06352    0.02870    0.01821    0.00909
C01J  1    0.587158    0.411880    0.890414    11.00000    0.16742    0.13008 =
         0.11311    0.08466    0.03060    0.00325
AFIX  43
H01J  2    0.572125    0.364836    0.920496    11.00000   -1.20000
AFIX   0
C00K  1    0.906816    0.962890    0.716338    11.00000    0.05881    0.06809 =
         0.06873    0.01930    0.01389    0.00217
C01K  1    0.609249    0.583103    0.875392    11.00000    0.16636    0.10438 =
         0.09216    0.04040    0.06391    0.02656
AFIX  43
H01K  2    0.611070    0.653466    0.897669    11.00000   -1.20000
AFIX   0
C00L  1    0.492967    0.655509    0.565107    11.00000    0.05730    0.05854 =
         0.06598    0.03013    0.02177    0.00902
C00M  1    0.752887    0.985408    0.529128    11.00000    0.06113    0.05945 =
         0.07220    0.02768    0.02354    0.01222
C01M  1    0.591578    0.512732    0.921288    11.00000    0.20468    0.14974 =
         0.09593    0.05844    0.07101    0.02139
AFIX  43
H01M  2    0.582756    0.536677    0.974258    11.00000   -1.20000
AFIX   0
C00N  1    0.921106    1.072535    0.638823    11.00000    0.06815    0.06389 =
         0.08760    0.02872    0.01831   -0.00440
AFIX  43
H00N  2    0.944556    1.126823    0.617713    11.00000   -1.20000
AFIX   0
C00O  1    0.527252    0.784045    0.483335    11.00000    0.05599    0.06272 =
         0.06335    0.03044    0.02041    0.00964
C00P  1    0.656240    0.912112    0.497994    11.00000    0.05981    0.06179 =
         0.06539    0.02780    0.01913    0.01225
C01P  1    0.604428    0.378202    0.815814    11.00000    0.22340    0.09182 =
         0.13325    0.07055    0.06409    0.03880
AFIX  43
H01P  2    0.603863    0.307797    0.795111    11.00000   -1.20000
AFIX   0
C00Q  1    0.504038    0.821969    0.413175    11.00000    0.06588    0.07674 =
         0.07572    0.04147    0.00943   -0.00118
AFIX  43
H00Q  2    0.444340    0.797741    0.369645    11.00000   -1.20000
AFIX   0
C00R  1    0.779534    1.057804    0.478338    11.00000    0.06101    0.05683 =
         0.07488    0.02564    0.02369    0.00560
C00S  1    0.148076    0.454559    0.349951    11.00000    0.07048    0.08348 =
         0.07478    0.01248    0.01854    0.01062
AFIX  43
H00S  2    0.169474    0.399592    0.368334    11.00000   -1.20000
AFIX   0
C00T  1    0.624059    0.549939    0.797492    11.00000    0.06813    0.08124 =
         0.06459    0.03785    0.01370    0.00875
C00U  1    0.173488    0.637309    0.356576    11.00000    0.07205    0.09011 =
         0.07434    0.03547    0.01802    0.01286
AFIX  43
H00U  2    0.212380    0.705106    0.380072    11.00000   -1.20000
AFIX   0
C00V  1    0.929648    0.913447    0.779305    11.00000    0.06053    0.07666 =
         0.06849    0.02153    0.01097    0.00240
C00W  1    0.721820    1.131067    0.464377    11.00000    0.07701    0.06640 =
         0.09396    0.03401    0.03760    0.02104
AFIX  43
H00W  2    0.664769    1.136552    0.486854    11.00000   -1.20000
AFIX   0
C00X  1    0.869633    0.828021    0.791547    11.00000    0.06190    0.07694 =
         0.07151    0.02551    0.01575    0.01062
C00Y  1    0.741519    0.698342    0.779349    11.00000    0.06448    0.07432 =
         0.06306    0.03064    0.01497    0.01544
C00Z  1    0.254871    0.358272    0.529307    11.00000    0.07856    0.06143 =
         0.11940    0.03085    0.04493    0.01439
AFIX  43
H00Z  2    0.316513    0.339352    0.520815    11.00000   -1.20000
AFIX   0
N003  3    0.582095    0.684793    0.626514    11.00000    0.06239    0.05609 =
         0.06139    0.02693    0.01750    0.00513
N004  3    0.819205    0.929237    0.653289    11.00000    0.05485    0.06608 =
         0.06865    0.02714    0.01438    0.00285
N006  3    0.620059    0.839752    0.534906    11.00000    0.05675    0.05564 =
         0.06310    0.02431    0.01815    0.00784
N008  3    0.772555    0.776189    0.744510    11.00000    0.06258    0.06853 =
         0.06639    0.02576    0.01574    0.00908
O002  4    0.373197    0.657289    0.443685    11.00000    0.05439    0.06935 =
         0.06558    0.03168    0.01389    0.00103
O005  4    1.024933    0.955309    0.835004    11.00000    0.06608    0.08726 =
         0.07739    0.02700    0.00166   -0.00283
HKLF 4
 
REM  lcm-159_a.res in P-1
REM R1 =  0.0824 for    7927 Fo > 4sig(Fo)  and  0.1050 for all   11234 data
REM    711 parameters refined using    237 restraints
 
END  
     
WGHT      0.1558      0.6873 

REM Highest difference peak  0.859,  deepest hole -0.401,  1-sigma level  0.070
Q1    1   1.0969  1.0389  0.8383  11.00000  0.05    0.86
Q2    1   1.0779  1.0871  0.7796  11.00000  0.05    0.84
Q3    1   1.1971  1.0716  0.9133  11.00000  0.05    0.84
Q4    1   0.6427  0.7614  0.6511  11.00000  0.05    0.65
Q5    1   0.7501  0.8747  0.6530  11.00000  0.05    0.61
Q6    1   1.2885  1.1057  0.8976  11.00000  0.05    0.58
Q7    1   1.3797  1.1326  0.9686  11.00000  0.05    0.50
Q8    1   1.3027  0.8160  0.9009  11.00000  0.05    0.44
Q9    1   0.6841  0.8289  0.7025  11.00000  0.05    0.44
Q10   1   1.2793  1.0835  1.0519  11.00000  0.05    0.38
Q11   1   0.6044  0.9049  0.7859  11.00000  0.05    0.34
Q12   1   0.5396  0.5552  0.8313  11.00000  0.05    0.32
Q13   1   0.8396  0.8215  0.7687  11.00000  0.05    0.30
Q14   1   0.5598  1.0071  0.8350  11.00000  0.05    0.29
Q15   1   0.6536  0.8891  0.6832  11.00000  0.05    0.28
Q16   1   0.6960  0.7968  0.5868  11.00000  0.05    0.27
Q17   1   0.7394  0.7235  0.7625  11.00000  0.05    0.27
Q18   1   0.2249  0.3485  0.5263  11.00000  0.05    0.26
Q19   1   0.5744  0.9747  0.6938  11.00000  0.05    0.26
Q20   1   0.8145  0.9404  0.6265  11.00000  0.05    0.25

  REM The information below was added by Olex2.
  REM
  REM R1 = 0.0824 for 7927 Fo > 4sig(Fo) and 0.1050 for all 31404 data
  REM n/a parameters refined using n/a restraints
  REM Highest difference peak 0.86, deepest hole -0.40
  REM Mean Shift 0, Max Shift -0.001.

  REM +++ Tabular Listing of Refinement Information +++
  REM R1_all = 0.1050
  REM R1_gt = 0.0824
  REM wR_ref = 0.2705
  REM GOOF = 1.016
  REM Shift_max = -0.001
  REM Shift_mean = 0
  REM Reflections_all = 31404
  REM Reflections_gt = 7927
  REM Parameters = n/a
  REM Hole = -0.40
  REM Peak = 0.86
  REM Flack = n/a

  
;
_cod_data_source_file            c9sc01596e2.cif
_cod_data_source_block           lcm-159_sq
_cod_original_cell_volume        2881.73(15)
_cod_database_code               1551476
_shelx_shelxl_version_number     2014/7
_shelx_space_group_comment
;
The symmetry employed for this shelxl refinement is uniquely defined
by the following loop, which should always be used as a source of
symmetry information in preference to the above space-group names.
They are only intended as comments.
;
_reflns_odcompleteness_completeness 99.87
_reflns_odcompleteness_iscentric 1
_reflns_odcompleteness_theta     66.97
_olex2_refinement_description
;
1. Fixed Uiso
 At 1.2 times of:
  All C(H) groups, All C(H,H) groups
2. Restrained distances
 C13S-C16S = C16S-C15S = C15S-C14S
 1.5 with sigma of 0.02
 O1-C16S
 2.35 with sigma of 0.02
 C14S-C16S
 2.4 with sigma of 0.02
3. Rigid bond restraints
 O1, C13S, C14S, C15S, C16S
 with sigma for 1-2 distances of 0.01 and sigma for 1-3 distances of 0.01
 C1, C2, C3, C4, C5, C6
 with sigma for 1-2 distances of 0.01 and sigma for 1-3 distances of 0.01
 C7, C8, C9, C10, C11, C12
 with sigma for 1-2 distances of 0.01 and sigma for 1-3 distances of 0.01
 C1A, C2A, C3A, C4A, C5A, C6A
 with sigma for 1-2 distances of 0.01 and sigma for 1-3 distances of 0.01
 C7A, C8A, C9A, C10A, C11A, C12A
 with sigma for 1-2 distances of 0.01 and sigma for 1-3 distances of 0.01
4. Uiso/Uaniso restraints and constraints
O1 \\sim C13S \\sim C14S \\sim C15S \\sim C16S: within 2A with sigma of 0.01
and sigma for terminal atoms of 0.02
C1 \\sim C2 \\sim C3 \\sim C4 \\sim C5 \\sim C6: within 2A with sigma of 0.01
and sigma for terminal atoms of 0.02
C7 \\sim C8 \\sim C9 \\sim C10 \\sim C11 \\sim C12: within 2A with sigma of
0.01 and sigma for terminal atoms of 0.02
C1A \\sim C2A \\sim C3A \\sim C4A \\sim C5A \\sim C6A: within 2A with sigma of
0.01 and sigma for terminal atoms of 0.02
C7A \\sim C8A \\sim C9A \\sim C10A \\sim C11A \\sim C12A: within 2A with sigma
of 0.01 and sigma for terminal atoms of 0.02
5. Others
 Sof(C1)=Sof(C2)=Sof(H2)=Sof(C3)=Sof(H3)=Sof(C4)=Sof(H4)=Sof(C5)=Sof(H5)=
 Sof(C6)=Sof(H6)=1-FVAR(1)
 Sof(C1A)=Sof(C2A)=Sof(H2A)=Sof(C3A)=Sof(H3A)=Sof(C4A)=Sof(H4A)=Sof(C5A)=
 Sof(H5A)=Sof(C6A)=Sof(H6A)=FVAR(1)
 Sof(C7)=Sof(H7)=Sof(C8)=Sof(C9)=Sof(H9)=Sof(C10)=Sof(H10)=Sof(C11)=Sof(H11)=
 Sof(C12)=Sof(H12)=1-FVAR(2)
 Sof(C7A)=Sof(C8A)=Sof(H8A)=Sof(C9A)=Sof(H9A)=Sof(C10A)=Sof(H10A)=Sof(C11A)=
 Sof(H11A)=Sof(C12A)=Sof(H12A)=FVAR(2)
6.a Riding coordinates:
 C010(H010)
6.b Secondary CH2 refined with riding coordinates:
 C13S(H13A,H13B), C14S(H14A,H14B), C15S(H15A,H15B), C16S(H16A,H16B)
6.c Aromatic/amide H refined with riding coordinates:
 C2A(H2A), C3A(H3A), C4A(H4A), C5A(H5A), C6A(H6A), C2(H2), C3(H3), C4(H4),
 C5(H5), C6(H6), C8A(H8A), C9A(H9A), C10A(H10A), C11A(H11A), C12A(H12A), C7(H7),
  C9(H9), C10(H10), C11(H11), C12(H12), C011(H011), C013(H013), C014(H014),
 C015(H015), C016(H016), C017(H017), C018(H018), C019(H019), C01A(H01A),
 C01B(H01B), C01C(H01C), C00D(H00D), C01D(H01D), C01G(H01G), C00I(H00I),
 C01J(H01J), C01K(H01K), C01M(H01M), C00N(H00N), C01P(H01P), C00Q(H00Q),
 C00S(H00S), C00U(H00U), C00W(H00W), C00Z(H00Z)
6.d Fitted hexagon refined as free rotating group:
 C1A(C2A,C3A,C4A,C5A,C6A), C1(C2,C3,C4,C5,C6), C7A(C8A,C9A,C10A,C11A,C12A),
 C7(C8,C9,C10,C11,C12)
;
_shelx_fab_file
;
 0 0 2 -56.64 0.00
 0 0 3 -52.06 0.00
 0 0 4 -1.74 0.00
 0 0 5 7.05 0.00
 0 0 6 -3.30 0.00
 0 0 7 -1.87 0.00
 0 0 8 2.11 0.00
 0 0 9 1.41 0.00
 0 0 10 0.10 0.00
 0 0 11 -0.19 0.00
 0 0 12 -0.10 0.00
 0 0 13 0.24 0.00
 0 0 14 0.40 0.00
 0 0 15 0.02 0.00
 0 0 16 -0.42 0.00
 0 0 17 -0.31 0.00
 0 0 18 0.18 0.00
 0 0 19 0.27 0.00
 1 -1 19 0.44 0.00
 1 -1 18 0.08 0.00
 1 -1 17 -0.45 0.00
 1 -1 16 -0.37 0.00
 1 -1 15 0.15 0.00
 1 -1 14 0.23 0.00
 1 -1 13 -0.02 0.00
 1 -1 12 0.26 0.00
 1 -1 11 -0.10 0.00
 1 -1 10 -2.09 0.00
 1 -1 9 -0.90 0.00
 1 -1 8 5.51 0.00
 1 -1 7 6.11 0.00
 1 -1 6 -0.70 0.00
 1 -1 5 6.28 0.00
 1 -1 4 17.86 0.00
 1 -1 3 -11.51 0.00
 1 -1 2 -57.56 0.00
 -1 1 0 24.90 0.00
 -1 1 1 43.07 0.00
 -1 1 2 15.70 0.00
 -1 1 3 -1.05 0.00
 -1 1 4 -1.97 0.00
 -1 1 5 -2.83 0.00
 -1 1 6 -1.18 0.00
 -1 1 7 1.82 0.00
 -1 1 8 0.76 0.00
 -1 1 9 -1.12 0.00
 -1 1 10 -0.56 0.00
 -1 1 11 0.15 0.00
 -1 1 12 -0.34 0.00
 -1 1 13 -0.46 0.00
 -1 1 14 0.36 0.00
 -1 1 15 0.44 0.00
 -1 1 16 -0.50 0.00
 -1 1 17 -0.66 0.00
 -1 1 18 -0.04 0.00
 -1 1 19 0.20 0.00
 2 -2 19 0.47 0.00
 2 -2 18 0.33 0.00
 2 -2 17 -0.01 0.00
 2 -2 16 -0.07 0.00
 2 -2 15 0.52 0.00
 2 -2 14 0.60 0.00
 2 -2 13 -0.72 0.00
 2 -2 12 -1.16 0.00
 2 -2 11 0.26 0.00
 2 -2 10 0.25 0.00
 2 -2 9 -1.81 0.00
 2 -2 8 -2.62 0.00
 2 -2 7 -2.82 0.00
 2 -2 6 -1.59 0.00
 2 -2 5 7.02 0.00
 2 -2 4 12.68 0.00
 2 -2 3 0.68 0.00
 2 -2 2 -5.72 0.00
 2 -2 1 11.77 0.00
 -2 2 0 14.76 0.00
 -2 2 1 -12.84 0.00
 -2 2 2 -24.26 0.00
 -2 2 3 -5.23 0.00
 -2 2 4 6.63 0.00
 -2 2 5 1.33 0.00
 -2 2 6 -0.49 0.00
 -2 2 7 3.69 0.00
 -2 2 8 3.17 0.00
 -2 2 9 -0.49 0.00
 -2 2 10 -1.06 0.00
 -2 2 11 -0.01 0.00
 -2 2 12 0.07 0.00
 -2 2 13 0.03 0.00
 -2 2 14 0.02 0.00
 -2 2 15 -0.44 0.00
 -2 2 16 -0.47 0.00
 -2 2 17 0.15 0.00
 -2 2 18 0.29 0.00
 -2 2 19 -0.09 0.00
 3 -3 19 0.14 0.00
 3 -3 18 0.62 0.00
 3 -3 17 0.27 0.00
 3 -3 16 -0.21 0.00
 3 -3 15 -0.02 0.00
 3 -3 14 0.51 0.00
 3 -3 13 0.52 0.00
 3 -3 12 0.24 0.00
 3 -3 11 0.06 0.00
 3 -3 10 -0.28 0.00
 3 -3 9 0.94 0.00
 3 -3 8 3.26 0.00
 3 -3 7 -1.03 0.00
 3 -3 6 -10.12 0.00
 3 -3 5 -6.85 0.00
 3 -3 4 5.23 0.00
 3 -3 3 0.61 0.00
 3 -3 2 -12.18 0.00
 3 -3 1 -2.06 0.00
 -3 3 0 18.54 0.00
 -3 3 1 17.54 0.00
 -3 3 2 1.96 0.00
 -3 3 3 -5.82 0.00
 -3 3 4 -5.47 0.00
 -3 3 5 -4.70 0.00
 -3 3 6 -3.08 0.00
 -3 3 7 0.41 0.00
 -3 3 8 2.16 0.00
 -3 3 9 1.44 0.00
 -3 3 10 0.82 0.00
 -3 3 11 -0.08 0.00
 -3 3 12 -1.28 0.00
 -3 3 13 -0.45 0.00
 -3 3 14 0.96 0.00
 -3 3 15 0.36 0.00
 -3 3 16 -0.51 0.00
 -3 3 17 -0.32 0.00
 -3 3 18 -0.01 0.00
 -3 3 19 0.28 0.00
 4 -4 19 -0.09 0.00
 4 -4 18 0.25 0.00
 4 -4 17 0.26 0.00
 4 -4 16 0.10 0.00
 4 -4 15 -0.03 0.00
 4 -4 14 -0.46 0.00
 4 -4 13 -0.65 0.00
 4 -4 12 0.03 0.00
 4 -4 11 0.65 0.00
 4 -4 10 -0.03 0.00
 4 -4 9 -0.41 0.00
 4 -4 8 1.97 0.00
 4 -4 7 3.20 0.00
 4 -4 6 -1.11 0.00
 4 -4 5 -3.60 0.00
 4 -4 4 1.29 0.00
 4 -4 3 3.82 0.00
 4 -4 2 -1.52 0.00
 4 -4 1 -7.01 0.00
 -4 4 0 -7.24 0.00
 -4 4 1 -1.38 0.00
 -4 4 2 6.47 0.00
 -4 4 3 6.34 0.00
 -4 4 4 -0.76 0.00
 -4 4 5 -3.06 0.00
 -4 4 6 0.28 0.00
 -4 4 7 1.29 0.00
 -4 4 8 -0.77 0.00
 -4 4 9 -1.23 0.00
 -4 4 10 0.20 0.00
 -4 4 11 0.34 0.00
 -4 4 12 -0.65 0.00
 -4 4 13 -0.42 0.00
 -4 4 14 0.22 0.00
 -4 4 15 0.01 0.00
 -4 4 16 -0.17 0.00
 -4 4 17 -0.22 0.00
 -4 4 18 -0.01 0.00
 5 -5 18 0.06 0.00
 5 -5 17 0.11 0.00
 5 -5 16 0.10 0.00
 5 -5 15 -0.04 0.00
 5 -5 14 0.13 0.00
 5 -5 13 0.45 0.00
 5 -5 12 0.28 0.00
 5 -5 11 -0.59 0.00
 5 -5 10 -1.41 0.00
 5 -5 9 -0.64 0.00
 5 -5 8 1.17 0.00
 5 -5 7 0.79 0.00
 5 -5 6 -1.79 0.00
 5 -5 5 -1.93 0.00
 5 -5 4 1.12 0.00
 5 -5 3 2.93 0.00
 5 -5 2 2.74 0.00
 5 -5 1 1.42 0.00
 -5 5 0 -2.52 0.00
 -5 5 1 -4.57 0.00
 -5 5 2 -0.18 0.00
 -5 5 3 3.20 0.00
 -5 5 4 0.55 0.00
 -5 5 5 -1.58 0.00
 -5 5 6 -0.09 0.00
 -5 5 7 1.00 0.00
 -5 5 8 0.23 0.00
 -5 5 9 -0.07 0.00
 -5 5 10 0.73 0.00
 -5 5 11 0.53 0.00
 -5 5 12 -0.73 0.00
 -5 5 13 -0.73 0.00
 -5 5 14 0.25 0.00
 -5 5 15 0.45 0.00
 -5 5 16 -0.05 0.00
 -5 5 17 -0.58 0.00
 -5 5 18 -0.48 0.00
 6 -6 17 -0.29 0.00
 6 -6 16 -0.24 0.00
 6 -6 15 -0.20 0.00
 6 -6 14 -0.04 0.00
 6 -6 13 0.61 0.00
 6 -6 12 1.01 0.00
 6 -6 11 0.46 0.00
 6 -6 10 -0.50 0.00
 6 -6 9 -0.70 0.00
 6 -6 8 0.17 0.00
 6 -6 7 0.79 0.00
 6 -6 6 -0.15 0.00
 6 -6 5 -1.38 0.00
 6 -6 4 -1.10 0.00
 6 -6 3 0.12 0.00
 6 -6 2 1.31 0.00
 6 -6 1 1.72 0.00
 -6 6 0 0.47 0.00
 -6 6 1 -0.73 0.00
 -6 6 2 -0.64 0.00
 -6 6 3 -1.10 0.00
 -6 6 4 -1.49 0.00
 -6 6 5 -0.17 0.00
 -6 6 6 1.17 0.00
 -6 6 7 0.92 0.00
 -6 6 8 -0.27 0.00
 -6 6 9 -0.84 0.00
 -6 6 10 -0.37 0.00
 -6 6 11 -0.05 0.00
 -6 6 12 -0.03 0.00
 -6 6 13 0.14 0.00
 -6 6 14 0.03 0.00
 -6 6 15 -0.05 0.00
 -6 6 16 0.16 0.00
 -6 6 17 0.03 0.00
 7 -7 16 -0.04 0.00
 7 -7 15 -0.21 0.00
 7 -7 14 -0.43 0.00
 7 -7 13 -0.26 0.00
 7 -7 12 0.28 0.00
 7 -7 11 0.38 0.00
 7 -7 10 -0.08 0.00
 7 -7 9 0.02 0.00
 7 -7 8 0.67 0.00
 7 -7 7 0.60 0.00
 7 -7 6 -0.09 0.00
 7 -7 5 -0.21 0.00
 7 -7 4 -0.24 0.00
 7 -7 3 -0.88 0.00
 7 -7 2 -0.62 0.00
 7 -7 1 0.68 0.00
 -7 7 0 0.88 0.00
 -7 7 1 0.53 0.00
 -7 7 2 0.78 0.00
 -7 7 3 0.28 0.00
 -7 7 4 -0.55 0.00
 -7 7 5 -0.09 0.00
 -7 7 6 0.65 0.00
 -7 7 7 0.15 0.00
 -7 7 8 -0.90 0.00
 -7 7 9 -0.59 0.00
 -7 7 10 0.46 0.00
 -7 7 11 0.19 0.00
 -7 7 12 -0.37 0.00
 -7 7 13 -0.02 0.00
 -7 7 14 -0.08 0.00
 -7 7 15 -0.49 0.00
 -7 7 16 -0.03 0.00
 8 -8 15 0.11 0.00
 8 -8 14 -0.04 0.00
 8 -8 13 -0.01 0.00
 8 -8 12 0.02 0.00
 8 -8 11 -0.31 0.00
 8 -8 10 -0.61 0.00
 8 -8 9 -0.31 0.00
 8 -8 8 0.22 0.00
 8 -8 7 0.15 0.00
 8 -8 6 -0.14 0.00
 8 -8 5 0.26 0.00
 8 -8 4 0.52 0.00
 8 -8 3 -0.20 0.00
 8 -8 2 -0.51 0.00
 8 -8 1 0.32 0.00
 -8 8 0 0.67 0.00
 -8 8 1 -0.06 0.00
 -8 8 2 -0.53 0.00
 -8 8 3 -0.39 0.00
 -8 8 4 -0.57 0.00
 -8 8 5 -0.41 0.00
 -8 8 6 1.01 0.00
 -8 8 7 1.41 0.00
 -8 8 8 -0.20 0.00
 -8 8 9 -0.95 0.00
 -8 8 10 -0.62 0.00
 -8 8 11 -0.74 0.00
 -8 8 12 -0.60 0.00
 -8 8 13 -0.15 0.00
 -8 8 14 0.09 0.00
 -8 8 15 0.21 0.00
 9 -9 14 -0.18 0.00
 9 -9 13 0.30 0.00
 9 -9 12 0.57 0.00
 9 -9 11 0.28 0.00
 9 -9 10 -0.30 0.00
 9 -9 9 -0.47 0.00
 9 -9 8 -0.17 0.00
 9 -9 7 -0.30 0.00
 9 -9 6 -0.57 0.00
 9 -9 5 -0.18 0.00
 9 -9 4 0.01 0.00
 9 -9 3 -0.41 0.00
 9 -9 2 -0.54 0.00
 9 -9 1 -0.30 0.00
 -9 9 0 0.12 0.00
 -9 9 1 0.74 0.00
 -9 9 2 0.81 0.00
 -9 9 3 0.43 0.00
 -9 9 4 0.29 0.00
 -9 9 5 -0.04 0.00
 -9 9 6 -0.22 0.00
 -9 9 7 0.04 0.00
 -9 9 8 -0.02 0.00
 -9 9 9 -0.20 0.00
 -9 9 10 0.02 0.00
 -9 9 11 0.24 0.00
 -9 9 12 0.04 0.00
 -9 9 13 -0.60 0.00
 10 -10 12 0.11 0.00
 10 -10 11 0.55 0.00
 10 -10 10 0.46 0.00
 10 -10 9 -0.15 0.00
 10 -10 8 -0.19 0.00
 10 -10 7 -0.02 0.00
 10 -10 6 -0.12 0.00
 10 -10 5 0.01 0.00
 10 -10 4 0.22 0.00
 10 -10 3 0.17 0.00
 10 -10 2 -0.07 0.00
 10 -10 1 -0.57 0.00
 -10 10 0 -0.90 0.00
 -10 10 1 -0.40 0.00
 -10 10 2 0.23 0.00
 -10 10 3 -0.11 0.00
 -10 10 4 -0.63 0.00
 -10 10 5 0.08 0.00
 -10 10 6 0.98 0.00
 -10 10 7 0.82 0.00
 -10 10 8 0.31 0.00
 -10 10 9 -0.37 0.00
 -10 10 10 -1.03 0.00
 -10 10 11 -0.44 0.00
 11 -11 10 0.19 0.00
 11 -11 9 0.03 0.00
 11 -11 8 -0.06 0.00
 11 -11 7 0.00 0.00
 11 -11 6 -0.22 0.00
 11 -11 5 -0.33 0.00
 11 -11 4 0.02 0.00
 11 -11 3 0.17 0.00
 11 -11 2 -0.14 0.00
 11 -11 1 -0.13 0.00
 -11 11 0 0.12 0.00
 -11 11 1 0.04 0.00
 -11 11 2 0.07 0.00
 -11 11 3 0.22 0.00
 -11 11 4 -0.03 0.00
 -11 11 5 -0.15 0.00
 -11 11 6 -0.13 0.00
 -11 11 7 -0.47 0.00
 -11 11 8 -0.28 0.00
 -11 11 9 0.34 0.00
 12 -12 6 0.19 0.00
 12 -12 5 0.09 0.00
 12 -12 4 -0.16 0.00
 12 -12 3 0.11 0.00
 12 -12 2 0.44 0.00
 12 -12 1 0.26 0.00
 -12 12 0 -0.20 0.00
 -12 12 1 -0.44 0.00
 -12 12 2 -0.23 0.00
 -12 12 3 -0.13 0.00
 -12 12 4 -0.19 0.00
 -12 12 5 0.33 0.00
 -13 12 1 -0.02 0.00
 -13 12 0 -0.56 0.00
 13 -12 1 -0.70 0.00
 13 -12 2 -0.20 0.00
 -12 11 8 0.46 0.00
 -12 11 7 -0.14 0.00
 -12 11 6 -0.35 0.00
 -12 11 5 -0.26 0.00
 -12 11 4 -0.31 0.00
 -12 11 3 0.03 0.00
 -12 11 2 0.26 0.00
 -12 11 1 0.02 0.00
 -12 11 0 0.09 0.00
 12 -11 1 0.16 0.00
 12 -11 2 -0.10 0.00
 12 -11 3 0.04 0.00
 12 -11 4 0.29 0.00
 12 -11 5 0.03 0.00
 12 -11 6 -0.19 0.00
 12 -11 7 0.00 0.00
 12 -11 8 0.04 0.00
 -11 10 10 0.21 0.00
 -11 10 9 -0.59 0.00
 -11 10 8 -0.57 0.00
 -11 10 7 -0.49 0.00
 -11 10 6 0.12 0.00
 -11 10 5 0.67 0.00
 -11 10 4 0.01 0.00
 -11 10 3 -0.34 0.00
 -11 10 2 0.39 0.00
 -11 10 1 0.66 0.00
 -11 10 0 0.17 0.00
 11 -10 1 -0.23 0.00
 11 -10 2 -0.41 0.00
 11 -10 3 -0.34 0.00
 11 -10 4 0.03 0.00
 11 -10 5 0.12 0.00
 11 -10 6 -0.14 0.00
 11 -10 7 0.06 0.00
 11 -10 8 0.30 0.00
 11 -10 9 -0.28 0.00
 11 -10 10 -0.59 0.00
 11 -10 11 -0.04 0.00
 -10 9 12 -0.91 0.00
 -10 9 11 -0.48 0.00
 -10 9 10 -0.07 0.00
 -10 9 9 -0.10 0.00
 -10 9 8 -0.06 0.00
 -10 9 7 0.11 0.00
 -10 9 6 -0.18 0.00
 -10 9 5 -0.52 0.00
 -10 9 4 -0.47 0.00
 -10 9 3 -0.55 0.00
 -10 9 2 -0.40 0.00
 -10 9 1 0.33 0.00
 -10 9 0 0.71 0.00
 10 -9 1 0.52 0.00
 10 -9 2 0.20 0.00
 10 -9 3 -0.04 0.00
 10 -9 4 0.05 0.00
 10 -9 5 0.22 0.00
 10 -9 6 0.08 0.00
 10 -9 7 0.08 0.00
 10 -9 8 0.21 0.00
 10 -9 9 0.00 0.00
 10 -9 10 -0.26 0.00
 10 -9 11 -0.34 0.00
 10 -9 12 -0.28 0.00
 -9 8 14 0.70 0.00
 -9 8 13 0.91 0.00
 -9 8 12 0.65 0.00
 -9 8 11 0.19 0.00
 -9 8 10 0.16 0.00
 -9 8 9 -0.29 0.00
 -9 8 8 -1.39 0.00
 -9 8 7 -0.73 0.00
 -9 8 6 0.95 0.00
 -9 8 5 0.82 0.00
 -9 8 4 -0.03 0.00
 -9 8 3 0.01 0.00
 -9 8 2 0.07 0.00
 -9 8 1 -0.19 0.00
 -9 8 0 -0.06 0.00
 9 -8 1 0.31 0.00
 9 -8 2 0.13 0.00
 9 -8 3 -0.46 0.00
 9 -8 4 -0.38 0.00
 9 -8 5 0.18 0.00
 9 -8 6 0.22 0.00
 9 -8 7 0.05 0.00
 9 -8 8 0.27 0.00
 9 -8 9 0.37 0.00
 9 -8 10 0.10 0.00
 9 -8 11 0.02 0.00
 9 -8 12 0.18 0.00
 9 -8 13 0.05 0.00
 9 -8 14 -0.20 0.00
 -8 7 16 0.57 0.00
 -8 7 15 0.12 0.00
 -8 7 14 -0.18 0.00
 -8 7 13 0.15 0.00
 -8 7 12 -0.10 0.00
 -8 7 11 -0.46 0.00
 -8 7 10 0.41 0.00
 -8 7 9 0.77 0.00
 -8 7 8 -0.39 0.00
 -8 7 7 -0.84 0.00
 -8 7 6 0.03 0.00
 -8 7 5 0.47 0.00
 -8 7 4 -0.30 0.00
 -8 7 3 -0.97 0.00
 -8 7 2 -0.64 0.00
 -8 7 1 -0.25 0.00
 -8 7 0 0.19 0.00
 8 -7 1 1.02 0.00
 8 -7 2 0.99 0.00
 8 -7 3 0.09 0.00
 8 -7 4 -0.22 0.00
 8 -7 5 -0.16 0.00
 8 -7 6 -0.44 0.00
 8 -7 7 -0.32 0.00
 8 -7 8 0.32 0.00
 8 -7 9 0.25 0.00
 8 -7 10 -0.46 0.00
 8 -7 11 -0.37 0.00
 8 -7 12 0.39 0.00
 8 -7 13 0.52 0.00
 8 -7 14 0.01 0.00
 8 -7 15 -0.20 0.00
 -7 6 17 -0.11 0.00
 -7 6 16 0.16 0.00
 -7 6 15 0.30 0.00
 -7 6 14 0.03 0.00
 -7 6 13 0.06 0.00
 -7 6 12 0.15 0.00
 -7 6 11 0.34 0.00
 -7 6 10 0.75 0.00
 -7 6 9 -0.07 0.00
 -7 6 8 -1.33 0.00
 -7 6 7 -0.87 0.00
 -7 6 6 0.58 0.00
 -7 6 5 1.53 0.00
 -7 6 4 1.52 0.00
 -7 6 3 0.56 0.00
 -7 6 2 -0.57 0.00
 -7 6 1 -1.22 0.00
 -7 6 0 -1.12 0.00
 7 -6 1 -0.38 0.00
 7 -6 2 0.42 0.00
 7 -6 3 0.91 0.00
 7 -6 4 0.67 0.00
 7 -6 5 -0.26 0.00
 7 -6 6 -0.72 0.00
 7 -6 7 -0.05 0.00
 7 -6 8 0.77 0.00
 7 -6 9 0.52 0.00
 7 -6 10 -0.52 0.00
 7 -6 11 -0.93 0.00
 7 -6 12 -0.33 0.00
 7 -6 13 0.27 0.00
 7 -6 14 0.31 0.00
 7 -6 15 0.23 0.00
 7 -6 16 0.22 0.00
 -6 5 18 0.54 0.00
 -6 5 17 0.09 0.00
 -6 5 16 -0.22 0.00
 -6 5 15 0.09 0.00
 -6 5 14 0.65 0.00
 -6 5 13 0.46 0.00
 -6 5 12 -0.64 0.00
 -6 5 11 -0.81 0.00
 -6 5 10 0.41 0.00
 -6 5 9 0.63 0.00
 -6 5 8 -0.57 0.00
 -6 5 7 -0.53 0.00
 -6 5 6 0.72 0.00
 -6 5 5 -0.15 0.00
 -6 5 4 -1.94 0.00
 -6 5 3 0.24 0.00
 -6 5 2 3.56 0.00
 -6 5 1 1.88 0.00
 -6 5 0 -1.65 0.00
 6 -5 1 -2.10 0.00
 6 -5 2 -0.98 0.00
 6 -5 3 0.26 0.00
 6 -5 4 1.34 0.00
 6 -5 5 0.69 0.00
 6 -5 6 -0.83 0.00
 6 -5 7 -0.50 0.00
 6 -5 8 1.05 0.00
 6 -5 9 1.18 0.00
 6 -5 10 0.06 0.00
 6 -5 11 -0.54 0.00
 6 -5 12 -0.44 0.00
 6 -5 13 -0.16 0.00
 6 -5 14 0.06 0.00
 6 -5 15 0.03 0.00
 6 -5 16 -0.02 0.00
 6 -5 17 0.09 0.00
 -5 4 18 0.23 0.00
 -5 4 17 0.09 0.00
 -5 4 16 0.00 0.00
 -5 4 15 -0.15 0.00
 -5 4 14 0.17 0.00
 -5 4 13 0.57 0.00
 -5 4 12 0.02 0.00
 -5 4 11 -0.33 0.00
 -5 4 10 0.48 0.00
 -5 4 9 0.64 0.00
 -5 4 8 -0.64 0.00
 -5 4 7 -0.60 0.00
 -5 4 6 1.53 0.00
 -5 4 5 0.82 0.00
 -5 4 4 -3.65 0.00
 -5 4 3 -3.60 0.00
 -5 4 2 2.61 0.00
 -5 4 1 5.68 0.00
 -5 4 0 2.77 0.00
 5 -4 1 -1.00 0.00
 5 -4 2 -1.93 0.00
 5 -4 3 0.78 0.00
 5 -4 4 2.64 0.00
 5 -4 5 -0.80 0.00
 5 -4 6 -4.16 0.00
 5 -4 7 -1.94 0.00
 5 -4 8 1.41 0.00
 5 -4 9 1.17 0.00
 5 -4 10 -0.45 0.00
 5 -4 11 -0.31 0.00
 5 -4 12 0.71 0.00
 5 -4 13 0.55 0.00
 5 -4 14 -0.16 0.00
 5 -4 15 -0.21 0.00
 5 -4 16 -0.15 0.00
 5 -4 17 -0.12 0.00
 5 -4 18 0.20 0.00
 -4 3 19 0.09 0.00
 -4 3 18 0.15 0.00
 -4 3 17 0.16 0.00
 -4 3 16 -0.22 0.00
 -4 3 15 -0.48 0.00
 -4 3 14 0.54 0.00
 -4 3 13 1.11 0.00
 -4 3 12 -0.19 0.00
 -4 3 11 -0.98 0.00
 -4 3 10 -0.66 0.00
 -4 3 9 -0.63 0.00
 -4 3 8 0.65 0.00
 -4 3 7 3.23 0.00
 -4 3 6 3.34 0.00
 -4 3 5 1.01 0.00
 -4 3 4 -0.38 0.00
 -4 3 3 -1.96 0.00
 -4 3 2 -6.48 0.00
 -4 3 1 -7.44 0.00
 -4 3 0 0.63 0.00
 4 -3 1 5.15 0.00
 4 -3 2 -0.53 0.00
 4 -3 3 0.27 0.00
 4 -3 4 9.98 0.00
 4 -3 5 8.94 0.00
 4 -3 6 -2.19 0.00
 4 -3 7 -5.68 0.00
 4 -3 8 -1.39 0.00
 4 -3 9 0.68 0.00
 4 -3 10 -0.05 0.00
 4 -3 11 -0.40 0.00
 4 -3 12 -0.29 0.00
 4 -3 13 -0.15 0.00
 4 -3 14 -0.04 0.00
 4 -3 15 -0.08 0.00
 4 -3 16 -0.22 0.00
 4 -3 17 -0.26 0.00
 4 -3 18 0.04 0.00
 -3 2 19 -0.30 0.00
 -3 2 18 -0.11 0.00
 -3 2 17 0.47 0.00
 -3 2 16 0.35 0.00
 -3 2 15 -0.09 0.00
 -3 2 14 0.03 0.00
 -3 2 13 -0.03 0.00
 -3 2 12 -0.37 0.00
 -3 2 11 0.47 0.00
 -3 2 10 0.81 0.00
 -3 2 9 -1.87 0.00
 -3 2 8 -2.78 0.00
 -3 2 7 1.42 0.00
 -3 2 6 2.28 0.00
 -3 2 5 -2.96 0.00
 -3 2 4 -0.38 0.00
 -3 2 3 12.11 0.00
 -3 2 2 12.46 0.00
 -3 2 1 -1.81 0.00
 -3 2 0 -6.10 0.00
 3 -2 1 -2.68 0.00
 3 -2 2 -9.69 0.00
 3 -2 3 -13.06 0.00
 3 -2 4 -1.09 0.00
 3 -2 5 7.21 0.00
 3 -2 6 4.39 0.00
 3 -2 7 2.08 0.00
 3 -2 8 1.64 0.00
 3 -2 9 -0.36 0.00
 3 -2 10 -0.79 0.00
 3 -2 11 0.71 0.00
 3 -2 12 0.71 0.00
 3 -2 13 -0.41 0.00
 3 -2 14 -0.55 0.00
 3 -2 15 -0.12 0.00
 3 -2 16 0.01 0.00
 3 -2 17 -0.02 0.00
 3 -2 18 -0.16 0.00
 3 -2 19 -0.23 0.00
 -2 1 20 0.06 0.00
 -2 1 19 0.11 0.00
 -2 1 18 0.55 0.00
 -2 1 17 0.41 0.00
 -2 1 16 -0.54 0.00
 -2 1 15 -0.33 0.00
 -2 1 14 0.87 0.00
 -2 1 13 0.75 0.00
 -2 1 12 -0.39 0.00
 -2 1 11 -0.35 0.00
 -2 1 10 0.28 0.00
 -2 1 9 -0.63 0.00
 -2 1 8 -0.80 0.00
 -2 1 7 2.22 0.00
 -2 1 6 3.68 0.00
 -2 1 5 -0.15 0.00
 -2 1 4 -7.11 0.00
 -2 1 3 -19.45 0.00
 -2 1 2 -28.31 0.00
 -2 1 1 -1.16 0.00
 -2 1 0 51.15 0.00
 2 -1 1 54.71 0.00
 2 -1 2 0.25 0.00
 2 -1 3 -30.04 0.00
 2 -1 4 -11.24 0.00
 2 -1 5 2.55 0.00
 2 -1 6 -4.58 0.00
 2 -1 7 -5.68 0.00
 2 -1 8 1.69 0.00
 2 -1 9 3.56 0.00
 2 -1 10 0.71 0.00
 2 -1 11 -0.63 0.00
 2 -1 12 -0.38 0.00
 2 -1 13 -0.10 0.00
 2 -1 14 0.07 0.00
 2 -1 15 0.18 0.00
 2 -1 16 0.23 0.00
 2 -1 17 0.04 0.00
 2 -1 18 -0.24 0.00
 2 -1 19 -0.25 0.00
 -1 0 20 -0.15 0.00
 -1 0 19 -0.13 0.00
 -1 0 18 0.56 0.00
 -1 0 17 0.68 0.00
 -1 0 16 0.01 0.00
 -1 0 15 -0.41 0.00
 -1 0 14 -0.14 0.00
 -1 0 13 0.21 0.00
 -1 0 12 0.20 0.00
 -1 0 11 0.17 0.00
 -1 0 10 -0.69 0.00
 -1 0 9 -2.05 0.00
 -1 0 8 0.65 0.00
 -1 0 7 4.68 0.00
 -1 0 6 0.56 0.00
 -1 0 5 3.27 0.00
 -1 0 4 29.81 0.00
 -1 0 3 25.42 0.00
 1 0 1 78.51 0.00
 1 0 2 58.17 0.00
 1 0 3 -7.68 0.00
 1 0 4 -15.81 0.00
 1 0 5 3.74 0.00
 1 0 6 4.36 0.00
 1 0 7 -2.62 0.00
 1 0 8 -2.92 0.00
 1 0 9 -0.57 0.00
 1 0 10 0.42 0.00
 1 0 11 0.15 0.00
 1 0 12 -0.33 0.00
 1 0 13 -0.26 0.00
 1 0 14 0.07 0.00
 1 0 15 0.09 0.00
 1 0 16 -0.11 0.00
 1 0 17 -0.27 0.00
 1 0 18 -0.25 0.00
 1 0 19 -0.08 0.00
 0 -1 20 -0.24 0.00
 0 -1 19 0.07 0.00
 0 -1 18 0.65 0.00
 0 -1 17 0.51 0.00
 0 -1 16 -0.12 0.00
 0 -1 15 -0.05 0.00
 0 -1 14 0.45 0.00
 0 -1 13 -0.03 0.00
 0 -1 12 -0.56 0.00
 0 -1 11 0.91 0.00
 0 -1 10 0.63 0.00
 0 -1 9 -4.87 0.00
 0 -1 8 -6.35 0.00
 0 -1 7 1.58 0.00
 0 -1 6 2.27 0.00
 0 -1 5 -5.42 0.00
 0 -1 4 10.87 0.00
 0 -1 3 39.02 0.00
 0 -1 2 17.55 0.00
 0 1 2 9.53 0.00
 0 1 3 -1.48 0.00
 0 1 4 -1.59 0.00
 0 1 5 1.00 0.00
 0 1 6 -0.81 0.00
 0 1 7 0.53 0.00
 0 1 8 2.67 0.00
 0 1 9 1.21 0.00
 0 1 10 -0.46 0.00
 0 1 11 -0.40 0.00
 0 1 12 -0.11 0.00
 0 1 13 -0.23 0.00
 0 1 14 -0.10 0.00
 0 1 15 0.43 0.00
 0 1 16 0.33 0.00
 0 1 17 -0.28 0.00
 0 1 18 -0.42 0.00
 0 1 19 -0.33 0.00
 1 -2 20 -0.45 0.00
 1 -2 19 -0.28 0.00
 1 -2 18 0.24 0.00
 1 -2 17 0.35 0.00
 1 -2 16 -0.28 0.00
 1 -2 15 -0.37 0.00
 1 -2 14 1.00 0.00
 1 -2 13 1.38 0.00
 1 -2 12 -0.31 0.00
 1 -2 11 -0.39 0.00
 1 -2 10 1.63 0.00
 1 -2 9 1.58 0.00
 1 -2 8 -0.50 0.00
 1 -2 7 -3.08 0.00
 1 -2 6 -7.68 0.00
 1 -2 5 -6.34 0.00
 1 -2 4 7.19 0.00
 1 -2 3 6.12 0.00
 1 -2 2 -22.46 0.00
 1 -2 1 -25.35 0.00
 -1 2 0 20.00 0.00
 -1 2 1 43.55 0.00
 -1 2 2 12.62 0.00
 -1 2 3 -14.61 0.00
 -1 2 4 -8.53 0.00
 -1 2 5 -0.30 0.00
 -1 2 6 -3.40 0.00
 -1 2 7 -3.60 0.00
 -1 2 8 0.79 0.00
 -1 2 9 1.91 0.00
 -1 2 10 0.42 0.00
 -1 2 11 -0.19 0.00
 -1 2 12 -0.19 0.00
 -1 2 13 -0.04 0.00
 -1 2 14 0.37 0.00
 -1 2 15 0.27 0.00
 -1 2 16 -0.38 0.00
 -1 2 17 -0.40 0.00
 -1 2 18 0.11 0.00
 -1 2 19 0.08 0.00
 2 -3 19 -0.73 0.00
 2 -3 18 -0.21 0.00
 2 -3 17 0.40 0.00
 2 -3 16 0.03 0.00
 2 -3 15 -0.61 0.00
 2 -3 14 -0.27 0.00
 2 -3 13 0.26 0.00
 2 -3 12 0.03 0.00
 2 -3 11 0.21 0.00
 2 -3 10 0.05 0.00
 2 -3 9 -1.09 0.00
 2 -3 8 2.04 0.00
 2 -3 7 7.89 0.00
 2 -3 6 2.82 0.00
 2 -3 5 -7.74 0.00
 2 -3 4 0.63 0.00
 2 -3 3 15.09 0.00
 2 -3 2 -1.82 0.00
 2 -3 1 -31.41 0.00
 -2 3 0 -25.32 0.00
 -2 3 1 5.11 0.00
 -2 3 2 17.47 0.00
 -2 3 3 10.17 0.00
 -2 3 4 3.64 0.00
 -2 3 5 0.90 0.00
 -2 3 6 -2.21 0.00
 -2 3 7 -3.26 0.00
 -2 3 8 -1.43 0.00
 -2 3 9 0.04 0.00
 -2 3 10 0.60 0.00
 -2 3 11 0.98 0.00
 -2 3 12 0.05 0.00
 -2 3 13 -1.16 0.00
 -2 3 14 -0.40 0.00
 -2 3 15 0.59 0.00
 -2 3 16 0.15 0.00
 -2 3 17 -0.31 0.00
 -2 3 18 -0.39 0.00
 -2 3 19 -0.31 0.00
 3 -4 19 -0.08 0.00
 3 -4 18 -0.05 0.00
 3 -4 17 0.00 0.00
 3 -4 16 -0.03 0.00
 3 -4 15 0.18 0.00
 3 -4 14 0.51 0.00
 3 -4 13 0.24 0.00
 3 -4 12 -0.79 0.00
 3 -4 11 -1.02 0.00
 3 -4 10 -0.18 0.00
 3 -4 9 -1.00 0.00
 3 -4 8 -1.96 0.00
 3 -4 7 1.25 0.00
 3 -4 6 3.07 0.00
 3 -4 5 -1.87 0.00
 3 -4 4 -3.31 0.00
 3 -4 3 4.23 0.00
 3 -4 2 9.05 0.00
 3 -4 1 5.29 0.00
 -3 4 0 -2.17 0.00
 -3 4 1 -8.63 0.00
 -3 4 2 -7.47 0.00
 -3 4 3 1.10 0.00
 -3 4 4 4.89 0.00
 -3 4 5 0.45 0.00
 -3 4 6 -2.32 0.00
 -3 4 7 0.04 0.00
 -3 4 8 1.57 0.00
 -3 4 9 0.19 0.00
 -3 4 10 -0.49 0.00
 -3 4 11 0.39 0.00
 -3 4 12 0.38 0.00
 -3 4 13 -0.27 0.00
 -3 4 14 -0.03 0.00
 -3 4 15 0.14 0.00
 -3 4 16 -0.06 0.00
 -3 4 17 -0.10 0.00
 -3 4 18 -0.59 0.00
 4 -5 18 0.21 0.00
 4 -5 17 0.11 0.00
 4 -5 16 -0.04 0.00
 4 -5 15 -0.24 0.00
 4 -5 14 -0.35 0.00
 4 -5 13 0.17 0.00
 4 -5 12 0.95 0.00
 4 -5 11 1.16 0.00
 4 -5 10 0.16 0.00
 4 -5 9 -1.26 0.00
 4 -5 8 -0.48 0.00
 4 -5 7 1.87 0.00
 4 -5 6 0.87 0.00
 4 -5 5 -3.24 0.00
 4 -5 4 -4.08 0.00
 4 -5 3 -1.49 0.00
 4 -5 2 0.13 0.00
 4 -5 1 2.35 0.00
 -4 5 0 4.16 0.00
 -4 5 1 0.21 0.00
 -4 5 2 -3.76 0.00
 -4 5 3 -0.62 0.00
 -4 5 4 2.73 0.00
 -4 5 5 0.65 0.00
 -4 5 6 -1.85 0.00
 -4 5 7 -1.34 0.00
 -4 5 8 -0.16 0.00
 -4 5 9 -0.07 0.00
 -4 5 10 0.09 0.00
 -4 5 11 0.90 0.00
 -4 5 12 0.62 0.00
 -4 5 13 -0.56 0.00
 -4 5 14 -0.55 0.00
 -4 5 15 0.15 0.00
 -4 5 16 0.45 0.00
 -4 5 17 0.37 0.00
 -4 5 18 -0.21 0.00
 5 -6 18 0.45 0.00
 5 -6 17 0.34 0.00
 5 -6 16 0.08 0.00
 5 -6 15 -0.21 0.00
 5 -6 14 -0.75 0.00
 5 -6 13 -0.90 0.00
 5 -6 12 -0.33 0.00
 5 -6 11 0.43 0.00
 5 -6 10 0.74 0.00
 5 -6 9 0.06 0.00
 5 -6 8 -0.45 0.00
 5 -6 7 0.72 0.00
 5 -6 6 1.63 0.00
 5 -6 5 0.23 0.00
 5 -6 4 -1.38 0.00
 5 -6 3 -1.68 0.00
 5 -6 2 -1.20 0.00
 5 -6 1 0.65 0.00
 -5 6 0 1.77 0.00
 -5 6 1 -0.10 0.00
 -5 6 2 -0.75 0.00
 -5 6 3 1.13 0.00
 -5 6 4 0.70 0.00
 -5 6 5 -1.26 0.00
 -5 6 6 -0.91 0.00
 -5 6 7 0.38 0.00
 -5 6 8 0.43 0.00
 -5 6 9 -0.17 0.00
 -5 6 10 -0.30 0.00
 -5 6 11 -0.07 0.00
 -5 6 12 -0.16 0.00
 -5 6 13 -0.27 0.00
 -5 6 14 -0.08 0.00
 -5 6 15 -0.02 0.00
 -5 6 16 0.05 0.00
 -5 6 17 0.06 0.00
 6 -7 17 0.32 0.00
 6 -7 16 0.48 0.00
 6 -7 15 0.36 0.00
 6 -7 14 0.09 0.00
 6 -7 13 -0.22 0.00
 6 -7 12 -0.33 0.00
 6 -7 11 -0.27 0.00
 6 -7 10 -0.50 0.00
 6 -7 9 -0.72 0.00
 6 -7 8 -0.26 0.00
 6 -7 7 0.41 0.00
 6 -7 6 0.48 0.00
 6 -7 5 0.29 0.00
 6 -7 4 0.34 0.00
 6 -7 3 -0.14 0.00
 6 -7 2 -1.11 0.00
 6 -7 1 -0.62 0.00
 -6 7 0 0.33 0.00
 -6 7 1 -0.50 0.00
 -6 7 2 -0.88 0.00
 -6 7 3 0.22 0.00
 -6 7 4 0.38 0.00
 -6 7 5 -0.13 0.00
 -6 7 6 0.20 0.00
 -6 7 7 0.75 0.00
 -6 7 8 0.39 0.00
 -6 7 9 -0.50 0.00
 -6 7 10 -0.38 0.00
 -6 7 11 0.37 0.00
 -6 7 12 0.15 0.00
 -6 7 13 -0.23 0.00
 -6 7 14 0.02 0.00
 -6 7 15 -0.27 0.00
 -6 7 16 -0.76 0.00
 7 -8 16 0.02 0.00
 7 -8 15 0.12 0.00
 7 -8 14 0.06 0.00
 7 -8 13 0.11 0.00
 7 -8 12 0.41 0.00
 7 -8 11 0.52 0.00
 7 -8 10 0.01 0.00
 7 -8 9 -0.58 0.00
 7 -8 8 -0.47 0.00
 7 -8 7 0.00 0.00
 7 -8 6 -0.16 0.00
 7 -8 5 -0.58 0.00
 7 -8 4 -0.16 0.00
 7 -8 3 0.29 0.00
 7 -8 2 -0.36 0.00
 7 -8 1 -0.54 0.00
 -7 8 0 0.57 0.00
 -7 8 1 1.11 0.00
 -7 8 2 0.49 0.00
 -7 8 3 -0.11 0.00
 -7 8 4 -0.54 0.00
 -7 8 5 -1.15 0.00
 -7 8 6 -0.96 0.00
 -7 8 7 0.44 0.00
 -7 8 8 1.09 0.00
 -7 8 9 0.58 0.00
 -7 8 10 0.26 0.00
 -7 8 11 -0.09 0.00
 -7 8 12 -0.46 0.00
 -7 8 13 -0.17 0.00
 -7 8 14 0.17 0.00
 -7 8 15 0.20 0.00
 8 -9 15 0.10 0.00
 8 -9 14 -0.16 0.00
 8 -9 13 -0.46 0.00
 8 -9 12 -0.15 0.00
 8 -9 11 0.57 0.00
 8 -9 10 0.61 0.00
 8 -9 9 0.10 0.00
 8 -9 8 0.33 0.00
 8 -9 7 0.76 0.00
 8 -9 6 0.23 0.00
 8 -9 5 -0.24 0.00
 8 -9 4 0.07 0.00
 8 -9 3 0.01 0.00
 8 -9 2 -0.60 0.00
 8 -9 1 -0.78 0.00
 -8 9 0 -0.63 0.00
 -8 9 1 -0.36 0.00
 -8 9 2 -0.06 0.00
 -8 9 3 -0.03 0.00
 -8 9 4 0.20 0.00
 -8 9 5 0.44 0.00
 -8 9 6 0.19 0.00
 -8 9 7 0.16 0.00
 -8 9 8 0.32 0.00
 -8 9 9 0.09 0.00
 -8 9 10 -0.12 0.00
 -8 9 11 -0.09 0.00
 -8 9 12 0.24 0.00
 -8 9 13 0.43 0.00
 -8 9 14 -0.14 0.00
 9 -10 13 -0.13 0.00
 9 -10 12 -0.25 0.00
 9 -10 11 -0.38 0.00
 9 -10 10 -0.04 0.00
 9 -10 9 0.17 0.00
 9 -10 8 0.09 0.00
 9 -10 7 0.08 0.00
 9 -10 6 -0.05 0.00
 9 -10 5 0.02 0.00
 9 -10 4 0.34 0.00
 9 -10 3 0.32 0.00
 9 -10 2 0.31 0.00
 9 -10 1 0.55 0.00
 -9 10 0 0.33 0.00
 -9 10 1 -0.08 0.00
 -9 10 2 0.06 0.00
 -9 10 3 0.17 0.00
 -9 10 4 -0.52 0.00
 -9 10 5 -1.16 0.00
 -9 10 6 -0.67 0.00
 -9 10 7 0.21 0.00
 -9 10 8 0.68 0.00
 -9 10 9 0.94 0.00
 -9 10 10 0.41 0.00
 -9 10 11 -0.57 0.00
 10 -11 11 -0.05 0.00
 10 -11 10 -0.06 0.00
 10 -11 9 0.13 0.00
 10 -11 8 0.21 0.00
 10 -11 7 0.21 0.00
 10 -11 6 0.06 0.00
 10 -11 5 -0.23 0.00
 10 -11 4 -0.17 0.00
 10 -11 3 0.19 0.00
 10 -11 2 0.10 0.00
 10 -11 1 -0.32 0.00
 -10 11 0 -0.33 0.00
 -10 11 1 0.03 0.00
 -10 11 2 0.29 0.00
 -10 11 3 0.48 0.00
 -10 11 4 0.53 0.00
 -10 11 5 0.33 0.00
 -10 11 6 0.32 0.00
 -10 11 7 0.23 0.00
 -10 11 8 -0.16 0.00
 -10 11 9 0.07 0.00
 -10 11 10 0.55 0.00
 11 -12 8 -0.09 0.00
 11 -12 7 0.03 0.00
 11 -12 6 0.13 0.00
 11 -12 5 0.15 0.00
 11 -12 4 -0.04 0.00
 11 -12 3 -0.05 0.00
 11 -12 2 0.14 0.00
 11 -12 1 0.21 0.00
 -11 12 0 0.20 0.00
 -11 12 1 -0.02 0.00
 -11 12 2 -0.10 0.00
 -11 12 3 0.13 0.00
 -11 12 4 -0.23 0.00
 -11 12 5 -0.68 0.00
 -11 12 6 0.01 0.00
 -11 12 7 0.64 0.00
 12 -13 3 0.04 0.00
 12 -13 2 -0.35 0.00
 12 -13 1 -0.47 0.00
 -13 11 6 0.19 0.00
 -13 11 5 0.01 0.00
 -13 11 4 -0.18 0.00
 -13 11 3 -0.29 0.00
 -13 11 2 -0.09 0.00
 -13 11 1 -0.15 0.00
 -13 11 0 -0.30 0.00
 13 -11 1 -0.06 0.00
 13 -11 2 -0.03 0.00
 13 -11 3 -0.18 0.00
 13 -11 4 0.08 0.00
 13 -11 5 0.22 0.00
 -12 10 9 0.31 0.00
 -12 10 8 0.11 0.00
 -12 10 7 0.00 0.00
 -12 10 6 -0.40 0.00
 -12 10 5 0.00 0.00
 -12 10 4 0.32 0.00
 -12 10 3 -0.30 0.00
 -12 10 2 -0.23 0.00
 -12 10 1 0.37 0.00
 -12 10 0 0.18 0.00
 12 -10 1 0.00 0.00
 12 -10 2 0.21 0.00
 12 -10 3 0.00 0.00
 12 -10 4 -0.13 0.00
 12 -10 5 0.18 0.00
 12 -10 6 -0.01 0.00
 12 -10 7 -0.41 0.00
 12 -10 8 0.03 0.00
 12 -10 9 0.45 0.00
 -11 9 11 -0.26 0.00
 -11 9 10 -0.31 0.00
 -11 9 9 -0.28 0.00
 -11 9 8 -0.22 0.00
 -11 9 7 0.31 0.00
 -11 9 6 0.58 0.00
 -11 9 5 0.24 0.00
 -11 9 4 0.07 0.00
 -11 9 3 0.07 0.00
 -11 9 2 -0.15 0.00
 -11 9 1 -0.30 0.00
 -11 9 0 -0.23 0.00
 11 -9 1 -0.07 0.00
 11 -9 2 0.09 0.00
 11 -9 3 0.07 0.00
 11 -9 4 0.10 0.00
 11 -9 5 0.25 0.00
 11 -9 6 0.08 0.00
 11 -9 7 -0.06 0.00
 11 -9 8 0.14 0.00
 11 -9 9 0.15 0.00
 11 -9 10 0.06 0.00
 11 -9 11 0.25 0.00
 -10 8 13 -0.06 0.00
 -10 8 12 0.35 0.00
 -10 8 11 0.47 0.00
 -10 8 10 0.62 0.00
 -10 8 9 0.89 0.00
 -10 8 8 0.21 0.00
 -10 8 7 -1.02 0.00
 -10 8 6 -0.76 0.00
 -10 8 5 0.25 0.00
 -10 8 4 0.16 0.00
 -10 8 3 -0.29 0.00
 -10 8 2 -0.12 0.00
 -10 8 1 0.22 0.00
 -10 8 0 0.34 0.00
 10 -8 1 0.34 0.00
 10 -8 2 0.34 0.00
 10 -8 3 0.20 0.00
 10 -8 4 -0.18 0.00
 10 -8 5 -0.32 0.00
 10 -8 6 -0.08 0.00
 10 -8 7 0.04 0.00
 10 -8 8 0.03 0.00
 10 -8 9 0.04 0.00
 10 -8 10 -0.13 0.00
 10 -8 11 -0.27 0.00
 10 -8 12 0.04 0.00
 10 -8 13 0.35 0.00
 -9 7 15 0.31 0.00
 -9 7 14 0.12 0.00
 -9 7 13 0.22 0.00
 -9 7 12 0.39 0.00
 -9 7 11 -0.28 0.00
 -9 7 10 -0.67 0.00
 -9 7 9 0.24 0.00
 -9 7 8 0.77 0.00
 -9 7 7 0.16 0.00
 -9 7 6 -0.22 0.00
 -9 7 5 0.24 0.00
 -9 7 4 0.59 0.00
 -9 7 3 0.10 0.00
 -9 7 2 -0.55 0.00
 -9 7 1 -0.70 0.00
 -9 7 0 -0.61 0.00
 9 -7 1 -0.28 0.00
 9 -7 2 0.25 0.00
 9 -7 3 0.52 0.00
 9 -7 4 0.37 0.00
 9 -7 5 0.13 0.00
 9 -7 6 0.01 0.00
 9 -7 7 -0.11 0.00
 9 -7 8 -0.02 0.00
 9 -7 9 0.45 0.00
 9 -7 10 0.38 0.00
 9 -7 11 -0.39 0.00
 9 -7 12 -0.55 0.00
 9 -7 13 0.07 0.00
 9 -7 14 0.28 0.00
 -8 6 17 0.02 0.00
 -8 6 16 -0.27 0.00
 -8 6 15 -0.09 0.00
 -8 6 14 0.15 0.00
 -8 6 13 0.21 0.00
 -8 6 12 0.22 0.00
 -8 6 11 -0.13 0.00
 -8 6 10 0.28 0.00
 -8 6 9 1.29 0.00
 -8 6 8 0.52 0.00
 -8 6 7 -1.04 0.00
 -8 6 6 -1.13 0.00
 -8 6 5 -0.66 0.00
 -8 6 4 -0.13 0.00
 -8 6 3 0.87 0.00
 -8 6 2 1.19 0.00
 -8 6 1 0.36 0.00
 -8 6 0 -0.23 0.00
 8 -6 1 -0.10 0.00
 8 -6 2 -0.11 0.00
 8 -6 3 -0.18 0.00
 8 -6 4 0.08 0.00
 8 -6 5 0.22 0.00
 8 -6 6 -0.11 0.00
 8 -6 7 -0.56 0.00
 8 -6 8 -0.29 0.00
 8 -6 9 0.68 0.00
 8 -6 10 0.89 0.00
 8 -6 11 0.07 0.00
 8 -6 12 -0.39 0.00
 8 -6 13 -0.25 0.00
 8 -6 14 -0.25 0.00
 8 -6 15 -0.24 0.00
 -7 5 18 -0.25 0.00
 -7 5 17 0.07 0.00
 -7 5 16 -0.15 0.00
 -7 5 15 -0.41 0.00
 -7 5 14 -0.16 0.00
 -7 5 13 0.49 0.00
 -7 5 12 0.58 0.00
 -7 5 11 -0.44 0.00
 -7 5 10 -0.88 0.00
 -7 5 9 0.42 0.00
 -7 5 8 1.02 0.00
 -7 5 7 -0.18 0.00
 -7 5 6 -0.19 0.00
 -7 5 5 1.08 0.00
 -7 5 4 -0.13 0.00
 -7 5 3 -2.41 0.00
 -7 5 2 -1.43 0.00
 -7 5 1 0.84 0.00
 -7 5 0 0.92 0.00
 7 -5 1 0.11 0.00
 7 -5 2 -0.07 0.00
 7 -5 3 0.07 0.00
 7 -5 4 0.28 0.00
 7 -5 5 0.20 0.00
 7 -5 6 -0.49 0.00
 7 -5 7 -1.12 0.00
 7 -5 8 -0.61 0.00
 7 -5 9 0.46 0.00
 7 -5 10 0.66 0.00
 7 -5 11 0.29 0.00
 7 -5 12 0.11 0.00
 7 -5 13 -0.11 0.00
 7 -5 14 -0.30 0.00
 7 -5 15 -0.23 0.00
 7 -5 16 -0.08 0.00
 -6 4 18 -0.10 0.00
 -6 4 17 -0.03 0.00
 -6 4 16 0.07 0.00
 -6 4 15 0.10 0.00
 -6 4 14 -0.21 0.00
 -6 4 13 -0.22 0.00
 -6 4 12 0.30 0.00
 -6 4 11 0.37 0.00
 -6 4 10 -0.03 0.00
 -6 4 9 0.14 0.00
 -6 4 8 0.29 0.00
 -6 4 7 -0.62 0.00
 -6 4 6 -0.51 0.00
 -6 4 5 1.91 0.00
 -6 4 4 2.28 0.00
 -6 4 3 -1.21 0.00
 -6 4 2 -2.76 0.00
 -6 4 1 -0.24 0.00
 -6 4 0 1.35 0.00
 6 -4 1 -0.25 0.00
 6 -4 2 -1.96 0.00
 6 -4 3 -0.49 0.00
 6 -4 4 2.98 0.00
 6 -4 5 3.74 0.00
 6 -4 6 0.60 0.00
 6 -4 7 -2.19 0.00
 6 -4 8 -1.58 0.00
 6 -4 9 0.43 0.00
 6 -4 10 0.65 0.00
 6 -4 11 -0.45 0.00
 6 -4 12 -0.43 0.00
 6 -4 13 0.27 0.00
 6 -4 14 0.06 0.00
 6 -4 15 -0.27 0.00
 6 -4 16 -0.14 0.00
 6 -4 17 -0.17 0.00
 -5 3 19 0.13 0.00
 -5 3 18 0.11 0.00
 -5 3 17 0.01 0.00
 -5 3 16 0.00 0.00
 -5 3 15 -0.34 0.00
 -5 3 14 -0.45 0.00
 -5 3 13 0.33 0.00
 -5 3 12 0.76 0.00
 -5 3 11 0.23 0.00
 -5 3 10 -0.02 0.00
 -5 3 9 -0.51 0.00
 -5 3 8 -2.01 0.00
 -5 3 7 -1.77 0.00
 -5 3 6 0.99 0.00
 -5 3 5 1.97 0.00
 -5 3 4 0.02 0.00
 -5 3 3 0.12 0.00
 -5 3 2 3.14 0.00
 -5 3 1 3.21 0.00
 -5 3 0 0.37 0.00
 5 -3 1 -1.42 0.00
 5 -3 2 -5.09 0.00
 5 -3 3 -9.07 0.00
 5 -3 4 -4.16 0.00
 5 -3 5 5.29 0.00
 5 -3 6 6.27 0.00
 5 -3 7 0.89 0.00
 5 -3 8 -1.24 0.00
 5 -3 9 -0.13 0.00
 5 -3 10 0.33 0.00
 5 -3 11 0.11 0.00
 5 -3 12 0.11 0.00
 5 -3 13 0.31 0.00
 5 -3 14 0.34 0.00
 5 -3 15 0.04 0.00
 5 -3 16 -0.24 0.00
 5 -3 17 -0.27 0.00
 5 -3 18 -0.13 0.00
 -4 2 19 0.30 0.00
 -4 2 18 -0.34 0.00
 -4 2 17 -0.28 0.00
 -4 2 16 0.10 0.00
 -4 2 15 -0.08 0.00
 -4 2 14 -0.08 0.00
 -4 2 13 0.42 0.00
 -4 2 12 -0.07 0.00
 -4 2 11 -0.92 0.00
 -4 2 10 0.73 0.00
 -4 2 9 2.18 0.00
 -4 2 8 -0.91 0.00
 -4 2 7 -2.73 0.00
 -4 2 6 1.64 0.00
 -4 2 5 2.45 0.00
 -4 2 4 -6.49 0.00
 -4 2 3 -11.46 0.00
 -4 2 2 -2.61 0.00
 -4 2 1 7.87 0.00
 -4 2 0 11.29 0.00
 4 -2 1 11.94 0.00
 4 -2 2 6.37 0.00
 4 -2 3 -5.38 0.00
 4 -2 4 -8.81 0.00
 4 -2 5 -2.75 0.00
 4 -2 6 -0.29 0.00
 4 -2 7 -1.29 0.00
 4 -2 8 0.44 0.00
 4 -2 9 1.51 0.00
 4 -2 10 -0.29 0.00
 4 -2 11 -1.00 0.00
 4 -2 12 0.16 0.00
 4 -2 13 0.72 0.00
 4 -2 14 0.42 0.00
 4 -2 15 0.09 0.00
 4 -2 16 -0.18 0.00
 4 -2 17 -0.15 0.00
 4 -2 18 0.18 0.00
 -3 1 20 0.19 0.00
 -3 1 19 0.03 0.00
 -3 1 18 -0.15 0.00
 -3 1 17 0.49 0.00
 -3 1 16 0.38 0.00
 -3 1 15 -0.71 0.00
 -3 1 14 -0.61 0.00
 -3 1 13 0.64 0.00
 -3 1 12 0.80 0.00
 -3 1 11 -0.35 0.00
 -3 1 10 -0.58 0.00
 -3 1 9 -0.52 0.00
 -3 1 8 -2.14 0.00
 -3 1 7 -1.92 0.00
 -3 1 6 3.04 0.00
 -3 1 5 8.55 0.00
 -3 1 4 11.39 0.00
 -3 1 3 7.71 0.00
 -3 1 2 -13.53 0.00
 -3 1 1 -40.65 0.00
 -3 1 0 -31.16 0.00
 3 -1 1 13.16 0.00
 3 -1 2 31.31 0.00
 3 -1 3 8.82 0.00
 3 -1 4 -4.95 0.00
 3 -1 5 3.87 0.00
 3 -1 6 5.97 0.00
 3 -1 7 -2.54 0.00
 3 -1 8 -4.75 0.00
 3 -1 9 -0.78 0.00
 3 -1 10 1.01 0.00
 3 -1 11 0.39 0.00
 3 -1 12 -0.31 0.00
 3 -1 13 -0.49 0.00
 3 -1 14 -0.21 0.00
 3 -1 15 -0.15 0.00
 3 -1 16 -0.29 0.00
 3 -1 17 -0.11 0.00
 3 -1 18 0.07 0.00
 3 -1 19 0.02 0.00
 -2 0 20 0.36 0.00
 -2 0 19 -0.36 0.00
 -2 0 18 -0.67 0.00
 -2 0 17 -0.01 0.00
 -2 0 16 0.41 0.00
 -2 0 15 0.25 0.00
 -2 0 14 -0.04 0.00
 -2 0 13 -0.14 0.00
 -2 0 12 -0.14 0.00
 -2 0 11 0.50 0.00
 -2 0 10 1.65 0.00
 -2 0 9 -0.79 0.00
 -2 0 8 -5.88 0.00
 -2 0 7 -3.64 0.00
 -2 0 6 0.54 0.00
 -2 0 5 -8.74 0.00
 -2 0 4 -6.30 0.00
 -2 0 3 37.68 0.00
 -2 0 2 60.87 0.00
 -2 0 1 -2.98 0.00
 2 0 0 -70.18 0.00
 2 0 1 -41.46 0.00
 2 0 2 18.06 0.00
 2 0 3 18.62 0.00
 2 0 4 -6.52 0.00
 2 0 5 -6.53 0.00
 2 0 6 4.03 0.00
 2 0 7 4.77 0.00
 2 0 8 0.92 0.00
 2 0 9 -0.79 0.00
 2 0 10 -0.42 0.00
 2 0 11 0.29 0.00
 2 0 12 0.17 0.00
 2 0 13 -0.23 0.00
 2 0 14 -0.06 0.00
 2 0 15 0.14 0.00
 2 0 16 0.00 0.00
 2 0 17 -0.11 0.00
 2 0 18 -0.12 0.00
 2 0 19 -0.13 0.00
 -1 -1 20 0.06 0.00
 -1 -1 19 -0.34 0.00
 -1 -1 18 -0.18 0.00
 -1 -1 17 0.18 0.00
 -1 -1 16 -0.19 0.00
 -1 -1 15 -0.58 0.00
 -1 -1 14 0.12 0.00
 -1 -1 13 0.94 0.00
 -1 -1 12 -0.16 0.00
 -1 -1 11 -0.60 0.00
 -1 -1 10 3.53 0.00
 -1 -1 9 4.91 0.00
 -1 -1 8 -3.64 0.00
 -1 -1 7 -8.26 0.00
 -1 -1 6 -0.40 0.00
 -1 -1 5 -2.52 0.00
 -1 -1 4 -16.98 0.00
 -1 -1 3 -5.90 0.00
 -1 -1 2 22.72 0.00
 -1 -1 1 15.87 0.00
 1 1 0 -11.43 0.00
 1 1 1 -6.75 0.00
 1 1 2 11.66 0.00
 1 1 3 7.42 0.00
 1 1 4 -2.68 0.00
 1 1 5 -2.08 0.00
 1 1 6 -2.08 0.00
 1 1 7 -4.01 0.00
 1 1 8 -1.44 0.00
 1 1 9 1.30 0.00
 1 1 10 0.93 0.00
 1 1 11 0.13 0.00
 1 1 12 -0.14 0.00
 1 1 13 -0.30 0.00
 1 1 14 -0.28 0.00
 1 1 15 0.03 0.00
 1 1 16 0.37 0.00
 1 1 17 0.27 0.00
 1 1 18 0.12 0.00
 1 1 19 0.13 0.00
 0 -2 20 0.08 0.00
 0 -2 19 -0.45 0.00
 0 -2 18 -0.37 0.00
 0 -2 17 0.26 0.00
 0 -2 16 0.20 0.00
 0 -2 15 -0.99 0.00
 0 -2 14 -1.13 0.00
 0 -2 13 0.60 0.00
 0 -2 12 0.59 0.00
 0 -2 11 -1.38 0.00
 0 -2 10 -0.40 0.00
 0 -2 9 2.84 0.00
 0 -2 8 4.05 0.00
 0 -2 7 4.00 0.00
 0 -2 6 0.22 0.00
 0 -2 5 -8.30 0.00
 0 -2 4 -0.97 0.00
 0 -2 3 26.44 0.00
 0 -2 2 21.60 0.00
 0 -2 1 -33.14 0.00
 0 2 0 -58.14 0.00
 0 2 1 -13.56 0.00
 0 2 2 27.13 0.00
 0 2 3 17.46 0.00
 0 2 4 -0.46 0.00
 0 2 5 1.47 0.00
 0 2 6 3.95 0.00
 0 2 7 -1.09 0.00
 0 2 8 -2.80 0.00
 0 2 9 -0.52 0.00
 0 2 10 0.35 0.00
 0 2 11 0.04 0.00
 0 2 12 -0.16 0.00
 0 2 13 -0.34 0.00
 0 2 14 -0.10 0.00
 0 2 15 0.44 0.00
 0 2 16 0.30 0.00
 0 2 17 -0.32 0.00
 0 2 18 -0.23 0.00
 0 2 19 0.23 0.00
 1 -3 20 0.53 0.00
 1 -3 19 -0.02 0.00
 1 -3 18 -0.53 0.00
 1 -3 17 -0.11 0.00
 1 -3 16 0.38 0.00
 1 -3 15 -0.10 0.00
 1 -3 14 -0.48 0.00
 1 -3 13 0.14 0.00
 1 -3 12 -0.15 0.00
 1 -3 11 -0.96 0.00
 1 -3 10 -0.04 0.00
 1 -3 9 -1.25 0.00
 1 -3 8 -5.19 0.00
 1 -3 7 -1.28 0.00
 1 -3 6 7.04 0.00
 1 -3 5 -0.24 0.00
 1 -3 4 -11.48 0.00
 1 -3 3 7.16 0.00
 1 -3 2 35.23 0.00
 1 -3 1 21.55 0.00
 -1 3 0 -17.84 0.00
 -1 3 1 -28.22 0.00
 -1 3 2 -10.36 0.00
 -1 3 3 1.22 0.00
 -1 3 4 1.82 0.00
 -1 3 5 2.71 0.00
 -1 3 6 2.84 0.00
 -1 3 7 0.34 0.00
 -1 3 8 -1.01 0.00
 -1 3 9 -0.68 0.00
 -1 3 10 -0.27 0.00
 -1 3 11 0.39 0.00
 -1 3 12 0.84 0.00
 -1 3 13 0.11 0.00
 -1 3 14 -0.54 0.00
 -1 3 15 0.08 0.00
 -1 3 16 0.50 0.00
 -1 3 17 0.26 0.00
 -1 3 18 0.20 0.00
 2 -4 19 -0.12 0.00
 2 -4 18 0.01 0.00
 2 -4 17 0.17 0.00
 2 -4 16 -0.11 0.00
 2 -4 15 -0.60 0.00
 2 -4 14 -0.45 0.00
 2 -4 13 0.82 0.00
 2 -4 12 1.46 0.00
 2 -4 11 0.20 0.00
 2 -4 10 -0.02 0.00
 2 -4 9 1.27 0.00
 2 -4 8 -0.48 0.00
 2 -4 7 -2.88 0.00
 2 -4 6 -0.38 0.00
 2 -4 5 0.77 0.00
 2 -4 4 -4.27 0.00
 2 -4 3 -6.34 0.00
 2 -4 2 -1.54 0.00
 2 -4 1 3.70 0.00
 -2 4 0 6.98 0.00
 -2 4 1 6.02 0.00
 -2 4 2 -0.99 0.00
 -2 4 3 -5.26 0.00
 -2 4 4 -0.88 0.00
 -2 4 5 3.28 0.00
 -2 4 6 0.80 0.00
 -2 4 7 -2.10 0.00
 -2 4 8 -1.10 0.00
 -2 4 9 0.23 0.00
 -2 4 10 0.00 0.00
 -2 4 11 0.01 0.00
 -2 4 12 0.35 0.00
 -2 4 13 0.01 0.00
 -2 4 14 -0.10 0.00
 -2 4 15 0.30 0.00
 -2 4 16 0.13 0.00
 -2 4 17 0.10 0.00
 -2 4 18 0.40 0.00
 3 -5 19 -0.56 0.00
 3 -5 18 -0.27 0.00
 3 -5 17 0.29 0.00
 3 -5 16 0.44 0.00
 3 -5 15 0.14 0.00
 3 -5 14 -0.63 0.00
 3 -5 13 -1.01 0.00
 3 -5 12 -0.56 0.00
 3 -5 11 0.18 0.00
 3 -5 10 0.91 0.00
 3 -5 9 0.43 0.00
 3 -5 8 -0.81 0.00
 3 -5 7 0.80 0.00
 3 -5 6 4.04 0.00
 3 -5 5 2.78 0.00
 3 -5 4 -1.39 0.00
 3 -5 3 -1.81 0.00
 3 -5 2 -1.05 0.00
 3 -5 1 -2.73 0.00
 -3 5 0 -1.33 0.00
 -3 5 1 2.26 0.00
 -3 5 2 0.22 0.00
 -3 5 3 -3.27 0.00
 -3 5 4 -0.74 0.00
 -3 5 5 2.97 0.00
 -3 5 6 2.21 0.00
 -3 5 7 -0.20 0.00
 -3 5 8 -1.04 0.00
 -3 5 9 -0.93 0.00
 -3 5 10 -0.82 0.00
 -3 5 11 -0.19 0.00
 -3 5 12 0.73 0.00
 -3 5 13 0.47 0.00
 -3 5 14 -0.24 0.00
 -3 5 15 -0.22 0.00
 -3 5 16 -0.14 0.00
 -3 5 17 0.04 0.00
 -3 5 18 0.36 0.00
 4 -6 18 -0.34 0.00
 4 -6 17 0.08 0.00
 4 -6 16 0.34 0.00
 4 -6 15 0.67 0.00
 4 -6 14 0.55 0.00
 4 -6 13 0.11 0.00
 4 -6 12 -0.22 0.00
 4 -6 11 -0.78 0.00
 4 -6 10 -0.58 0.00
 4 -6 9 0.11 0.00
 4 -6 8 -0.81 0.00
 4 -6 7 -1.30 0.00
 4 -6 6 1.00 0.00
 4 -6 5 2.49 0.00
 4 -6 4 1.17 0.00
 4 -6 3 -0.27 0.00
 4 -6 2 -1.46 0.00
 4 -6 1 -1.65 0.00
 -4 6 0 1.23 0.00
 -4 6 1 2.39 0.00
 -4 6 2 -1.10 0.00
 -4 6 3 -2.14 0.00
 -4 6 4 0.99 0.00
 -4 6 5 1.64 0.00
 -4 6 6 -0.28 0.00
 -4 6 7 -0.46 0.00
 -4 6 8 0.46 0.00
 -4 6 9 0.43 0.00
 -4 6 10 -0.10 0.00
 -4 6 11 -0.15 0.00
 -4 6 12 0.12 0.00
 -4 6 13 0.07 0.00
 -4 6 14 -0.11 0.00
 -4 6 15 -0.07 0.00
 -4 6 16 0.05 0.00
 -4 6 17 0.09 0.00
 5 -7 17 -0.53 0.00
 5 -7 16 -0.29 0.00
 5 -7 15 0.04 0.00
 5 -7 14 0.17 0.00
 5 -7 13 0.29 0.00
 5 -7 12 0.53 0.00
 5 -7 11 0.73 0.00
 5 -7 10 0.42 0.00
 5 -7 9 -0.33 0.00
 5 -7 8 -0.69 0.00
 5 -7 7 -0.53 0.00
 5 -7 6 -0.38 0.00
 5 -7 5 -0.12 0.00
 5 -7 4 0.62 0.00
 5 -7 3 1.09 0.00
 5 -7 2 -0.12 0.00
 5 -7 1 -1.24 0.00
 -5 7 0 0.49 0.00
 -5 7 1 1.87 0.00
 -5 7 2 0.03 0.00
 -5 7 3 -1.38 0.00
 -5 7 4 -0.60 0.00
 -5 7 5 0.00 0.00
 -5 7 6 -0.15 0.00
 -5 7 7 -0.10 0.00
 -5 7 8 0.30 0.00
 -5 7 9 0.30 0.00
 -5 7 10 -0.26 0.00
 -5 7 11 -0.24 0.00
 -5 7 12 0.31 0.00
 -5 7 13 0.26 0.00
 -5 7 14 0.15 0.00
 -5 7 15 0.40 0.00
 -5 7 16 0.18 0.00
 6 -8 17 -0.14 0.00
 6 -8 16 -0.27 0.00
 6 -8 15 -0.24 0.00
 6 -8 14 -0.26 0.00
 6 -8 13 -0.32 0.00
 6 -8 12 -0.21 0.00
 6 -8 11 0.24 0.00
 6 -8 10 0.68 0.00
 6 -8 9 0.51 0.00
 6 -8 8 0.07 0.00
 6 -8 7 0.12 0.00
 6 -8 6 0.43 0.00
 6 -8 5 0.20 0.00
 6 -8 4 -0.27 0.00
 6 -8 3 -0.11 0.00
 6 -8 2 -0.16 0.00
 6 -8 1 -1.03 0.00
 -6 8 0 -1.00 0.00
 -6 8 1 0.13 0.00
 -6 8 2 0.84 0.00
 -6 8 3 1.04 0.00
 -6 8 4 0.94 0.00
 -6 8 5 0.23 0.00
 -6 8 6 -0.59 0.00
 -6 8 7 -0.75 0.00
 -6 8 8 -0.41 0.00
 -6 8 9 -0.03 0.00
 -6 8 10 0.49 0.00
 -6 8 11 0.64 0.00
 -6 8 12 0.05 0.00
 -6 8 13 -0.44 0.00
 -6 8 14 -0.30 0.00
 -6 8 15 0.14 0.00
 7 -9 16 -0.06 0.00
 7 -9 15 -0.13 0.00
 7 -9 14 0.06 0.00
 7 -9 13 0.05 0.00
 7 -9 12 -0.52 0.00
 7 -9 11 -0.57 0.00
 7 -9 10 -0.02 0.00
 7 -9 9 -0.28 0.00
 7 -9 8 -0.73 0.00
 7 -9 7 -0.09 0.00
 7 -9 6 0.57 0.00
 7 -9 5 0.47 0.00
 7 -9 4 0.53 0.00
 7 -9 3 0.87 0.00
 7 -9 2 0.68 0.00
 7 -9 1 -0.02 0.00
 -7 9 0 -0.49 0.00
 -7 9 1 -0.35 0.00
 -7 9 2 0.01 0.00
 -7 9 3 -0.15 0.00
 -7 9 4 -0.54 0.00
 -7 9 5 -0.27 0.00
 -7 9 6 0.08 0.00
 -7 9 7 0.09 0.00
 -7 9 8 0.15 0.00
 -7 9 9 0.19 0.00
 -7 9 10 0.15 0.00
 -7 9 11 -0.07 0.00
 -7 9 12 -0.27 0.00
 -7 9 13 0.15 0.00
 -7 9 14 0.49 0.00
 8 -10 14 -0.08 0.00
 8 -10 13 -0.22 0.00
 8 -10 12 0.16 0.00
 8 -10 11 0.22 0.00
 8 -10 10 0.02 0.00
 8 -10 9 -0.12 0.00
 8 -10 8 -0.19 0.00
 8 -10 7 -0.05 0.00
 8 -10 6 -0.20 0.00
 8 -10 5 -0.60 0.00
 8 -10 4 -0.25 0.00
 8 -10 3 0.34 0.00
 8 -10 2 0.09 0.00
 8 -10 1 -0.28 0.00
 -8 10 0 -0.13 0.00
 -8 10 1 0.12 0.00
 -8 10 2 0.47 0.00
 -8 10 3 0.86 0.00
 -8 10 4 0.81 0.00
 -8 10 5 0.17 0.00
 -8 10 6 -0.50 0.00
 -8 10 7 -0.59 0.00
 -8 10 8 -0.40 0.00
 -8 10 9 0.14 0.00
 -8 10 10 1.02 0.00
 -8 10 11 0.96 0.00
 -8 10 12 0.32 0.00
 9 -11 13 -0.20 0.00
 9 -11 12 -0.18 0.00
 9 -11 11 0.11 0.00
 9 -11 10 0.03 0.00
 9 -11 9 -0.16 0.00
 9 -11 8 0.04 0.00
 9 -11 7 0.41 0.00
 9 -11 6 0.42 0.00
 9 -11 5 0.02 0.00
 9 -11 4 -0.28 0.00
 9 -11 3 0.01 0.00
 9 -11 2 0.47 0.00
 9 -11 1 0.40 0.00
 -9 11 0 -0.21 0.00
 -9 11 1 -0.68 0.00
 -9 11 2 -0.60 0.00
 -9 11 3 -0.38 0.00
 -9 11 4 -0.28 0.00
 -9 11 5 -0.11 0.00
 -9 11 6 0.03 0.00
 -9 11 7 0.14 0.00
 -9 11 8 -0.04 0.00
 -9 11 9 -0.36 0.00
 -9 11 10 -0.13 0.00
 10 -12 10 -0.08 0.00
 10 -12 9 -0.02 0.00
 10 -12 8 -0.07 0.00
 10 -12 7 -0.08 0.00
 10 -12 6 0.02 0.00
 10 -12 5 0.15 0.00
 10 -12 4 -0.11 0.00
 10 -12 3 -0.33 0.00
 10 -12 2 -0.07 0.00
 10 -12 1 0.16 0.00
 -10 12 0 0.23 0.00
 -10 12 1 0.15 0.00
 -10 12 2 -0.14 0.00
 -10 12 3 0.11 0.00
 -10 12 4 0.51 0.00
 -10 12 5 -0.29 0.00
 -10 12 6 -1.06 0.00
 -10 12 7 -0.38 0.00
 -10 12 8 0.18 0.00
 11 -13 6 0.00 0.00
 11 -13 5 0.04 0.00
 11 -13 4 0.12 0.00
 11 -13 3 0.32 0.00
 11 -13 2 0.35 0.00
 11 -13 1 0.06 0.00
 -11 13 0 -0.04 0.00
 -11 13 1 0.16 0.00
 -11 13 2 -0.03 0.00
 -11 13 3 -0.54 0.00
 -11 13 4 -0.39 0.00
 -13 10 8 -0.22 0.00
 -13 10 7 0.07 0.00
 -13 10 6 0.12 0.00
 -13 10 5 -0.16 0.00
 -13 10 4 0.12 0.00
 -13 10 3 -0.02 0.00
 -13 10 2 -0.49 0.00
 -13 10 1 0.12 0.00
 -13 10 0 0.59 0.00
 13 -10 1 -0.01 0.00
 13 -10 2 -0.12 0.00
 13 -10 3 0.18 0.00
 13 -10 4 -0.04 0.00
 13 -10 5 0.04 0.00
 13 -10 6 0.45 0.00
 -12 9 10 0.45 0.00
 -12 9 9 0.19 0.00
 -12 9 8 -0.43 0.00
 -12 9 7 -0.60 0.00
 -12 9 6 -0.01 0.00
 -12 9 5 0.25 0.00
 -12 9 4 0.08 0.00
 -12 9 3 -0.10 0.00
 -12 9 2 -0.20 0.00
 -12 9 1 0.11 0.00
 -12 9 0 0.35 0.00
 12 -9 1 -0.06 0.00
 12 -9 2 -0.31 0.00
 12 -9 3 -0.27 0.00
 12 -9 4 -0.39 0.00
 12 -9 5 -0.14 0.00
 12 -9 6 0.15 0.00
 12 -9 7 -0.07 0.00
 12 -9 8 -0.04 0.00
 12 -9 9 0.18 0.00
 -11 8 13 -0.40 0.00
 -11 8 12 -0.39 0.00
 -11 8 11 -0.50 0.00
 -11 8 10 -0.29 0.00
 -11 8 9 0.36 0.00
 -11 8 8 0.84 0.00
 -11 8 7 0.43 0.00
 -11 8 6 -0.30 0.00
 -11 8 5 -0.19 0.00
 -11 8 4 0.31 0.00
 -11 8 3 0.07 0.00
 -11 8 2 -0.55 0.00
 -11 8 1 -0.68 0.00
 -11 8 0 -0.36 0.00
 11 -8 1 -0.02 0.00
 11 -8 2 0.22 0.00
 11 -8 3 0.30 0.00
 11 -8 4 0.18 0.00
 11 -8 5 0.01 0.00
 11 -8 6 -0.18 0.00
 11 -8 7 -0.29 0.00
 11 -8 8 -0.10 0.00
 11 -8 9 0.21 0.00
 11 -8 10 0.18 0.00
 11 -8 11 -0.18 0.00
 -10 7 15 -0.17 0.00
 -10 7 14 -0.28 0.00
 -10 7 13 -0.08 0.00
 -10 7 12 0.60 0.00
 -10 7 11 0.69 0.00
 -10 7 10 -0.08 0.00
 -10 7 9 -0.54 0.00
 -10 7 8 -0.28 0.00
 -10 7 7 0.12 0.00
 -10 7 6 0.21 0.00
 -10 7 5 0.02 0.00
 -10 7 4 0.21 0.00
 -10 7 3 0.67 0.00
 -10 7 2 0.58 0.00
 -10 7 1 -0.02 0.00
 -10 7 0 -0.50 0.00
 10 -7 1 -0.56 0.00
 10 -7 2 -0.47 0.00
 10 -7 3 -0.36 0.00
 10 -7 4 0.06 0.00
 10 -7 5 0.21 0.00
 10 -7 6 -0.19 0.00
 10 -7 7 -0.27 0.00
 10 -7 8 -0.15 0.00
 10 -7 9 -0.12 0.00
 10 -7 10 0.25 0.00
 10 -7 11 0.41 0.00
 10 -7 12 -0.05 0.00
 10 -7 13 -0.23 0.00
 -9 6 16 0.18 0.00
 -9 6 15 -0.24 0.00
 -9 6 14 -0.56 0.00
 -9 6 13 -0.56 0.00
 -9 6 12 -0.18 0.00
 -9 6 11 -0.06 0.00
 -9 6 10 -0.56 0.00
 -9 6 9 -0.12 0.00
 -9 6 8 0.97 0.00
 -9 6 7 0.62 0.00
 -9 6 6 -0.19 0.00
 -9 6 5 -0.12 0.00
 -9 6 4 -0.32 0.00
 -9 6 3 -0.75 0.00
 -9 6 2 -0.26 0.00
 -9 6 1 0.21 0.00
 -9 6 0 -0.21 0.00
 9 -6 1 -0.31 0.00
 9 -6 2 0.22 0.00
 9 -6 3 0.36 0.00
 9 -6 4 0.11 0.00
 9 -6 5 -0.03 0.00
 9 -6 6 0.01 0.00
 9 -6 7 -0.13 0.00
 9 -6 8 -0.70 0.00
 9 -6 9 -0.71 0.00
 9 -6 10 0.18 0.00
 9 -6 11 0.45 0.00
 9 -6 12 0.06 0.00
 9 -6 13 0.22 0.00
 9 -6 14 0.33 0.00
 -8 5 17 -0.10 0.00
 -8 5 16 0.17 0.00
 -8 5 15 0.02 0.00
 -8 5 14 -0.33 0.00
 -8 5 13 -0.33 0.00
 -8 5 12 0.25 0.00
 -8 5 11 0.65 0.00
 -8 5 10 -0.25 0.00
 -8 5 9 -1.05 0.00
 -8 5 8 -0.04 0.00
 -8 5 7 0.58 0.00
 -8 5 6 -0.33 0.00
 -8 5 5 0.21 0.00
 -8 5 4 1.91 0.00
 -8 5 3 1.33 0.00
 -8 5 2 -0.32 0.00
 -8 5 1 -0.57 0.00
 -8 5 0 -0.40 0.00
 8 -5 1 -0.59 0.00
 8 -5 2 -0.70 0.00
 8 -5 3 -0.29 0.00
 8 -5 4 0.70 0.00
 8 -5 5 1.15 0.00
 8 -5 6 0.64 0.00
 8 -5 7 -0.13 0.00
 8 -5 8 -0.72 0.00
 8 -5 9 -0.63 0.00
 8 -5 10 -0.07 0.00
 8 -5 11 0.09 0.00
 8 -5 12 0.08 0.00
 8 -5 13 0.28 0.00
 8 -5 14 0.30 0.00
 8 -5 15 -0.07 0.00
 -7 4 18 0.03 0.00
 -7 4 17 -0.08 0.00
 -7 4 16 -0.16 0.00
 -7 4 15 -0.02 0.00
 -7 4 14 0.29 0.00
 -7 4 13 -0.04 0.00
 -7 4 12 -0.68 0.00
 -7 4 11 -0.38 0.00
 -7 4 10 0.27 0.00
 -7 4 9 0.17 0.00
 -7 4 8 -0.02 0.00
 -7 4 7 -0.25 0.00
 -7 4 6 -1.31 0.00
 -7 4 5 -1.58 0.00
 -7 4 4 0.13 0.00
 -7 4 3 1.26 0.00
 -7 4 2 0.41 0.00
 -7 4 1 -0.18 0.00
 -7 4 0 0.92 0.00
 7 -4 1 1.49 0.00
 7 -4 2 -0.83 0.00
 7 -4 3 -3.32 0.00
 7 -4 4 -2.05 0.00
 7 -4 5 1.06 0.00
 7 -4 6 2.16 0.00
 7 -4 7 1.02 0.00
 7 -4 8 -0.53 0.00
 7 -4 9 -0.74 0.00
 7 -4 10 0.22 0.00
 7 -4 11 0.40 0.00
 7 -4 12 -0.11 0.00
 7 -4 13 0.10 0.00
 7 -4 14 0.41 0.00
 7 -4 15 0.04 0.00
 7 -4 16 -0.19 0.00
 -6 3 19 -0.05 0.00
 -6 3 18 0.17 0.00
 -6 3 17 0.14 0.00
 -6 3 16 -0.02 0.00
 -6 3 15 -0.23 0.00
 -6 3 14 -0.38 0.00
 -6 3 13 -0.31 0.00
 -6 3 12 -0.08 0.00
 -6 3 11 0.05 0.00
 -6 3 10 0.25 0.00
 -6 3 9 1.01 0.00
 -6 3 8 0.96 0.00
 -6 3 7 -1.11 0.00
 -6 3 6 -1.87 0.00
 -6 3 5 0.63 0.00
 -6 3 4 1.28 0.00
 -6 3 3 -2.53 0.00
 -6 3 2 -4.68 0.00
 -6 3 1 -1.48 0.00
 -6 3 0 3.31 0.00
 6 -3 1 6.21 0.00
 6 -3 2 5.19 0.00
 6 -3 3 -0.48 0.00
 6 -3 4 -5.45 0.00
 6 -3 5 -4.14 0.00
 6 -3 6 0.01 0.00
 6 -3 7 1.22 0.00
 6 -3 8 0.23 0.00
 6 -3 9 -0.20 0.00
 6 -3 10 -0.15 0.00
 6 -3 11 -0.22 0.00
 6 -3 12 -0.29 0.00
 6 -3 13 -0.16 0.00
 6 -3 14 0.28 0.00
 6 -3 15 0.56 0.00
 6 -3 16 0.32 0.00
 6 -3 17 -0.11 0.00
 -5 2 19 0.44 0.00
 -5 2 18 0.53 0.00
 -5 2 17 0.10 0.00
 -5 2 16 0.15 0.00
 -5 2 15 0.12 0.00
 -5 2 14 -0.35 0.00
 -5 2 13 -0.28 0.00
 -5 2 12 0.35 0.00
 -5 2 11 -0.37 0.00
 -5 2 10 -1.75 0.00
 -5 2 9 -0.07 0.00
 -5 2 8 1.99 0.00
 -5 2 7 -0.75 0.00
 -5 2 6 -2.49 0.00
 -5 2 5 3.35 0.00
 -5 2 4 7.76 0.00
 -5 2 3 0.82 0.00
 -5 2 2 -9.66 0.00
 -5 2 1 -12.02 0.00
 -5 2 0 -6.56 0.00
 5 -2 1 1.60 0.00
 5 -2 2 7.24 0.00
 5 -2 3 5.44 0.00
 5 -2 4 0.24 0.00
 5 -2 5 -0.26 0.00
 5 -2 6 1.40 0.00
 5 -2 7 -0.36 0.00
 5 -2 8 -1.91 0.00
 5 -2 9 -0.11 0.00
 5 -2 10 1.00 0.00
 5 -2 11 -0.33 0.00
 5 -2 12 -1.17 0.00
 5 -2 13 -0.71 0.00
 5 -2 14 -0.20 0.00
 5 -2 15 0.19 0.00
 5 -2 16 0.34 0.00
 5 -2 17 -0.04 0.00
 5 -2 18 -0.21 0.00
 -4 1 20 -0.51 0.00
 -4 1 19 0.11 0.00
 -4 1 18 -0.05 0.00
 -4 1 17 -0.20 0.00
 -4 1 16 0.44 0.00
 -4 1 15 0.37 0.00
 -4 1 14 -0.56 0.00
 -4 1 13 -0.72 0.00
 -4 1 12 0.42 0.00
 -4 1 11 1.12 0.00
 -4 1 10 0.51 0.00
 -4 1 9 0.34 0.00
 -4 1 8 -0.50 0.00
 -4 1 7 -3.91 0.00
 -4 1 6 -5.66 0.00
 -4 1 5 -2.47 0.00
 -4 1 4 3.15 0.00
 -4 1 3 11.36 0.00
 -4 1 2 18.04 0.00
 -4 1 1 7.71 0.00
 -4 1 0 -15.22 0.00
 4 -1 1 -19.61 0.00
 4 -1 2 -2.56 0.00
 4 -1 3 4.03 0.00
 4 -1 4 -4.93 0.00
 4 -1 5 -5.57 0.00
 4 -1 6 3.39 0.00
 4 -1 7 5.26 0.00
 4 -1 8 0.50 0.00
 4 -1 9 -1.21 0.00
 4 -1 10 -0.08 0.00
 4 -1 11 0.50 0.00
 4 -1 12 0.46 0.00
 4 -1 13 0.08 0.00
 4 -1 14 -0.13 0.00
 4 -1 15 0.09 0.00
 4 -1 16 0.09 0.00
 4 -1 17 -0.10 0.00
 4 -1 18 -0.06 0.00
 -3 0 20 0.08 0.00
 -3 0 19 0.63 0.00
 -3 0 18 0.13 0.00
 -3 0 17 -0.34 0.00
 -3 0 16 -0.29 0.00
 -3 0 15 -0.20 0.00
 -3 0 14 0.03 0.00
 -3 0 13 0.17 0.00
 -3 0 12 -0.33 0.00
 -3 0 11 -0.97 0.00
 -3 0 10 1.09 0.00
 -3 0 9 5.14 0.00
 -3 0 8 2.66 0.00
 -3 0 7 -4.63 0.00
 -3 0 6 -2.39 0.00
 -3 0 5 1.20 0.00
 -3 0 4 -14.80 0.00
 -3 0 3 -24.86 0.00
 -3 0 2 7.33 0.00
 -3 0 1 39.78 0.00
 3 0 0 17.86 0.00
 3 0 1 -17.67 0.00
 3 0 2 -11.37 0.00
 3 0 3 9.38 0.00
 3 0 4 6.22 0.00
 3 0 5 -5.69 0.00
 3 0 6 -6.11 0.00
 3 0 7 -1.17 0.00
 3 0 8 0.88 0.00
 3 0 9 0.60 0.00
 3 0 10 -0.14 0.00
 3 0 11 -0.25 0.00
 3 0 12 0.24 0.00
 3 0 13 0.29 0.00
 3 0 14 0.09 0.00
 3 0 15 0.19 0.00
 3 0 16 0.26 0.00
 3 0 17 0.18 0.00
 3 0 18 0.19 0.00
 -2 -1 20 -0.10 0.00
 -2 -1 19 -0.12 0.00
 -2 -1 18 -0.17 0.00
 -2 -1 17 0.43 0.00
 -2 -1 16 0.54 0.00
 -2 -1 15 -0.40 0.00
 -2 -1 14 -1.05 0.00
 -2 -1 13 -0.23 0.00
 -2 -1 12 0.40 0.00
 -2 -1 11 -2.08 0.00
 -2 -1 10 -2.87 0.00
 -2 -1 9 4.39 0.00
 -2 -1 8 8.94 0.00
 -2 -1 7 0.39 0.00
 -2 -1 6 -4.58 0.00
 -2 -1 5 4.51 0.00
 -2 -1 4 5.18 0.00
 -2 -1 3 -6.37 0.00
 -2 -1 2 -3.09 0.00
 -2 -1 1 6.52 0.00
 2 1 0 -5.77 0.00
 2 1 1 -19.57 0.00
 2 1 2 -8.37 0.00
 2 1 3 6.29 0.00
 2 1 4 5.64 0.00
 2 1 5 3.47 0.00
 2 1 6 4.78 0.00
 2 1 7 1.42 0.00
 2 1 8 -2.46 0.00
 2 1 9 -1.43 0.00
 2 1 10 0.19 0.00
 2 1 11 0.24 0.00
 2 1 12 0.18 0.00
 2 1 13 0.02 0.00
 2 1 14 -0.17 0.00
 2 1 15 -0.16 0.00
 2 1 16 0.03 0.00
 2 1 17 0.12 0.00
 2 1 18 -0.08 0.00
 -1 -2 20 0.30 0.00
 -1 -2 19 0.07 0.00
 -1 -2 18 -0.55 0.00
 -1 -2 17 -0.27 0.00
 -1 -2 16 0.70 0.00
 -1 -2 15 0.66 0.00
 -1 -2 14 -0.63 0.00
 -1 -2 13 -0.55 0.00
 -1 -2 12 1.01 0.00
 -1 -2 11 -0.26 0.00
 -1 -2 10 -3.34 0.00
 -1 -2 9 -2.84 0.00
 -1 -2 8 -0.37 0.00
 -1 -2 7 1.77 0.00
 -1 -2 6 4.50 0.00
 -1 -2 5 -2.16 0.00
 -1 -2 4 -18.49 0.00
 -1 -2 3 -7.73 0.00
 -1 -2 2 38.52 0.00
 -1 -2 1 52.56 0.00
 1 2 0 3.02 0.00
 1 2 1 -38.02 0.00
 1 2 2 -22.60 0.00
 1 2 3 2.82 0.00
 1 2 4 0.96 0.00
 1 2 5 -5.03 0.00
 1 2 6 0.77 0.00
 1 2 7 4.05 0.00
 1 2 8 0.80 0.00
 1 2 9 -0.40 0.00
 1 2 10 0.54 0.00
 1 2 11 0.47 0.00
 1 2 12 0.06 0.00
 1 2 13 -0.19 0.00
 1 2 14 -0.38 0.00
 1 2 15 -0.04 0.00
 1 2 16 0.54 0.00
 1 2 17 0.43 0.00
 1 2 18 -0.16 0.00
 0 -3 20 0.20 0.00
 0 -3 19 0.43 0.00
 0 -3 18 0.00 0.00
 0 -3 17 -0.27 0.00
 0 -3 16 0.05 0.00
 0 -3 15 0.06 0.00
 0 -3 14 -0.52 0.00
 0 -3 13 0.11 0.00
 0 -3 12 1.45 0.00
 0 -3 11 0.45 0.00
 0 -3 10 0.12 0.00
 0 -3 9 3.37 0.00
 0 -3 8 1.55 0.00
 0 -3 7 -6.03 0.00
 0 -3 6 -3.23 0.00
 0 -3 5 4.80 0.00
 0 -3 4 -7.58 0.00
 0 -3 3 -25.64 0.00
 0 -3 2 -9.02 0.00
 0 -3 1 25.73 0.00
 0 3 0 28.25 0.00
 0 3 1 3.68 0.00
 0 3 2 -7.67 0.00
 0 3 3 -2.70 0.00
 0 3 4 -0.77 0.00
 0 3 5 -1.69 0.00
 0 3 6 0.17 0.00
 0 3 7 0.85 0.00
 0 3 8 -0.32 0.00
 0 3 9 -0.56 0.00
 0 3 10 -0.29 0.00
 0 3 11 -0.05 0.00
 0 3 12 0.39 0.00
 0 3 13 0.39 0.00
 0 3 14 -0.24 0.00
 0 3 15 -0.45 0.00
 0 3 16 -0.03 0.00
 0 3 17 0.02 0.00
 0 3 18 -0.01 0.00
 1 -4 20 0.22 0.00
 1 -4 19 0.04 0.00
 1 -4 18 -0.20 0.00
 1 -4 17 0.22 0.00
 1 -4 16 0.70 0.00
 1 -4 15 0.24 0.00
 1 -4 14 -0.98 0.00
 1 -4 13 -1.33 0.00
 1 -4 12 0.06 0.00
 1 -4 11 0.46 0.00
 1 -4 10 -1.04 0.00
 1 -4 9 0.24 0.00
 1 -4 8 3.88 0.00
 1 -4 7 3.47 0.00
 1 -4 6 0.66 0.00
 1 -4 5 0.55 0.00
 1 -4 4 0.54 0.00
 1 -4 3 -0.63 0.00
 1 -4 2 -0.78 0.00
 1 -4 1 -2.56 0.00
 -1 4 0 -4.86 0.00
 -1 4 1 -1.61 0.00
 -1 4 2 2.99 0.00
 -1 4 3 0.81 0.00
 -1 4 4 -3.10 0.00
 -1 4 5 -0.71 0.00
 -1 4 6 3.12 0.00
 -1 4 7 2.14 0.00
 -1 4 8 -0.16 0.00
 -1 4 9 -0.56 0.00
 -1 4 10 -0.51 0.00
 -1 4 11 -0.38 0.00
 -1 4 12 0.14 0.00
 -1 4 13 0.16 0.00
 -1 4 14 -0.27 0.00
 -1 4 15 -0.03 0.00
 -1 4 16 0.30 0.00
 -1 4 17 -0.16 0.00
 -1 4 18 -0.29 0.00
 2 -5 19 0.26 0.00
 2 -5 18 -0.46 0.00
 2 -5 17 -0.41 0.00
 2 -5 16 0.17 0.00
 2 -5 15 0.81 0.00
 2 -5 14 0.74 0.00
 2 -5 13 0.03 0.00
 2 -5 12 -0.25 0.00
 2 -5 11 -0.49 0.00
 2 -5 10 -0.76 0.00
 2 -5 9 -0.49 0.00
 2 -5 8 -1.46 0.00
 2 -5 7 -2.72 0.00
 2 -5 6 0.04 0.00
 2 -5 5 3.90 0.00
 2 -5 4 2.28 0.00
 2 -5 3 -0.70 0.00
 2 -5 2 1.47 0.00
 2 -5 1 3.12 0.00
 -2 5 0 0.17 0.00
 -2 5 1 -0.33 0.00
 -2 5 2 2.02 0.00
 -2 5 3 -0.12 0.00
 -2 5 4 -3.90 0.00
 -2 5 5 -2.49 0.00
 -2 5 6 1.03 0.00
 -2 5 7 1.95 0.00
 -2 5 8 1.20 0.00
 -2 5 9 0.27 0.00
 -2 5 10 -0.54 0.00
 -2 5 11 -0.75 0.00
 -2 5 12 -0.15 0.00
 -2 5 13 0.37 0.00
 -2 5 14 0.14 0.00
 -2 5 15 0.11 0.00
 -2 5 16 0.34 0.00
 -2 5 17 0.01 0.00
 3 -6 19 0.09 0.00
 3 -6 18 -0.29 0.00
 3 -6 17 -0.27 0.00
 3 -6 16 -0.40 0.00
 3 -6 15 -0.24 0.00
 3 -6 14 -0.03 0.00
 3 -6 13 -0.13 0.00
 3 -6 12 0.70 0.00
 3 -6 11 1.20 0.00
 3 -6 10 0.11 0.00
 3 -6 9 0.26 0.00
 3 -6 8 0.77 0.00
 3 -6 7 -1.54 0.00
 3 -6 6 -2.93 0.00
 3 -6 5 -0.56 0.00
 3 -6 4 1.64 0.00
 3 -6 3 1.97 0.00
 3 -6 2 0.95 0.00
 3 -6 1 -2.09 0.00
 -3 6 0 -2.93 0.00
 -3 6 1 1.31 0.00
 -3 6 2 3.20 0.00
 -3 6 3 -0.71 0.00
 -3 6 4 -2.53 0.00
 -3 6 5 0.20 0.00
 -3 6 6 1.33 0.00
 -3 6 7 -0.10 0.00
 -3 6 8 -0.49 0.00
 -3 6 9 0.20 0.00
 -3 6 10 0.35 0.00
 -3 6 11 0.00 0.00
 -3 6 12 -0.16 0.00
 -3 6 13 -0.05 0.00
 -3 6 14 -0.11 0.00
 -3 6 15 -0.19 0.00
 -3 6 16 0.06 0.00
 -3 6 17 0.48 0.00
 4 -7 18 0.23 0.00
 4 -7 17 0.22 0.00
 4 -7 16 -0.03 0.00
 4 -7 15 -0.11 0.00
 4 -7 14 -0.31 0.00
 4 -7 13 -0.82 0.00
 4 -7 12 -0.85 0.00
 4 -7 11 -0.03 0.00
 4 -7 10 0.73 0.00
 4 -7 9 0.72 0.00
 4 -7 8 0.47 0.00
 4 -7 7 0.54 0.00
 4 -7 6 0.26 0.00
 4 -7 5 -0.79 0.00
 4 -7 4 -1.20 0.00
 4 -7 3 0.49 0.00
 4 -7 2 1.85 0.00
 4 -7 1 -0.38 0.00
 -4 7 0 -2.40 0.00
 -4 7 1 0.10 0.00
 -4 7 2 2.50 0.00
 -4 7 3 0.89 0.00
 -4 7 4 -1.12 0.00
 -4 7 5 -0.77 0.00
 -4 7 6 0.29 0.00
 -4 7 7 0.39 0.00
 -4 7 8 -0.03 0.00
 -4 7 9 0.02 0.00
 -4 7 10 0.18 0.00
 -4 7 11 -0.14 0.00
 -4 7 12 -0.21 0.00
 -4 7 13 0.11 0.00
 -4 7 14 0.10 0.00
 -4 7 15 0.00 0.00
 -4 7 16 0.12 0.00
 5 -8 17 0.29 0.00
 5 -8 16 0.27 0.00
 5 -8 15 0.23 0.00
 5 -8 14 0.11 0.00
 5 -8 13 -0.10 0.00
 5 -8 12 -0.26 0.00
 5 -8 11 -0.49 0.00
 5 -8 10 -0.45 0.00
 5 -8 9 -0.09 0.00
 5 -8 8 -0.03 0.00
 5 -8 7 -0.10 0.00
 5 -8 6 0.16 0.00
 5 -8 5 0.47 0.00
 5 -8 4 0.43 0.00
 5 -8 3 0.52 0.00
 5 -8 2 0.83 0.00
 5 -8 1 0.17 0.00
 -5 8 0 -0.89 0.00
 -5 8 1 -0.85 0.00
 -5 8 2 -0.52 0.00
 -5 8 3 -0.36 0.00
 -5 8 4 0.25 0.00
 -5 8 5 0.68 0.00
 -5 8 6 0.48 0.00
 -5 8 7 0.36 0.00
 -5 8 8 0.18 0.00
 -5 8 9 -0.42 0.00
 -5 8 10 -0.46 0.00
 -5 8 11 0.21 0.00
 -5 8 12 0.50 0.00
 -5 8 13 0.26 0.00
 -5 8 14 -0.16 0.00
 -5 8 15 -0.57 0.00
 6 -9 17 0.04 0.00
 6 -9 16 0.17 0.00
 6 -9 15 0.11 0.00
 6 -9 14 -0.21 0.00
 6 -9 13 0.10 0.00
 6 -9 12 0.47 0.00
 6 -9 11 0.15 0.00
 6 -9 10 0.20 0.00
 6 -9 9 0.41 0.00
 6 -9 8 -0.21 0.00
 6 -9 7 -0.64 0.00
 6 -9 6 -0.57 0.00
 6 -9 5 -0.64 0.00
 6 -9 4 -0.43 0.00
 6 -9 3 0.14 0.00
 6 -9 2 0.60 0.00
 6 -9 1 0.80 0.00
 -6 9 0 0.49 0.00
 -6 9 1 -0.02 0.00
 -6 9 2 0.17 0.00
 -6 9 3 0.61 0.00
 -6 9 4 0.20 0.00
 -6 9 5 -0.41 0.00
 -6 9 6 -0.41 0.00
 -6 9 7 -0.09 0.00
 -6 9 8 0.20 0.00
 -6 9 9 0.16 0.00
 -6 9 10 0.18 0.00
 -6 9 11 0.36 0.00
 -6 9 12 0.00 0.00
 -6 9 13 -0.29 0.00
 -6 9 14 0.35 0.00
 7 -10 15 0.24 0.00
 7 -10 14 0.43 0.00
 7 -10 13 -0.14 0.00
 7 -10 12 -0.35 0.00
 7 -10 11 -0.09 0.00
 7 -10 10 0.25 0.00
 7 -10 9 0.50 0.00
 7 -10 8 0.27 0.00
 7 -10 7 0.20 0.00
 7 -10 6 0.53 0.00
 7 -10 5 0.08 0.00
 7 -10 4 -0.70 0.00
 7 -10 3 -0.40 0.00
 7 -10 2 0.25 0.00
 7 -10 1 0.21 0.00
 -7 10 0 -0.27 0.00
 -7 10 1 -0.82 0.00
 -7 10 2 -0.84 0.00
 -7 10 3 -0.14 0.00
 -7 10 4 0.41 0.00
 -7 10 5 0.44 0.00
 -7 10 6 0.19 0.00
 -7 10 7 -0.06 0.00
 -7 10 8 -0.41 0.00
 -7 10 9 -0.97 0.00
 -7 10 10 -0.69 0.00
 -7 10 11 0.23 0.00
 -7 10 12 0.21 0.00
 -7 10 13 -0.17 0.00
 8 -11 14 0.16 0.00
 8 -11 13 0.26 0.00
 8 -11 12 -0.22 0.00
 8 -11 11 -0.40 0.00
 8 -11 10 -0.08 0.00
 8 -11 9 -0.13 0.00
 8 -11 8 -0.51 0.00
 8 -11 7 -0.36 0.00
 8 -11 6 0.21 0.00
 8 -11 5 0.36 0.00
 8 -11 4 -0.08 0.00
 8 -11 3 -0.45 0.00
 8 -11 2 -0.25 0.00
 8 -11 1 0.34 0.00
 -8 11 0 0.71 0.00
 -8 11 1 0.42 0.00
 -8 11 2 0.11 0.00
 -8 11 3 0.23 0.00
 -8 11 4 0.03 0.00
 -8 11 5 -0.42 0.00
 -8 11 6 -0.43 0.00
 -8 11 7 -0.16 0.00
 -8 11 8 -0.05 0.00
 -8 11 9 -0.22 0.00
 -8 11 10 -0.38 0.00
 9 -12 12 0.22 0.00
 9 -12 11 0.19 0.00
 9 -12 10 0.03 0.00
 9 -12 9 -0.13 0.00
 9 -12 8 -0.19 0.00
 9 -12 7 -0.13 0.00
 9 -12 6 -0.09 0.00
 9 -12 5 0.14 0.00
 9 -12 4 0.28 0.00
 9 -12 3 -0.08 0.00
 9 -12 2 -0.37 0.00
 9 -12 1 -0.38 0.00
 -9 12 0 -0.29 0.00
 -9 12 1 -0.06 0.00
 -9 12 2 -0.14 0.00
 -9 12 3 -0.24 0.00
 -9 12 4 0.56 0.00
 -9 12 5 1.18 0.00
 -9 12 6 0.32 0.00
 -9 12 7 -0.47 0.00
 -9 12 8 -0.16 0.00
 -9 12 9 0.09 0.00
 10 -13 8 0.01 0.00
 10 -13 7 -0.28 0.00
 10 -13 6 -0.36 0.00
 10 -13 5 -0.23 0.00
 10 -13 4 -0.17 0.00
 10 -13 3 -0.15 0.00
 10 -13 2 0.14 0.00
 10 -13 1 0.32 0.00
 -10 13 0 0.05 0.00
 -10 13 1 0.03 0.00
 -10 13 2 0.46 0.00
 -10 13 3 0.20 0.00
 -10 13 4 -0.53 0.00
 -10 13 5 -0.36 0.00
 -10 13 6 0.02 0.00
 -14 10 5 0.06 0.00
 -14 10 4 0.12 0.00
 -14 10 3 0.27 0.00
 -14 10 2 -0.26 0.00
 -14 10 1 -0.67 0.00
 -14 10 0 -0.01 0.00
 14 -10 1 0.25 0.00
 14 -10 2 -0.21 0.00
 14 -10 3 -0.13 0.00
 -13 9 9 0.48 0.00
 -13 9 8 0.58 0.00
 -13 9 7 -0.09 0.00
 -13 9 6 -0.37 0.00
 -13 9 5 -0.07 0.00
 -13 9 4 0.13 0.00
 -13 9 3 0.28 0.00
 -13 9 2 -0.03 0.00
 -13 9 1 -0.47 0.00
 -13 9 0 0.14 0.00
 13 -9 1 0.71 0.00
 13 -9 2 0.34 0.00
 13 -9 3 0.16 0.00
 13 -9 4 0.04 0.00
 13 -9 5 -0.31 0.00
 13 -9 6 -0.11 0.00
 13 -9 7 0.01 0.00
 -12 8 12 0.32 0.00
 -12 8 11 0.06 0.00
 -12 8 10 -0.53 0.00
 -12 8 9 -0.53 0.00
 -12 8 8 0.02 0.00
 -12 8 7 0.32 0.00
 -12 8 6 0.10 0.00
 -12 8 5 -0.24 0.00
 -12 8 4 -0.08 0.00
 -12 8 3 0.45 0.00
 -12 8 2 0.43 0.00
 -12 8 1 -0.05 0.00
 -12 8 0 -0.22 0.00
 12 -8 1 -0.29 0.00
 12 -8 2 -0.34 0.00
 12 -8 3 -0.03 0.00
 12 -8 4 0.11 0.00
 12 -8 5 0.08 0.00
 12 -8 6 0.32 0.00
 12 -8 7 0.21 0.00
 12 -8 8 -0.25 0.00
 12 -8 9 -0.16 0.00
 12 -8 10 0.17 0.00
 -11 7 14 -0.26 0.00
 -11 7 13 -0.92 0.00
 -11 7 12 -0.54 0.00
 -11 7 11 0.38 0.00
 -11 7 10 0.45 0.00
 -11 7 9 0.14 0.00
 -11 7 8 -0.12 0.00
 -11 7 7 -0.47 0.00
 -11 7 6 -0.29 0.00
 -11 7 5 0.03 0.00
 -11 7 4 -0.29 0.00
 -11 7 3 -0.39 0.00
 -11 7 2 0.14 0.00
 -11 7 1 0.63 0.00
 -11 7 0 0.64 0.00
 11 -7 1 0.28 0.00
 11 -7 2 -0.01 0.00
 11 -7 3 -0.28 0.00
 11 -7 4 -0.40 0.00
 11 -7 5 0.07 0.00
 11 -7 6 0.27 0.00
 11 -7 7 -0.16 0.00
 11 -7 8 -0.18 0.00
 11 -7 9 -0.04 0.00
 11 -7 10 -0.12 0.00
 11 -7 11 -0.04 0.00
 -10 6 16 0.05 0.00
 -10 6 15 0.52 0.00
 -10 6 14 0.38 0.00
 -10 6 13 -0.09 0.00
 -10 6 12 -0.29 0.00
 -10 6 11 -0.07 0.00
 -10 6 10 -0.09 0.00
 -10 6 9 -0.43 0.00
 -10 6 8 -0.13 0.00
 -10 6 7 0.37 0.00
 -10 6 6 0.10 0.00
 -10 6 5 -0.13 0.00
 -10 6 4 0.37 0.00
 -10 6 3 0.52 0.00
 -10 6 2 0.01 0.00
 -10 6 1 -0.05 0.00
 -10 6 0 0.10 0.00
 10 -6 1 -0.32 0.00
 10 -6 2 -0.47 0.00
 10 -6 3 -0.02 0.00
 10 -6 4 0.29 0.00
 10 -6 5 0.27 0.00
 10 -6 6 0.18 0.00
 10 -6 7 0.30 0.00
 10 -6 8 0.25 0.00
 10 -6 9 -0.36 0.00
 10 -6 10 -0.43 0.00
 10 -6 11 0.07 0.00
 10 -6 12 -0.15 0.00
 10 -6 13 -0.42 0.00
 -9 5 17 -0.09 0.00
 -9 5 16 -0.09 0.00
 -9 5 15 0.19 0.00
 -9 5 14 0.15 0.00
 -9 5 13 -0.17 0.00
 -9 5 12 -0.37 0.00
 -9 5 11 0.00 0.00
 -9 5 10 0.56 0.00
 -9 5 9 0.04 0.00
 -9 5 8 -0.78 0.00
 -9 5 7 -0.28 0.00
 -9 5 6 -0.16 0.00
 -9 5 5 -1.32 0.00
 -9 5 4 -1.06 0.00
 -9 5 3 0.53 0.00
 -9 5 2 0.97 0.00
 -9 5 1 0.67 0.00
 -9 5 0 0.51 0.00
 9 -5 1 0.27 0.00
 9 -5 2 -0.20 0.00
 9 -5 3 -1.01 0.00
 9 -5 4 -1.01 0.00
 9 -5 5 0.12 0.00
 9 -5 6 0.61 0.00
 9 -5 7 0.43 0.00
 9 -5 8 0.32 0.00
 9 -5 9 -0.08 0.00
 9 -5 10 -0.30 0.00
 9 -5 11 0.00 0.00
 9 -5 12 -0.01 0.00
 9 -5 13 -0.25 0.00
 9 -5 14 0.01 0.00
 -8 4 18 0.15 0.00
 -8 4 17 0.03 0.00
 -8 4 16 -0.05 0.00
 -8 4 15 -0.29 0.00
 -8 4 14 -0.17 0.00
 -8 4 13 0.55 0.00
 -8 4 12 0.45 0.00
 -8 4 11 -0.45 0.00
 -8 4 10 -0.41 0.00
 -8 4 9 0.32 0.00
 -8 4 8 0.57 0.00
 -8 4 7 0.62 0.00
 -8 4 6 0.45 0.00
 -8 4 5 -0.36 0.00
 -8 4 4 -1.03 0.00
 -8 4 3 -1.07 0.00
 -8 4 2 -0.60 0.00
 -8 4 1 -0.23 0.00
 -8 4 0 -0.40 0.00
 8 -4 1 0.38 0.00
 8 -4 2 1.72 0.00
 8 -4 3 0.58 0.00
 8 -4 4 -1.56 0.00
 8 -4 5 -1.35 0.00
 8 -4 6 -0.06 0.00
 8 -4 7 0.44 0.00
 8 -4 8 0.30 0.00
 8 -4 9 -0.22 0.00
 8 -4 10 -0.38 0.00
 8 -4 11 0.00 0.00
 8 -4 12 0.05 0.00
 8 -4 13 -0.04 0.00
 8 -4 14 0.29 0.00
 8 -4 15 0.42 0.00
 8 -4 16 0.08 0.00
 -7 3 18 0.09 0.00
 -7 3 17 0.29 0.00
 -7 3 16 0.41 0.00
 -7 3 15 0.23 0.00
 -7 3 14 -0.18 0.00
 -7 3 13 -0.09 0.00
 -7 3 12 0.09 0.00
 -7 3 11 -0.17 0.00
 -7 3 10 -0.56 0.00
 -7 3 9 -0.46 0.00
 -7 3 8 0.79 0.00
 -7 3 7 1.46 0.00
 -7 3 6 -0.41 0.00
 -7 3 5 -1.12 0.00
 -7 3 4 1.91 0.00
 -7 3 3 3.34 0.00
 -7 3 2 0.18 0.00
 -7 3 1 -3.33 0.00
 -7 3 0 -4.01 0.00
 7 -3 1 -1.72 0.00
 7 -3 2 1.77 0.00
 7 -3 3 2.88 0.00
 7 -3 4 1.21 0.00
 7 -3 5 -0.19 0.00
 7 -3 6 -0.31 0.00
 7 -3 7 -0.25 0.00
 7 -3 8 -0.23 0.00
 7 -3 9 0.03 0.00
 7 -3 10 0.07 0.00
 7 -3 11 -0.17 0.00
 7 -3 12 -0.22 0.00
 7 -3 13 -0.31 0.00
 7 -3 14 -0.39 0.00
 7 -3 15 -0.07 0.00
 7 -3 16 0.27 0.00
 -6 2 19 -0.68 0.00
 -6 2 18 -0.17 0.00
 -6 2 17 0.02 0.00
 -6 2 16 0.03 0.00
 -6 2 15 0.27 0.00
 -6 2 14 0.33 0.00
 -6 2 13 0.06 0.00
 -6 2 12 0.08 0.00
 -6 2 11 0.65 0.00
 -6 2 10 0.04 0.00
 -6 2 9 -1.44 0.00
 -6 2 8 -0.21 0.00
 -6 2 7 1.61 0.00
 -6 2 6 -1.37 0.00
 -6 2 5 -4.26 0.00
 -6 2 4 0.47 0.00
 -6 2 3 7.23 0.00
 -6 2 2 6.68 0.00
 -6 2 1 0.27 0.00
 -6 2 0 -4.69 0.00
 6 -2 1 -4.35 0.00
 6 -2 2 -1.05 0.00
 6 -2 3 0.21 0.00
 6 -2 4 -1.32 0.00
 6 -2 5 -1.62 0.00
 6 -2 6 0.69 0.00
 6 -2 7 1.89 0.00
 6 -2 8 0.24 0.00
 6 -2 9 -0.72 0.00
 6 -2 10 0.52 0.00
 6 -2 11 1.14 0.00
 6 -2 12 0.41 0.00
 6 -2 13 -0.08 0.00
 6 -2 14 -0.26 0.00
 6 -2 15 -0.41 0.00
 6 -2 16 -0.13 0.00
 6 -2 17 0.18 0.00
 -5 1 20 -0.33 0.00
 -5 1 19 -0.55 0.00
 -5 1 18 -0.10 0.00
 -5 1 17 -0.19 0.00
 -5 1 16 -0.10 0.00
 -5 1 15 0.44 0.00
 -5 1 14 0.55 0.00
 -5 1 13 -0.09 0.00
 -5 1 12 -0.70 0.00
 -5 1 11 0.00 0.00
 -5 1 10 1.02 0.00
 -5 1 9 1.37 0.00
 -5 1 8 2.30 0.00
 -5 1 7 1.95 0.00
 -5 1 6 -1.72 0.00
 -5 1 5 -4.32 0.00
 -5 1 4 -3.54 0.00
 -5 1 3 -2.41 0.00
 -5 1 2 0.89 0.00
 -5 1 1 6.40 0.00
 -5 1 0 5.46 0.00
 5 -1 1 -0.50 0.00
 5 -1 2 0.53 0.00
 5 -1 3 5.82 0.00
 5 -1 4 3.08 0.00
 5 -1 5 -4.34 0.00
 5 -1 6 -4.85 0.00
 5 -1 7 -0.26 0.00
 5 -1 8 1.09 0.00
 5 -1 9 -0.13 0.00
 5 -1 10 -0.24 0.00
 5 -1 11 0.06 0.00
 5 -1 12 0.14 0.00
 5 -1 13 0.32 0.00
 5 -1 14 0.18 0.00
 5 -1 15 0.01 0.00
 5 -1 16 0.04 0.00
 5 -1 17 0.01 0.00
 -4 0 20 -0.66 0.00
 -4 0 19 -0.42 0.00
 -4 0 18 0.09 0.00
 -4 0 17 0.10 0.00
 -4 0 16 0.18 0.00
 -4 0 15 0.06 0.00
 -4 0 14 -0.21 0.00
 -4 0 13 0.15 0.00
 -4 0 12 0.56 0.00
 -4 0 11 -0.77 0.00
 -4 0 10 -3.00 0.00
 -4 0 9 -0.52 0.00
 -4 0 8 5.79 0.00
 -4 0 7 4.66 0.00
 -4 0 6 -2.09 0.00
 -4 0 5 1.58 0.00
 -4 0 4 8.93 0.00
 -4 0 3 -0.77 0.00
 -4 0 2 -13.91 0.00
 -4 0 1 -5.99 0.00
 4 0 0 6.34 0.00
 4 0 1 0.45 0.00
 4 0 2 -8.33 0.00
 4 0 3 -2.69 0.00
 4 0 4 6.28 0.00
 4 0 5 6.04 0.00
 4 0 6 1.37 0.00
 4 0 7 -0.81 0.00
 4 0 8 -0.87 0.00
 4 0 9 -0.26 0.00
 4 0 10 0.32 0.00
 4 0 11 -0.03 0.00
 4 0 12 -0.48 0.00
 4 0 13 -0.22 0.00
 4 0 14 0.04 0.00
 4 0 15 -0.01 0.00
 4 0 16 -0.08 0.00
 4 0 17 -0.14 0.00
 4 0 18 -0.12 0.00
 -3 -1 20 -0.05 0.00
 -3 -1 19 -0.14 0.00
 -3 -1 18 -0.61 0.00
 -3 -1 17 -0.58 0.00
 -3 -1 16 0.43 0.00
 -3 -1 15 0.87 0.00
 -3 -1 14 0.22 0.00
 -3 -1 13 -0.18 0.00
 -3 -1 12 1.08 0.00
 -3 -1 11 1.30 0.00
 -3 -1 10 -3.41 0.00
 -3 -1 9 -6.05 0.00
 -3 -1 8 1.30 0.00
 -3 -1 7 6.55 0.00
 -3 -1 6 -0.97 0.00
 -3 -1 5 -6.03 0.00
 -3 -1 4 0.16 0.00
 -3 -1 3 3.28 0.00
 -3 -1 2 3.70 0.00
 -3 -1 1 12.28 0.00
 3 1 0 15.51 0.00
 3 1 1 2.22 0.00
 3 1 2 -9.39 0.00
 3 1 3 -7.73 0.00
 3 1 4 -4.76 0.00
 3 1 5 -4.88 0.00
 3 1 6 -0.78 0.00
 3 1 7 3.75 0.00
 3 1 8 2.13 0.00
 3 1 9 -0.42 0.00
 3 1 10 -0.01 0.00
 3 1 11 0.41 0.00
 3 1 12 0.14 0.00
 3 1 13 0.04 0.00
 3 1 14 0.01 0.00
 3 1 15 -0.03 0.00
 3 1 16 -0.03 0.00
 3 1 17 0.18 0.00
 3 1 18 0.19 0.00
 -2 -2 20 0.00 0.00
 -2 -2 19 0.55 0.00
 -2 -2 18 0.29 0.00
 -2 -2 17 -0.46 0.00
 -2 -2 16 -0.40 0.00
 -2 -2 15 0.32 0.00
 -2 -2 14 0.25 0.00
 -2 -2 13 -0.49 0.00
 -2 -2 12 0.59 0.00
 -2 -2 11 2.65 0.00
 -2 -2 10 1.53 0.00
 -2 -2 9 -0.90 0.00
 -2 -2 8 -0.93 0.00
 -2 -2 7 -1.06 0.00
 -2 -2 6 0.69 0.00
 -2 -2 5 6.11 0.00
 -2 -2 4 -2.18 0.00
 -2 -2 3 -27.66 0.00
 -2 -2 2 -29.23 0.00
 -2 -2 1 9.54 0.00
 2 2 0 36.24 0.00
 2 2 1 18.08 0.00
 2 2 2 -5.66 0.00
 2 2 3 -2.43 0.00
 2 2 4 5.65 0.00
 2 2 5 -0.63 0.00
 2 2 6 -5.81 0.00
 2 2 7 -1.70 0.00
 2 2 8 0.54 0.00
 2 2 9 -0.90 0.00
 2 2 10 -0.43 0.00
 2 2 11 0.73 0.00
 2 2 12 0.67 0.00
 2 2 13 0.24 0.00
 2 2 14 -0.19 0.00
 2 2 15 -0.48 0.00
 2 2 16 -0.32 0.00
 2 2 17 0.17 0.00
 2 2 18 0.30 0.00
 -1 -3 20 -0.17 0.00
 -1 -3 19 0.15 0.00
 -1 -3 18 0.21 0.00
 -1 -3 17 0.17 0.00
 -1 -3 16 0.48 0.00
 -1 -3 15 0.65 0.00
 -1 -3 14 -0.30 0.00
 -1 -3 13 -1.48 0.00
 -1 -3 12 -0.49 0.00
 -1 -3 11 0.49 0.00
 -1 -3 10 -1.89 0.00
 -1 -3 9 -1.20 0.00
 -1 -3 8 5.97 0.00
 -1 -3 7 6.83 0.00
 -1 -3 6 -0.58 0.00
 -1 -3 5 1.96 0.00
 -1 -3 4 10.10 0.00
 -1 -3 3 -1.05 0.00
 -1 -3 2 -20.84 0.00
 -1 -3 1 -16.48 0.00
 1 3 0 4.55 0.00
 1 3 1 9.92 0.00
 1 3 2 0.18 0.00
 1 3 3 -2.82 0.00
 1 3 4 0.89 0.00
 1 3 5 0.97 0.00
 1 3 6 0.42 0.00
 1 3 7 1.60 0.00
 1 3 8 0.91 0.00
 1 3 9 -0.55 0.00
 1 3 10 -0.75 0.00
 1 3 11 -0.49 0.00
 1 3 12 0.01 0.00
 1 3 13 0.45 0.00
 1 3 14 0.31 0.00
 1 3 15 -0.09 0.00
 1 3 16 -0.12 0.00
 1 3 17 0.02 0.00
 1 3 18 -0.18 0.00
 0 -4 20 -0.10 0.00
 0 -4 19 0.26 0.00
 0 -4 18 -0.15 0.00
 0 -4 17 -0.53 0.00
 0 -4 16 0.28 0.00
 0 -4 15 1.22 0.00
 0 -4 14 0.89 0.00
 0 -4 13 -0.28 0.00
 0 -4 12 -0.27 0.00
 0 -4 11 0.88 0.00
 0 -4 10 -0.69 0.00
 0 -4 9 -4.65 0.00
 0 -4 8 -4.37 0.00
 0 -4 7 0.73 0.00
 0 -4 6 4.28 0.00
 0 -4 5 3.75 0.00
 0 -4 4 -0.19 0.00
 0 -4 3 -3.78 0.00
 0 -4 2 -0.44 0.00
 0 -4 1 6.27 0.00
 0 4 0 5.81 0.00
 0 4 1 0.13 0.00
 0 4 2 -1.00 0.00
 0 4 3 1.30 0.00
 0 4 4 -0.56 0.00
 0 4 5 -4.11 0.00
 0 4 6 -2.63 0.00
 0 4 7 0.76 0.00
 0 4 8 1.29 0.00
 0 4 9 0.70 0.00
 0 4 10 0.31 0.00
 0 4 11 -0.22 0.00
 0 4 12 -0.18 0.00
 0 4 13 0.19 0.00
 0 4 14 0.04 0.00
 0 4 15 -0.18 0.00
 0 4 16 0.22 0.00
 0 4 17 0.56 0.00
 1 -5 20 -0.25 0.00
 1 -5 19 0.31 0.00
 1 -5 18 0.12 0.00
 1 -5 17 -0.42 0.00
 1 -5 16 -0.57 0.00
 1 -5 15 -0.29 0.00
 1 -5 14 0.13 0.00
 1 -5 13 0.14 0.00
 1 -5 12 0.46 0.00
 1 -5 11 1.30 0.00
 1 -5 10 1.21 0.00
 1 -5 9 0.88 0.00
 1 -5 8 0.70 0.00
 1 -5 7 -1.80 0.00
 1 -5 6 -4.32 0.00
 1 -5 5 -1.70 0.00
 1 -5 4 1.78 0.00
 1 -5 3 -0.54 0.00
 1 -5 2 -3.48 0.00
 1 -5 1 -1.04 0.00
 -1 5 0 1.24 0.00
 -1 5 1 0.09 0.00
 -1 5 2 1.27 0.00
 -1 5 3 4.09 0.00
 -1 5 4 2.18 0.00
 -1 5 5 -1.72 0.00
 -1 5 6 -2.09 0.00
 -1 5 7 -0.62 0.00
 -1 5 8 0.46 0.00
 -1 5 9 1.02 0.00
 -1 5 10 0.52 0.00
 -1 5 11 -0.35 0.00
 -1 5 12 -0.48 0.00
 -1 5 13 -0.11 0.00
 -1 5 14 -0.10 0.00
 -1 5 15 -0.40 0.00
 -1 5 16 -0.12 0.00
 -1 5 17 0.45 0.00
 2 -6 19 0.30 0.00
 2 -6 18 -0.02 0.00
 2 -6 17 0.01 0.00
 2 -6 16 0.14 0.00
 2 -6 15 0.09 0.00
 2 -6 14 0.25 0.00
 2 -6 13 -0.66 0.00
 2 -6 12 -1.61 0.00
 2 -6 11 -0.24 0.00
 2 -6 10 0.51 0.00
 2 -6 9 -0.30 0.00
 2 -6 8 1.24 0.00
 2 -6 7 2.96 0.00
 2 -6 6 0.79 0.00
 2 -6 5 -2.19 0.00
 2 -6 4 -2.73 0.00
 2 -6 3 -0.75 0.00
 2 -6 2 2.85 0.00
 2 -6 1 3.38 0.00
 -2 6 0 -1.08 0.00
 -2 6 1 -3.24 0.00
 -2 6 2 0.46 0.00
 -2 6 3 2.60 0.00
 -2 6 4 -0.41 0.00
 -2 6 5 -2.20 0.00
 -2 6 6 -0.26 0.00
 -2 6 7 0.92 0.00
 -2 6 8 0.21 0.00
 -2 6 9 -0.15 0.00
 -2 6 10 0.10 0.00
 -2 6 11 0.28 0.00
 -2 6 12 0.20 0.00
 -2 6 13 0.11 0.00
 -2 6 14 0.13 0.00
 -2 6 15 -0.19 0.00
 -2 6 16 -0.61 0.00
 -2 6 17 -0.27 0.00
 3 -7 19 0.12 0.00
 3 -7 18 -0.24 0.00
 3 -7 17 -0.15 0.00
 3 -7 16 0.05 0.00
 3 -7 15 0.40 0.00
 3 -7 14 1.07 0.00
 3 -7 13 0.90 0.00
 3 -7 12 -0.36 0.00
 3 -7 11 -0.97 0.00
 3 -7 10 -0.55 0.00
 3 -7 9 -0.38 0.00
 3 -7 8 -0.64 0.00
 3 -7 7 -0.29 0.00
 3 -7 6 0.99 0.00
 3 -7 5 1.59 0.00
 3 -7 4 -0.30 0.00
 3 -7 3 -2.25 0.00
 3 -7 2 -0.16 0.00
 3 -7 1 2.37 0.00
 -3 7 0 -0.03 0.00
 -3 7 1 -2.66 0.00
 -3 7 2 -0.34 0.00
 -3 7 3 2.43 0.00
 -3 7 4 1.27 0.00
 -3 7 5 -1.09 0.00
 -3 7 6 -1.22 0.00
 -3 7 7 0.07 0.00
 -3 7 8 0.59 0.00
 -3 7 9 0.23 0.00
 -3 7 10 0.07 0.00
 -3 7 11 0.17 0.00
 -3 7 12 -0.02 0.00
 -3 7 13 -0.23 0.00
 -3 7 14 -0.02 0.00
 -3 7 15 0.20 0.00
 -3 7 16 0.01 0.00
 4 -8 18 -0.24 0.00
 4 -8 17 -0.22 0.00
 4 -8 16 -0.10 0.00
 4 -8 15 0.02 0.00
 4 -8 14 0.22 0.00
 4 -8 13 0.19 0.00
 4 -8 12 0.23 0.00
 4 -8 11 0.42 0.00
 4 -8 10 0.14 0.00
 4 -8 9 -0.20 0.00
 4 -8 8 -0.19 0.00
 4 -8 7 -0.34 0.00
 4 -8 6 -0.49 0.00
 4 -8 5 -0.31 0.00
 4 -8 4 -0.27 0.00
 4 -8 3 -0.25 0.00
 4 -8 2 0.60 0.00
 4 -8 1 1.13 0.00
 -4 8 0 0.22 0.00
 -4 8 1 -0.36 0.00
 -4 8 2 0.07 0.00
 -4 8 3 -0.02 0.00
 -4 8 4 -0.50 0.00
 -4 8 5 -0.45 0.00
 -4 8 6 -0.29 0.00
 -4 8 7 -0.14 0.00
 -4 8 8 0.28 0.00
 -4 8 9 0.24 0.00
 -4 8 10 -0.31 0.00
 -4 8 11 -0.24 0.00
 -4 8 12 0.14 0.00
 -4 8 13 0.20 0.00
 -4 8 14 0.40 0.00
 -4 8 15 0.35 0.00
 5 -9 17 0.11 0.00
 5 -9 16 0.08 0.00
 5 -9 15 0.39 0.00
 5 -9 14 0.22 0.00
 5 -9 13 -0.46 0.00
 5 -9 12 -0.42 0.00
 5 -9 11 -0.02 0.00
 5 -9 10 0.21 0.00
 5 -9 9 0.50 0.00
 5 -9 8 0.37 0.00
 5 -9 7 0.25 0.00
 5 -9 6 0.61 0.00
 5 -9 5 0.15 0.00
 5 -9 4 -0.86 0.00
 5 -9 3 -0.84 0.00
 5 -9 2 -0.37 0.00
 5 -9 1 -0.35 0.00
 -5 9 0 -0.36 0.00
 -5 9 1 -0.42 0.00
 -5 9 2 -0.46 0.00
 -5 9 3 0.14 0.00
 -5 9 4 0.65 0.00
 -5 9 5 0.29 0.00
 -5 9 6 -0.29 0.00
 -5 9 7 -0.55 0.00
 -5 9 8 -0.25 0.00
 -5 9 9 0.02 0.00
 -5 9 10 -0.26 0.00
 -5 9 11 -0.09 0.00
 -5 9 12 0.26 0.00
 -5 9 13 -0.37 0.00
 -5 9 14 -0.75 0.00
 6 -10 16 0.03 0.00
 6 -10 15 -0.19 0.00
 6 -10 14 0.31 0.00
 6 -10 13 0.32 0.00
 6 -10 12 -0.18 0.00
 6 -10 11 -0.47 0.00
 6 -10 10 -0.63 0.00
 6 -10 9 -0.29 0.00
 6 -10 8 0.00 0.00
 6 -10 7 -0.31 0.00
 6 -10 6 0.00 0.00
 6 -10 5 0.71 0.00
 6 -10 4 0.40 0.00
 6 -10 3 -0.14 0.00
 6 -10 2 0.04 0.00
 6 -10 1 0.30 0.00
 -6 10 0 0.55 0.00
 -6 10 1 0.44 0.00
 -6 10 2 -0.43 0.00
 -6 10 3 -0.79 0.00
 -6 10 4 -0.27 0.00
 -6 10 5 0.08 0.00
 -6 10 6 0.04 0.00
 -6 10 7 0.09 0.00
 -6 10 8 0.40 0.00
 -6 10 9 0.14 0.00
 -6 10 10 -0.69 0.00
 -6 10 11 -0.52 0.00
 -6 10 12 0.27 0.00
 -6 10 13 0.22 0.00
 7 -11 15 0.08 0.00
 7 -11 14 -0.03 0.00
 7 -11 13 0.37 0.00
 7 -11 12 0.58 0.00
 7 -11 11 0.15 0.00
 7 -11 10 -0.14 0.00
 7 -11 9 0.11 0.00
 7 -11 8 0.16 0.00
 7 -11 7 -0.21 0.00
 7 -11 6 -0.30 0.00
 7 -11 5 0.02 0.00
 7 -11 4 0.23 0.00
 7 -11 3 0.03 0.00
 7 -11 2 -0.36 0.00
 7 -11 1 -0.54 0.00
 -7 11 0 -0.26 0.00
 -7 11 1 -0.05 0.00
 -7 11 2 -0.25 0.00
 -7 11 3 0.07 0.00
 -7 11 4 0.80 0.00
 -7 11 5 0.72 0.00
 -7 11 6 0.14 0.00
 -7 11 7 0.05 0.00
 -7 11 8 0.27 0.00
 -7 11 9 0.22 0.00
 -7 11 10 0.14 0.00
 -7 11 11 0.27 0.00
 8 -12 13 0.03 0.00
 8 -12 12 -0.12 0.00
 8 -12 11 0.06 0.00
 8 -12 10 0.27 0.00
 8 -12 9 0.24 0.00
 8 -12 8 -0.06 0.00
 8 -12 7 -0.15 0.00
 8 -12 6 -0.08 0.00
 8 -12 5 -0.01 0.00
 8 -12 4 0.22 0.00
 8 -12 3 0.40 0.00
 8 -12 2 0.41 0.00
 8 -12 1 0.42 0.00
 -8 12 0 0.23 0.00
 -8 12 1 -0.06 0.00
 -8 12 2 -0.37 0.00
 -8 12 3 -0.88 0.00
 -8 12 4 -0.93 0.00
 -8 12 5 -0.04 0.00
 -8 12 6 0.57 0.00
 -8 12 7 0.28 0.00
 -8 12 8 -0.02 0.00
 -8 12 9 -0.13 0.00
 9 -13 10 -0.09 0.00
 9 -13 9 0.22 0.00
 9 -13 8 0.38 0.00
 9 -13 7 0.30 0.00
 9 -13 6 0.04 0.00
 9 -13 5 -0.11 0.00
 9 -13 4 -0.06 0.00
 9 -13 3 -0.26 0.00
 9 -13 2 -0.48 0.00
 9 -13 1 -0.15 0.00
 -9 13 0 0.22 0.00
 -9 13 1 0.02 0.00
 -9 13 2 0.08 0.00
 -9 13 3 0.72 0.00
 -9 13 4 0.54 0.00
 -9 13 5 -0.24 0.00
 -9 13 6 -0.16 0.00
 -9 13 7 0.25 0.00
 10 -14 6 0.23 0.00
 10 -14 5 0.35 0.00
 10 -14 4 0.29 0.00
 10 -14 3 0.16 0.00
 10 -14 2 0.27 0.00
 10 -14 1 0.14 0.00
 -10 14 0 -0.13 0.00
 -10 14 1 -0.12 0.00
 -14 9 8 0.03 0.00
 -14 9 7 0.30 0.00
 -14 9 6 0.00 0.00
 -14 9 5 -0.10 0.00
 -14 9 4 -0.13 0.00
 -14 9 3 -0.18 0.00
 -14 9 2 0.07 0.00
 -14 9 1 -0.29 0.00
 -14 9 0 -0.85 0.00
 14 -9 1 -0.25 0.00
 14 -9 2 0.30 0.00
 14 -9 3 0.18 0.00
 14 -9 4 0.29 0.00
 14 -9 5 0.19 0.00
 -13 8 10 0.28 0.00
 -13 8 9 -0.21 0.00
 -13 8 8 -0.19 0.00
 -13 8 7 0.19 0.00
 -13 8 6 0.26 0.00
 -13 8 5 0.11 0.00
 -13 8 4 -0.08 0.00
 -13 8 3 -0.10 0.00
 -13 8 2 0.16 0.00
 -13 8 1 0.10 0.00
 -13 8 0 -0.09 0.00
 13 -8 1 0.09 0.00
 13 -8 2 0.00 0.00
 13 -8 3 -0.19 0.00
 13 -8 4 -0.03 0.00
 13 -8 5 -0.21 0.00
 13 -8 6 -0.32 0.00
 13 -8 7 0.21 0.00
 13 -8 8 0.29 0.00
 -12 7 13 0.11 0.00
 -12 7 12 -0.85 0.00
 -12 7 11 -0.51 0.00
 -12 7 10 0.17 0.00
 -12 7 9 0.11 0.00
 -12 7 8 0.22 0.00
 -12 7 7 0.19 0.00
 -12 7 6 -0.25 0.00
 -12 7 5 0.02 0.00
 -12 7 4 0.46 0.00
 -12 7 3 0.15 0.00
 -12 7 2 -0.35 0.00
 -12 7 1 -0.54 0.00
 -12 7 0 -0.18 0.00
 12 -7 1 0.45 0.00
 12 -7 2 0.58 0.00
 12 -7 3 0.44 0.00
 12 -7 4 0.14 0.00
 12 -7 5 -0.16 0.00
 12 -7 6 0.04 0.00
 12 -7 7 0.16 0.00
 12 -7 8 -0.10 0.00
 12 -7 9 -0.10 0.00
 12 -7 10 0.10 0.00
 -11 6 15 -0.10 0.00
 -11 6 14 0.32 0.00
 -11 6 13 0.21 0.00
 -11 6 12 -0.07 0.00
 -11 6 11 -0.02 0.00
 -11 6 10 0.03 0.00
 -11 6 9 -0.16 0.00
 -11 6 8 -0.16 0.00
 -11 6 7 0.10 0.00
 -11 6 6 0.20 0.00
 -11 6 5 -0.15 0.00
 -11 6 4 -0.57 0.00
 -11 6 3 -0.20 0.00
 -11 6 2 0.39 0.00
 -11 6 1 0.23 0.00
 -11 6 0 0.12 0.00
 11 -6 1 0.27 0.00
 11 -6 2 -0.08 0.00
 11 -6 3 -0.30 0.00
 11 -6 4 -0.01 0.00
 11 -6 5 0.16 0.00
 11 -6 6 0.07 0.00
 11 -6 7 0.03 0.00
 11 -6 8 0.27 0.00
 11 -6 9 0.27 0.00
 11 -6 10 -0.08 0.00
 11 -6 11 0.05 0.00
 11 -6 12 0.31 0.00
 -10 5 16 -0.08 0.00
 -10 5 15 -0.02 0.00
 -10 5 14 0.26 0.00
 -10 5 13 0.16 0.00
 -10 5 12 -0.02 0.00
 -10 5 11 -0.11 0.00
 -10 5 10 -0.04 0.00
 -10 5 9 0.38 0.00
 -10 5 8 0.28 0.00
 -10 5 7 -0.22 0.00
 -10 5 6 0.39 0.00
 -10 5 5 0.75 0.00
 -10 5 4 -0.51 0.00
 -10 5 3 -1.21 0.00
 -10 5 2 -0.54 0.00
 -10 5 1 0.05 0.00
 -10 5 0 0.22 0.00
 10 -5 1 0.34 0.00
 10 -5 2 0.63 0.00
 10 -5 3 0.41 0.00
 10 -5 4 -0.51 0.00
 10 -5 5 -0.47 0.00
 10 -5 6 0.22 0.00
 10 -5 7 0.06 0.00
 10 -5 8 -0.03 0.00
 10 -5 9 0.26 0.00
 10 -5 10 -0.03 0.00
 10 -5 11 -0.21 0.00
 10 -5 12 0.20 0.00
 10 -5 13 0.21 0.00
 -9 4 17 0.19 0.00
 -9 4 16 0.22 0.00
 -9 4 15 0.19 0.00
 -9 4 14 -0.33 0.00
 -9 4 13 -0.32 0.00
 -9 4 12 0.49 0.00
 -9 4 11 0.51 0.00
 -9 4 10 -0.22 0.00
 -9 4 9 -0.22 0.00
 -9 4 8 0.23 0.00
 -9 4 7 0.34 0.00
 -9 4 6 0.42 0.00
 -9 4 5 0.58 0.00
 -9 4 4 0.79 0.00
 -9 4 3 0.55 0.00
 -9 4 2 -0.36 0.00
 -9 4 1 -0.20 0.00
 -9 4 0 0.63 0.00
 9 -4 1 -0.05 0.00
 9 -4 2 -0.41 0.00
 9 -4 3 0.60 0.00
 9 -4 4 0.40 0.00
 9 -4 5 -0.46 0.00
 9 -4 6 -0.14 0.00
 9 -4 7 0.31 0.00
 9 -4 8 0.25 0.00
 9 -4 9 0.12 0.00
 9 -4 10 -0.15 0.00
 9 -4 11 -0.33 0.00
 9 -4 12 -0.32 0.00
 9 -4 13 -0.35 0.00
 9 -4 14 -0.18 0.00
 9 -4 15 0.26 0.00
 -8 3 18 -0.30 0.00
 -8 3 17 -0.16 0.00
 -8 3 16 -0.05 0.00
 -8 3 15 0.25 0.00
 -8 3 14 0.06 0.00
 -8 3 13 -0.34 0.00
 -8 3 12 -0.06 0.00
 -8 3 11 0.22 0.00
 -8 3 10 -0.03 0.00
 -8 3 9 -0.58 0.00
 -8 3 8 -0.83 0.00
 -8 3 7 0.26 0.00
 -8 3 6 0.86 0.00
 -8 3 5 -1.10 0.00
 -8 3 4 -1.82 0.00
 -8 3 3 0.65 0.00
 -8 3 2 2.01 0.00
 -8 3 1 1.21 0.00
 -8 3 0 0.35 0.00
 8 -3 1 -0.33 0.00
 8 -3 2 -0.29 0.00
 8 -3 3 0.04 0.00
 8 -3 4 -0.62 0.00
 8 -3 5 -0.77 0.00
 8 -3 6 0.36 0.00
 8 -3 7 0.76 0.00
 8 -3 8 0.11 0.00
 8 -3 9 0.00 0.00
 8 -3 10 0.37 0.00
 8 -3 11 0.18 0.00
 8 -3 12 -0.10 0.00
 8 -3 13 -0.03 0.00
 8 -3 14 -0.12 0.00
 8 -3 15 -0.15 0.00
 -7 2 19 0.02 0.00
 -7 2 18 -0.24 0.00
 -7 2 17 -0.16 0.00
 -7 2 16 -0.08 0.00
 -7 2 15 -0.08 0.00
 -7 2 14 -0.07 0.00
 -7 2 13 0.18 0.00
 -7 2 12 0.34 0.00
 -7 2 11 0.33 0.00
 -7 2 10 0.76 0.00
 -7 2 9 0.48 0.00
 -7 2 8 -0.67 0.00
 -7 2 7 0.36 0.00
 -7 2 6 2.16 0.00
 -7 2 5 -0.16 0.00
 -7 2 4 -3.62 0.00
 -7 2 3 -2.27 0.00
 -7 2 2 1.67 0.00
 -7 2 1 2.86 0.00
 -7 2 0 0.70 0.00
 7 -2 1 -0.81 0.00
 7 -2 2 1.08 0.00
 7 -2 3 2.85 0.00
 7 -2 4 0.98 0.00
 7 -2 5 -1.60 0.00
 7 -2 6 -1.49 0.00
 7 -2 7 0.16 0.00
 7 -2 8 0.50 0.00
 7 -2 9 -0.48 0.00
 7 -2 10 -0.54 0.00
 7 -2 11 0.22 0.00
 7 -2 12 0.34 0.00
 7 -2 13 0.21 0.00
 7 -2 14 0.30 0.00
 7 -2 15 0.17 0.00
 7 -2 16 -0.07 0.00
 -6 1 20 0.60 0.00
 -6 1 19 0.04 0.00
 -6 1 18 -0.16 0.00
 -6 1 17 -0.18 0.00
 -6 1 16 -0.35 0.00
 -6 1 15 -0.33 0.00
 -6 1 14 -0.11 0.00
 -6 1 13 0.34 0.00
 -6 1 12 0.17 0.00
 -6 1 11 -0.72 0.00
 -6 1 10 -0.78 0.00
 -6 1 9 -0.24 0.00
 -6 1 8 0.48 0.00
 -6 1 7 2.16 0.00
 -6 1 6 2.35 0.00
 -6 1 5 -0.46 0.00
 -6 1 4 -1.57 0.00
 -6 1 3 0.44 0.00
 -6 1 2 1.51 0.00
 -6 1 1 0.83 0.00
 -6 1 0 -1.29 0.00
 6 -1 1 -4.57 0.00
 6 -1 2 -4.45 0.00
 6 -1 3 0.56 0.00
 6 -1 4 4.47 0.00
 6 -1 5 3.21 0.00
 6 -1 6 0.05 0.00
 6 -1 7 -0.65 0.00
 6 -1 8 0.10 0.00
 6 -1 9 -0.14 0.00
 6 -1 10 -0.36 0.00
 6 -1 11 0.00 0.00
 6 -1 12 -0.02 0.00
 6 -1 13 -0.06 0.00
 6 -1 14 0.11 0.00
 6 -1 15 0.09 0.00
 6 -1 16 0.06 0.00
 6 -1 17 0.05 0.00
 -5 0 20 0.51 0.00
 -5 0 19 -0.01 0.00
 -5 0 18 -0.16 0.00
 -5 0 17 -0.30 0.00
 -5 0 16 -0.31 0.00
 -5 0 15 0.00 0.00
 -5 0 14 -0.14 0.00
 -5 0 13 -0.37 0.00
 -5 0 12 0.38 0.00
 -5 0 11 1.38 0.00
 -5 0 10 -0.29 0.00
 -5 0 9 -3.94 0.00
 -5 0 8 -2.64 0.00
 -5 0 7 3.32 0.00
 -5 0 6 2.69 0.00
 -5 0 5 -4.01 0.00
 -5 0 4 -2.99 0.00
 -5 0 3 4.14 0.00
 -5 0 2 5.29 0.00
 -5 0 1 3.30 0.00
 5 0 0 4.05 0.00
 5 0 1 2.99 0.00
 5 0 2 -1.57 0.00
 5 0 3 -4.99 0.00
 5 0 4 -4.58 0.00
 5 0 5 -1.58 0.00
 5 0 6 0.85 0.00
 5 0 7 1.39 0.00
 5 0 8 0.67 0.00
 5 0 9 -0.32 0.00
 5 0 10 -0.16 0.00
 5 0 11 0.65 0.00
 5 0 12 0.39 0.00
 5 0 13 -0.21 0.00
 5 0 14 -0.02 0.00
 5 0 15 0.30 0.00
 5 0 16 0.25 0.00
 5 0 17 0.04 0.00
 -4 -1 20 0.42 0.00
 -4 -1 19 0.57 0.00
 -4 -1 18 0.52 0.00
 -4 -1 17 -0.23 0.00
 -4 -1 16 -0.60 0.00
 -4 -1 15 -0.14 0.00
 -4 -1 14 0.05 0.00
 -4 -1 13 -0.56 0.00
 -4 -1 12 -0.47 0.00
 -4 -1 11 2.01 0.00
 -4 -1 10 3.03 0.00
 -4 -1 9 -1.70 0.00
 -4 -1 8 -4.65 0.00
 -4 -1 7 1.00 0.00
 -4 -1 6 4.59 0.00
 -4 -1 5 -1.12 0.00
 -4 -1 4 -5.38 0.00
 -4 -1 3 -4.99 0.00
 -4 -1 2 -6.38 0.00
 -4 -1 1 -4.59 0.00
 4 1 0 3.32 0.00
 4 1 1 7.89 0.00
 4 1 2 6.65 0.00
 4 1 3 5.52 0.00
 4 1 4 4.07 0.00
 4 1 5 -0.85 0.00
 4 1 6 -4.54 0.00
 4 1 7 -2.30 0.00
 4 1 8 0.64 0.00
 4 1 9 -0.10 0.00
 4 1 10 -0.88 0.00
 4 1 11 -0.06 0.00
 4 1 12 0.26 0.00
 4 1 13 -0.07 0.00
 4 1 14 -0.17 0.00
 4 1 15 -0.01 0.00
 4 1 16 -0.08 0.00
 4 1 17 -0.18 0.00
 -3 -2 21 0.17 0.00
 -3 -2 20 -0.18 0.00
 -3 -2 19 -0.22 0.00
 -3 -2 18 0.21 0.00
 -3 -2 17 0.31 0.00
 -3 -2 16 0.08 0.00
 -3 -2 15 0.11 0.00
 -3 -2 14 0.14 0.00
 -3 -2 13 -0.75 0.00
 -3 -2 12 -1.67 0.00
 -3 -2 11 -0.62 0.00
 -3 -2 10 0.76 0.00
 -3 -2 9 0.16 0.00
 -3 -2 8 0.46 0.00
 -3 -2 7 2.24 0.00
 -3 -2 6 1.47 0.00
 -3 -2 5 2.77 0.00
 -3 -2 4 9.99 0.00
 -3 -2 3 7.53 0.00
 -3 -2 2 -10.91 0.00
 -3 -2 1 -20.13 0.00
 3 2 0 -7.02 0.00
 3 2 1 5.63 0.00
 3 2 2 1.31 0.00
 3 2 3 -4.80 0.00
 3 2 4 1.11 0.00
 3 2 5 6.70 0.00
 3 2 6 2.50 0.00
 3 2 7 -0.86 0.00
 3 2 8 0.64 0.00
 3 2 9 0.18 0.00
 3 2 10 -1.39 0.00
 3 2 11 -0.85 0.00
 3 2 12 0.09 0.00
 3 2 13 0.28 0.00
 3 2 14 0.14 0.00
 3 2 15 -0.06 0.00
 3 2 16 -0.27 0.00
 3 2 17 -0.37 0.00
 -2 -3 21 0.03 0.00
 -2 -3 20 0.00 0.00
 -2 -3 19 0.07 0.00
 -2 -3 18 -0.21 0.00
 -2 -3 17 -0.68 0.00
 -2 -3 16 -0.42 0.00
 -2 -3 15 0.66 0.00
 -2 -3 14 1.30 0.00
 -2 -3 13 0.43 0.00
 -2 -3 12 -0.41 0.00
 -2 -3 11 0.68 0.00
 -2 -3 10 -0.08 0.00
 -2 -3 9 -5.44 0.00
 -2 -3 8 -6.68 0.00
 -2 -3 7 0.68 0.00
 -2 -3 6 4.36 0.00
 -2 -3 5 0.72 0.00
 -2 -3 4 2.66 0.00
 -2 -3 3 8.30 0.00
 -2 -3 2 3.55 0.00
 -2 -3 1 -6.24 0.00
 2 3 0 -5.04 0.00
 2 3 1 4.18 0.00
 2 3 2 5.65 0.00
 2 3 3 -0.60 0.00
 2 3 4 -2.89 0.00
 2 3 5 -1.87 0.00
 2 3 6 -2.09 0.00
 2 3 7 -0.61 0.00
 2 3 8 1.56 0.00
 2 3 9 1.12 0.00
 2 3 10 0.03 0.00
 2 3 11 -0.34 0.00
 2 3 12 -0.42 0.00
 2 3 13 -0.08 0.00
 2 3 14 0.18 0.00
 2 3 15 0.08 0.00
 2 3 16 0.03 0.00
 2 3 17 0.18 0.00
 -1 -4 20 -0.38 0.00
 -1 -4 19 -0.06 0.00
 -1 -4 18 0.32 0.00
 -1 -4 17 -0.53 0.00
 -1 -4 16 -1.22 0.00
 -1 -4 15 -0.43 0.00
 -1 -4 14 0.36 0.00
 -1 -4 13 -0.07 0.00
 -1 -4 12 -0.44 0.00
 -1 -4 11 1.32 0.00
 -1 -4 10 4.04 0.00
 -1 -4 9 2.89 0.00
 -1 -4 8 -2.59 0.00
 -1 -4 7 -6.08 0.00
 -1 -4 6 -3.78 0.00
 -1 -4 5 2.21 0.00
 -1 -4 4 5.50 0.00
 -1 -4 3 0.14 0.00
 -1 -4 2 -7.84 0.00
 -1 -4 1 -7.38 0.00
 1 4 0 -1.17 0.00
 1 4 1 1.66 0.00
 1 4 2 1.17 0.00
 1 4 3 2.53 0.00
 1 4 4 4.74 0.00
 1 4 5 2.55 0.00
 1 4 6 -1.58 0.00
 1 4 7 -1.92 0.00
 1 4 8 -0.50 0.00
 1 4 9 -0.21 0.00
 1 4 10 0.02 0.00
 1 4 11 0.17 0.00
 1 4 12 -0.04 0.00
 1 4 13 -0.03 0.00
 1 4 14 -0.08 0.00
 1 4 15 -0.35 0.00
 1 4 16 -0.43 0.00
 1 4 17 -0.13 0.00
 0 -5 20 -0.15 0.00
 0 -5 19 0.10 0.00
 0 -5 18 0.41 0.00
 0 -5 17 0.13 0.00
 0 -5 16 -0.10 0.00
 0 -5 15 0.01 0.00
 0 -5 14 -0.09 0.00
 0 -5 13 -0.86 0.00
 0 -5 12 -1.68 0.00
 0 -5 11 -1.10 0.00
 0 -5 10 0.09 0.00
 0 -5 9 0.51 0.00
 0 -5 8 1.74 0.00
 0 -5 7 3.38 0.00
 0 -5 6 1.69 0.00
 0 -5 5 -1.40 0.00
 0 -5 4 -0.67 0.00
 0 -5 3 1.31 0.00
 0 -5 2 0.16 0.00
 0 -5 1 -1.14 0.00
 0 5 0 -0.52 0.00
 0 5 1 -1.65 0.00
 0 5 2 -3.76 0.00
 0 5 3 -1.76 0.00
 0 5 4 1.86 0.00
 0 5 5 1.71 0.00
 0 5 6 -0.05 0.00
 0 5 7 -0.61 0.00
 0 5 8 -0.74 0.00
 0 5 9 -0.15 0.00
 0 5 10 0.62 0.00
 0 5 11 0.34 0.00
 0 5 12 -0.12 0.00
 0 5 13 -0.04 0.00
 0 5 14 0.14 0.00
 0 5 15 0.03 0.00
 0 5 16 -0.34 0.00
 0 5 17 -0.32 0.00
 1 -6 20 -0.17 0.00
 1 -6 19 0.24 0.00
 1 -6 18 0.28 0.00
 1 -6 17 -0.13 0.00
 1 -6 16 -0.15 0.00
 1 -6 15 0.00 0.00
 1 -6 14 0.70 0.00
 1 -6 13 1.42 0.00
 1 -6 12 0.13 0.00
 1 -6 11 -1.02 0.00
 1 -6 10 -0.10 0.00
 1 -6 9 -0.76 0.00
 1 -6 8 -2.88 0.00
 1 -6 7 -1.61 0.00
 1 -6 6 2.30 0.00
 1 -6 5 4.14 0.00
 1 -6 4 1.41 0.00
 1 -6 3 -3.84 0.00
 1 -6 2 -4.63 0.00
 1 -6 1 0.57 0.00
 -1 6 0 3.38 0.00
 -1 6 1 0.41 0.00
 -1 6 2 -1.51 0.00
 -1 6 3 0.75 0.00
 -1 6 4 2.00 0.00
 -1 6 5 -0.12 0.00
 -1 6 6 -1.49 0.00
 -1 6 7 -0.62 0.00
 -1 6 8 0.03 0.00
 -1 6 9 -0.03 0.00
 -1 6 10 -0.11 0.00
 -1 6 11 -0.04 0.00
 -1 6 12 0.16 0.00
 -1 6 13 0.04 0.00
 -1 6 14 -0.02 0.00
 -1 6 15 0.36 0.00
 -1 6 16 0.05 0.00
 2 -7 19 0.26 0.00
 2 -7 18 0.29 0.00
 2 -7 17 -0.02 0.00
 2 -7 16 -0.42 0.00
 2 -7 15 -1.01 0.00
 2 -7 14 -0.71 0.00
 2 -7 13 0.68 0.00
 2 -7 12 1.14 0.00
 2 -7 11 0.35 0.00
 2 -7 10 0.17 0.00
 2 -7 9 0.55 0.00
 2 -7 8 0.08 0.00
 2 -7 7 -1.24 0.00
 2 -7 6 -1.84 0.00
 2 -7 5 0.02 0.00
 2 -7 4 2.44 0.00
 2 -7 3 0.86 0.00
 2 -7 2 -2.18 0.00
 2 -7 1 -0.54 0.00
 -2 7 0 1.99 0.00
 -2 7 1 -0.30 0.00
 -2 7 2 -2.78 0.00
 -2 7 3 -0.77 0.00
 -2 7 4 1.97 0.00
 -2 7 5 1.46 0.00
 -2 7 6 -0.57 0.00
 -2 7 7 -1.29 0.00
 -2 7 8 -0.63 0.00
 -2 7 9 0.04 0.00
 -2 7 10 0.03 0.00
 -2 7 11 -0.08 0.00
 -2 7 12 0.21 0.00
 -2 7 13 0.14 0.00
 -2 7 14 -0.40 0.00
 -2 7 15 -0.20 0.00
 -2 7 16 0.29 0.00
 3 -8 19 0.22 0.00
 3 -8 18 0.20 0.00
 3 -8 17 0.03 0.00
 3 -8 16 0.01 0.00
 3 -8 15 -0.12 0.00
 3 -8 14 -0.11 0.00
 3 -8 13 -0.04 0.00
 3 -8 12 -0.26 0.00
 3 -8 11 -0.08 0.00
 3 -8 10 0.40 0.00
 3 -8 9 0.30 0.00
 3 -8 8 0.11 0.00
 3 -8 7 0.32 0.00
 3 -8 6 0.32 0.00
 3 -8 5 0.04 0.00
 3 -8 4 -0.28 0.00
 3 -8 3 -0.97 0.00
 3 -8 2 -0.95 0.00
 3 -8 1 0.39 0.00
 -3 8 0 0.84 0.00
 -3 8 1 -0.13 0.00
 -3 8 2 -0.36 0.00
 -3 8 3 0.37 0.00
 -3 8 4 0.59 0.00
 -3 8 5 0.08 0.00
 -3 8 6 -0.32 0.00
 -3 8 7 -0.32 0.00
 -3 8 8 -0.07 0.00
 -3 8 9 0.16 0.00
 -3 8 10 -0.18 0.00
 -3 8 11 -0.62 0.00
 -3 8 12 -0.29 0.00
 -3 8 13 -0.01 0.00
 -3 8 14 -0.18 0.00
 -3 8 15 0.06 0.00
 4 -9 18 -0.30 0.00
 4 -9 17 -0.21 0.00
 4 -9 16 -0.21 0.00
 4 -9 15 -0.07 0.00
 4 -9 14 0.54 0.00
 4 -9 13 0.58 0.00
 4 -9 12 -0.14 0.00
 4 -9 11 -0.66 0.00
 4 -9 10 -0.51 0.00
 4 -9 9 0.14 0.00
 4 -9 8 0.14 0.00
 4 -9 7 -0.68 0.00
 4 -9 6 -0.26 0.00
 4 -9 5 1.21 0.00
 4 -9 4 1.07 0.00
 4 -9 3 -0.19 0.00
 4 -9 2 -0.08 0.00
 4 -9 1 0.79 0.00
 -4 9 0 0.59 0.00
 -4 9 1 -0.23 0.00
 -4 9 2 -0.79 0.00
 -4 9 3 -0.62 0.00
 -4 9 4 0.23 0.00
 -4 9 5 0.61 0.00
 -4 9 6 0.31 0.00
 -4 9 7 -0.19 0.00
 -4 9 8 -0.43 0.00
 -4 9 9 0.08 0.00
 -4 9 10 0.24 0.00
 -4 9 11 -0.29 0.00
 -4 9 12 0.04 0.00
 -4 9 13 0.43 0.00
 -4 9 14 -0.29 0.00
 5 -10 17 -0.44 0.00
 5 -10 16 -0.03 0.00
 5 -10 15 -0.16 0.00
 5 -10 14 0.02 0.00
 5 -10 13 0.57 0.00
 5 -10 12 0.54 0.00
 5 -10 11 0.30 0.00
 5 -10 10 0.00 0.00
 5 -10 9 -0.17 0.00
 5 -10 8 0.19 0.00
 5 -10 7 0.02 0.00
 5 -10 6 -0.67 0.00
 5 -10 5 -0.38 0.00
 5 -10 4 0.08 0.00
 5 -10 3 -0.27 0.00
 5 -10 2 -0.19 0.00
 5 -10 1 0.19 0.00
 -5 10 0 0.12 0.00
 -5 10 1 0.47 0.00
 -5 10 2 0.69 0.00
 -5 10 3 0.10 0.00
 -5 10 4 -0.14 0.00
 -5 10 5 0.10 0.00
 -5 10 6 0.12 0.00
 -5 10 7 -0.10 0.00
 -5 10 8 -0.04 0.00
 -5 10 9 0.46 0.00
 -5 10 10 0.30 0.00
 -5 10 11 -0.41 0.00
 -5 10 12 -0.30 0.00
 -5 10 13 0.27 0.00
 6 -11 15 -0.19 0.00
 6 -11 14 -0.30 0.00
 6 -11 13 -0.29 0.00
 6 -11 12 0.15 0.00
 6 -11 11 0.51 0.00
 6 -11 10 0.33 0.00
 6 -11 9 -0.01 0.00
 6 -11 8 -0.03 0.00
 6 -11 7 0.14 0.00
 6 -11 6 0.13 0.00
 6 -11 5 0.01 0.00
 6 -11 4 0.06 0.00
 6 -11 3 0.22 0.00
 6 -11 2 0.30 0.00
 6 -11 1 0.16 0.00
 -6 11 0 0.01 0.00
 -6 11 1 0.06 0.00
 -6 11 2 -0.34 0.00
 -6 11 3 -0.98 0.00
 -6 11 4 -0.64 0.00
 -6 11 5 0.21 0.00
 -6 11 6 0.31 0.00
 -6 11 7 -0.16 0.00
 -6 11 8 -0.20 0.00
 -6 11 9 0.01 0.00
 -6 11 10 -0.22 0.00
 -6 11 11 -0.17 0.00
 7 -12 14 -0.35 0.00
 7 -12 13 -0.02 0.00
 7 -12 12 -0.07 0.00
 7 -12 11 -0.19 0.00
 7 -12 10 -0.02 0.00
 7 -12 9 0.28 0.00
 7 -12 8 0.22 0.00
 7 -12 7 -0.15 0.00
 7 -12 6 -0.28 0.00
 7 -12 5 -0.27 0.00
 7 -12 4 -0.27 0.00
 7 -12 3 -0.22 0.00
 7 -12 2 -0.18 0.00
 7 -12 1 -0.01 0.00
 -7 12 0 0.44 0.00
 -7 12 1 0.92 0.00
 -7 12 2 0.86 0.00
 -7 12 3 0.20 0.00
 -7 12 4 -0.45 0.00
 -7 12 5 -0.45 0.00
 -7 12 6 -0.10 0.00
 -7 12 7 0.01 0.00
 -7 12 8 0.21 0.00
 -7 12 9 0.27 0.00
 8 -13 12 0.17 0.00
 8 -13 11 -0.04 0.00
 8 -13 10 -0.25 0.00
 8 -13 9 -0.18 0.00
 8 -13 8 0.02 0.00
 8 -13 7 0.18 0.00
 8 -13 6 0.24 0.00
 8 -13 5 0.09 0.00
 8 -13 4 0.15 0.00
 8 -13 3 0.36 0.00
 8 -13 2 0.11 0.00
 8 -13 1 -0.40 0.00
 -8 13 0 -0.35 0.00
 -8 13 1 -0.06 0.00
 -8 13 2 -0.33 0.00
 -8 13 3 -0.40 0.00
 -8 13 4 0.28 0.00
 -8 13 5 0.49 0.00
 -8 13 6 -0.04 0.00
 -8 13 7 -0.20 0.00
 -8 13 8 0.17 0.00
 9 -14 7 -0.25 0.00
 9 -14 6 -0.23 0.00
 9 -14 5 -0.26 0.00
 9 -14 4 -0.11 0.00
 9 -14 3 -0.02 0.00
 9 -14 2 0.18 0.00
 9 -14 1 0.38 0.00
 -9 14 0 0.11 0.00
 -9 14 1 0.09 0.00
 -9 14 2 0.32 0.00
 -9 14 3 -0.10 0.00
 -9 14 4 -0.58 0.00
 -15 9 3 0.34 0.00
 -15 9 2 0.29 0.00
 -15 9 1 0.47 0.00
 -14 8 9 -0.10 0.00
 -14 8 8 -0.42 0.00
 -14 8 7 -0.22 0.00
 -14 8 6 0.06 0.00
 -14 8 5 -0.10 0.00
 -14 8 4 -0.06 0.00
 -14 8 3 0.13 0.00
 -14 8 2 0.17 0.00
 -14 8 1 0.33 0.00
 -14 8 0 0.23 0.00
 14 -8 1 0.00 0.00
 14 -8 2 0.08 0.00
 14 -8 3 0.08 0.00
 14 -8 4 0.15 0.00
 14 -8 5 0.30 0.00
 -13 7 12 0.39 0.00
 -13 7 11 -0.41 0.00
 -13 7 10 -0.14 0.00
 -13 7 9 0.18 0.00
 -13 7 8 -0.08 0.00
 -13 7 7 0.02 0.00
 -13 7 6 -0.05 0.00
 -13 7 5 -0.51 0.00
 -13 7 4 -0.34 0.00
 -13 7 3 0.13 0.00
 -13 7 2 0.28 0.00
 -13 7 1 0.03 0.00
 -13 7 0 -0.56 0.00
 13 -7 1 -0.65 0.00
 13 -7 2 -0.25 0.00
 13 -7 3 -0.04 0.00
 13 -7 4 0.19 0.00
 13 -7 5 0.31 0.00
 13 -7 6 0.07 0.00
 13 -7 7 0.02 0.00
 13 -7 8 0.12 0.00
 -12 6 14 0.15 0.00
 -12 6 13 0.49 0.00
 -12 6 12 0.13 0.00
 -12 6 11 -0.19 0.00
 -12 6 10 0.03 0.00
 -12 6 9 0.00 0.00
 -12 6 8 -0.26 0.00
 -12 6 7 -0.11 0.00
 -12 6 6 0.17 0.00
 -12 6 5 0.47 0.00
 -12 6 4 0.41 0.00
 -12 6 3 -0.29 0.00
 -12 6 2 -0.45 0.00
 -12 6 1 -0.07 0.00
 -12 6 0 -0.16 0.00
 12 -6 1 -0.08 0.00
 12 -6 2 0.12 0.00
 12 -6 3 -0.22 0.00
 12 -6 4 -0.32 0.00
 12 -6 5 0.06 0.00
 12 -6 6 0.17 0.00
 12 -6 7 -0.03 0.00
 12 -6 8 -0.10 0.00
 12 -6 9 0.02 0.00
 12 -6 10 0.02 0.00
 -11 5 16 -0.07 0.00
 -11 5 15 -0.28 0.00
 -11 5 14 0.09 0.00
 -11 5 13 0.43 0.00
 -11 5 12 0.06 0.00
 -11 5 11 -0.02 0.00
 -11 5 10 0.20 0.00
 -11 5 9 0.16 0.00
 -11 5 8 0.38 0.00
 -11 5 7 0.09 0.00
 -11 5 6 -0.77 0.00
 -11 5 5 -0.10 0.00
 -11 5 4 1.17 0.00
 -11 5 3 0.71 0.00
 -11 5 2 -0.20 0.00
 -11 5 1 -0.28 0.00
 -11 5 0 -0.25 0.00
 11 -5 1 -0.33 0.00
 11 -5 2 -0.10 0.00
 11 -5 3 0.34 0.00
 11 -5 4 0.02 0.00
 11 -5 5 -0.55 0.00
 11 -5 6 -0.05 0.00
 11 -5 7 0.39 0.00
 11 -5 8 0.01 0.00
 11 -5 9 0.02 0.00
 11 -5 10 0.23 0.00
 11 -5 11 -0.13 0.00
 11 -5 12 -0.28 0.00
 -10 4 17 -0.12 0.00
 -10 4 16 -0.17 0.00
 -10 4 15 0.15 0.00
 -10 4 14 0.20 0.00
 -10 4 13 -0.45 0.00
 -10 4 12 -0.52 0.00
 -10 4 11 0.05 0.00
 -10 4 10 -0.11 0.00
 -10 4 9 -0.59 0.00
 -10 4 8 -0.21 0.00
 -10 4 7 0.29 0.00
 -10 4 6 0.09 0.00
 -10 4 5 -0.42 0.00
 -10 4 4 -0.47 0.00
 -10 4 3 0.26 0.00
 -10 4 2 0.34 0.00
 -10 4 1 -0.69 0.00
 -10 4 0 -0.33 0.00
 10 -4 1 0.92 0.00
 10 -4 2 0.52 0.00
 10 -4 3 -0.05 0.00
 10 -4 4 0.20 0.00
 10 -4 5 -0.17 0.00
 10 -4 6 -0.52 0.00
 10 -4 7 -0.09 0.00
 10 -4 8 0.23 0.00
 10 -4 9 0.29 0.00
 10 -4 10 0.38 0.00
 10 -4 11 0.32 0.00
 10 -4 12 0.13 0.00
 10 -4 13 -0.15 0.00
 -9 3 18 -0.08 0.00
 -9 3 17 0.04 0.00
 -9 3 16 -0.03 0.00
 -9 3 15 0.01 0.00
 -9 3 14 0.37 0.00
 -9 3 13 0.14 0.00
 -9 3 12 -0.16 0.00
 -9 3 11 0.23 0.00
 -9 3 10 0.40 0.00
 -9 3 9 0.15 0.00
 -9 3 8 -0.30 0.00
 -9 3 7 -0.42 0.00
 -9 3 6 0.76 0.00
 -9 3 5 1.15 0.00
 -9 3 4 -0.66 0.00
 -9 3 3 -1.11 0.00
 -9 3 2 0.15 0.00
 -9 3 1 -0.21 0.00
 -9 3 0 -1.07 0.00
 9 -3 1 -0.53 0.00
 9 -3 2 0.57 0.00
 9 -3 3 1.48 0.00
 9 -3 4 1.03 0.00
 9 -3 5 -0.55 0.00
 9 -3 6 -0.80 0.00
 9 -3 7 0.15 0.00
 9 -3 8 0.24 0.00
 9 -3 9 -0.17 0.00
 9 -3 10 0.09 0.00
 9 -3 11 0.35 0.00
 9 -3 12 0.12 0.00
 9 -3 13 0.02 0.00
 9 -3 14 -0.07 0.00
 -8 2 19 0.14 0.00
 -8 2 18 0.11 0.00
 -8 2 17 -0.02 0.00
 -8 2 16 0.02 0.00
 -8 2 15 0.19 0.00
 -8 2 14 -0.03 0.00
 -8 2 13 -0.42 0.00
 -8 2 12 -0.20 0.00
 -8 2 11 0.01 0.00
 -8 2 10 -0.22 0.00
 -8 2 9 0.03 0.00
 -8 2 8 0.08 0.00
 -8 2 7 -0.63 0.00
 -8 2 6 0.16 0.00
 -8 2 5 1.77 0.00
 -8 2 4 0.97 0.00
 -8 2 3 -0.72 0.00
 -8 2 2 -0.44 0.00
 -8 2 1 0.71 0.00
 -8 2 0 0.34 0.00
 8 -2 1 -1.77 0.00
 8 -2 2 -2.41 0.00
 8 -2 3 0.25 0.00
 8 -2 4 2.16 0.00
 8 -2 5 0.80 0.00
 8 -2 6 -0.70 0.00
 8 -2 7 -0.16 0.00
 8 -2 8 0.67 0.00
 8 -2 9 0.19 0.00
 8 -2 10 -0.42 0.00
 8 -2 11 -0.17 0.00
 8 -2 12 -0.05 0.00
 8 -2 13 -0.25 0.00
 8 -2 14 -0.18 0.00
 8 -2 15 -0.05 0.00
 -7 1 19 0.23 0.00
 -7 1 18 0.08 0.00
 -7 1 17 0.07 0.00
 -7 1 16 0.00 0.00
 -7 1 15 0.04 0.00
 -7 1 14 -0.22 0.00
 -7 1 13 -0.51 0.00
 -7 1 12 0.08 0.00
 -7 1 11 0.44 0.00
 -7 1 10 -0.32 0.00
 -7 1 9 -1.07 0.00
 -7 1 8 -1.31 0.00
 -7 1 7 -0.62 0.00
 -7 1 6 1.07 0.00
 -7 1 5 0.93 0.00
 -7 1 4 -1.71 0.00
 -7 1 3 -2.62 0.00
 -7 1 2 -0.15 0.00
 -7 1 1 3.32 0.00
 -7 1 0 4.66 0.00
 7 -1 1 1.67 0.00
 7 -1 2 -2.51 0.00
 7 -1 3 -3.01 0.00
 7 -1 4 -1.07 0.00
 7 -1 5 0.03 0.00
 7 -1 6 0.04 0.00
 7 -1 7 0.02 0.00
 7 -1 8 0.39 0.00
 7 -1 9 0.33 0.00
 7 -1 10 -0.20 0.00
 7 -1 11 -0.18 0.00
 7 -1 12 -0.02 0.00
 7 -1 13 -0.11 0.00
 7 -1 14 0.01 0.00
 7 -1 15 0.07 0.00
 7 -1 16 -0.05 0.00
 -6 0 20 0.25 0.00
 -6 0 19 0.55 0.00
 -6 0 18 0.61 0.00
 -6 0 17 0.40 0.00
 -6 0 16 0.06 0.00
 -6 0 15 0.13 0.00
 -6 0 14 0.15 0.00
 -6 0 13 -0.36 0.00
 -6 0 12 -0.73 0.00
 -6 0 11 0.15 0.00
 -6 0 10 1.73 0.00
 -6 0 9 0.76 0.00
 -6 0 8 -2.83 0.00
 -6 0 7 -2.65 0.00
 -6 0 6 2.22 0.00
 -6 0 5 2.80 0.00
 -6 0 4 -2.38 0.00
 -6 0 3 -5.12 0.00
 -6 0 2 -4.01 0.00
 -6 0 1 -1.62 0.00
 6 0 0 1.64 0.00
 6 0 1 3.07 0.00
 6 0 2 2.65 0.00
 6 0 3 2.94 0.00
 6 0 4 1.86 0.00
 6 0 5 -0.91 0.00
 6 0 6 -1.77 0.00
 6 0 7 -0.59 0.00
 6 0 8 0.41 0.00
 6 0 9 0.07 0.00
 6 0 10 -0.87 0.00
 6 0 11 -0.62 0.00
 6 0 12 0.12 0.00
 6 0 13 -0.16 0.00
 6 0 14 -0.55 0.00
 6 0 15 -0.23 0.00
 6 0 16 0.19 0.00
 -5 -1 20 -0.25 0.00
 -5 -1 19 -0.15 0.00
 -5 -1 18 0.30 0.00
 -5 -1 17 0.54 0.00
 -5 -1 16 0.20 0.00
 -5 -1 15 0.00 0.00
 -5 -1 14 0.21 0.00
 -5 -1 13 0.03 0.00
 -5 -1 12 -1.18 0.00
 -5 -1 11 -1.51 0.00
 -5 -1 10 0.84 0.00
 -5 -1 9 2.02 0.00
 -5 -1 8 -1.09 0.00
 -5 -1 7 -2.37 0.00
 -5 -1 6 1.87 0.00
 -5 -1 5 3.56 0.00
 -5 -1 4 0.12 0.00
 -5 -1 3 -1.21 0.00
 -5 -1 2 -0.70 0.00
 -5 -1 1 -1.71 0.00
 5 1 0 -2.59 0.00
 5 1 1 -4.15 0.00
 5 1 2 -5.59 0.00
 5 1 3 -2.53 0.00
 5 1 4 2.77 0.00
 5 1 5 4.19 0.00
 5 1 6 1.41 0.00
 5 1 7 -0.75 0.00
 5 1 8 0.17 0.00
 5 1 9 0.95 0.00
 5 1 10 -0.11 0.00
 5 1 11 -0.58 0.00
 5 1 12 0.07 0.00
 5 1 13 0.14 0.00
 5 1 14 -0.36 0.00
 5 1 15 -0.34 0.00
 5 1 16 0.00 0.00
 -4 -2 21 -0.09 0.00
 -4 -2 20 0.20 0.00
 -4 -2 19 0.21 0.00
 -4 -2 18 -0.09 0.00
 -4 -2 17 -0.28 0.00
 -4 -2 16 -0.21 0.00
 -4 -2 15 0.09 0.00
 -4 -2 14 0.76 0.00
 -4 -2 13 1.00 0.00
 -4 -2 12 0.02 0.00
 -4 -2 11 -0.64 0.00
 -4 -2 10 -0.29 0.00
 -4 -2 9 -1.30 0.00
 -4 -2 8 -3.45 0.00
 -4 -2 7 -2.62 0.00
 -4 -2 6 0.46 0.00
 -4 -2 5 0.89 0.00
 -4 -2 4 0.62 0.00
 -4 -2 3 2.91 0.00
 -4 -2 2 3.09 0.00
 -4 -2 1 0.02 0.00
 4 2 0 -0.53 0.00
 4 2 1 2.20 0.00
 4 2 2 2.83 0.00
 4 2 3 -1.69 0.00
 4 2 4 -5.40 0.00
 4 2 5 -2.42 0.00
 4 2 6 0.84 0.00
 4 2 7 -0.15 0.00
 4 2 8 -0.05 0.00
 4 2 9 1.37 0.00
 4 2 10 0.64 0.00
 4 2 11 -0.36 0.00
 4 2 12 -0.12 0.00
 4 2 13 0.21 0.00
 4 2 14 0.23 0.00
 4 2 15 0.24 0.00
 4 2 16 0.26 0.00
 4 2 17 0.07 0.00
 -3 -3 21 -0.24 0.00
 -3 -3 20 -0.35 0.00
 -3 -3 19 0.22 0.00
 -3 -3 18 0.70 0.00
 -3 -3 17 0.16 0.00
 -3 -3 16 -0.84 0.00
 -3 -3 15 -1.05 0.00
 -3 -3 14 -0.37 0.00
 -3 -3 13 0.06 0.00
 -3 -3 12 -0.01 0.00
 -3 -3 11 1.17 0.00
 -3 -3 10 3.74 0.00
 -3 -3 9 3.22 0.00
 -3 -3 8 -2.37 0.00
 -3 -3 7 -6.09 0.00
 -3 -3 6 -3.31 0.00
 -3 -3 5 0.09 0.00
 -3 -3 4 0.82 0.00
 -3 -3 3 1.62 0.00
 -3 -3 2 1.48 0.00
 -3 -3 1 -1.78 0.00
 3 3 0 -5.91 0.00
 3 3 1 -5.30 0.00
 3 3 2 0.82 0.00
 3 3 3 4.52 0.00
 3 3 4 3.28 0.00
 3 3 5 1.92 0.00
 3 3 6 0.09 0.00
 3 3 7 -2.01 0.00
 3 3 8 -1.12 0.00
 3 3 9 0.40 0.00
 3 3 10 0.23 0.00
 3 3 11 0.04 0.00
 3 3 12 0.02 0.00
 3 3 13 -0.11 0.00
 3 3 14 0.01 0.00
 3 3 15 0.01 0.00
 3 3 16 -0.19 0.00
 3 3 17 -0.23 0.00
 -2 -4 20 0.11 0.00
 -2 -4 19 -0.27 0.00
 -2 -4 18 0.33 0.00
 -2 -4 17 0.89 0.00
 -2 -4 16 0.15 0.00
 -2 -4 15 -0.38 0.00
 -2 -4 14 0.10 0.00
 -2 -4 13 -0.27 0.00
 -2 -4 12 -1.81 0.00
 -2 -4 11 -2.55 0.00
 -2 -4 10 -0.96 0.00
 -2 -4 9 2.40 0.00
 -2 -4 8 4.12 0.00
 -2 -4 7 1.73 0.00
 -2 -4 6 -2.43 0.00
 -2 -4 5 -3.33 0.00
 -2 -4 4 1.39 0.00
 -2 -4 3 6.03 0.00
 -2 -4 2 4.37 0.00
 -2 -4 1 0.43 0.00
 2 4 0 -1.19 0.00
 2 4 1 -2.54 0.00
 2 4 2 -4.50 0.00
 2 4 3 -4.98 0.00
 2 4 4 -1.99 0.00
 2 4 5 2.20 0.00
 2 4 6 2.45 0.00
 2 4 7 0.39 0.00
 2 4 8 0.19 0.00
 2 4 9 0.27 0.00
 2 4 10 -0.41 0.00
 2 4 11 -0.45 0.00
 2 4 12 -0.10 0.00
 2 4 13 0.20 0.00
 2 4 14 0.35 0.00
 2 4 15 0.11 0.00
 2 4 16 -0.09 0.00
 2 4 17 -0.15 0.00
 -1 -5 20 -0.17 0.00
 -1 -5 19 -0.29 0.00
 -1 -5 18 0.16 0.00
 -1 -5 17 0.27 0.00
 -1 -5 16 -0.12 0.00
 -1 -5 15 0.17 0.00
 -1 -5 14 1.18 0.00
 -1 -5 13 1.48 0.00
 -1 -5 12 0.37 0.00
 -1 -5 11 -0.83 0.00
 -1 -5 10 -0.93 0.00
 -1 -5 9 -1.35 0.00
 -1 -5 8 -2.84 0.00
 -1 -5 7 -2.60 0.00
 -1 -5 6 0.38 0.00
 -1 -5 5 2.58 0.00
 -1 -5 4 2.25 0.00
 -1 -5 3 0.61 0.00
 -1 -5 2 -1.28 0.00
 -1 -5 1 -1.26 0.00
 1 5 0 1.79 0.00
 1 5 1 4.05 0.00
 1 5 2 1.79 0.00
 1 5 3 -1.66 0.00
 1 5 4 -1.54 0.00
 1 5 5 -0.01 0.00
 1 5 6 0.03 0.00
 1 5 7 0.00 0.00
 1 5 8 0.07 0.00
 1 5 9 -0.33 0.00
 1 5 10 -0.13 0.00
 1 5 11 0.22 0.00
 1 5 12 0.00 0.00
 1 5 13 -0.13 0.00
 1 5 14 -0.12 0.00
 1 5 15 -0.08 0.00
 1 5 16 0.03 0.00
 0 -6 20 -0.16 0.00
 0 -6 19 -0.38 0.00
 0 -6 18 0.01 0.00
 0 -6 17 0.09 0.00
 0 -6 16 -0.28 0.00
 0 -6 15 -0.60 0.00
 0 -6 14 -0.69 0.00
 0 -6 13 0.18 0.00
 0 -6 12 0.98 0.00
 0 -6 11 0.32 0.00
 0 -6 10 0.52 0.00
 0 -6 9 2.38 0.00
 0 -6 8 1.77 0.00
 0 -6 7 -2.59 0.00
 0 -6 6 -5.60 0.00
 0 -6 5 -2.22 0.00
 0 -6 4 4.86 0.00
 0 -6 3 6.00 0.00
 0 -6 2 -0.58 0.00
 0 -6 1 -4.47 0.00
 0 6 0 -1.79 0.00
 0 6 1 0.34 0.00
 0 6 2 -0.62 0.00
 0 6 3 -0.69 0.00
 0 6 4 1.02 0.00
 0 6 5 1.52 0.00
 0 6 6 0.35 0.00
 0 6 7 -0.28 0.00
 0 6 8 -0.12 0.00
 0 6 9 -0.02 0.00
 0 6 10 -0.10 0.00
 0 6 11 -0.33 0.00
 0 6 12 -0.11 0.00
 0 6 13 0.31 0.00
 0 6 14 -0.12 0.00
 0 6 15 -0.34 0.00
 0 6 16 0.25 0.00
 1 -7 20 -0.08 0.00
 1 -7 19 -0.09 0.00
 1 -7 18 0.07 0.00
 1 -7 17 0.26 0.00
 1 -7 16 0.66 0.00
 1 -7 15 0.46 0.00
 1 -7 14 -0.68 0.00
 1 -7 13 -1.09 0.00
 1 -7 12 -0.25 0.00
 1 -7 11 0.12 0.00
 1 -7 10 -0.25 0.00
 1 -7 9 0.11 0.00
 1 -7 8 1.21 0.00
 1 -7 7 1.55 0.00
 1 -7 6 -0.05 0.00
 1 -7 5 -2.25 0.00
 1 -7 4 -1.23 0.00
 1 -7 3 1.76 0.00
 1 -7 2 0.93 0.00
 1 -7 1 -1.37 0.00
 -1 7 0 0.42 0.00
 -1 7 1 2.21 0.00
 -1 7 2 -0.12 0.00
 -1 7 3 -2.17 0.00
 -1 7 4 -0.86 0.00
 -1 7 5 1.02 0.00
 -1 7 6 1.25 0.00
 -1 7 7 0.39 0.00
 -1 7 8 -0.50 0.00
 -1 7 9 -0.57 0.00
 -1 7 10 -0.05 0.00
 -1 7 11 -0.12 0.00
 -1 7 12 -0.24 0.00
 -1 7 13 0.47 0.00
 -1 7 14 0.44 0.00
 -1 7 15 -0.43 0.00
 -1 7 16 -0.27 0.00
 2 -8 19 -0.06 0.00
 2 -8 18 0.05 0.00
 2 -8 17 -0.04 0.00
 2 -8 16 -0.01 0.00
 2 -8 15 0.10 0.00
 2 -8 14 0.06 0.00
 2 -8 13 0.06 0.00
 2 -8 12 -0.06 0.00
 2 -8 11 -0.23 0.00
 2 -8 10 -0.01 0.00
 2 -8 9 0.20 0.00
 2 -8 8 -0.22 0.00
 2 -8 7 -0.65 0.00
 2 -8 6 -0.17 0.00
 2 -8 5 0.81 0.00
 2 -8 4 1.32 0.00
 2 -8 3 0.61 0.00
 2 -8 2 -0.96 0.00
 2 -8 1 -1.27 0.00
 -2 8 0 -0.17 0.00
 -2 8 1 0.21 0.00
 -2 8 2 -0.35 0.00
 -2 8 3 -0.41 0.00
 -2 8 4 0.36 0.00
 -2 8 5 0.80 0.00
 -2 8 6 0.27 0.00
 -2 8 7 -0.15 0.00
 -2 8 8 0.03 0.00
 -2 8 9 0.31 0.00
 -2 8 10 0.49 0.00
 -2 8 11 0.07 0.00
 -2 8 12 -0.50 0.00
 -2 8 13 -0.21 0.00
 -2 8 14 0.09 0.00
 -2 8 15 -0.12 0.00
 3 -9 18 0.10 0.00
 3 -9 17 -0.15 0.00
 3 -9 16 -0.21 0.00
 3 -9 15 -0.48 0.00
 3 -9 14 -0.47 0.00
 3 -9 13 0.13 0.00
 3 -9 12 0.54 0.00
 3 -9 11 0.21 0.00
 3 -9 10 -0.48 0.00
 3 -9 9 -0.31 0.00
 3 -9 8 0.66 0.00
 3 -9 7 0.30 0.00
 3 -9 6 -1.27 0.00
 3 -9 5 -1.20 0.00
 3 -9 4 0.61 0.00
 3 -9 3 0.88 0.00
 3 -9 2 -0.63 0.00
 3 -9 1 -0.60 0.00
 -3 9 0 0.87 0.00
 -3 9 1 1.13 0.00
 -3 9 2 0.03 0.00
 -3 9 3 -0.94 0.00
 -3 9 4 -0.62 0.00
 -3 9 5 0.36 0.00
 -3 9 6 0.68 0.00
 -3 9 7 0.46 0.00
 -3 9 8 -0.16 0.00
 -3 9 9 -0.52 0.00
 -3 9 10 0.17 0.00
 -3 9 11 0.39 0.00
 -3 9 12 -0.04 0.00
 -3 9 13 0.37 0.00
 -3 9 14 0.58 0.00
 4 -10 17 -0.10 0.00
 4 -10 16 -0.35 0.00
 4 -10 15 -0.35 0.00
 4 -10 14 -0.55 0.00
 4 -10 13 -0.27 0.00
 4 -10 12 0.18 0.00
 4 -10 11 0.29 0.00
 4 -10 10 0.14 0.00
 4 -10 9 -0.22 0.00
 4 -10 8 -0.06 0.00
 4 -10 7 0.63 0.00
 4 -10 6 0.41 0.00
 4 -10 5 -0.22 0.00
 4 -10 4 0.09 0.00
 4 -10 3 0.05 0.00
 4 -10 2 -0.68 0.00
 4 -10 1 -0.46 0.00
 -4 10 0 -0.09 0.00
 -4 10 1 -0.27 0.00
 -4 10 2 -0.08 0.00
 -4 10 3 0.03 0.00
 -4 10 4 -0.07 0.00
 -4 10 5 0.06 0.00
 -4 10 6 0.12 0.00
 -4 10 7 0.09 0.00
 -4 10 8 -0.04 0.00
 -4 10 9 -0.04 0.00
 -4 10 10 0.22 0.00
 -4 10 11 0.00 0.00
 -4 10 12 -0.42 0.00
 -4 10 13 -0.34 0.00
 5 -11 16 0.03 0.00
 5 -11 15 -0.08 0.00
 5 -11 14 -0.22 0.00
 5 -11 13 -0.54 0.00
 5 -11 12 -0.63 0.00
 5 -11 11 -0.43 0.00
 5 -11 10 -0.06 0.00
 5 -11 9 0.20 0.00
 5 -11 8 0.03 0.00
 5 -11 7 -0.20 0.00
 5 -11 6 -0.06 0.00
 5 -11 5 0.04 0.00
 5 -11 4 0.00 0.00
 5 -11 3 -0.04 0.00
 5 -11 2 -0.02 0.00
 5 -11 1 0.20 0.00
 -5 11 0 0.38 0.00
 -5 11 1 0.55 0.00
 -5 11 2 0.71 0.00
 -5 11 3 0.17 0.00
 -5 11 4 -0.54 0.00
 -5 11 5 -0.43 0.00
 -5 11 6 0.24 0.00
 -5 11 7 0.45 0.00
 -5 11 8 0.07 0.00
 -5 11 9 0.11 0.00
 -5 11 10 0.19 0.00
 -5 11 11 -0.36 0.00
 -5 11 12 -0.37 0.00
 6 -12 15 0.42 0.00
 6 -12 14 0.01 0.00
 6 -12 13 -0.09 0.00
 6 -12 12 -0.01 0.00
 6 -12 11 -0.14 0.00
 6 -12 10 -0.33 0.00
 6 -12 9 -0.11 0.00
 6 -12 8 0.33 0.00
 6 -12 7 0.35 0.00
 6 -12 6 0.14 0.00
 6 -12 5 0.10 0.00
 6 -12 4 -0.01 0.00
 6 -12 3 -0.27 0.00
 6 -12 2 -0.37 0.00
 6 -12 1 -0.45 0.00
 -6 12 0 -0.68 0.00
 -6 12 1 -0.35 0.00
 -6 12 2 0.54 0.00
 -6 12 3 0.72 0.00
 -6 12 4 0.08 0.00
 -6 12 5 -0.26 0.00
 -6 12 6 -0.02 0.00
 -6 12 7 -0.03 0.00
 -6 12 8 -0.15 0.00
 -6 12 9 0.32 0.00
 -6 12 10 0.42 0.00
 7 -13 13 -0.14 0.00
 7 -13 12 0.06 0.00
 7 -13 11 0.17 0.00
 7 -13 10 -0.01 0.00
 7 -13 9 -0.16 0.00
 7 -13 8 -0.18 0.00
 7 -13 7 -0.17 0.00
 7 -13 6 -0.05 0.00
 7 -13 5 0.01 0.00
 7 -13 4 -0.12 0.00
 7 -13 3 -0.08 0.00
 7 -13 2 0.22 0.00
 7 -13 1 0.32 0.00
 -7 13 0 0.01 0.00
 -7 13 1 0.03 0.00
 -7 13 2 0.34 0.00
 -7 13 3 0.02 0.00
 -7 13 4 -0.50 0.00
 -7 13 5 -0.27 0.00
 -7 13 6 0.12 0.00
 -7 13 7 -0.16 0.00
 -7 13 8 -0.47 0.00
 8 -14 9 0.25 0.00
 8 -14 8 0.23 0.00
 8 -14 7 0.08 0.00
 8 -14 6 0.13 0.00
 8 -14 5 0.06 0.00
 8 -14 4 -0.13 0.00
 8 -14 3 -0.35 0.00
 8 -14 2 -0.46 0.00
 8 -14 1 -0.12 0.00
 -8 14 0 0.00 0.00
 -8 14 1 -0.24 0.00
 -8 14 2 0.04 0.00
 -8 14 3 0.48 0.00
 -8 14 4 0.38 0.00
 -8 14 5 0.13 0.00
 9 -15 4 0.22 0.00
 9 -15 3 0.35 0.00
 9 -15 2 0.21 0.00
 9 -15 1 0.23 0.00
 -15 8 7 -0.33 0.00
 -15 8 6 0.06 0.00
 -15 8 5 0.17 0.00
 -15 8 4 -0.33 0.00
 -15 8 3 -0.32 0.00
 -15 8 2 -0.20 0.00
 -15 8 1 -0.36 0.00
 -15 8 0 -0.12 0.00
 15 -8 1 0.11 0.00
 15 -8 2 -0.05 0.00
 -14 7 10 -0.29 0.00
 -14 7 9 0.12 0.00
 -14 7 8 0.41 0.00
 -14 7 7 0.20 0.00
 -14 7 6 0.33 0.00
 -14 7 5 0.33 0.00
 -14 7 4 -0.02 0.00
 -14 7 3 0.01 0.00
 -14 7 2 0.22 0.00
 -14 7 1 0.31 0.00
 -14 7 0 0.25 0.00
 14 -7 1 0.01 0.00
 14 -7 2 -0.11 0.00
 14 -7 3 -0.24 0.00
 14 -7 4 -0.40 0.00
 14 -7 5 -0.15 0.00
 14 -7 6 0.15 0.00
 -13 6 13 0.01 0.00
 -13 6 12 0.58 0.00
 -13 6 11 0.29 0.00
 -13 6 10 -0.10 0.00
 -13 6 9 0.08 0.00
 -13 6 8 -0.02 0.00
 -13 6 7 -0.33 0.00
 -13 6 6 -0.39 0.00
 -13 6 5 -0.38 0.00
 -13 6 4 0.13 0.00
 -13 6 3 0.71 0.00
 -13 6 2 0.47 0.00
 -13 6 1 0.16 0.00
 -13 6 0 0.09 0.00
 13 -6 1 -0.05 0.00
 13 -6 2 0.11 0.00
 13 -6 3 0.10 0.00
 13 -6 4 -0.35 0.00
 13 -6 5 -0.37 0.00
 13 -6 6 0.02 0.00
 13 -6 7 0.14 0.00
 13 -6 8 0.06 0.00
 13 -6 9 -0.05 0.00
 -12 5 15 -0.26 0.00
 -12 5 14 -0.73 0.00
 -12 5 13 -0.15 0.00
 -12 5 12 0.32 0.00
 -12 5 11 -0.24 0.00
 -12 5 10 -0.43 0.00
 -12 5 9 -0.14 0.00
 -12 5 8 0.11 0.00
 -12 5 7 0.76 0.00
 -12 5 6 0.42 0.00
 -12 5 5 -1.14 0.00
 -12 5 4 -1.21 0.00
 -12 5 3 0.04 0.00
 -12 5 2 0.50 0.00
 -12 5 1 0.45 0.00
 -12 5 0 0.39 0.00
 12 -5 1 0.06 0.00
 12 -5 2 -0.15 0.00
 12 -5 3 0.12 0.00
 12 -5 4 0.23 0.00
 12 -5 5 -0.32 0.00
 12 -5 6 -0.55 0.00
 12 -5 7 -0.08 0.00
 12 -5 8 0.06 0.00
 12 -5 9 -0.09 0.00
 12 -5 10 0.11 0.00
 12 -5 11 0.24 0.00
 -11 4 16 -0.10 0.00
 -11 4 15 -0.28 0.00
 -11 4 14 0.20 0.00
 -11 4 13 0.39 0.00
 -11 4 12 -0.02 0.00
 -11 4 11 0.08 0.00
 -11 4 10 0.43 0.00
 -11 4 9 -0.18 0.00
 -11 4 8 -0.90 0.00
 -11 4 7 -0.36 0.00
 -11 4 6 0.52 0.00
 -11 4 5 0.54 0.00
 -11 4 4 -0.12 0.00
 -11 4 3 -0.49 0.00
 -11 4 2 -0.01 0.00
 -11 4 1 -0.02 0.00
 -11 4 0 -0.86 0.00
 11 -4 1 -0.58 0.00
 11 -4 2 0.33 0.00
 11 -4 3 0.32 0.00
 11 -4 4 0.21 0.00
 11 -4 5 0.19 0.00
 11 -4 6 -0.16 0.00
 11 -4 7 -0.25 0.00
 11 -4 8 -0.13 0.00
 11 -4 9 -0.24 0.00
 11 -4 10 -0.22 0.00
 11 -4 11 0.06 0.00
 11 -4 12 0.27 0.00
 -10 3 17 -0.02 0.00
 -10 3 16 0.17 0.00
 -10 3 15 -0.08 0.00
 -10 3 14 0.02 0.00
 -10 3 13 0.31 0.00
 -10 3 12 -0.18 0.00
 -10 3 11 -0.40 0.00
 -10 3 10 0.22 0.00
 -10 3 9 0.45 0.00
 -10 3 8 0.09 0.00
 -10 3 7 -0.55 0.00
 -10 3 6 -0.71 0.00
 -10 3 5 0.48 0.00
 -10 3 4 0.87 0.00
 -10 3 3 -0.29 0.00
 -10 3 2 -0.01 0.00
 -10 3 1 1.04 0.00
 -10 3 0 0.16 0.00
 10 -3 1 -1.27 0.00
 10 -3 2 -1.39 0.00
 10 -3 3 -0.36 0.00
 10 -3 4 0.68 0.00
 10 -3 5 0.29 0.00
 10 -3 6 -0.62 0.00
 10 -3 7 -0.31 0.00
 10 -3 8 0.27 0.00
 10 -3 9 0.00 0.00
 10 -3 10 -0.16 0.00
 10 -3 11 0.11 0.00
 10 -3 12 0.02 0.00
 10 -3 13 -0.03 0.00
 -9 2 18 -0.08 0.00
 -9 2 17 -0.18 0.00
 -9 2 16 -0.38 0.00
 -9 2 15 -0.14 0.00
 -9 2 14 0.28 0.00
 -9 2 13 0.10 0.00
 -9 2 12 -0.17 0.00
 -9 2 11 0.17 0.00
 -9 2 10 0.22 0.00
 -9 2 9 -0.41 0.00
 -9 2 8 -0.58 0.00
 -9 2 7 -0.52 0.00
 -9 2 6 -0.85 0.00
 -9 2 5 -0.48 0.00
 -9 2 4 0.18 0.00
 -9 2 3 -0.19 0.00
 -9 2 2 -0.46 0.00
 -9 2 1 0.24 0.00
 -9 2 0 1.07 0.00
 9 -2 1 0.83 0.00
 9 -2 2 -0.78 0.00
 9 -2 3 -1.50 0.00
 9 -2 4 -0.06 0.00
 9 -2 5 0.74 0.00
 9 -2 6 -0.43 0.00
 9 -2 7 -1.08 0.00
 9 -2 8 -0.13 0.00
 9 -2 9 0.45 0.00
 9 -2 10 0.09 0.00
 9 -2 11 0.19 0.00
 9 -2 12 0.49 0.00
 9 -2 13 0.22 0.00
 9 -2 14 -0.03 0.00
 -8 1 19 0.34 0.00
 -8 1 18 0.20 0.00
 -8 1 17 0.15 0.00
 -8 1 16 -0.05 0.00
 -8 1 15 -0.03 0.00
 -8 1 14 0.42 0.00
 -8 1 13 0.12 0.00
 -8 1 12 -0.49 0.00
 -8 1 11 0.12 0.00
 -8 1 10 1.07 0.00
 -8 1 9 0.86 0.00
 -8 1 8 -0.23 0.00
 -8 1 7 -1.07 0.00
 -8 1 6 -0.48 0.00
 -8 1 5 1.01 0.00
 -8 1 4 0.89 0.00
 -8 1 3 -1.06 0.00
 -8 1 2 -2.52 0.00
 -8 1 1 -2.13 0.00
 -8 1 0 0.03 0.00
 8 -1 1 1.70 0.00
 8 -1 2 0.99 0.00
 8 -1 3 0.03 0.00
 8 -1 4 0.36 0.00
 8 -1 5 0.43 0.00
 8 -1 6 -0.19 0.00
 8 -1 7 -0.58 0.00
 8 -1 8 -0.34 0.00
 8 -1 9 0.05 0.00
 8 -1 10 -0.04 0.00
 8 -1 11 -0.11 0.00
 8 -1 12 0.08 0.00
 8 -1 13 -0.03 0.00
 8 -1 14 -0.14 0.00
 8 -1 15 0.13 0.00
 -7 0 20 -0.58 0.00
 -7 0 19 -0.52 0.00
 -7 0 18 0.00 0.00
 -7 0 17 0.38 0.00
 -7 0 16 -0.02 0.00
 -7 0 15 -0.17 0.00
 -7 0 14 0.27 0.00
 -7 0 13 0.25 0.00
 -7 0 12 -0.32 0.00
 -7 0 11 -0.80 0.00
 -7 0 10 -0.33 0.00
 -7 0 9 1.29 0.00
 -7 0 8 1.43 0.00
 -7 0 7 -1.24 0.00
 -7 0 6 -2.07 0.00
 -7 0 5 1.07 0.00
 -7 0 4 2.80 0.00
 -7 0 3 1.16 0.00
 -7 0 2 -0.78 0.00
 -7 0 1 -1.95 0.00
 7 0 0 -1.71 0.00
 7 0 1 -1.11 0.00
 7 0 2 -2.16 0.00
 7 0 3 -1.80 0.00
 7 0 4 1.01 0.00
 7 0 5 1.72 0.00
 7 0 6 0.07 0.00
 7 0 7 -0.53 0.00
 7 0 8 0.26 0.00
 7 0 9 0.91 0.00
 7 0 10 0.45 0.00
 7 0 11 -0.25 0.00
 7 0 12 -0.01 0.00
 7 0 13 0.29 0.00
 7 0 14 -0.11 0.00
 7 0 15 -0.43 0.00
 -6 -1 20 -0.16 0.00
 -6 -1 19 -0.49 0.00
 -6 -1 18 -0.53 0.00
 -6 -1 17 -0.05 0.00
 -6 -1 16 0.21 0.00
 -6 -1 15 0.18 0.00
 -6 -1 14 0.25 0.00
 -6 -1 13 0.64 0.00
 -6 -1 12 0.70 0.00
 -6 -1 11 -0.24 0.00
 -6 -1 10 -0.76 0.00
 -6 -1 9 0.24 0.00
 -6 -1 8 0.49 0.00
 -6 -1 7 -1.27 0.00
 -6 -1 6 -1.18 0.00
 -6 -1 5 1.83 0.00
 -6 -1 4 2.17 0.00
 -6 -1 3 -0.87 0.00
 -6 -1 2 -2.35 0.00
 -6 -1 1 -0.66 0.00
 6 1 0 3.21 0.00
 6 1 1 5.04 0.00
 6 1 2 0.89 0.00
 6 1 3 -3.65 0.00
 6 1 4 -2.72 0.00
 6 1 5 0.01 0.00
 6 1 6 0.42 0.00
 6 1 7 -0.53 0.00
 6 1 8 -0.72 0.00
 6 1 9 0.27 0.00
 6 1 10 0.71 0.00
 6 1 11 0.08 0.00
 6 1 12 0.02 0.00
 6 1 13 0.62 0.00
 6 1 14 0.47 0.00
 6 1 15 -0.08 0.00
 6 1 16 -0.11 0.00
 -5 -2 21 -0.14 0.00
 -5 -2 20 -0.52 0.00
 -5 -2 19 -0.26 0.00
 -5 -2 18 0.28 0.00
 -5 -2 17 0.18 0.00
 -5 -2 16 -0.23 0.00
 -5 -2 15 -0.54 0.00
 -5 -2 14 -0.53 0.00
 -5 -2 13 0.29 0.00
 -5 -2 12 0.79 0.00
 -5 -2 11 0.55 0.00
 -5 -2 10 1.43 0.00
 -5 -2 9 2.51 0.00
 -5 -2 8 0.87 0.00
 -5 -2 7 -2.33 0.00
 -5 -2 6 -3.02 0.00
 -5 -2 5 -0.33 0.00
 -5 -2 4 2.82 0.00
 -5 -2 3 3.27 0.00
 -5 -2 2 -0.68 0.00
 -5 -2 1 -5.30 0.00
 5 2 0 -4.46 0.00
 5 2 1 -0.31 0.00
 5 2 2 2.07 0.00
 5 2 3 2.84 0.00
 5 2 4 1.88 0.00
 5 2 5 0.04 0.00
 5 2 6 -0.04 0.00
 5 2 7 -0.06 0.00
 5 2 8 -0.89 0.00
 5 2 9 -0.45 0.00
 5 2 10 0.23 0.00
 5 2 11 -0.13 0.00
 5 2 12 -0.24 0.00
 5 2 13 0.05 0.00
 5 2 14 -0.06 0.00
 5 2 15 -0.17 0.00
 5 2 16 0.09 0.00
 -4 -3 21 0.41 0.00
 -4 -3 20 -0.29 0.00
 -4 -3 19 -0.74 0.00
 -4 -3 18 -0.08 0.00
 -4 -3 17 0.64 0.00
 -4 -3 16 0.59 0.00
 -4 -3 15 0.15 0.00
 -4 -3 14 0.01 0.00
 -4 -3 13 -0.27 0.00
 -4 -3 12 -1.46 0.00
 -4 -3 11 -1.92 0.00
 -4 -3 10 0.04 0.00
 -4 -3 9 2.72 0.00
 -4 -3 8 3.45 0.00
 -4 -3 7 1.50 0.00
 -4 -3 6 -1.41 0.00
 -4 -3 5 -2.77 0.00
 -4 -3 4 -1.13 0.00
 -4 -3 3 2.35 0.00
 -4 -3 2 3.93 0.00
 -4 -3 1 3.45 0.00
 4 3 0 2.52 0.00
 4 3 1 -1.14 0.00
 4 3 2 -5.24 0.00
 4 3 3 -4.52 0.00
 4 3 4 -1.59 0.00
 4 3 5 0.49 0.00
 4 3 6 1.84 0.00
 4 3 7 0.98 0.00
 4 3 8 -0.40 0.00
 4 3 9 0.06 0.00
 4 3 10 0.27 0.00
 4 3 11 -0.28 0.00
 4 3 12 -0.13 0.00
 4 3 13 0.10 0.00
 4 3 14 -0.03 0.00
 4 3 15 0.06 0.00
 4 3 16 0.18 0.00
 -3 -4 20 0.26 0.00
 -3 -4 19 0.01 0.00
 -3 -4 18 -0.37 0.00
 -3 -4 17 -0.04 0.00
 -3 -4 16 0.28 0.00
 -3 -4 15 0.04 0.00
 -3 -4 14 0.72 0.00
 -3 -4 13 1.80 0.00
 -3 -4 12 1.05 0.00
 -3 -4 11 -0.38 0.00
 -3 -4 10 -0.98 0.00
 -3 -4 9 -1.45 0.00
 -3 -4 8 -1.13 0.00
 -3 -4 7 0.24 0.00
 -3 -4 6 0.26 0.00
 -3 -4 5 -1.47 0.00
 -3 -4 4 -1.68 0.00
 -3 -4 3 -0.10 0.00
 -3 -4 2 -0.67 0.00
 -3 -4 1 -1.39 0.00
 3 4 0 2.34 0.00
 3 4 1 6.03 0.00
 3 4 2 4.73 0.00
 3 4 3 0.68 0.00
 3 4 4 -2.74 0.00
 3 4 5 -2.85 0.00
 3 4 6 -0.68 0.00
 3 4 7 -0.19 0.00
 3 4 8 -0.36 0.00
 3 4 9 0.67 0.00
 3 4 10 0.83 0.00
 3 4 11 -0.09 0.00
 3 4 12 -0.48 0.00
 3 4 13 -0.33 0.00
 3 4 14 0.04 0.00
 3 4 15 0.22 0.00
 3 4 16 0.05 0.00
 -2 -5 20 0.27 0.00
 -2 -5 19 -0.25 0.00
 -2 -5 18 -0.27 0.00
 -2 -5 17 0.13 0.00
 -2 -5 16 -0.24 0.00
 -2 -5 15 -1.04 0.00
 -2 -5 14 -0.79 0.00
 -2 -5 13 0.37 0.00
 -2 -5 12 1.03 0.00
 -2 -5 11 1.06 0.00
 -2 -5 10 1.48 0.00
 -2 -5 9 2.54 0.00
 -2 -5 8 2.51 0.00
 -2 -5 7 -0.46 0.00
 -2 -5 6 -4.47 0.00
 -2 -5 5 -4.86 0.00
 -2 -5 4 -0.24 0.00
 -2 -5 3 4.44 0.00
 -2 -5 2 2.92 0.00
 -2 -5 1 -2.93 0.00
 2 5 0 -5.21 0.00
 2 5 1 -1.90 0.00
 2 5 2 1.66 0.00
 2 5 3 1.73 0.00
 2 5 4 0.51 0.00
 2 5 5 0.49 0.00
 2 5 6 0.37 0.00
 2 5 7 -0.30 0.00
 2 5 8 -0.14 0.00
 2 5 9 0.20 0.00
 2 5 10 0.08 0.00
 2 5 11 0.15 0.00
 2 5 12 0.25 0.00
 2 5 13 0.16 0.00
 2 5 14 0.12 0.00
 2 5 15 -0.05 0.00
 2 5 16 -0.28 0.00
 -1 -6 20 0.56 0.00
 -1 -6 19 0.35 0.00
 -1 -6 18 0.06 0.00
 -1 -6 17 0.28 0.00
 -1 -6 16 0.34 0.00
 -1 -6 15 0.08 0.00
 -1 -6 14 -0.28 0.00
 -1 -6 13 -0.55 0.00
 -1 -6 12 -0.35 0.00
 -1 -6 11 -0.41 0.00
 -1 -6 10 -1.31 0.00
 -1 -6 9 -0.92 0.00
 -1 -6 8 2.56 0.00
 -1 -6 7 5.48 0.00
 -1 -6 6 2.07 0.00
 -1 -6 5 -5.34 0.00
 -1 -6 4 -6.32 0.00
 -1 -6 3 1.04 0.00
 -1 -6 2 5.37 0.00
 -1 -6 1 2.39 0.00
 1 6 0 -0.19 0.00
 1 6 1 0.00 0.00
 1 6 2 -0.65 0.00
 1 6 3 -1.65 0.00
 1 6 4 -0.98 0.00
 1 6 5 0.21 0.00
 1 6 6 0.35 0.00
 1 6 7 -0.09 0.00
 1 6 8 -0.19 0.00
 1 6 9 0.08 0.00
 1 6 10 0.37 0.00
 1 6 11 0.15 0.00
 1 6 12 -0.26 0.00
 1 6 13 0.24 0.00
 1 6 14 0.80 0.00
 1 6 15 0.24 0.00
 1 6 16 -0.05 0.00
 0 -7 20 -0.23 0.00
 0 -7 19 -0.06 0.00
 0 -7 18 0.11 0.00
 0 -7 17 -0.23 0.00
 0 -7 16 -0.37 0.00
 0 -7 15 0.41 0.00
 0 -7 14 0.94 0.00
 0 -7 13 0.35 0.00
 0 -7 12 -0.23 0.00
 0 -7 11 -0.05 0.00
 0 -7 10 -0.02 0.00
 0 -7 9 -0.64 0.00
 0 -7 8 -0.90 0.00
 0 -7 7 0.08 0.00
 0 -7 6 1.50 0.00
 0 -7 5 1.01 0.00
 0 -7 4 -1.02 0.00
 0 -7 3 -0.64 0.00
 0 -7 2 0.89 0.00
 0 -7 1 -0.64 0.00
 0 7 0 -1.83 0.00
 0 7 1 0.49 0.00
 0 7 2 1.75 0.00
 0 7 3 0.12 0.00
 0 7 4 -0.85 0.00
 0 7 5 -0.42 0.00
 0 7 6 0.15 0.00
 0 7 7 0.76 0.00
 0 7 8 0.80 0.00
 0 7 9 0.02 0.00
 0 7 10 -0.25 0.00
 0 7 11 0.03 0.00
 0 7 12 -0.40 0.00
 0 7 13 -0.46 0.00
 0 7 14 0.56 0.00
 0 7 15 0.58 0.00
 1 -8 19 -0.18 0.00
 1 -8 18 0.02 0.00
 1 -8 17 0.03 0.00
 1 -8 16 -0.22 0.00
 1 -8 15 -0.31 0.00
 1 -8 14 -0.06 0.00
 1 -8 13 0.13 0.00
 1 -8 12 -0.21 0.00
 1 -8 11 -0.56 0.00
 1 -8 10 -0.25 0.00
 1 -8 9 0.41 0.00
 1 -8 8 0.88 0.00
 1 -8 7 0.31 0.00
 1 -8 6 -1.27 0.00
 1 -8 5 -1.79 0.00
 1 -8 4 -0.16 0.00
 1 -8 3 1.87 0.00
 1 -8 2 1.99 0.00
 1 -8 1 0.67 0.00
 -1 8 0 -0.11 0.00
 -1 8 1 -0.22 0.00
 -1 8 2 -0.45 0.00
 -1 8 3 -0.77 0.00
 -1 8 4 -0.61 0.00
 -1 8 5 0.19 0.00
 -1 8 6 0.42 0.00
 -1 8 7 -0.14 0.00
 -1 8 8 -0.10 0.00
 -1 8 9 0.23 0.00
 -1 8 10 0.27 0.00
 -1 8 11 0.50 0.00
 -1 8 12 0.27 0.00
 -1 8 13 -0.26 0.00
 -1 8 14 -0.02 0.00
 -1 8 15 0.29 0.00
 2 -9 19 0.03 0.00
 2 -9 18 0.32 0.00
 2 -9 17 0.18 0.00
 2 -9 16 0.18 0.00
 2 -9 15 0.22 0.00
 2 -9 14 0.02 0.00
 2 -9 13 -0.09 0.00
 2 -9 12 -0.01 0.00
 2 -9 11 0.20 0.00
 2 -9 10 0.13 0.00
 2 -9 9 -0.41 0.00
 2 -9 8 -0.17 0.00
 2 -9 7 0.89 0.00
 2 -9 6 0.74 0.00
 2 -9 5 -0.92 0.00
 2 -9 4 -1.47 0.00
 2 -9 3 0.16 0.00
 2 -9 2 0.77 0.00
 2 -9 1 -0.62 0.00
 -2 9 0 -0.79 0.00
 -2 9 1 0.61 0.00
 -2 9 2 1.12 0.00
 -2 9 3 0.07 0.00
 -2 9 4 -1.03 0.00
 -2 9 5 -0.74 0.00
 -2 9 6 0.01 0.00
 -2 9 7 0.39 0.00
 -2 9 8 0.67 0.00
 -2 9 9 0.11 0.00
 -2 9 10 -0.55 0.00
 -2 9 11 -0.16 0.00
 -2 9 12 -0.05 0.00
 -2 9 13 -0.14 0.00
 -2 9 14 0.41 0.00
 3 -10 18 0.29 0.00
 3 -10 17 0.58 0.00
 3 -10 16 0.22 0.00
 3 -10 15 0.02 0.00
 3 -10 14 -0.10 0.00
 3 -10 13 -0.31 0.00
 3 -10 12 -0.29 0.00
 3 -10 11 -0.08 0.00
 3 -10 10 0.15 0.00
 3 -10 9 0.03 0.00
 3 -10 8 -0.47 0.00
 3 -10 7 -0.44 0.00
 3 -10 6 0.21 0.00
 3 -10 5 0.20 0.00
 3 -10 4 -0.01 0.00
 3 -10 3 0.50 0.00
 3 -10 2 0.46 0.00
 3 -10 1 -0.07 0.00
 -3 10 0 0.09 0.00
 -3 10 1 0.22 0.00
 -3 10 2 0.07 0.00
 -3 10 3 -0.14 0.00
 -3 10 4 -0.38 0.00
 -3 10 5 -0.08 0.00
 -3 10 6 0.13 0.00
 -3 10 7 -0.15 0.00
 -3 10 8 -0.12 0.00
 -3 10 9 0.05 0.00
 -3 10 10 0.23 0.00
 -3 10 11 0.40 0.00
 -3 10 12 0.03 0.00
 -3 10 13 -0.26 0.00
 4 -11 17 0.21 0.00
 4 -11 16 0.27 0.00
 4 -11 15 0.30 0.00
 4 -11 14 0.53 0.00
 4 -11 13 0.44 0.00
 4 -11 12 0.20 0.00
 4 -11 11 0.03 0.00
 4 -11 10 -0.28 0.00
 4 -11 9 -0.27 0.00
 4 -11 8 0.03 0.00
 4 -11 7 -0.09 0.00
 4 -11 6 -0.18 0.00
 4 -11 5 -0.06 0.00
 4 -11 4 -0.13 0.00
 4 -11 3 -0.18 0.00
 4 -11 2 -0.43 0.00
 4 -11 1 -0.66 0.00
 -4 11 0 -0.34 0.00
 -4 11 1 0.01 0.00
 -4 11 2 0.30 0.00
 -4 11 3 0.44 0.00
 -4 11 4 0.08 0.00
 -4 11 5 -0.39 0.00
 -4 11 6 -0.43 0.00
 -4 11 7 0.05 0.00
 -4 11 8 0.28 0.00
 -4 11 9 0.10 0.00
 -4 11 10 0.40 0.00
 -4 11 11 0.47 0.00
 -4 11 12 -0.33 0.00
 5 -12 15 0.05 0.00
 5 -12 14 0.21 0.00
 5 -12 13 0.13 0.00
 5 -12 12 0.14 0.00
 5 -12 11 0.25 0.00
 5 -12 10 0.06 0.00
 5 -12 9 -0.34 0.00
 5 -12 8 -0.34 0.00
 5 -12 7 -0.12 0.00
 5 -12 6 -0.10 0.00
 5 -12 5 0.05 0.00
 5 -12 4 0.51 0.00
 5 -12 3 0.58 0.00
 5 -12 2 0.02 0.00
 5 -12 1 -0.19 0.00
 -5 12 0 -0.13 0.00
 -5 12 1 -0.48 0.00
 -5 12 2 -0.40 0.00
 -5 12 3 0.26 0.00
 -5 12 4 0.38 0.00
 -5 12 5 -0.08 0.00
 -5 12 6 -0.25 0.00
 -5 12 7 -0.14 0.00
 -5 12 8 -0.36 0.00
 -5 12 9 -0.35 0.00
 -5 12 10 0.27 0.00
 6 -13 14 0.15 0.00
 6 -13 13 0.00 0.00
 6 -13 12 -0.16 0.00
 6 -13 11 -0.06 0.00
 6 -13 10 0.08 0.00
 6 -13 9 0.11 0.00
 6 -13 8 0.12 0.00
 6 -13 7 0.06 0.00
 6 -13 6 -0.06 0.00
 6 -13 5 -0.14 0.00
 6 -13 4 -0.05 0.00
 6 -13 3 0.06 0.00
 6 -13 2 -0.15 0.00
 6 -13 1 -0.28 0.00
 -6 13 0 -0.19 0.00
 -6 13 1 -0.29 0.00
 -6 13 2 -0.14 0.00
 -6 13 3 0.45 0.00
 -6 13 4 0.59 0.00
 -6 13 5 0.11 0.00
 -6 13 6 0.08 0.00
 -6 13 7 0.47 0.00
 -6 13 8 0.18 0.00
 7 -14 11 0.06 0.00
 7 -14 10 -0.10 0.00
 7 -14 9 -0.22 0.00
 7 -14 8 -0.02 0.00
 7 -14 7 0.03 0.00
 7 -14 6 0.05 0.00
 7 -14 5 0.21 0.00
 7 -14 4 0.39 0.00
 7 -14 3 0.44 0.00
 7 -14 2 0.14 0.00
 7 -14 1 -0.02 0.00
 -7 14 0 0.07 0.00
 -7 14 1 -0.15 0.00
 -7 14 2 -0.38 0.00
 -7 14 3 -0.33 0.00
 -7 14 4 -0.28 0.00
 -7 14 5 0.01 0.00
 -7 14 6 0.43 0.00
 8 -15 6 -0.09 0.00
 8 -15 5 -0.36 0.00
 8 -15 4 -0.43 0.00
 8 -15 3 -0.35 0.00
 8 -15 2 -0.28 0.00
 8 -15 1 0.03 0.00
 -8 15 0 0.27 0.00
 -15 7 8 -0.25 0.00
 -15 7 7 -0.07 0.00
 -15 7 6 -0.20 0.00
 -15 7 5 0.01 0.00
 -15 7 4 -0.04 0.00
 -15 7 3 -0.31 0.00
 -15 7 2 -0.03 0.00
 -15 7 1 0.28 0.00
 -15 7 0 0.07 0.00
 15 -7 1 -0.04 0.00
 15 -7 2 0.19 0.00
 15 -7 3 0.30 0.00
 -14 6 12 -0.34 0.00
 -14 6 11 0.31 0.00
 -14 6 10 0.32 0.00
 -14 6 9 0.15 0.00
 -14 6 8 0.29 0.00
 -14 6 7 0.12 0.00
 -14 6 6 -0.06 0.00
 -14 6 5 -0.21 0.00
 -14 6 4 -0.73 0.00
 -14 6 3 -0.71 0.00
 -14 6 2 0.00 0.00
 -14 6 1 0.24 0.00
 -14 6 0 0.00 0.00
 14 -6 1 -0.09 0.00
 14 -6 2 0.08 0.00
 14 -6 3 0.31 0.00
 14 -6 4 0.19 0.00
 14 -6 5 -0.21 0.00
 14 -6 6 -0.26 0.00
 14 -6 7 -0.06 0.00
 -13 5 14 0.10 0.00
 -13 5 13 -0.61 0.00
 -13 5 12 -0.18 0.00
 -13 5 11 0.37 0.00
 -13 5 10 0.00 0.00
 -13 5 9 -0.32 0.00
 -13 5 8 -0.37 0.00
 -13 5 7 -0.12 0.00
 -13 5 6 0.88 0.00
 -13 5 5 1.11 0.00
 -13 5 4 -0.12 0.00
 -13 5 3 -0.88 0.00
 -13 5 2 -0.62 0.00
 -13 5 1 -0.17 0.00
 -13 5 0 0.12 0.00
 13 -5 1 0.12 0.00
 13 -5 2 0.02 0.00
 13 -5 3 0.21 0.00
 13 -5 4 0.47 0.00
 13 -5 5 0.22 0.00
 13 -5 6 -0.18 0.00
 13 -5 7 -0.11 0.00
 13 -5 8 -0.04 0.00
 13 -5 9 -0.22 0.00
 -12 4 15 0.07 0.00
 -12 4 14 -0.26 0.00
 -12 4 13 -0.06 0.00
 -12 4 12 0.00 0.00
 -12 4 11 -0.18 0.00
 -12 4 10 0.28 0.00
 -12 4 9 0.90 0.00
 -12 4 8 0.39 0.00
 -12 4 7 -0.56 0.00
 -12 4 6 -0.50 0.00
 -12 4 5 0.12 0.00
 -12 4 4 0.42 0.00
 -12 4 3 0.29 0.00
 -12 4 2 0.12 0.00
 -12 4 1 0.25 0.00
 -12 4 0 0.03 0.00
 12 -4 1 -0.49 0.00
 12 -4 2 -0.40 0.00
 12 -4 3 -0.01 0.00
 12 -4 4 0.22 0.00
 12 -4 5 0.21 0.00
 12 -4 6 -0.12 0.00
 12 -4 7 -0.20 0.00
 12 -4 8 0.20 0.00
 12 -4 9 0.25 0.00
 12 -4 10 -0.19 0.00
 12 -4 11 -0.35 0.00
 -11 3 17 -0.32 0.00
 -11 3 16 -0.06 0.00
 -11 3 15 0.04 0.00
 -11 3 14 -0.26 0.00
 -11 3 13 0.20 0.00
 -11 3 12 0.59 0.00
 -11 3 11 -0.27 0.00
 -11 3 10 -0.79 0.00
 -11 3 9 -0.19 0.00
 -11 3 8 0.34 0.00
 -11 3 7 0.44 0.00
 -11 3 6 -0.03 0.00
 -11 3 5 -0.47 0.00
 -11 3 4 0.07 0.00
 -11 3 3 0.20 0.00
 -11 3 2 -0.42 0.00
 -11 3 1 0.11 0.00
 -11 3 0 0.99 0.00
 11 -3 1 0.58 0.00
 11 -3 2 -0.35 0.00
 11 -3 3 -0.53 0.00
 11 -3 4 0.29 0.00
 11 -3 5 0.78 0.00
 11 -3 6 -0.08 0.00
 11 -3 7 -0.78 0.00
 11 -3 8 -0.29 0.00
 11 -3 9 0.04 0.00
 11 -3 10 -0.16 0.00
 11 -3 11 0.12 0.00
 11 -3 12 0.33 0.00
 -10 2 18 0.23 0.00
 -10 2 17 0.34 0.00
 -10 2 16 0.05 0.00
 -10 2 15 -0.35 0.00
 -10 2 14 -0.19 0.00
 -10 2 13 0.03 0.00
 -10 2 12 -0.09 0.00
 -10 2 11 0.09 0.00
 -10 2 10 0.79 0.00
 -10 2 9 1.02 0.00
 -10 2 8 0.31 0.00
 -10 2 7 -0.24 0.00
 -10 2 6 -0.28 0.00
 -10 2 5 -0.23 0.00
 -10 2 4 0.14 0.00
 -10 2 3 0.32 0.00
 -10 2 2 -0.08 0.00
 -10 2 1 -0.23 0.00
 -10 2 0 0.00 0.00
 10 -2 1 0.25 0.00
 10 -2 2 0.20 0.00
 10 -2 3 -0.32 0.00
 10 -2 4 -0.20 0.00
 10 -2 5 0.90 0.00
 10 -2 6 1.04 0.00
 10 -2 7 -0.21 0.00
 10 -2 8 -0.73 0.00
 10 -2 9 -0.28 0.00
 10 -2 10 -0.46 0.00
 10 -2 11 -0.68 0.00
 10 -2 12 -0.04 0.00
 10 -2 13 0.42 0.00
 -9 1 19 -0.14 0.00
 -9 1 18 -0.04 0.00
 -9 1 17 0.11 0.00
 -9 1 16 0.23 0.00
 -9 1 15 -0.25 0.00
 -9 1 14 -0.30 0.00
 -9 1 13 0.19 0.00
 -9 1 12 -0.28 0.00
 -9 1 11 -1.19 0.00
 -9 1 10 -0.79 0.00
 -9 1 9 0.61 0.00
 -9 1 8 1.22 0.00
 -9 1 7 0.41 0.00
 -9 1 6 -0.54 0.00
 -9 1 5 -0.24 0.00
 -9 1 4 0.65 0.00
 -9 1 3 0.78 0.00
 -9 1 2 0.35 0.00
 -9 1 1 0.04 0.00
 -9 1 0 -0.03 0.00
 9 -1 1 -0.07 0.00
 9 -1 2 -0.59 0.00
 9 -1 3 -1.02 0.00
 9 -1 4 -0.40 0.00
 9 -1 5 0.43 0.00
 9 -1 6 0.58 0.00
 9 -1 7 0.29 0.00
 9 -1 8 0.07 0.00
 9 -1 9 0.12 0.00
 9 -1 10 0.00 0.00
 9 -1 11 -0.35 0.00
 9 -1 12 -0.33 0.00
 9 -1 13 -0.02 0.00
 9 -1 14 -0.09 0.00
 -8 0 20 0.10 0.00
 -8 0 19 -0.37 0.00
 -8 0 18 -0.75 0.00
 -8 0 17 -0.06 0.00
 -8 0 16 0.45 0.00
 -8 0 15 0.01 0.00
 -8 0 14 0.01 0.00
 -8 0 13 0.39 0.00
 -8 0 12 0.29 0.00
 -8 0 11 0.02 0.00
 -8 0 10 -0.41 0.00
 -8 0 9 -0.72 0.00
 -8 0 8 0.28 0.00
 -8 0 7 1.21 0.00
 -8 0 6 -0.14 0.00
 -8 0 5 -1.37 0.00
 -8 0 4 -0.39 0.00
 -8 0 3 0.48 0.00
 -8 0 2 0.31 0.00
 -8 0 1 0.35 0.00
 8 0 0 0.98 0.00
 8 0 1 1.78 0.00
 8 0 2 0.95 0.00
 8 0 3 -1.29 0.00
 8 0 4 -1.33 0.00
 8 0 5 0.42 0.00
 8 0 6 0.51 0.00
 8 0 7 -0.59 0.00
 8 0 8 -0.70 0.00
 8 0 9 0.08 0.00
 8 0 10 0.53 0.00
 8 0 11 0.29 0.00
 8 0 12 0.04 0.00
 8 0 13 0.21 0.00
 8 0 14 0.28 0.00
 -7 -1 20 0.38 0.00
 -7 -1 19 0.42 0.00
 -7 -1 18 -0.31 0.00
 -7 -1 17 -0.55 0.00
 -7 -1 16 -0.30 0.00
 -7 -1 15 -0.20 0.00
 -7 -1 14 -0.03 0.00
 -7 -1 13 0.15 0.00
 -7 -1 12 0.27 0.00
 -7 -1 11 0.37 0.00
 -7 -1 10 0.50 0.00
 -7 -1 9 0.53 0.00
 -7 -1 8 0.49 0.00
 -7 -1 7 0.24 0.00
 -7 -1 6 -0.52 0.00
 -7 -1 5 -0.30 0.00
 -7 -1 4 1.67 0.00
 -7 -1 3 2.37 0.00
 -7 -1 2 0.01 0.00
 -7 -1 1 -3.24 0.00
 7 1 0 -3.53 0.00
 7 1 1 0.26 0.00
 7 1 2 2.88 0.00
 7 1 3 0.91 0.00
 7 1 4 -0.85 0.00
 7 1 5 0.25 0.00
 7 1 6 0.98 0.00
 7 1 7 0.31 0.00
 7 1 8 -0.39 0.00
 7 1 9 -0.54 0.00
 7 1 10 -0.14 0.00
 7 1 11 0.02 0.00
 7 1 12 -0.31 0.00
 7 1 13 -0.14 0.00
 7 1 14 0.32 0.00
 7 1 15 0.23 0.00
 -6 -2 20 0.37 0.00
 -6 -2 19 -0.30 0.00
 -6 -2 18 -0.35 0.00
 -6 -2 17 0.12 0.00
 -6 -2 16 0.10 0.00
 -6 -2 15 -0.04 0.00
 -6 -2 14 -0.38 0.00
 -6 -2 13 -0.70 0.00
 -6 -2 12 -0.39 0.00
 -6 -2 11 -0.61 0.00
 -6 -2 10 -0.91 0.00
 -6 -2 9 0.51 0.00
 -6 -2 8 2.23 0.00
 -6 -2 7 1.90 0.00
 -6 -2 6 -0.36 0.00
 -6 -2 5 -2.63 0.00
 -6 -2 4 -2.05 0.00
 -6 -2 3 2.50 0.00
 -6 -2 2 6.12 0.00
 -6 -2 1 3.25 0.00
 6 2 0 -1.72 0.00
 6 2 1 -2.16 0.00
 6 2 2 -1.09 0.00
 6 2 3 -1.69 0.00
 6 2 4 -1.31 0.00
 6 2 5 -0.05 0.00
 6 2 6 0.29 0.00
 6 2 7 0.37 0.00
 6 2 8 0.39 0.00
 6 2 9 0.20 0.00
 6 2 10 0.21 0.00
 6 2 11 -0.03 0.00
 6 2 12 -0.35 0.00
 6 2 13 0.05 0.00
 6 2 14 0.40 0.00
 6 2 15 -0.11 0.00
 -5 -3 21 0.24 0.00
 -5 -3 20 0.71 0.00
 -5 -3 19 0.16 0.00
 -5 -3 18 -0.31 0.00
 -5 -3 17 -0.10 0.00
 -5 -3 16 0.04 0.00
 -5 -3 15 -0.02 0.00
 -5 -3 14 0.23 0.00
 -5 -3 13 1.02 0.00
 -5 -3 12 0.77 0.00
 -5 -3 11 -1.14 0.00
 -5 -3 10 -1.66 0.00
 -5 -3 9 -0.36 0.00
 -5 -3 8 0.08 0.00
 -5 -3 7 0.46 0.00
 -5 -3 6 1.57 0.00
 -5 -3 5 0.64 0.00
 -5 -3 4 -2.10 0.00
 -5 -3 3 -2.31 0.00
 -5 -3 2 -0.63 0.00
 -5 -3 1 -0.54 0.00
 5 3 0 0.95 0.00
 5 3 1 4.76 0.00
 5 3 2 4.69 0.00
 5 3 3 0.86 0.00
 5 3 4 -1.31 0.00
 5 3 5 -1.51 0.00
 5 3 6 -0.86 0.00
 5 3 7 -0.01 0.00
 5 3 8 -0.25 0.00
 5 3 9 -0.34 0.00
 5 3 10 0.34 0.00
 5 3 11 0.12 0.00
 5 3 12 -0.50 0.00
 5 3 13 -0.08 0.00
 5 3 14 0.30 0.00
 5 3 15 -0.02 0.00
 -4 -4 20 -0.20 0.00
 -4 -4 19 -0.06 0.00
 -4 -4 18 0.07 0.00
 -4 -4 17 0.09 0.00
 -4 -4 16 0.03 0.00
 -4 -4 15 -0.66 0.00
 -4 -4 14 -1.32 0.00
 -4 -4 13 -0.11 0.00
 -4 -4 12 1.03 0.00
 -4 -4 11 0.10 0.00
 -4 -4 10 0.25 0.00
 -4 -4 9 2.00 0.00
 -4 -4 8 1.89 0.00
 -4 -4 7 0.63 0.00
 -4 -4 6 -0.03 0.00
 -4 -4 5 -1.35 0.00
 -4 -4 4 -1.55 0.00
 -4 -4 3 2.20 0.00
 -4 -4 2 3.81 0.00
 -4 -4 1 -2.08 0.00
 4 4 0 -6.96 0.00
 4 4 1 -3.85 0.00
 4 4 2 1.17 0.00
 4 4 3 3.01 0.00
 4 4 4 2.50 0.00
 4 4 5 0.87 0.00
 4 4 6 0.08 0.00
 4 4 7 0.21 0.00
 4 4 8 -0.43 0.00
 4 4 9 -0.61 0.00
 4 4 10 0.40 0.00
 4 4 11 0.67 0.00
 4 4 12 0.03 0.00
 4 4 13 -0.30 0.00
 4 4 14 -0.28 0.00
 4 4 15 -0.14 0.00
 -3 -5 20 0.26 0.00
 -3 -5 19 0.23 0.00
 -3 -5 18 -0.10 0.00
 -3 -5 17 0.25 0.00
 -3 -5 16 0.71 0.00
 -3 -5 15 0.21 0.00
 -3 -5 14 -0.54 0.00
 -3 -5 13 -0.64 0.00
 -3 -5 12 -0.93 0.00
 -3 -5 11 -1.57 0.00
 -3 -5 10 -1.49 0.00
 -3 -5 9 -0.61 0.00
 -3 -5 8 1.44 0.00
 -3 -5 7 4.53 0.00
 -3 -5 6 4.76 0.00
 -3 -5 5 -0.62 0.00
 -3 -5 4 -5.73 0.00
 -3 -5 3 -2.78 0.00
 -3 -5 2 4.39 0.00
 -3 -5 1 5.71 0.00
 3 5 0 1.13 0.00
 3 5 1 -2.06 0.00
 3 5 2 -1.66 0.00
 3 5 3 -0.63 0.00
 3 5 4 -0.52 0.00
 3 5 5 -0.31 0.00
 3 5 6 0.29 0.00
 3 5 7 0.19 0.00
 3 5 8 -0.33 0.00
 3 5 9 -0.22 0.00
 3 5 10 0.08 0.00
 3 5 11 0.02 0.00
 3 5 12 0.05 0.00
 3 5 13 0.26 0.00
 3 5 14 0.36 0.00
 3 5 15 0.44 0.00
 -2 -6 20 -0.62 0.00
 -2 -6 19 -0.06 0.00
 -2 -6 18 -0.03 0.00
 -2 -6 17 -0.07 0.00
 -2 -6 16 0.06 0.00
 -2 -6 15 0.10 0.00
 -2 -6 14 0.29 0.00
 -2 -6 13 0.54 0.00
 -2 -6 12 0.36 0.00
 -2 -6 11 0.19 0.00
 -2 -6 10 0.12 0.00
 -2 -6 9 -1.33 0.00
 -2 -6 8 -3.27 0.00
 -2 -6 7 -1.15 0.00
 -2 -6 6 4.41 0.00
 -2 -6 5 5.01 0.00
 -2 -6 4 -1.30 0.00
 -2 -6 3 -4.77 0.00
 -2 -6 2 -1.74 0.00
 -2 -6 1 0.52 0.00
 2 6 0 0.16 0.00
 2 6 1 0.95 0.00
 2 6 2 1.67 0.00
 2 6 3 0.54 0.00
 2 6 4 -0.30 0.00
 2 6 5 0.03 0.00
 2 6 6 0.32 0.00
 2 6 7 0.15 0.00
 2 6 8 -0.27 0.00
 2 6 9 -0.47 0.00
 2 6 10 -0.12 0.00
 2 6 11 0.12 0.00
 2 6 12 -0.35 0.00
 2 6 13 -0.64 0.00
 2 6 14 -0.05 0.00
 2 6 15 0.40 0.00
 -1 -7 20 -0.14 0.00
 -1 -7 19 -0.53 0.00
 -1 -7 18 -0.14 0.00
 -1 -7 17 0.36 0.00
 -1 -7 16 -0.25 0.00
 -1 -7 15 -1.04 0.00
 -1 -7 14 -0.62 0.00
 -1 -7 13 0.22 0.00
 -1 -7 12 0.26 0.00
 -1 -7 11 -0.15 0.00
 -1 -7 10 0.00 0.00
 -1 -7 9 0.51 0.00
 -1 -7 8 0.39 0.00
 -1 -7 7 -0.32 0.00
 -1 -7 6 -0.48 0.00
 -1 -7 5 0.09 0.00
 -1 -7 4 -0.12 0.00
 -1 -7 3 -0.27 0.00
 -1 -7 2 1.44 0.00
 -1 -7 1 1.85 0.00
 1 7 0 -0.69 0.00
 1 7 1 -1.59 0.00
 1 7 2 -0.04 0.00
 1 7 3 0.26 0.00
 1 7 4 -0.24 0.00
 1 7 5 -0.09 0.00
 1 7 6 -0.30 0.00
 1 7 7 -0.46 0.00
 1 7 8 0.20 0.00
 1 7 9 0.53 0.00
 1 7 10 0.18 0.00
 1 7 11 0.13 0.00
 1 7 12 0.09 0.00
 1 7 13 -0.53 0.00
 1 7 14 -0.53 0.00
 1 7 15 0.30 0.00
 0 -8 20 0.18 0.00
 0 -8 19 -0.04 0.00
 0 -8 18 -0.02 0.00
 0 -8 17 0.31 0.00
 0 -8 16 0.52 0.00
 0 -8 15 0.11 0.00
 0 -8 14 -0.30 0.00
 0 -8 13 0.33 0.00
 0 -8 12 0.86 0.00
 0 -8 11 -0.03 0.00
 0 -8 10 -0.86 0.00
 0 -8 9 -0.78 0.00
 0 -8 8 -0.11 0.00
 0 -8 7 1.38 0.00
 0 -8 6 1.91 0.00
 0 -8 5 -0.24 0.00
 0 -8 4 -2.69 0.00
 0 -8 3 -2.44 0.00
 0 -8 2 -0.49 0.00
 0 -8 1 0.79 0.00
 0 8 0 1.27 0.00
 0 8 1 1.25 0.00
 0 8 2 0.45 0.00
 0 8 3 -0.52 0.00
 0 8 4 -0.86 0.00
 0 8 5 -0.31 0.00
 0 8 6 0.45 0.00
 0 8 7 0.02 0.00
 0 8 8 -0.77 0.00
 0 8 9 -0.31 0.00
 0 8 10 0.24 0.00
 0 8 11 0.20 0.00
 0 8 12 0.27 0.00
 0 8 13 0.05 0.00
 0 8 14 -0.35 0.00
 1 -9 19 -0.30 0.00
 1 -9 18 0.06 0.00
 1 -9 17 0.11 0.00
 1 -9 16 -0.12 0.00
 1 -9 15 -0.12 0.00
 1 -9 14 -0.11 0.00
 1 -9 13 0.15 0.00
 1 -9 12 0.45 0.00
 1 -9 11 0.15 0.00
 1 -9 10 -0.10 0.00
 1 -9 9 -0.05 0.00
 1 -9 8 -0.16 0.00
 1 -9 7 0.07 0.00
 1 -9 6 0.82 0.00
 1 -9 5 1.04 0.00
 1 -9 4 -0.13 0.00
 1 -9 3 -0.97 0.00
 1 -9 2 -0.11 0.00
 1 -9 1 0.31 0.00
 -1 9 0 -0.42 0.00
 -1 9 1 -0.36 0.00
 -1 9 2 0.64 0.00
 -1 9 3 1.00 0.00
 -1 9 4 0.12 0.00
 -1 9 5 -0.65 0.00
 -1 9 6 -0.46 0.00
 -1 9 7 -0.46 0.00
 -1 9 8 -0.30 0.00
 -1 9 9 0.43 0.00
 -1 9 10 0.30 0.00
 -1 9 11 -0.19 0.00
 -1 9 12 -0.17 0.00
 -1 9 13 -0.41 0.00
 2 -10 18 -0.38 0.00
 2 -10 17 0.18 0.00
 2 -10 16 0.37 0.00
 2 -10 15 0.09 0.00
 2 -10 14 -0.03 0.00
 2 -10 13 0.13 0.00
 2 -10 12 0.20 0.00
 2 -10 11 0.03 0.00
 2 -10 10 -0.08 0.00
 2 -10 9 0.13 0.00
 2 -10 8 0.41 0.00
 2 -10 7 0.18 0.00
 2 -10 6 -0.21 0.00
 2 -10 5 -0.17 0.00
 2 -10 4 -0.21 0.00
 2 -10 3 -0.30 0.00
 2 -10 2 -0.17 0.00
 2 -10 1 -0.21 0.00
 -2 10 0 -0.04 0.00
 -2 10 1 0.30 0.00
 -2 10 2 0.53 0.00
 -2 10 3 0.57 0.00
 -2 10 4 -0.13 0.00
 -2 10 5 -0.47 0.00
 -2 10 6 0.24 0.00
 -2 10 7 0.31 0.00
 -2 10 8 -0.13 0.00
 -2 10 9 -0.13 0.00
 -2 10 10 -0.19 0.00
 -2 10 11 0.03 0.00
 -2 10 12 0.35 0.00
 -2 10 13 -0.05 0.00
 3 -11 17 0.04 0.00
 3 -11 16 0.04 0.00
 3 -11 15 -0.28 0.00
 3 -11 14 -0.26 0.00
 3 -11 13 0.06 0.00
 3 -11 12 0.19 0.00
 3 -11 11 0.43 0.00
 3 -11 10 0.49 0.00
 3 -11 9 0.11 0.00
 3 -11 8 0.13 0.00
 3 -11 7 0.18 0.00
 3 -11 6 -0.08 0.00
 3 -11 5 0.08 0.00
 3 -11 4 0.29 0.00
 3 -11 3 0.40 0.00
 3 -11 2 0.43 0.00
 3 -11 1 -0.24 0.00
 -3 11 0 -0.66 0.00
 -3 11 1 -0.27 0.00
 -3 11 2 0.18 0.00
 -3 11 3 0.43 0.00
 -3 11 4 0.33 0.00
 -3 11 5 -0.02 0.00
 -3 11 6 -0.33 0.00
 -3 11 7 -0.49 0.00
 -3 11 8 -0.19 0.00
 -3 11 9 -0.02 0.00
 -3 11 10 -0.12 0.00
 -3 11 11 0.39 0.00
 -3 11 12 0.61 0.00
 4 -12 16 0.07 0.00
 4 -12 15 -0.09 0.00
 4 -12 14 -0.12 0.00
 4 -12 13 -0.08 0.00
 4 -12 12 -0.14 0.00
 4 -12 11 -0.04 0.00
 4 -12 10 0.30 0.00
 4 -12 9 0.39 0.00
 4 -12 8 0.23 0.00
 4 -12 7 0.10 0.00
 4 -12 6 -0.13 0.00
 4 -12 5 -0.50 0.00
 4 -12 4 -0.52 0.00
 4 -12 3 0.32 0.00
 4 -12 2 0.86 0.00
 4 -12 1 0.20 0.00
 -4 12 0 -0.24 0.00
 -4 12 1 -0.07 0.00
 -4 12 2 -0.08 0.00
 -4 12 3 -0.03 0.00
 -4 12 4 0.21 0.00
 -4 12 5 0.28 0.00
 -4 12 6 0.24 0.00
 -4 12 7 0.28 0.00
 -4 12 8 0.09 0.00
 -4 12 9 -0.37 0.00
 -4 12 10 -0.45 0.00
 5 -13 14 0.02 0.00
 5 -13 13 0.27 0.00
 5 -13 12 0.29 0.00
 5 -13 11 0.06 0.00
 5 -13 10 -0.13 0.00
 5 -13 9 -0.06 0.00
 5 -13 8 0.07 0.00
 5 -13 7 0.10 0.00
 5 -13 6 0.27 0.00
 5 -13 5 0.28 0.00
 5 -13 4 -0.21 0.00
 5 -13 3 -0.12 0.00
 5 -13 2 0.52 0.00
 5 -13 1 0.44 0.00
 -5 13 0 -0.02 0.00
 -5 13 1 -0.17 0.00
 -5 13 2 -0.38 0.00
 -5 13 3 -0.51 0.00
 -5 13 4 -0.13 0.00
 -5 13 5 0.10 0.00
 -5 13 6 -0.29 0.00
 -5 13 7 -0.27 0.00
 -5 13 8 0.08 0.00
 6 -14 12 -0.09 0.00
 6 -14 11 -0.05 0.00
 6 -14 10 0.09 0.00
 6 -14 9 -0.04 0.00
 6 -14 8 -0.14 0.00
 6 -14 7 -0.15 0.00
 6 -14 6 -0.18 0.00
 6 -14 5 -0.21 0.00
 6 -14 4 -0.24 0.00
 6 -14 3 -0.01 0.00
 6 -14 2 0.19 0.00
 6 -14 1 0.15 0.00
 -6 14 0 0.23 0.00
 -6 14 1 0.15 0.00
 -6 14 2 0.06 0.00
 -6 14 3 0.29 0.00
 -6 14 4 0.06 0.00
 -6 14 5 -0.53 0.00
 -6 14 6 -0.36 0.00
 7 -15 8 -0.21 0.00
 7 -15 7 0.12 0.00
 7 -15 6 0.40 0.00
 7 -15 5 0.31 0.00
 7 -15 4 0.16 0.00
 7 -15 3 0.19 0.00
 7 -15 2 -0.19 0.00
 7 -15 1 -0.58 0.00
 -7 15 0 -0.17 0.00
 -7 15 1 -0.06 0.00
 -7 15 2 -0.36 0.00
 -15 6 9 0.00 0.00
 -15 6 8 0.26 0.00
 -15 6 7 0.43 0.00
 -15 6 6 0.14 0.00
 -15 6 5 0.19 0.00
 -15 6 4 0.36 0.00
 -15 6 3 -0.17 0.00
 -15 6 2 -0.36 0.00
 -15 6 1 0.29 0.00
 -15 6 0 0.42 0.00
 15 -6 1 -0.08 0.00
 15 -6 2 -0.18 0.00
 15 -6 3 0.06 0.00
 15 -6 4 0.22 0.00
 -14 5 12 -0.18 0.00
 -14 5 11 -0.14 0.00
 -14 5 10 0.14 0.00
 -14 5 9 -0.05 0.00
 -14 5 8 -0.17 0.00
 -14 5 7 -0.26 0.00
 -14 5 6 -0.35 0.00
 -14 5 5 0.18 0.00
 -14 5 4 0.64 0.00
 -14 5 3 0.18 0.00
 -14 5 2 -0.41 0.00
 -14 5 1 -0.24 0.00
 -14 5 0 0.18 0.00
 14 -5 1 0.05 0.00
 14 -5 2 -0.34 0.00
 14 -5 3 -0.31 0.00
 14 -5 4 0.19 0.00
 14 -5 5 0.35 0.00
 14 -5 6 -0.02 0.00
 14 -5 7 -0.01 0.00
 -13 4 14 0.20 0.00
 -13 4 13 0.04 0.00
 -13 4 12 0.02 0.00
 -13 4 11 -0.24 0.00
 -13 4 10 -0.61 0.00
 -13 4 9 -0.34 0.00
 -13 4 8 0.37 0.00
 -13 4 7 0.51 0.00
 -13 4 6 0.17 0.00
 -13 4 5 -0.01 0.00
 -13 4 4 -0.11 0.00
 -13 4 3 -0.18 0.00
 -13 4 2 -0.12 0.00
 -13 4 1 0.10 0.00
 -13 4 0 0.26 0.00
 13 -4 1 0.15 0.00
 13 -4 2 -0.03 0.00
 13 -4 3 -0.20 0.00
 13 -4 4 -0.07 0.00
 13 -4 5 0.41 0.00
 13 -4 6 0.34 0.00
 13 -4 7 -0.32 0.00
 13 -4 8 -0.35 0.00
 13 -4 9 0.30 0.00
 -12 3 16 -0.26 0.00
 -12 3 15 0.06 0.00
 -12 3 14 -0.11 0.00
 -12 3 13 -0.49 0.00
 -12 3 12 0.30 0.00
 -12 3 11 1.04 0.00
 -12 3 10 0.36 0.00
 -12 3 9 -0.40 0.00
 -12 3 8 -0.54 0.00
 -12 3 7 -0.44 0.00
 -12 3 6 0.06 0.00
 -12 3 5 0.37 0.00
 -12 3 4 0.27 0.00
 -12 3 3 0.19 0.00
 -12 3 2 -0.22 0.00
 -12 3 1 -0.49 0.00
 -12 3 0 0.00 0.00
 12 -3 1 0.36 0.00
 12 -3 2 0.10 0.00
 12 -3 3 -0.43 0.00
 12 -3 4 -0.44 0.00
 12 -3 5 0.46 0.00
 12 -3 6 0.99 0.00
 12 -3 7 0.30 0.00
 12 -3 8 -0.27 0.00
 12 -3 9 -0.04 0.00
 12 -3 10 -0.13 0.00
 -11 2 17 -0.01 0.00
 -11 2 16 0.30 0.00
 -11 2 15 0.11 0.00
 -11 2 14 -0.14 0.00
 -11 2 13 -0.24 0.00
 -11 2 12 -0.52 0.00
 -11 2 11 -0.80 0.00
 -11 2 10 -0.58 0.00
 -11 2 9 0.32 0.00
 -11 2 8 1.00 0.00
 -11 2 7 0.55 0.00
 -11 2 6 -0.15 0.00
 -11 2 5 -0.39 0.00
 -11 2 4 -0.36 0.00
 -11 2 3 -0.01 0.00
 -11 2 2 0.25 0.00
 -11 2 1 0.19 0.00
 -11 2 0 0.29 0.00
 11 -2 1 0.43 0.00
 11 -2 2 0.15 0.00
 11 -2 3 -0.44 0.00
 11 -2 4 -0.88 0.00
 11 -2 5 -0.46 0.00
 11 -2 6 0.62 0.00
 11 -2 7 0.81 0.00
 11 -2 8 0.18 0.00
 11 -2 9 0.33 0.00
 11 -2 10 0.53 0.00
 11 -2 11 -0.27 0.00
 11 -2 12 -0.75 0.00
 -10 1 18 -0.08 0.00
 -10 1 17 -0.31 0.00
 -10 1 16 0.07 0.00
 -10 1 15 0.35 0.00
 -10 1 14 0.07 0.00
 -10 1 13 0.30 0.00
 -10 1 12 0.83 0.00
 -10 1 11 0.33 0.00
 -10 1 10 -0.94 0.00
 -10 1 9 -1.29 0.00
 -10 1 8 -0.27 0.00
 -10 1 7 0.63 0.00
 -10 1 6 0.39 0.00
 -10 1 5 -0.13 0.00
 -10 1 4 -0.19 0.00
 -10 1 3 -0.15 0.00
 -10 1 2 -0.36 0.00
 -10 1 1 -0.39 0.00
 -10 1 0 0.35 0.00
 10 -1 1 1.38 0.00
 10 -1 2 1.16 0.00
 10 -1 3 -0.13 0.00
 10 -1 4 -0.63 0.00
 10 -1 5 -0.27 0.00
 10 -1 6 -0.01 0.00
 10 -1 7 0.06 0.00
 10 -1 8 0.02 0.00
 10 -1 9 0.16 0.00
 10 -1 10 0.57 0.00
 10 -1 11 0.60 0.00
 10 -1 12 0.09 0.00
 10 -1 13 -0.22 0.00
 -9 0 19 0.61 0.00
 -9 0 18 0.16 0.00
 -9 0 17 -0.50 0.00
 -9 0 16 -0.16 0.00
 -9 0 15 0.13 0.00
 -9 0 14 0.04 0.00
 -9 0 13 0.34 0.00
 -9 0 12 0.43 0.00
 -9 0 11 0.17 0.00
 -9 0 10 0.37 0.00
 -9 0 9 0.40 0.00
 -9 0 8 -0.20 0.00
 -9 0 7 0.04 0.00
 -9 0 6 0.90 0.00
 -9 0 5 0.61 0.00
 -9 0 4 -0.05 0.00
 -9 0 3 0.04 0.00
 -9 0 2 -0.20 0.00
 -9 0 1 -0.98 0.00
 9 0 0 -1.01 0.00
 9 0 1 0.21 0.00
 9 0 2 1.36 0.00
 9 0 3 0.74 0.00
 9 0 4 -0.57 0.00
 9 0 5 -0.27 0.00
 9 0 6 0.76 0.00
 9 0 7 0.50 0.00
 9 0 8 -0.41 0.00
 9 0 9 -0.52 0.00
 9 0 10 -0.17 0.00
 9 0 11 -0.01 0.00
 9 0 12 0.06 0.00
 9 0 13 0.09 0.00
 -8 -1 20 -0.45 0.00
 -8 -1 19 0.27 0.00
 -8 -1 18 0.64 0.00
 -8 -1 17 0.12 0.00
 -8 -1 16 -0.09 0.00
 -8 -1 15 -0.31 0.00
 -8 -1 14 -0.61 0.00
 -8 -1 13 -0.17 0.00
 -8 -1 12 0.26 0.00
 -8 -1 11 -0.32 0.00
 -8 -1 10 -0.71 0.00
 -8 -1 9 0.01 0.00
 -8 -1 8 0.25 0.00
 -8 -1 7 -0.20 0.00
 -8 -1 6 0.08 0.00
 -8 -1 5 0.26 0.00
 -8 -1 4 -0.09 0.00
 -8 -1 3 0.62 0.00
 -8 -1 2 1.90 0.00
 -8 -1 1 1.50 0.00
 8 1 0 -0.47 0.00
 8 1 1 -1.22 0.00
 8 1 2 0.13 0.00
 8 1 3 0.55 0.00
 8 1 4 -0.85 0.00
 8 1 5 -1.14 0.00
 8 1 6 0.04 0.00
 8 1 7 0.50 0.00
 8 1 8 0.25 0.00
 8 1 9 0.11 0.00
 8 1 10 -0.05 0.00
 8 1 11 -0.09 0.00
 8 1 12 -0.13 0.00
 8 1 13 -0.28 0.00
 8 1 14 -0.16 0.00
 -7 -2 20 0.31 0.00
 -7 -2 19 0.51 0.00
 -7 -2 18 0.05 0.00
 -7 -2 17 0.08 0.00
 -7 -2 16 0.36 0.00
 -7 -2 15 0.29 0.00
 -7 -2 14 0.26 0.00
 -7 -2 13 0.05 0.00
 -7 -2 12 0.00 0.00
 -7 -2 11 0.12 0.00
 -7 -2 10 -0.53 0.00
 -7 -2 9 -1.18 0.00
 -7 -2 8 -0.89 0.00
 -7 -2 7 -0.04 0.00
 -7 -2 6 1.06 0.00
 -7 -2 5 1.04 0.00
 -7 -2 4 -1.38 0.00
 -7 -2 3 -3.30 0.00
 -7 -2 2 -1.21 0.00
 -7 -2 1 1.96 0.00
 7 2 0 1.84 0.00
 7 2 1 0.82 0.00
 7 2 2 1.72 0.00
 7 2 3 1.73 0.00
 7 2 4 -0.02 0.00
 7 2 5 -0.61 0.00
 7 2 6 -0.16 0.00
 7 2 7 -0.44 0.00
 7 2 8 -0.67 0.00
 7 2 9 -0.14 0.00
 7 2 10 0.30 0.00
 7 2 11 0.27 0.00
 7 2 12 -0.26 0.00
 7 2 13 -0.61 0.00
 7 2 14 0.03 0.00
 -6 -3 20 -0.19 0.00
 -6 -3 19 0.22 0.00
 -6 -3 18 0.04 0.00
 -6 -3 17 0.06 0.00
 -6 -3 16 0.21 0.00
 -6 -3 15 -0.04 0.00
 -6 -3 14 -0.44 0.00
 -6 -3 13 -0.23 0.00
 -6 -3 12 0.78 0.00
 -6 -3 11 0.51 0.00
 -6 -3 10 -0.75 0.00
 -6 -3 9 -0.03 0.00
 -6 -3 8 0.74 0.00
 -6 -3 7 -0.82 0.00
 -6 -3 6 -1.07 0.00
 -6 -3 5 1.10 0.00
 -6 -3 4 1.46 0.00
 -6 -3 3 0.11 0.00
 -6 -3 2 0.12 0.00
 -6 -3 1 -0.70 0.00
 6 3 0 -3.52 0.00
 6 3 1 -3.32 0.00
 6 3 2 0.28 0.00
 6 3 3 1.90 0.00
 6 3 4 1.15 0.00
 6 3 5 0.68 0.00
 6 3 6 0.48 0.00
 6 3 7 0.31 0.00
 6 3 8 0.27 0.00
 6 3 9 0.01 0.00
 6 3 10 0.14 0.00
 6 3 11 0.59 0.00
 6 3 12 -0.04 0.00
 6 3 13 -0.84 0.00
 6 3 14 -0.32 0.00
 6 3 15 0.22 0.00
 -5 -4 20 0.21 0.00
 -5 -4 19 -0.18 0.00
 -5 -4 18 -0.47 0.00
 -5 -4 17 -0.15 0.00
 -5 -4 16 0.56 0.00
 -5 -4 15 0.90 0.00
 -5 -4 14 -0.10 0.00
 -5 -4 13 -0.97 0.00
 -5 -4 12 0.02 0.00
 -5 -4 11 -0.11 0.00
 -5 -4 10 -2.26 0.00
 -5 -4 9 -1.98 0.00
 -5 -4 8 0.44 0.00
 -5 -4 7 1.29 0.00
 -5 -4 6 1.46 0.00
 -5 -4 5 0.87 0.00
 -5 -4 4 -2.56 0.00
 -5 -4 3 -3.49 0.00
 -5 -4 2 2.53 0.00
 -5 -4 1 6.61 0.00
 5 4 0 2.29 0.00
 5 4 1 -2.59 0.00
 5 4 2 -2.49 0.00
 5 4 3 -1.12 0.00
 5 4 4 -0.47 0.00
 5 4 5 0.00 0.00
 5 4 6 -0.08 0.00
 5 4 7 -0.13 0.00
 5 4 8 0.19 0.00
 5 4 9 0.03 0.00
 5 4 10 -0.05 0.00
 5 4 11 0.56 0.00
 5 4 12 0.62 0.00
 5 4 13 0.14 0.00
 5 4 14 0.10 0.00
 5 4 15 0.06 0.00
 -4 -5 20 -0.22 0.00
 -4 -5 19 0.02 0.00
 -4 -5 18 -0.25 0.00
 -4 -5 17 -0.51 0.00
 -4 -5 16 0.02 0.00
 -4 -5 15 0.38 0.00
 -4 -5 14 0.13 0.00
 -4 -5 13 0.66 0.00
 -4 -5 12 1.33 0.00
 -4 -5 11 0.17 0.00
 -4 -5 10 -1.25 0.00
 -4 -5 9 -1.43 0.00
 -4 -5 8 -2.25 0.00
 -4 -5 7 -2.69 0.00
 -4 -5 6 0.73 0.00
 -4 -5 5 4.49 0.00
 -4 -5 4 1.67 0.00
 -4 -5 3 -4.34 0.00
 -4 -5 2 -4.40 0.00
 -4 -5 1 0.30 0.00
 4 5 0 2.24 0.00
 4 5 1 0.92 0.00
 4 5 2 0.16 0.00
 4 5 3 0.48 0.00
 4 5 4 0.47 0.00
 4 5 5 0.16 0.00
 4 5 6 0.08 0.00
 4 5 7 -0.02 0.00
 4 5 8 -0.29 0.00
 4 5 9 -0.41 0.00
 4 5 10 -0.18 0.00
 4 5 11 0.05 0.00
 4 5 12 -0.16 0.00
 4 5 13 -0.28 0.00
 4 5 14 -0.07 0.00
 4 5 15 -0.05 0.00
 -3 -6 20 -0.23 0.00
 -3 -6 19 -0.29 0.00
 -3 -6 18 -0.11 0.00
 -3 -6 17 -0.08 0.00
 -3 -6 16 0.00 0.00
 -3 -6 15 -0.41 0.00
 -3 -6 14 -0.97 0.00
 -3 -6 13 -0.34 0.00
 -3 -6 12 0.58 0.00
 -3 -6 11 0.01 0.00
 -3 -6 10 -0.42 0.00
 -3 -6 9 0.96 0.00
 -3 -6 8 1.03 0.00
 -3 -6 7 -1.90 0.00
 -3 -6 6 -2.69 0.00
 -3 -6 5 0.97 0.00
 -3 -6 4 2.93 0.00
 -3 -6 3 0.80 0.00
 -3 -6 2 -0.18 0.00
 -3 -6 1 0.53 0.00
 3 6 0 -0.53 0.00
 3 6 1 -1.62 0.00
 3 6 2 -0.71 0.00
 3 6 3 -0.05 0.00
 3 6 4 -0.29 0.00
 3 6 5 0.04 0.00
 3 6 6 0.56 0.00
 3 6 7 0.57 0.00
 3 6 8 0.30 0.00
 3 6 9 -0.20 0.00
 3 6 10 -0.25 0.00
 3 6 11 0.28 0.00
 3 6 12 0.16 0.00
 3 6 13 -0.45 0.00
 3 6 14 -0.47 0.00
 -2 -7 20 0.59 0.00
 -2 -7 19 0.30 0.00
 -2 -7 18 -0.28 0.00
 -2 -7 17 0.21 0.00
 -2 -7 16 1.13 0.00
 -2 -7 15 0.66 0.00
 -2 -7 14 -0.49 0.00
 -2 -7 13 -0.56 0.00
 -2 -7 12 0.11 0.00
 -2 -7 11 0.11 0.00
 -2 -7 10 -0.67 0.00
 -2 -7 9 -1.08 0.00
 -2 -7 8 -0.49 0.00
 -2 -7 7 0.43 0.00
 -2 -7 6 0.93 0.00
 -2 -7 5 0.93 0.00
 -2 -7 4 -0.20 0.00
 -2 -7 3 -2.06 0.00
 -2 -7 2 -1.47 0.00
 -2 -7 1 1.46 0.00
 2 7 0 2.01 0.00
 2 7 1 0.28 0.00
 2 7 2 0.00 0.00
 2 7 3 0.16 0.00
 2 7 4 -0.51 0.00
 2 7 5 -0.22 0.00
 2 7 6 0.34 0.00
 2 7 7 -0.06 0.00
 2 7 8 -0.30 0.00
 2 7 9 -0.09 0.00
 2 7 10 0.06 0.00
 2 7 11 0.19 0.00
 2 7 12 0.18 0.00
 2 7 13 -0.03 0.00
 2 7 14 -0.33 0.00
 -1 -8 20 0.01 0.00
 -1 -8 19 0.01 0.00
 -1 -8 18 -0.25 0.00
 -1 -8 17 -0.45 0.00
 -1 -8 16 0.00 0.00
 -1 -8 15 0.59 0.00
 -1 -8 14 0.05 0.00
 -1 -8 13 -0.63 0.00
 -1 -8 12 0.29 0.00
 -1 -8 11 1.10 0.00
 -1 -8 10 0.42 0.00
 -1 -8 9 -0.34 0.00
 -1 -8 8 -1.09 0.00
 -1 -8 7 -1.41 0.00
 -1 -8 6 0.40 0.00
 -1 -8 5 2.66 0.00
 -1 -8 4 2.15 0.00
 -1 -8 3 -0.24 0.00
 -1 -8 2 -1.62 0.00
 -1 -8 1 -1.61 0.00
 1 8 0 -0.89 0.00
 1 8 1 0.58 0.00
 1 8 2 1.61 0.00
 1 8 3 0.90 0.00
 1 8 4 -0.46 0.00
 1 8 5 -0.88 0.00
 1 8 6 -0.01 0.00
 1 8 7 0.92 0.00
 1 8 8 0.30 0.00
 1 8 9 -0.77 0.00
 1 8 10 -0.51 0.00
 1 8 11 0.10 0.00
 1 8 12 0.14 0.00
 1 8 13 0.11 0.00
 1 8 14 -0.01 0.00
 0 -9 19 -0.27 0.00
 0 -9 18 -0.19 0.00
 0 -9 17 0.20 0.00
 0 -9 16 0.10 0.00
 0 -9 15 -0.09 0.00
 0 -9 14 -0.35 0.00
 0 -9 13 -0.67 0.00
 0 -9 12 -0.10 0.00
 0 -9 11 0.62 0.00
 0 -9 10 0.25 0.00
 0 -9 9 -0.45 0.00
 0 -9 8 -0.61 0.00
 0 -9 7 -0.22 0.00
 0 -9 6 0.20 0.00
 0 -9 5 0.48 0.00
 0 -9 4 0.63 0.00
 0 -9 3 0.30 0.00
 0 -9 2 -0.09 0.00
 0 -9 1 -0.18 0.00
 0 9 0 -0.41 0.00
 0 9 1 -0.44 0.00
 0 9 2 0.11 0.00
 0 9 3 0.76 0.00
 0 9 4 0.78 0.00
 0 9 5 0.16 0.00
 0 9 6 0.00 0.00
 0 9 7 0.19 0.00
 0 9 8 -0.28 0.00
 0 9 9 -0.43 0.00
 0 9 10 0.13 0.00
 0 9 11 0.26 0.00
 0 9 12 0.19 0.00
 0 9 13 0.02 0.00
 1 -10 19 0.09 0.00
 1 -10 18 -0.35 0.00
 1 -10 17 -0.21 0.00
 1 -10 16 0.35 0.00
 1 -10 15 0.42 0.00
 1 -10 14 -0.11 0.00
 1 -10 13 -0.35 0.00
 1 -10 12 0.03 0.00
 1 -10 11 0.38 0.00
 1 -10 10 0.27 0.00
 1 -10 9 -0.25 0.00
 1 -10 8 -0.54 0.00
 1 -10 7 0.04 0.00
 1 -10 6 0.60 0.00
 1 -10 5 0.42 0.00
 1 -10 4 0.09 0.00
 1 -10 3 0.14 0.00
 1 -10 2 0.11 0.00
 1 -10 1 -0.58 0.00
 -1 10 0 -1.02 0.00
 -1 10 1 -0.62 0.00
 -1 10 2 -0.10 0.00
 -1 10 3 0.57 0.00
 -1 10 4 0.67 0.00
 -1 10 5 -0.31 0.00
 -1 10 6 -0.37 0.00
 -1 10 7 0.23 0.00
 -1 10 8 -0.09 0.00
 -1 10 9 -0.07 0.00
 -1 10 10 0.27 0.00
 -1 10 11 -0.06 0.00
 -1 10 12 0.04 0.00
 2 -11 18 -0.36 0.00
 2 -11 17 -0.21 0.00
 2 -11 16 0.30 0.00
 2 -11 15 0.30 0.00
 2 -11 14 -0.23 0.00
 2 -11 13 -0.44 0.00
 2 -11 12 -0.47 0.00
 2 -11 11 -0.36 0.00
 2 -11 10 0.14 0.00
 2 -11 9 0.13 0.00
 2 -11 8 -0.09 0.00
 2 -11 7 0.23 0.00
 2 -11 6 0.14 0.00
 2 -11 5 -0.19 0.00
 2 -11 4 -0.13 0.00
 2 -11 3 0.08 0.00
 2 -11 2 0.65 0.00
 2 -11 1 0.64 0.00
 -2 11 0 -0.37 0.00
 -2 11 1 -0.83 0.00
 -2 11 2 -0.50 0.00
 -2 11 3 0.10 0.00
 -2 11 4 0.56 0.00
 -2 11 5 0.45 0.00
 -2 11 6 0.26 0.00
 -2 11 7 -0.01 0.00
 -2 11 8 -0.46 0.00
 -2 11 9 -0.34 0.00
 -2 11 10 -0.14 0.00
 -2 11 11 -0.24 0.00
 3 -12 16 0.01 0.00
 3 -12 15 0.18 0.00
 3 -12 14 0.11 0.00
 3 -12 13 0.06 0.00
 3 -12 12 -0.02 0.00
 3 -12 11 -0.20 0.00
 3 -12 10 -0.21 0.00
 3 -12 9 -0.09 0.00
 3 -12 8 0.15 0.00
 3 -12 7 0.43 0.00
 3 -12 6 0.42 0.00
 3 -12 5 0.26 0.00
 3 -12 4 -0.31 0.00
 3 -12 3 -0.84 0.00
 3 -12 2 -0.05 0.00
 3 -12 1 0.74 0.00
 -3 12 0 0.13 0.00
 -3 12 1 -0.51 0.00
 -3 12 2 -0.33 0.00
 -3 12 3 -0.02 0.00
 -3 12 4 0.03 0.00
 -3 12 5 -0.15 0.00
 -3 12 6 -0.21 0.00
 -3 12 7 0.08 0.00
 -3 12 8 0.36 0.00
 -3 12 9 0.24 0.00
 -3 12 10 -0.12 0.00
 4 -13 15 -0.11 0.00
 4 -13 14 -0.38 0.00
 4 -13 13 -0.40 0.00
 4 -13 12 -0.10 0.00
 4 -13 11 0.18 0.00
 4 -13 10 0.03 0.00
 4 -13 9 -0.25 0.00
 4 -13 8 -0.03 0.00
 4 -13 7 0.06 0.00
 4 -13 6 -0.22 0.00
 4 -13 5 0.21 0.00
 4 -13 4 0.47 0.00
 4 -13 3 -0.33 0.00
 4 -13 2 -0.45 0.00
 4 -13 1 0.29 0.00
 -4 13 0 0.41 0.00
 -4 13 1 0.08 0.00
 -4 13 2 0.08 0.00
 -4 13 3 0.05 0.00
 -4 13 4 -0.11 0.00
 -4 13 5 0.15 0.00
 -4 13 6 0.31 0.00
 -4 13 7 -0.02 0.00
 -4 13 8 -0.16 0.00
 5 -14 13 0.15 0.00
 5 -14 12 0.10 0.00
 5 -14 11 0.05 0.00
 5 -14 10 0.06 0.00
 5 -14 9 0.00 0.00
 5 -14 8 0.07 0.00
 5 -14 7 0.11 0.00
 5 -14 6 -0.02 0.00
 5 -14 5 0.03 0.00
 5 -14 4 -0.08 0.00
 5 -14 3 -0.31 0.00
 5 -14 2 -0.16 0.00
 5 -14 1 -0.03 0.00
 -5 14 0 0.06 0.00
 -5 14 1 0.02 0.00
 -5 14 2 -0.43 0.00
 -5 14 3 -0.36 0.00
 -5 14 4 0.33 0.00
 -5 14 5 0.28 0.00
 -5 14 6 -0.29 0.00
 6 -15 9 0.15 0.00
 6 -15 8 -0.04 0.00
 6 -15 7 -0.30 0.00
 6 -15 6 -0.20 0.00
 6 -15 5 0.08 0.00
 6 -15 4 -0.04 0.00
 6 -15 3 0.07 0.00
 6 -15 2 0.58 0.00
 6 -15 1 0.25 0.00
 -6 15 0 -0.14 0.00
 -6 15 1 0.31 0.00
 -6 15 2 0.17 0.00
 -6 15 3 -0.41 0.00
 -16 6 6 0.40 0.00
 -16 6 5 0.00 0.00
 -16 6 4 -0.08 0.00
 -16 6 3 -0.08 0.00
 -16 6 1 -0.58 0.00
 -15 5 10 0.18 0.00
 -15 5 9 0.12 0.00
 -15 5 8 -0.21 0.00
 -15 5 7 -0.10 0.00
 -15 5 6 0.18 0.00
 -15 5 5 0.15 0.00
 -15 5 4 0.34 0.00
 -15 5 3 0.54 0.00
 -15 5 2 -0.11 0.00
 -15 5 1 -0.75 0.00
 -15 5 0 -0.25 0.00
 15 -5 1 0.41 0.00
 15 -5 2 0.24 0.00
 15 -5 3 -0.20 0.00
 15 -5 4 -0.19 0.00
 -14 4 13 0.08 0.00
 -14 4 12 0.23 0.00
 -14 4 11 0.29 0.00
 -14 4 10 0.11 0.00
 -14 4 9 -0.28 0.00
 -14 4 8 -0.54 0.00
 -14 4 7 -0.44 0.00
 -14 4 6 -0.08 0.00
 -14 4 5 0.33 0.00
 -14 4 4 0.57 0.00
 -14 4 3 0.47 0.00
 -14 4 2 0.08 0.00
 -14 4 1 -0.13 0.00
 -14 4 0 -0.09 0.00
 14 -4 1 -0.20 0.00
 14 -4 2 -0.09 0.00
 14 -4 3 0.12 0.00
 14 -4 4 -0.21 0.00
 14 -4 5 -0.19 0.00
 14 -4 6 0.44 0.00
 14 -4 7 0.37 0.00
 -13 3 15 -0.12 0.00
 -13 3 14 0.11 0.00
 -13 3 13 -0.32 0.00
 -13 3 12 -0.78 0.00
 -13 3 11 -0.15 0.00
 -13 3 10 0.53 0.00
 -13 3 9 0.49 0.00
 -13 3 8 0.30 0.00
 -13 3 7 -0.14 0.00
 -13 3 6 -0.74 0.00
 -13 3 5 -0.73 0.00
 -13 3 4 -0.07 0.00
 -13 3 3 0.65 0.00
 -13 3 2 0.54 0.00
 -13 3 1 -0.10 0.00
 -13 3 0 -0.03 0.00
 13 -3 1 0.23 0.00
 13 -3 2 0.04 0.00
 13 -3 3 -0.12 0.00
 13 -3 4 -0.37 0.00
 13 -3 5 -0.54 0.00
 13 -3 6 -0.03 0.00
 13 -3 7 0.43 0.00
 13 -3 8 0.12 0.00
 13 -3 9 -0.07 0.00
 -12 2 16 -0.03 0.00
 -12 2 15 0.17 0.00
 -12 2 14 0.28 0.00
 -12 2 13 0.39 0.00
 -12 2 12 0.21 0.00
 -12 2 11 -0.12 0.00
 -12 2 10 -0.55 0.00
 -12 2 9 -0.92 0.00
 -12 2 8 -0.35 0.00
 -12 2 7 0.55 0.00
 -12 2 6 0.51 0.00
 -12 2 5 0.04 0.00
 -12 2 4 -0.32 0.00
 -12 2 3 -0.51 0.00
 -12 2 2 -0.27 0.00
 -12 2 1 -0.03 0.00
 -12 2 0 -0.03 0.00
 12 -2 1 0.21 0.00
 12 -2 2 0.60 0.00
 12 -2 3 0.49 0.00
 12 -2 4 -0.07 0.00
 12 -2 5 -0.51 0.00
 12 -2 6 -0.31 0.00
 12 -2 7 0.23 0.00
 12 -2 8 -0.03 0.00
 12 -2 9 -0.41 0.00
 12 -2 10 0.28 0.00
 -11 1 18 0.43 0.00
 -11 1 17 0.19 0.00
 -11 1 16 -0.15 0.00
 -11 1 15 0.03 0.00
 -11 1 14 0.04 0.00
 -11 1 13 -0.19 0.00
 -11 1 12 0.11 0.00
 -11 1 11 0.86 0.00
 -11 1 10 1.01 0.00
 -11 1 9 0.12 0.00
 -11 1 8 -0.63 0.00
 -11 1 7 -0.43 0.00
 -11 1 6 -0.04 0.00
 -11 1 5 0.16 0.00
 -11 1 4 0.30 0.00
 -11 1 3 0.07 0.00
 -11 1 2 -0.31 0.00
 -11 1 1 -0.65 0.00
 -11 1 0 -1.03 0.00
 11 -1 1 -0.53 0.00
 11 -1 2 0.64 0.00
 11 -1 3 0.62 0.00
 11 -1 4 -0.10 0.00
 11 -1 5 -0.14 0.00
 11 -1 6 -0.01 0.00
 11 -1 7 0.08 0.00
 11 -1 8 0.04 0.00
 11 -1 9 -0.41 0.00
 11 -1 10 -0.55 0.00
 11 -1 11 0.02 0.00
 -10 0 19 -0.28 0.00
 -10 0 18 0.26 0.00
 -10 0 17 0.26 0.00
 -10 0 16 -0.12 0.00
 -10 0 15 -0.33 0.00
 -10 0 14 -0.52 0.00
 -10 0 13 -0.27 0.00
 -10 0 12 0.23 0.00
 -10 0 11 0.02 0.00
 -10 0 10 -0.45 0.00
 -10 0 9 -0.26 0.00
 -10 0 8 0.05 0.00
 -10 0 7 -0.12 0.00
 -10 0 6 -0.07 0.00
 -10 0 5 0.37 0.00
 -10 0 4 0.37 0.00
 -10 0 3 0.10 0.00
 -10 0 2 0.20 0.00
 -10 0 1 0.09 0.00
 10 0 0 -0.64 0.00
 10 0 1 -0.92 0.00
 10 0 2 -0.17 0.00
 10 0 3 0.39 0.00
 10 0 4 -0.05 0.00
 10 0 5 -0.64 0.00
 10 0 6 -0.34 0.00
 10 0 7 0.41 0.00
 10 0 8 0.37 0.00
 10 0 9 -0.06 0.00
 10 0 10 -0.09 0.00
 10 0 11 -0.14 0.00
 10 0 12 -0.17 0.00
 -9 -1 19 -0.52 0.00
 -9 -1 18 -0.10 0.00
 -9 -1 17 0.18 0.00
 -9 -1 16 0.24 0.00
 -9 -1 15 0.51 0.00
 -9 -1 14 -0.03 0.00
 -9 -1 13 -0.71 0.00
 -9 -1 12 0.04 0.00
 -9 -1 11 0.84 0.00
 -9 -1 10 0.09 0.00
 -9 -1 9 -0.49 0.00
 -9 -1 8 -0.10 0.00
 -9 -1 7 -0.60 0.00
 -9 -1 6 -1.34 0.00
 -9 -1 5 -0.42 0.00
 -9 -1 4 0.55 0.00
 -9 -1 3 0.03 0.00
 -9 -1 2 -0.48 0.00
 -9 -1 1 -0.15 0.00
 9 1 0 0.07 0.00
 9 1 1 -0.02 0.00
 9 1 2 0.29 0.00
 9 1 3 0.94 0.00
 9 1 4 0.82 0.00
 9 1 5 -0.21 0.00
 9 1 6 -0.64 0.00
 9 1 7 -0.23 0.00
 9 1 8 -0.08 0.00
 9 1 9 -0.02 0.00
 9 1 10 0.21 0.00
 9 1 11 0.21 0.00
 9 1 12 0.17 0.00
 9 1 13 0.13 0.00
 -8 -2 20 -0.23 0.00
 -8 -2 19 0.06 0.00
 -8 -2 18 0.15 0.00
 -8 -2 17 -0.19 0.00
 -8 -2 16 -0.20 0.00
 -8 -2 15 0.00 0.00
 -8 -2 14 0.07 0.00
 -8 -2 13 -0.01 0.00
 -8 -2 12 -0.09 0.00
 -8 -2 11 0.14 0.00
 -8 -2 10 0.33 0.00
 -8 -2 9 0.47 0.00
 -8 -2 8 0.52 0.00
 -8 -2 7 -0.46 0.00
 -8 -2 6 -1.41 0.00
 -8 -2 5 -0.13 0.00
 -8 -2 4 1.63 0.00
 -8 -2 3 0.86 0.00
 -8 -2 2 -1.08 0.00
 -8 -2 1 -1.43 0.00
 8 2 0 -0.99 0.00
 8 2 1 -1.18 0.00
 8 2 2 -0.84 0.00
 8 2 3 0.41 0.00
 8 2 4 0.82 0.00
 8 2 5 0.32 0.00
 8 2 6 0.53 0.00
 8 2 7 0.79 0.00
 8 2 8 -0.06 0.00
 8 2 9 -0.51 0.00
 8 2 10 -0.04 0.00
 8 2 11 0.33 0.00
 8 2 12 0.41 0.00
 8 2 13 0.00 0.00
 -7 -3 20 -0.31 0.00
 -7 -3 19 -0.25 0.00
 -7 -3 18 -0.14 0.00
 -7 -3 17 -0.15 0.00
 -7 -3 16 0.12 0.00
 -7 -3 15 0.24 0.00
 -7 -3 14 0.00 0.00
 -7 -3 13 -0.30 0.00
 -7 -3 12 0.05 0.00
 -7 -3 11 0.45 0.00
 -7 -3 10 -0.64 0.00
 -7 -3 9 -1.06 0.00
 -7 -3 8 0.84 0.00
 -7 -3 7 1.09 0.00
 -7 -3 6 -1.31 0.00
 -7 -3 5 -1.69 0.00
 -7 -3 4 0.07 0.00
 -7 -3 3 0.53 0.00
 -7 -3 2 0.79 0.00
 -7 -3 1 1.97 0.00
 7 3 0 1.28 0.00
 7 3 1 -1.01 0.00
 7 3 2 -1.42 0.00
 7 3 3 -0.43 0.00
 7 3 4 -0.36 0.00
 7 3 5 -0.59 0.00
 7 3 6 -0.14 0.00
 7 3 7 0.09 0.00
 7 3 8 -0.16 0.00
 7 3 9 -0.17 0.00
 7 3 10 0.00 0.00
 7 3 11 0.47 0.00
 7 3 12 1.02 0.00
 7 3 13 0.42 0.00
 7 3 14 -0.45 0.00
 -6 -4 20 0.21 0.00
 -6 -4 19 0.50 0.00
 -6 -4 18 0.01 0.00
 -6 -4 17 -0.63 0.00
 -6 -4 16 -0.60 0.00
 -6 -4 15 0.14 0.00
 -6 -4 14 0.64 0.00
 -6 -4 13 0.05 0.00
 -6 -4 12 0.18 0.00
 -6 -4 11 1.53 0.00
 -6 -4 10 0.86 0.00
 -6 -4 9 -1.30 0.00
 -6 -4 8 -1.26 0.00
 -6 -4 7 -0.35 0.00
 -6 -4 6 -0.26 0.00
 -6 -4 5 1.16 0.00
 -6 -4 4 1.60 0.00
 -6 -4 3 -2.32 0.00
 -6 -4 2 -4.55 0.00
 -6 -4 1 -0.57 0.00
 6 4 0 2.72 0.00
 6 4 1 1.23 0.00
 6 4 2 -0.33 0.00
 6 4 3 0.04 0.00
 6 4 4 0.22 0.00
 6 4 5 0.23 0.00
 6 4 6 0.52 0.00
 6 4 7 -0.07 0.00
 6 4 8 -0.98 0.00
 6 4 9 -0.84 0.00
 6 4 10 -0.48 0.00
 6 4 11 -0.18 0.00
 6 4 12 0.42 0.00
 6 4 13 0.30 0.00
 6 4 14 -0.08 0.00
 -5 -5 20 0.10 0.00
 -5 -5 19 0.17 0.00
 -5 -5 18 0.27 0.00
 -5 -5 17 -0.18 0.00
 -5 -5 16 -0.39 0.00
 -5 -5 15 0.05 0.00
 -5 -5 14 -0.36 0.00
 -5 -5 13 -0.97 0.00
 -5 -5 12 0.43 0.00
 -5 -5 11 1.58 0.00
 -5 -5 10 0.28 0.00
 -5 -5 9 -0.17 0.00
 -5 -5 8 1.20 0.00
 -5 -5 7 0.27 0.00
 -5 -5 6 -2.32 0.00
 -5 -5 5 -1.03 0.00
 -5 -5 4 2.75 0.00
 -5 -5 3 2.42 0.00
 -5 -5 2 -0.95 0.00
 -5 -5 1 -1.60 0.00
 5 5 0 -0.01 0.00
 5 5 1 0.21 0.00
 5 5 2 -0.73 0.00
 5 5 3 -0.99 0.00
 5 5 4 -0.60 0.00
 5 5 5 -0.07 0.00
 5 5 6 0.71 0.00
 5 5 7 0.90 0.00
 5 5 8 0.13 0.00
 5 5 9 -0.38 0.00
 5 5 10 -0.40 0.00
 5 5 11 -0.20 0.00
 5 5 12 0.06 0.00
 5 5 13 -0.14 0.00
 5 5 14 -0.23 0.00
 -4 -6 20 0.46 0.00
 -4 -6 19 0.16 0.00
 -4 -6 18 0.18 0.00
 -4 -6 17 0.09 0.00
 -4 -6 16 0.42 0.00
 -4 -6 15 1.07 0.00
 -4 -6 14 0.21 0.00
 -4 -6 13 -1.06 0.00
 -4 -6 12 0.02 0.00
 -4 -6 11 1.30 0.00
 -4 -6 10 -0.34 0.00
 -4 -6 9 -2.00 0.00
 -4 -6 8 -0.43 0.00
 -4 -6 7 1.15 0.00
 -4 -6 6 -0.07 0.00
 -4 -6 5 -0.99 0.00
 -4 -6 4 -0.28 0.00
 -4 -6 3 -0.63 0.00
 -4 -6 2 -1.05 0.00
 -4 -6 1 0.65 0.00
 4 6 0 1.96 0.00
 4 6 1 1.11 0.00
 4 6 2 0.24 0.00
 4 6 3 0.07 0.00
 4 6 4 -0.63 0.00
 4 6 5 -1.14 0.00
 4 6 6 -0.47 0.00
 4 6 7 0.31 0.00
 4 6 8 0.48 0.00
 4 6 9 0.19 0.00
 4 6 10 -0.36 0.00
 4 6 11 -0.12 0.00
 4 6 12 0.46 0.00
 4 6 13 0.06 0.00
 4 6 14 -0.31 0.00
 -3 -7 20 -0.24 0.00
 -3 -7 19 0.10 0.00
 -3 -7 18 -0.05 0.00
 -3 -7 17 -0.76 0.00
 -3 -7 16 -0.32 0.00
 -3 -7 15 0.96 0.00
 -3 -7 14 0.88 0.00
 -3 -7 13 -0.04 0.00
 -3 -7 12 0.06 0.00
 -3 -7 11 0.88 0.00
 -3 -7 10 1.05 0.00
 -3 -7 9 0.22 0.00
 -3 -7 8 -0.93 0.00
 -3 -7 7 -1.56 0.00
 -3 -7 6 -1.29 0.00
 -3 -7 5 0.28 0.00
 -3 -7 4 1.88 0.00
 -3 -7 3 0.58 0.00
 -3 -7 2 -2.28 0.00
 -3 -7 1 -2.13 0.00
 3 7 0 0.04 0.00
 3 7 1 0.39 0.00
 3 7 2 0.15 0.00
 3 7 3 0.71 0.00
 3 7 4 0.17 0.00
 3 7 5 -0.66 0.00
 3 7 6 -0.20 0.00
 3 7 7 0.16 0.00
 3 7 8 0.08 0.00
 3 7 9 0.15 0.00
 3 7 10 0.01 0.00
 3 7 11 0.18 0.00
 3 7 12 0.46 0.00
 3 7 13 0.03 0.00
 -2 -8 20 0.04 0.00
 -2 -8 19 0.07 0.00
 -2 -8 18 0.24 0.00
 -2 -8 17 -0.10 0.00
 -2 -8 16 -0.70 0.00
 -2 -8 15 -0.40 0.00
 -2 -8 14 0.30 0.00
 -2 -8 13 -0.15 0.00
 -2 -8 12 -0.70 0.00
 -2 -8 11 -0.01 0.00
 -2 -8 10 0.58 0.00
 -2 -8 9 0.59 0.00
 -2 -8 8 0.53 0.00
 -2 -8 7 -0.42 0.00
 -2 -8 6 -1.72 0.00
 -2 -8 5 -1.27 0.00
 -2 -8 4 0.63 0.00
 -2 -8 3 1.56 0.00
 -2 -8 2 0.90 0.00
 -2 -8 1 -0.17 0.00
 2 8 0 -1.14 0.00
 2 8 1 -1.33 0.00
 2 8 2 -0.01 0.00
 2 8 3 1.22 0.00
 2 8 4 0.73 0.00
 2 8 5 -0.44 0.00
 2 8 6 -0.94 0.00
 2 8 7 -0.36 0.00
 2 8 8 0.59 0.00
 2 8 9 0.39 0.00
 2 8 10 -0.43 0.00
 2 8 11 -0.20 0.00
 2 8 12 0.37 0.00
 2 8 13 0.24 0.00
 -1 -9 20 0.43 0.00
 -1 -9 19 0.18 0.00
 -1 -9 18 -0.27 0.00
 -1 -9 17 0.05 0.00
 -1 -9 16 0.40 0.00
 -1 -9 15 0.33 0.00
 -1 -9 14 0.28 0.00
 -1 -9 13 -0.18 0.00
 -1 -9 12 -0.66 0.00
 -1 -9 11 -0.14 0.00
 -1 -9 10 0.68 0.00
 -1 -9 9 0.70 0.00
 -1 -9 8 -0.29 0.00
 -1 -9 7 -1.18 0.00
 -1 -9 6 -0.68 0.00
 -1 -9 5 0.27 0.00
 -1 -9 4 0.23 0.00
 -1 -9 3 -0.11 0.00
 -1 -9 2 0.22 0.00
 -1 -9 1 0.36 0.00
 1 9 0 -0.54 0.00
 1 9 1 -1.29 0.00
 1 9 2 -0.77 0.00
 1 9 3 0.08 0.00
 1 9 4 0.36 0.00
 1 9 5 0.15 0.00
 1 9 6 -0.07 0.00
 1 9 7 0.14 0.00
 1 9 8 0.30 0.00
 1 9 9 -0.07 0.00
 1 9 10 -0.30 0.00
 1 9 11 -0.13 0.00
 1 9 12 0.10 0.00
 1 9 13 0.31 0.00
 0 -10 19 0.34 0.00
 0 -10 18 -0.13 0.00
 0 -10 17 -0.67 0.00
 0 -10 16 -0.43 0.00
 0 -10 15 0.28 0.00
 0 -10 14 0.32 0.00
 0 -10 13 -0.40 0.00
 0 -10 12 -0.67 0.00
 0 -10 11 -0.32 0.00
 0 -10 10 0.13 0.00
 0 -10 9 0.56 0.00
 0 -10 8 0.21 0.00
 0 -10 7 -0.76 0.00
 0 -10 6 -0.80 0.00
 0 -10 5 0.12 0.00
 0 -10 4 0.48 0.00
 0 -10 3 0.32 0.00
 0 -10 2 0.90 0.00
 0 -10 1 1.17 0.00
 0 10 0 -0.02 0.00
 0 10 1 -0.95 0.00
 0 10 2 -0.90 0.00
 0 10 3 -0.33 0.00
 0 10 4 0.54 0.00
 0 10 5 0.24 0.00
 0 10 6 -0.46 0.00
 0 10 7 0.26 0.00
 0 10 8 0.37 0.00
 0 10 9 -0.62 0.00
 0 10 10 -0.43 0.00
 0 10 11 0.10 0.00
 0 10 12 -0.06 0.00
 1 -11 18 0.08 0.00
 1 -11 17 -0.44 0.00
 1 -11 16 -0.33 0.00
 1 -11 15 0.36 0.00
 1 -11 14 0.49 0.00
 1 -11 13 0.15 0.00
 1 -11 12 -0.10 0.00
 1 -11 11 -0.48 0.00
 1 -11 10 -0.35 0.00
 1 -11 9 0.16 0.00
 1 -11 8 -0.12 0.00
 1 -11 7 -0.27 0.00
 1 -11 6 0.09 0.00
 1 -11 5 0.04 0.00
 1 -11 4 -0.21 0.00
 1 -11 3 -0.46 0.00
 1 -11 2 -0.04 0.00
 1 -11 1 0.99 0.00
 -1 11 0 0.81 0.00
 -1 11 1 -0.21 0.00
 -1 11 2 -0.72 0.00
 -1 11 3 -0.76 0.00
 -1 11 4 -0.26 0.00
 -1 11 5 0.11 0.00
 -1 11 6 0.14 0.00
 -1 11 7 0.59 0.00
 -1 11 8 0.56 0.00
 -1 11 9 -0.18 0.00
 -1 11 10 -0.28 0.00
 -1 11 11 -0.14 0.00
 2 -12 17 -0.13 0.00
 2 -12 16 -0.24 0.00
 2 -12 15 -0.02 0.00
 2 -12 14 0.07 0.00
 2 -12 13 0.04 0.00
 2 -12 12 0.01 0.00
 2 -12 11 -0.21 0.00
 2 -12 10 -0.31 0.00
 2 -12 9 -0.33 0.00
 2 -12 8 -0.50 0.00
 2 -12 7 -0.21 0.00
 2 -12 6 0.11 0.00
 2 -12 5 0.15 0.00
 2 -12 4 0.43 0.00
 2 -12 3 0.07 0.00
 2 -12 2 -0.51 0.00
 2 -12 1 0.16 0.00
 -2 12 0 0.78 0.00
 -2 12 1 0.14 0.00
 -2 12 2 -0.51 0.00
 -2 12 3 -0.30 0.00
 -2 12 4 0.13 0.00
 -2 12 5 0.10 0.00
 -2 12 6 -0.27 0.00
 -2 12 7 -0.45 0.00
 -2 12 8 -0.29 0.00
 -2 12 9 0.00 0.00
 -2 12 10 0.33 0.00
 3 -13 15 0.38 0.00
 3 -13 14 0.26 0.00
 3 -13 13 -0.04 0.00
 3 -13 12 -0.23 0.00
 3 -13 11 -0.12 0.00
 3 -13 10 0.15 0.00
 3 -13 9 -0.19 0.00
 3 -13 8 -0.63 0.00
 3 -13 7 -0.11 0.00
 3 -13 6 0.01 0.00
 3 -13 5 -0.53 0.00
 3 -13 4 -0.11 0.00
 3 -13 3 0.34 0.00
 3 -13 2 -0.14 0.00
 3 -13 1 -0.27 0.00
 -3 13 0 0.07 0.00
 -3 13 1 -0.05 0.00
 -3 13 2 -0.35 0.00
 -3 13 3 -0.21 0.00
 -3 13 4 -0.12 0.00
 -3 13 5 -0.25 0.00
 -3 13 6 -0.06 0.00
 -3 13 7 0.32 0.00
 -3 13 8 0.51 0.00
 4 -14 13 -0.07 0.00
 4 -14 12 -0.06 0.00
 4 -14 11 -0.02 0.00
 4 -14 10 0.20 0.00
 4 -14 9 0.07 0.00
 4 -14 8 -0.20 0.00
 4 -14 7 -0.04 0.00
 4 -14 6 -0.01 0.00
 4 -14 5 -0.03 0.00
 4 -14 4 0.25 0.00
 4 -14 3 0.05 0.00
 4 -14 2 -0.23 0.00
 4 -14 1 0.01 0.00
 -4 14 0 0.32 0.00
 -4 14 1 0.58 0.00
 -4 14 2 0.41 0.00
 -4 14 3 -0.24 0.00
 -4 14 4 -0.34 0.00
 -4 14 5 0.06 0.00
 -4 14 6 -0.13 0.00
 5 -15 10 0.03 0.00
 5 -15 9 0.05 0.00
 5 -15 8 0.11 0.00
 5 -15 7 0.17 0.00
 5 -15 6 -0.11 0.00
 5 -15 5 -0.13 0.00
 5 -15 4 0.10 0.00
 5 -15 3 -0.31 0.00
 5 -15 2 -0.40 0.00
 5 -15 1 0.08 0.00
 -5 15 0 -0.12 0.00
 -5 15 1 -0.28 0.00
 -5 15 2 0.27 0.00
 -5 15 3 0.38 0.00
 -5 15 4 0.08 0.00
 6 -16 6 0.09 0.00
 6 -16 5 0.34 0.00
 6 -16 4 0.29 0.00
 6 -16 3 -0.39 0.00
 6 -16 2 -0.22 0.00
 -16 5 7 -0.49 0.00
 -16 5 6 -0.47 0.00
 -16 5 5 -0.22 0.00
 -16 5 4 -0.05 0.00
 -16 5 3 0.51 0.00
 -16 5 2 0.88 0.00
 -16 5 1 0.16 0.00
 -16 5 0 -0.56 0.00
 -15 4 11 0.17 0.00
 -15 4 10 0.24 0.00
 -15 4 9 0.25 0.00
 -15 4 8 0.15 0.00
 -15 4 7 -0.28 0.00
 -15 4 6 -0.74 0.00
 -15 4 5 -0.72 0.00
 -15 4 4 -0.37 0.00
 -15 4 3 0.02 0.00
 -15 4 2 0.19 0.00
 -15 4 1 0.13 0.00
 -15 4 0 0.32 0.00
 15 -4 1 0.20 0.00
 15 -4 2 -0.41 0.00
 15 -4 3 -0.27 0.00
 15 -4 4 0.08 0.00
 -14 3 13 0.16 0.00
 -14 3 12 -0.27 0.00
 -14 3 11 -0.33 0.00
 -14 3 10 0.05 0.00
 -14 3 9 0.19 0.00
 -14 3 8 0.23 0.00
 -14 3 7 0.42 0.00
 -14 3 5 -0.23 0.00
 -14 3 4 -0.97 0.00
 -14 3 3 -0.66 0.00
 -14 3 2 0.22 0.00
 -14 3 1 -0.01 0.00
 -14 3 0 -0.28 0.00
 14 -3 1 0.41 0.00
 14 -3 2 0.48 0.00
 14 -3 3 -0.06 0.00
 14 -3 4 -0.11 0.00
 14 -3 5 -0.09 0.00
 14 -3 6 -0.21 0.00
 14 -3 7 0.01 0.00
 -13 2 15 -0.05 0.00
 -13 2 14 0.00 0.00
 -13 2 13 0.31 0.00
 -13 2 12 0.32 0.00
 -13 2 11 0.16 0.00
 -13 2 10 0.42 0.00
 -13 2 9 0.33 0.00
 -13 2 8 -0.35 0.00
 -13 2 7 -0.37 0.00
 -13 2 6 0.18 0.00
 -13 2 5 0.44 0.00
 -13 2 4 0.28 0.00
 -13 2 3 -0.15 0.00
 -13 2 2 -0.46 0.00
 -13 2 1 -0.39 0.00
 -13 2 0 -0.22 0.00
 13 -2 1 -0.20 0.00
 13 -2 2 -0.06 0.00
 13 -2 3 0.13 0.00
 13 -2 4 -0.01 0.00
 13 -2 5 -0.28 0.00
 13 -2 6 -0.34 0.00
 13 -2 7 0.12 0.00
 13 -2 8 0.54 0.00
 -12 1 17 0.12 0.00
 -12 1 16 -0.01 0.00
 -12 1 15 -0.15 0.00
 -12 1 14 -0.04 0.00
 -12 1 13 0.01 0.00
 -12 1 12 -0.28 0.00
 -12 1 11 -0.55 0.00
 -12 1 10 -0.11 0.00
 -12 1 9 0.47 0.00
 -12 1 8 0.43 0.00
 -12 1 7 0.27 0.00
 -12 1 6 0.05 0.00
 -12 1 5 -0.32 0.00
 -12 1 4 0.07 0.00
 -12 1 3 0.76 0.00
 -12 1 2 0.47 0.00
 -12 1 1 -0.05 0.00
 -12 1 0 -0.22 0.00
 12 -1 1 -0.53 0.00
 12 -1 2 -0.28 0.00
 12 -1 3 0.24 0.00
 12 -1 4 -0.05 0.00
 12 -1 5 -0.33 0.00
 12 -1 6 -0.29 0.00
 12 -1 7 -0.26 0.00
 12 -1 8 0.20 0.00
 12 -1 9 0.48 0.00
 12 -1 10 -0.05 0.00
 -11 0 18 -0.36 0.00
 -11 0 17 -0.12 0.00
 -11 0 16 0.31 0.00
 -11 0 15 0.40 0.00
 -11 0 14 -0.12 0.00
 -11 0 13 -0.45 0.00
 -11 0 12 -0.03 0.00
 -11 0 11 0.35 0.00
 -11 0 10 0.22 0.00
 -11 0 9 -0.13 0.00
 -11 0 8 -0.40 0.00
 -11 0 7 -0.37 0.00
 -11 0 6 -0.27 0.00
 -11 0 5 -0.16 0.00
 -11 0 4 0.26 0.00
 -11 0 3 0.51 0.00
 -11 0 2 0.24 0.00
 -11 0 1 0.20 0.00
 11 0 0 0.32 0.00
 11 0 1 -0.04 0.00
 11 0 2 -0.12 0.00
 11 0 3 0.24 0.00
 11 0 4 0.27 0.00
 11 0 5 0.03 0.00
 11 0 6 -0.31 0.00
 11 0 7 -0.30 0.00
 11 0 8 0.08 0.00
 11 0 9 0.09 0.00
 11 0 10 -0.05 0.00
 11 0 11 0.02 0.00
 -10 -1 19 0.26 0.00
 -10 -1 18 -0.05 0.00
 -10 -1 17 -0.15 0.00
 -10 -1 16 -0.39 0.00
 -10 -1 15 0.01 0.00
 -10 -1 14 0.55 0.00
 -10 -1 13 -0.16 0.00
 -10 -1 12 -0.94 0.00
 -10 -1 11 -0.33 0.00
 -10 -1 10 0.39 0.00
 -10 -1 9 0.37 0.00
 -10 -1 8 0.63 0.00
 -10 -1 7 0.82 0.00
 -10 -1 6 -0.29 0.00
 -10 -1 5 -1.33 0.00
 -10 -1 4 -0.54 0.00
 -10 -1 3 0.71 0.00
 -10 -1 2 0.64 0.00
 -10 -1 1 -0.12 0.00
 10 1 0 -0.54 0.00
 10 1 1 -0.53 0.00
 10 1 2 -0.34 0.00
 10 1 3 -0.22 0.00
 10 1 4 0.17 0.00
 10 1 5 0.70 0.00
 10 1 6 0.43 0.00
 10 1 7 -0.10 0.00
 10 1 8 -0.16 0.00
 10 1 9 -0.21 0.00
 10 1 10 -0.29 0.00
 10 1 11 -0.27 0.00
 -9 -2 19 -0.28 0.00
 -9 -2 18 -0.05 0.00
 -9 -2 17 0.24 0.00
 -9 -2 16 0.13 0.00
 -9 -2 15 -0.08 0.00
 -9 -2 14 -0.01 0.00
 -9 -2 13 -0.03 0.00
 -9 -2 12 -0.23 0.00
 -9 -2 11 -0.17 0.00
 -9 -2 10 -0.37 0.00
 -9 -2 9 -0.83 0.00
 -9 -2 8 0.04 0.00
 -9 -2 7 1.32 0.00
 -9 -2 6 0.33 0.00
 -9 -2 5 -1.51 0.00
 -9 -2 4 -1.00 0.00
 -9 -2 3 0.81 0.00
 -9 -2 2 1.21 0.00
 -9 -2 1 0.48 0.00
 9 2 0 0.00 0.00
 9 2 1 -0.23 0.00
 9 2 2 -0.46 0.00
 9 2 3 -0.58 0.00
 9 2 4 -0.45 0.00
 9 2 5 -0.40 0.00
 9 2 6 -0.27 0.00
 9 2 7 0.44 0.00
 9 2 8 0.62 0.00
 9 2 9 -0.11 0.00
 9 2 10 -0.26 0.00
 9 2 11 -0.06 0.00
 9 2 12 -0.09 0.00
 -8 -3 19 -0.02 0.00
 -8 -3 18 -0.23 0.00
 -8 -3 17 -0.37 0.00
 -8 -3 16 -0.18 0.00
 -8 -3 15 0.25 0.00
 -8 -3 14 0.27 0.00
 -8 -3 13 -0.21 0.00
 -8 -3 12 -0.22 0.00
 -8 -3 11 0.78 0.00
 -8 -3 10 0.74 0.00
 -8 -3 9 -0.99 0.00
 -8 -3 8 -0.86 0.00
 -8 -3 7 1.33 0.00
 -8 -3 6 1.06 0.00
 -8 -3 5 -1.20 0.00
 -8 -3 4 -1.35 0.00
 -8 -3 3 -0.29 0.00
 -8 -3 2 -0.29 0.00
 -8 -3 1 -0.04 0.00
 8 3 0 0.60 0.00
 8 3 1 0.11 0.00
 8 3 2 -0.42 0.00
 8 3 3 0.17 0.00
 8 3 4 0.56 0.00
 8 3 5 -0.09 0.00
 8 3 6 -0.53 0.00
 8 3 7 -0.05 0.00
 8 3 8 0.07 0.00
 8 3 9 -0.44 0.00
 8 3 10 -0.56 0.00
 8 3 11 -0.42 0.00
 8 3 12 0.02 0.00
 8 3 13 0.60 0.00
 -7 -4 20 -0.28 0.00
 -7 -4 19 0.13 0.00
 -7 -4 18 0.48 0.00
 -7 -4 17 0.13 0.00
 -7 -4 16 -0.40 0.00
 -7 -4 15 -0.40 0.00
 -7 -4 14 0.04 0.00
 -7 -4 13 -0.16 0.00
 -7 -4 12 -0.79 0.00
 -7 -4 11 -0.02 0.00
 -7 -4 10 1.16 0.00
 -7 -4 9 0.54 0.00
 -7 -4 8 -0.15 0.00
 -7 -4 7 0.44 0.00
 -7 -4 6 0.00 0.00
 -7 -4 5 -0.80 0.00
 -7 -4 4 0.96 0.00
 -7 -4 3 2.20 0.00
 -7 -4 2 -0.17 0.00
 -7 -4 1 -1.70 0.00
 7 4 0 -0.12 0.00
 7 4 1 0.65 0.00
 7 4 2 -0.33 0.00
 7 4 3 -0.71 0.00
 7 4 4 -0.48 0.00
 7 4 5 -0.52 0.00
 7 4 6 0.13 0.00
 7 4 7 1.30 0.00
 7 4 8 0.87 0.00
 7 4 9 -0.48 0.00
 7 4 10 -0.81 0.00
 7 4 11 -0.72 0.00
 7 4 12 -0.35 0.00
 7 4 13 0.27 0.00
 -6 -5 20 -0.02 0.00
 -6 -5 19 0.09 0.00
 -6 -5 18 0.30 0.00
 -6 -5 17 0.37 0.00
 -6 -5 16 -0.13 0.00
 -6 -5 15 -0.06 0.00
 -6 -5 14 0.51 0.00
 -6 -5 13 -0.36 0.00
 -6 -5 12 -0.99 0.00
 -6 -5 11 0.55 0.00
 -6 -5 10 0.81 0.00
 -6 -5 9 -1.25 0.00
 -6 -5 8 -1.20 0.00
 -6 -5 7 1.15 0.00
 -6 -5 6 1.04 0.00
 -6 -5 5 -1.36 0.00
 -6 -5 4 -1.38 0.00
 -6 -5 3 0.59 0.00
 -6 -5 2 0.83 0.00
 -6 -5 1 -0.11 0.00
 6 5 0 0.07 0.00
 6 5 1 0.96 0.00
 6 5 2 1.20 0.00
 6 5 3 0.60 0.00
 6 5 4 -0.30 0.00
 6 5 5 -1.14 0.00
 6 5 6 -0.91 0.00
 6 5 7 0.50 0.00
 6 5 8 0.85 0.00
 6 5 9 0.03 0.00
 6 5 10 -0.22 0.00
 6 5 11 -0.22 0.00
 6 5 12 -0.13 0.00
 6 5 13 0.12 0.00
 -5 -6 20 -0.06 0.00
 -5 -6 19 -0.14 0.00
 -5 -6 18 -0.10 0.00
 -5 -6 17 -0.06 0.00
 -5 -6 16 -0.61 0.00
 -5 -6 15 -0.08 0.00
 -5 -6 14 1.11 0.00
 -5 -6 13 0.05 0.00
 -5 -6 12 -1.22 0.00
 -5 -6 11 0.67 0.00
 -5 -6 10 2.46 0.00
 -5 -6 9 0.76 0.00
 -5 -6 8 -1.23 0.00
 -5 -6 7 -0.71 0.00
 -5 -6 6 0.00 0.00
 -5 -6 5 0.01 0.00
 -5 -6 4 0.83 0.00
 -5 -6 3 0.66 0.00
 -5 -6 2 -1.45 0.00
 -5 -6 1 -2.18 0.00
 5 6 0 -0.82 0.00
 5 6 1 0.06 0.00
 5 6 2 0.20 0.00
 5 6 3 0.67 0.00
 5 6 4 0.88 0.00
 5 6 5 0.07 0.00
 5 6 6 -0.57 0.00
 5 6 7 -0.18 0.00
 5 6 8 0.26 0.00
 5 6 9 0.34 0.00
 5 6 10 0.12 0.00
 5 6 11 -0.26 0.00
 5 6 12 0.11 0.00
 5 6 13 0.43 0.00
 -4 -7 20 0.15 0.00
 -4 -7 19 -0.13 0.00
 -4 -7 18 0.07 0.00
 -4 -7 17 -0.02 0.00
 -4 -7 16 -0.94 0.00
 -4 -7 15 -0.83 0.00
 -4 -7 14 0.24 0.00
 -4 -7 13 0.06 0.00
 -4 -7 12 -0.69 0.00
 -4 -7 11 -0.35 0.00
 -4 -7 10 0.50 0.00
 -4 -7 9 0.99 0.00
 -4 -7 8 1.13 0.00
 -4 -7 7 0.97 0.00
 -4 -7 6 -0.09 0.00
 -4 -7 5 -1.27 0.00
 -4 -7 4 -0.02 0.00
 -4 -7 3 2.19 0.00
 -4 -7 2 1.31 0.00
 -4 -7 1 -0.92 0.00
 4 7 0 -0.80 0.00
 4 7 1 0.01 0.00
 4 7 2 -0.27 0.00
 4 7 3 0.01 0.00
 4 7 4 0.56 0.00
 4 7 5 -0.03 0.00
 4 7 6 -0.43 0.00
 4 7 7 -0.19 0.00
 4 7 8 -0.32 0.00
 4 7 9 -0.29 0.00
 4 7 10 -0.17 0.00
 4 7 11 -0.28 0.00
 4 7 12 0.34 0.00
 -3 -8 20 0.16 0.00
 -3 -8 19 -0.08 0.00
 -3 -8 18 -0.01 0.00
 -3 -8 17 0.48 0.00
 -3 -8 16 0.38 0.00
 -3 -8 15 -0.20 0.00
 -3 -8 14 -0.19 0.00
 -3 -8 13 0.07 0.00
 -3 -8 12 -0.16 0.00
 -3 -8 11 -0.25 0.00
 -3 -8 10 -0.05 0.00
 -3 -8 9 0.04 0.00
 -3 -8 8 0.29 0.00
 -3 -8 7 0.53 0.00
 -3 -8 6 0.22 0.00
 -3 -8 5 -0.44 0.00
 -3 -8 4 -0.62 0.00
 -3 -8 3 0.00 0.00
 -3 -8 2 0.62 0.00
 -3 -8 1 0.59 0.00
 3 8 0 0.01 0.00
 3 8 1 -0.87 0.00
 3 8 2 -0.99 0.00
 3 8 3 0.18 0.00
 3 8 4 1.02 0.00
 3 8 5 0.57 0.00
 3 8 6 -0.08 0.00
 3 8 7 -0.39 0.00
 3 8 8 -0.23 0.00
 3 8 9 0.27 0.00
 3 8 10 -0.03 0.00
 3 8 11 -0.72 0.00
 3 8 12 -0.28 0.00
 -2 -9 20 -0.13 0.00
 -2 -9 19 0.25 0.00
 -2 -9 18 -0.19 0.00
 -2 -9 17 -0.51 0.00
 -2 -9 16 -0.12 0.00
 -2 -9 15 0.19 0.00
 -2 -9 14 0.27 0.00
 -2 -9 13 0.19 0.00
 -2 -9 12 -0.24 0.00
 -2 -9 11 -0.51 0.00
 -2 -9 10 -0.42 0.00
 -2 -9 9 0.29 0.00
 -2 -9 8 1.26 0.00
 -2 -9 7 0.64 0.00
 -2 -9 6 -1.06 0.00
 -2 -9 5 -0.99 0.00
 -2 -9 4 0.30 0.00
 -2 -9 3 0.25 0.00
 -2 -9 2 -0.06 0.00
 -2 -9 1 0.99 0.00
 2 9 0 1.30 0.00
 2 9 1 -0.31 0.00
 2 9 2 -1.27 0.00
 2 9 3 -0.39 0.00
 2 9 4 0.45 0.00
 2 9 5 0.23 0.00
 2 9 6 -0.19 0.00
 2 9 7 -0.17 0.00
 2 9 8 0.03 0.00
 2 9 9 0.14 0.00
 2 9 10 0.11 0.00
 2 9 11 -0.05 0.00
 2 9 12 -0.15 0.00
 -1 -10 19 0.30 0.00
 -1 -10 18 0.65 0.00
 -1 -10 17 0.19 0.00
 -1 -10 16 -0.39 0.00
 -1 -10 15 -0.16 0.00
 -1 -10 14 0.59 0.00
 -1 -10 13 0.50 0.00
 -1 -10 12 -0.19 0.00
 -1 -10 11 -0.23 0.00
 -1 -10 10 -0.27 0.00
 -1 -10 9 -0.43 0.00
 -1 -10 8 0.30 0.00
 -1 -10 7 0.89 0.00
 -1 -10 6 -0.05 0.00
 -1 -10 5 -0.97 0.00
 -1 -10 4 -0.58 0.00
 -1 -10 3 -0.47 0.00
 -1 -10 2 -0.58 0.00
 -1 -10 1 0.66 0.00
 1 10 0 1.43 0.00
 1 10 1 0.43 0.00
 1 10 2 -0.64 0.00
 1 10 3 -0.89 0.00
 1 10 4 0.01 0.00
 1 10 5 0.77 0.00
 1 10 6 -0.26 0.00
 1 10 7 -0.60 0.00
 1 10 8 0.74 0.00
 1 10 9 0.78 0.00
 1 10 10 -0.21 0.00
 1 10 11 -0.28 0.00
 0 -11 18 0.32 0.00
 0 -11 17 0.19 0.00
 0 -11 16 -0.34 0.00
 0 -11 15 -0.19 0.00
 0 -11 14 0.37 0.00
 0 -11 13 0.39 0.00
 0 -11 12 0.34 0.00
 0 -11 11 0.15 0.00
 0 -11 10 -0.38 0.00
 0 -11 9 -0.19 0.00
 0 -11 8 0.11 0.00
 0 -11 7 -0.24 0.00
 0 -11 6 -0.32 0.00
 0 -11 5 -0.08 0.00
 0 -11 4 0.06 0.00
 0 -11 3 -0.34 0.00
 0 -11 2 -0.92 0.00
 0 -11 1 -0.09 0.00
 0 11 0 1.08 0.00
 0 11 1 0.84 0.00
 0 11 2 0.22 0.00
 0 11 3 -0.23 0.00
 0 11 4 -0.41 0.00
 0 11 5 -0.20 0.00
 0 11 6 -0.51 0.00
 0 11 7 -0.67 0.00
 0 11 8 0.16 0.00
 0 11 9 0.49 0.00
 0 11 10 0.04 0.00
 1 -12 17 -0.01 0.00
 1 -12 16 -0.36 0.00
 1 -12 15 -0.26 0.00
 1 -12 14 0.07 0.00
 1 -12 13 0.15 0.00
 1 -12 12 0.35 0.00
 1 -12 11 0.39 0.00
 1 -12 10 0.03 0.00
 1 -12 9 0.01 0.00
 1 -12 8 -0.11 0.00
 1 -12 7 -0.35 0.00
 1 -12 6 -0.15 0.00
 1 -12 5 -0.26 0.00
 1 -12 4 -0.35 0.00
 1 -12 3 -0.07 0.00
 1 -12 2 -0.34 0.00
 1 -12 1 -0.42 0.00
 -1 12 0 0.40 0.00
 -1 12 1 0.74 0.00
 -1 12 2 0.03 0.00
 -1 12 3 -0.41 0.00
 -1 12 4 0.09 0.00
 -1 12 5 0.54 0.00
 -1 12 6 0.39 0.00
 -1 12 7 0.25 0.00
 -1 12 8 0.08 0.00
 -1 12 9 -0.40 0.00
 -1 12 10 -0.64 0.00
 2 -13 16 -0.39 0.00
 2 -13 15 -0.14 0.00
 2 -13 14 0.19 0.00
 2 -13 13 0.20 0.00
 2 -13 12 0.15 0.00
 2 -13 11 0.03 0.00
 2 -13 10 0.22 0.00
 2 -13 9 0.70 0.00
 2 -13 8 0.24 0.00
 2 -13 7 -0.36 0.00
 2 -13 6 0.16 0.00
 2 -13 5 0.32 0.00
 2 -13 4 -0.24 0.00
 2 -13 3 -0.31 0.00
 2 -13 2 -0.02 0.00
 2 -13 1 0.26 0.00
 -2 13 0 0.60 0.00
 -2 13 1 0.71 0.00
 -2 13 2 0.26 0.00
 -2 13 3 -0.20 0.00
 -2 13 4 0.00 0.00
 -2 13 5 0.20 0.00
 -2 13 6 -0.20 0.00
 -2 13 7 -0.48 0.00
 -2 13 8 0.06 0.00
 3 -14 14 0.03 0.00
 3 -14 13 -0.03 0.00
 3 -14 12 -0.09 0.00
 3 -14 11 -0.32 0.00
 3 -14 10 -0.16 0.00
 3 -14 9 0.30 0.00
 3 -14 8 0.22 0.00
 3 -14 7 0.06 0.00
 3 -14 6 0.10 0.00
 3 -14 5 -0.15 0.00
 3 -14 4 -0.01 0.00
 3 -14 3 0.28 0.00
 3 -14 2 -0.17 0.00
 3 -14 1 -0.56 0.00
 -3 14 0 -0.31 0.00
 -3 14 1 0.13 0.00
 -3 14 2 0.45 0.00
 -3 14 3 0.42 0.00
 -3 14 4 0.23 0.00
 -3 14 5 0.47 0.00
 -3 14 6 0.76 0.00
 4 -15 11 -0.20 0.00
 4 -15 10 -0.16 0.00
 4 -15 9 0.09 0.00
 4 -15 8 -0.08 0.00
 4 -15 7 -0.08 0.00
 4 -15 6 0.15 0.00
 4 -15 5 -0.08 0.00
 4 -15 4 0.03 0.00
 4 -15 3 0.41 0.00
 4 -15 2 0.13 0.00
 4 -15 1 -0.07 0.00
 -4 15 0 0.15 0.00
 -4 15 1 -0.03 0.00
 -4 15 2 -0.40 0.00
 -4 15 3 -0.36 0.00
 -4 15 4 -0.28 0.00
 5 -16 7 -0.06 0.00
 5 -16 6 -0.09 0.00
 5 -16 5 -0.20 0.00
 5 -16 4 0.10 0.00
 5 -16 3 0.08 0.00
 5 -16 2 -0.34 0.00
 5 -16 1 -0.24 0.00
 -16 4 7 0.56 0.00
 -16 4 6 0.28 0.00
 -16 4 5 -0.16 0.00
 -16 4 4 -0.19 0.00
 -16 4 2 0.06 0.00
 -16 4 1 -0.24 0.00
 -16 4 0 -0.19 0.00
 16 -4 1 0.51 0.00
 -15 3 11 -0.60 0.00
 -15 3 10 -0.32 0.00
 -15 3 9 0.15 0.00
 -15 3 8 0.26 0.00
 -15 3 7 0.22 0.00
 -15 3 6 0.25 0.00
 -15 3 5 0.52 0.00
 -15 3 4 0.35 0.00
 -15 3 3 -0.34 0.00
 -15 3 2 -0.07 0.00
 -15 3 1 0.31 0.00
 -15 3 0 -0.49 0.00
 15 -3 1 -0.54 0.00
 15 -3 2 0.36 0.00
 15 -3 3 0.35 0.00
 15 -3 4 -0.08 0.00
 -14 2 14 -0.32 0.00
 -14 2 13 -0.08 0.00
 -14 2 12 0.32 0.00
 -14 2 11 -0.11 0.00
 -14 2 10 -0.53 0.00
 -14 2 9 -0.05 0.00
 -14 2 8 0.35 0.00
 -14 2 7 0.07 0.00
 -14 2 6 -0.25 0.00
 -14 2 5 -0.07 0.00
 -14 2 4 0.32 0.00
 -14 2 3 0.35 0.00
 -14 2 2 0.17 0.00
 -14 2 1 -0.01 0.00
 -14 2 0 -0.18 0.00
 14 -2 1 -0.11 0.00
 14 -2 2 0.12 0.00
 14 -2 3 0.35 0.00
 14 -2 4 0.38 0.00
 14 -2 5 0.00 0.00
 14 -2 6 -0.50 0.00
 -13 1 16 0.08 0.00
 -13 1 15 0.07 0.00
 -13 1 14 -0.20 0.00
 -13 1 13 -0.17 0.00
 -13 1 12 0.31 0.00
 -13 1 11 0.28 0.00
 -13 1 10 -0.23 0.00
 -13 1 9 -0.35 0.00
 -13 1 8 -0.34 0.00
 -13 1 7 -0.14 0.00
 -13 1 6 0.48 0.00
 -13 1 5 0.28 0.00
 -13 1 4 -0.70 0.00
 -13 1 3 -0.51 0.00
 -13 1 2 0.48 0.00
 -13 1 1 0.45 0.00
 -13 1 0 -0.05 0.00
 13 -1 1 -0.18 0.00
 13 -1 2 -0.11 0.00
 13 -1 3 0.37 0.00
 13 -1 4 0.56 0.00
 13 -1 5 0.23 0.00
 13 -1 6 0.09 0.00
 13 -1 7 -0.20 0.00
 13 -1 8 -0.46 0.00
 -12 0 17 -0.38 0.00
 -12 0 16 -0.43 0.00
 -12 0 15 0.18 0.00
 -12 0 14 0.30 0.00
 -12 0 13 -0.25 0.00
 -12 0 12 -0.27 0.00
 -12 0 11 0.03 0.00
 -12 0 10 0.01 0.00
 -12 0 9 0.18 0.00
 -12 0 8 0.26 0.00
 -12 0 7 -0.04 0.00
 -12 0 6 -0.07 0.00
 -12 0 5 -0.08 0.00
 -12 0 4 -0.36 0.00
 -12 0 3 -0.15 0.00
 -12 0 2 0.13 0.00
 -12 0 1 -0.17 0.00
 12 0 0 -0.18 0.00
 12 0 1 -0.04 0.00
 12 0 2 -0.19 0.00
 12 0 3 0.05 0.00
 12 0 4 0.24 0.00
 12 0 5 0.14 0.00
 12 0 6 0.12 0.00
 12 0 7 -0.06 0.00
 12 0 8 -0.11 0.00
 12 0 9 0.17 0.00
 -11 -1 18 0.17 0.00
 -11 -1 17 0.34 0.00
 -11 -1 16 -0.06 0.00
 -11 -1 15 -0.45 0.00
 -11 -1 14 0.10 0.00
 -11 -1 13 0.56 0.00
 -11 -1 12 0.13 0.00
 -11 -1 11 -0.26 0.00
 -11 -1 10 -0.40 0.00
 -11 -1 9 -0.65 0.00
 -11 -1 8 -0.43 0.00
 -11 -1 7 0.45 0.00
 -11 -1 6 0.89 0.00
 -11 -1 5 0.14 0.00
 -11 -1 4 -0.76 0.00
 -11 -1 3 -0.33 0.00
 -11 -1 2 0.68 0.00
 -11 -1 1 0.64 0.00
 11 1 0 -0.13 0.00
 11 1 1 -0.45 0.00
 11 1 2 -0.07 0.00
 11 1 3 0.11 0.00
 11 1 4 -0.51 0.00
 11 1 5 -0.55 0.00
 11 1 6 0.34 0.00
 11 1 7 0.55 0.00
 11 1 8 0.18 0.00
 11 1 9 0.18 0.00
 11 1 10 0.33 0.00
 -10 -2 18 -0.22 0.00
 -10 -2 17 -0.28 0.00
 -10 -2 16 0.15 0.00
 -10 -2 15 0.30 0.00
 -10 -2 14 0.28 0.00
 -10 -2 13 0.38 0.00
 -10 -2 12 0.11 0.00
 -10 -2 11 0.09 0.00
 -10 -2 10 0.71 0.00
 -10 -2 9 0.30 0.00
 -10 -2 8 -0.87 0.00
 -10 -2 7 -0.41 0.00
 -10 -2 6 0.88 0.00
 -10 -2 5 0.38 0.00
 -10 -2 4 -1.03 0.00
 -10 -2 3 -0.79 0.00
 -10 -2 2 0.57 0.00
 -10 -2 1 0.93 0.00
 10 2 0 0.27 0.00
 10 2 1 -0.19 0.00
 10 2 2 0.05 0.00
 10 2 3 0.43 0.00
 10 2 4 0.19 0.00
 10 2 5 -0.39 0.00
 10 2 6 -0.69 0.00
 10 2 7 -0.32 0.00
 10 2 8 0.38 0.00
 10 2 9 0.28 0.00
 10 2 10 -0.08 0.00
 10 2 11 0.21 0.00
 -9 -3 19 0.40 0.00
 -9 -3 18 0.36 0.00
 -9 -3 17 -0.01 0.00
 -9 -3 16 -0.45 0.00
 -9 -3 15 -0.36 0.00
 -9 -3 14 0.32 0.00
 -9 -3 13 0.48 0.00
 -9 -3 12 -0.39 0.00
 -9 -3 11 -0.43 0.00
 -9 -3 10 0.84 0.00
 -9 -3 9 0.74 0.00
 -9 -3 8 -0.64 0.00
 -9 -3 7 -0.04 0.00
 -9 -3 6 1.68 0.00
 -9 -3 5 0.99 0.00
 -9 -3 4 -0.92 0.00
 -9 -3 3 -0.85 0.00
 -9 -3 2 0.21 0.00
 -9 -3 1 0.47 0.00
 9 3 0 0.60 0.00
 9 3 1 0.50 0.00
 9 3 2 -0.41 0.00
 9 3 3 -0.82 0.00
 9 3 4 -0.01 0.00
 9 3 5 0.70 0.00
 9 3 6 0.29 0.00
 9 3 7 -0.17 0.00
 9 3 8 0.12 0.00
 9 3 9 0.09 0.00
 9 3 10 -0.35 0.00
 9 3 11 -0.46 0.00
 -8 -4 19 -0.14 0.00
 -8 -4 18 0.14 0.00
 -8 -4 17 0.37 0.00
 -8 -4 16 0.13 0.00
 -8 -4 15 -0.30 0.00
 -8 -4 14 0.02 0.00
 -8 -4 13 0.52 0.00
 -8 -4 12 -0.17 0.00
 -8 -4 11 -0.69 0.00
 -8 -4 10 0.03 0.00
 -8 -4 9 0.04 0.00
 -8 -4 8 -0.69 0.00
 -8 -4 7 0.06 0.00
 -8 -4 6 1.14 0.00
 -8 -4 5 0.01 0.00
 -8 -4 4 -1.31 0.00
 -8 -4 3 -0.21 0.00
 -8 -4 2 0.81 0.00
 -8 -4 1 0.05 0.00
 8 4 0 -0.03 0.00
 8 4 1 0.92 0.00
 8 4 2 0.91 0.00
 8 4 3 0.25 0.00
 8 4 4 0.04 0.00
 8 4 5 -0.22 0.00
 8 4 6 -0.76 0.00
 8 4 7 -0.21 0.00
 8 4 8 1.04 0.00
 8 4 9 0.91 0.00
 8 4 10 0.03 0.00
 8 4 11 -0.38 0.00
 8 4 12 -0.64 0.00
 -7 -5 20 -0.22 0.00
 -7 -5 19 -0.13 0.00
 -7 -5 18 -0.07 0.00
 -7 -5 17 0.19 0.00
 -7 -5 16 0.29 0.00
 -7 -5 15 -0.20 0.00
 -7 -5 14 -0.01 0.00
 -7 -5 13 0.30 0.00
 -7 -5 12 -0.65 0.00
 -7 -5 11 -0.38 0.00
 -7 -5 10 1.50 0.00
 -7 -5 9 1.01 0.00
 -7 -5 8 -1.26 0.00
 -7 -5 7 -1.03 0.00
 -7 -5 6 1.02 0.00
 -7 -5 5 1.07 0.00
 -7 -5 4 -0.48 0.00
 -7 -5 3 -0.92 0.00
 -7 -5 2 -0.48 0.00
 -7 -5 1 -0.44 0.00
 7 5 0 -0.58 0.00
 7 5 1 -0.63 0.00
 7 5 2 -0.30 0.00
 7 5 3 0.50 0.00
 7 5 4 1.03 0.00
 7 5 5 0.51 0.00
 7 5 6 -0.67 0.00
 7 5 7 -0.49 0.00
 7 5 8 0.85 0.00
 7 5 9 0.87 0.00
 7 5 10 0.10 0.00
 7 5 11 -0.03 0.00
 7 5 12 -0.15 0.00
 -6 -6 20 -0.06 0.00
 -6 -6 19 0.03 0.00
 -6 -6 18 -0.22 0.00
 -6 -6 17 0.08 0.00
 -6 -6 16 0.15 0.00
 -6 -6 15 -0.58 0.00
 -6 -6 14 0.03 0.00
 -6 -6 13 0.90 0.00
 -6 -6 12 -0.71 0.00
 -6 -6 11 -1.84 0.00
 -6 -6 10 0.13 0.00
 -6 -6 9 1.59 0.00
 -6 -6 8 0.48 0.00
 -6 -6 7 -0.16 0.00
 -6 -6 6 0.23 0.00
 -6 -6 5 -0.33 0.00
 -6 -6 4 -0.15 0.00
 -6 -6 3 1.63 0.00
 -6 -6 2 1.49 0.00
 -6 -6 1 -0.31 0.00
 6 6 0 -0.54 0.00
 6 6 1 0.00 0.00
 6 6 2 -0.22 0.00
 6 6 3 -0.38 0.00
 6 6 4 -0.03 0.00
 6 6 5 0.07 0.00
 6 6 6 -0.36 0.00
 6 6 7 -0.30 0.00
 6 6 8 0.34 0.00
 6 6 9 0.41 0.00
 6 6 10 0.15 0.00
 6 6 11 -0.08 0.00
 6 6 12 -0.21 0.00
 -5 -7 20 0.12 0.00
 -5 -7 19 0.42 0.00
 -5 -7 18 0.08 0.00
 -5 -7 17 0.28 0.00
 -5 -7 16 0.31 0.00
 -5 -7 15 -0.49 0.00
 -5 -7 14 -0.33 0.00
 -5 -7 13 0.40 0.00
 -5 -7 12 -0.03 0.00
 -5 -7 11 -0.57 0.00
 -5 -7 10 -0.24 0.00
 -5 -7 9 -0.16 0.00
 -5 -7 8 -0.69 0.00
 -5 -7 7 -0.43 0.00
 -5 -7 6 0.72 0.00
 -5 -7 5 0.16 0.00
 -5 -7 4 -1.39 0.00
 -5 -7 3 -0.34 0.00
 -5 -7 2 1.44 0.00
 -5 -7 1 0.57 0.00
 5 7 0 -0.61 0.00
 5 7 1 -0.13 0.00
 5 7 2 0.21 0.00
 5 7 3 0.07 0.00
 5 7 4 0.35 0.00
 5 7 5 0.32 0.00
 5 7 6 -0.12 0.00
 5 7 7 0.09 0.00
 5 7 8 0.36 0.00
 5 7 9 0.07 0.00
 5 7 10 -0.05 0.00
 5 7 11 -0.33 0.00
 5 7 12 -0.60 0.00
 -4 -8 20 0.02 0.00
 -4 -8 19 0.18 0.00
 -4 -8 18 -0.19 0.00
 -4 -8 17 -0.23 0.00
 -4 -8 16 0.15 0.00
 -4 -8 15 0.24 0.00
 -4 -8 14 0.15 0.00
 -4 -8 13 -0.01 0.00
 -4 -8 12 -0.32 0.00
 -4 -8 11 -0.21 0.00
 -4 -8 10 0.15 0.00
 -4 -8 9 0.08 0.00
 -4 -8 8 0.14 0.00
 -4 -8 7 0.38 0.00
 -4 -8 6 -0.01 0.00
 -4 -8 5 -0.53 0.00
 -4 -8 4 -0.52 0.00
 -4 -8 3 -0.20 0.00
 -4 -8 2 0.24 0.00
 -4 -8 1 0.69 0.00
 4 8 0 0.79 0.00
 4 8 1 0.09 0.00
 4 8 2 -0.98 0.00
 4 8 3 -0.95 0.00
 4 8 4 0.23 0.00
 4 8 5 0.82 0.00
 4 8 6 0.41 0.00
 4 8 7 0.01 0.00
 4 8 8 -0.14 0.00
 4 8 9 0.13 0.00
 4 8 10 0.60 0.00
 4 8 11 0.17 0.00
 4 8 12 -0.50 0.00
 -3 -9 20 -0.19 0.00
 -3 -9 19 0.20 0.00
 -3 -9 18 0.31 0.00
 -3 -9 17 -0.13 0.00
 -3 -9 16 -0.31 0.00
 -3 -9 15 -0.14 0.00
 -3 -9 14 0.18 0.00
 -3 -9 13 0.42 0.00
 -3 -9 12 0.06 0.00
 -3 -9 11 -0.14 0.00
 -3 -9 10 -0.03 0.00
 -3 -9 9 -0.64 0.00
 -3 -9 8 -0.52 0.00
 -3 -9 7 1.23 0.00
 -3 -9 6 1.53 0.00
 -3 -9 5 -0.26 0.00
 -3 -9 4 -0.68 0.00
 -3 -9 3 0.07 0.00
 -3 -9 2 -0.53 0.00
 -3 -9 1 -0.63 0.00
 3 9 0 1.13 0.00
 3 9 1 1.55 0.00
 3 9 2 -0.29 0.00
 3 9 3 -1.25 0.00
 3 9 4 -0.27 0.00
 3 9 5 0.68 0.00
 3 9 6 0.49 0.00
 3 9 7 0.16 0.00
 3 9 8 0.15 0.00
 3 9 9 -0.10 0.00
 3 9 10 -0.26 0.00
 3 9 11 -0.03 0.00
 -2 -10 19 -0.55 0.00
 -2 -10 18 -0.07 0.00
 -2 -10 17 0.28 0.00
 -2 -10 16 0.10 0.00
 -2 -10 15 -0.30 0.00
 -2 -10 14 -0.05 0.00
 -2 -10 13 0.64 0.00
 -2 -10 12 0.29 0.00
 -2 -10 11 -0.22 0.00
 -2 -10 10 0.35 0.00
 -2 -10 9 0.31 0.00
 -2 -10 8 -0.73 0.00
 -2 -10 7 -0.45 0.00
 -2 -10 6 0.78 0.00
 -2 -10 5 0.53 0.00
 -2 -10 4 -0.14 0.00
 -2 -10 3 0.11 0.00
 -2 -10 2 -0.40 0.00
 -2 -10 1 -0.85 0.00
 2 10 0 0.37 0.00
 2 10 1 1.22 0.00
 2 10 2 0.65 0.00
 2 10 3 -0.42 0.00
 2 10 4 -0.97 0.00
 2 10 5 0.09 0.00
 2 10 6 0.71 0.00
 2 10 7 -0.44 0.00
 2 10 8 -0.62 0.00
 2 10 9 0.41 0.00
 2 10 10 0.45 0.00
 2 10 11 -0.04 0.00
 -1 -11 18 -0.17 0.00
 -1 -11 17 0.00 0.00
 -1 -11 16 -0.24 0.00
 -1 -11 15 -0.58 0.00
 -1 -11 14 -0.20 0.00
 -1 -11 13 0.18 0.00
 -1 -11 12 0.15 0.00
 -1 -11 11 0.32 0.00
 -1 -11 10 0.24 0.00
 -1 -11 9 0.03 0.00
 -1 -11 8 0.34 0.00
 -1 -11 7 0.45 0.00
 -1 -11 6 0.16 0.00
 -1 -11 5 -0.12 0.00
 -1 -11 4 0.00 0.00
 -1 -11 3 0.31 0.00
 -1 -11 2 -0.49 0.00
 -1 -11 1 -1.16 0.00
 1 11 0 -0.12 0.00
 1 11 1 0.67 0.00
 1 11 2 0.47 0.00
 1 11 3 0.37 0.00
 1 11 4 0.23 0.00
 1 11 5 0.38 0.00
 1 11 6 0.54 0.00
 1 11 7 -0.07 0.00
 1 11 8 -0.43 0.00
 1 11 9 -0.08 0.00
 1 11 10 0.07 0.00
 0 -12 17 0.61 0.00
 0 -12 16 0.19 0.00
 0 -12 15 -0.34 0.00
 0 -12 14 -0.18 0.00
 0 -12 13 -0.04 0.00
 0 -12 12 -0.10 0.00
 0 -12 11 0.34 0.00
 0 -12 10 0.50 0.00
 0 -12 9 0.22 0.00
 0 -12 8 0.19 0.00
 0 -12 7 0.21 0.00
 0 -12 6 0.41 0.00
 0 -12 5 0.52 0.00
 0 -12 4 0.25 0.00
 0 -12 3 0.19 0.00
 0 -12 2 -0.14 0.00
 0 -12 1 -0.70 0.00
 0 12 0 -0.30 0.00
 0 12 1 0.67 0.00
 0 12 2 0.69 0.00
 0 12 3 -0.35 0.00
 0 12 4 -0.73 0.00
 0 12 5 0.06 0.00
 0 12 6 0.30 0.00
 0 12 7 0.08 0.00
 0 12 8 0.61 0.00
 0 12 9 0.94 0.00
 1 -13 16 0.17 0.00
 1 -13 15 -0.24 0.00
 1 -13 14 -0.08 0.00
 1 -13 13 0.04 0.00
 1 -13 12 -0.01 0.00
 1 -13 11 0.01 0.00
 1 -13 10 -0.29 0.00
 1 -13 9 -0.20 0.00
 1 -13 8 0.38 0.00
 1 -13 7 0.20 0.00
 1 -13 6 -0.19 0.00
 1 -13 5 0.14 0.00
 1 -13 4 0.53 0.00
 1 -13 3 0.22 0.00
 1 -13 2 -0.66 0.00
 1 -13 1 -1.00 0.00
 -1 13 0 -0.40 0.00
 -1 13 1 0.41 0.00
 -1 13 2 0.81 0.00
 -1 13 3 0.29 0.00
 -1 13 4 -0.37 0.00
 -1 13 5 0.01 0.00
 -1 13 6 0.47 0.00
 -1 13 7 -0.12 0.00
 -1 13 8 -0.72 0.00
 2 -14 14 0.10 0.00
 2 -14 13 0.24 0.00
 2 -14 12 0.38 0.00
 2 -14 11 0.24 0.00
 2 -14 10 -0.15 0.00
 2 -14 9 -0.21 0.00
 2 -14 8 -0.10 0.00
 2 -14 7 -0.09 0.00
 2 -14 6 0.16 0.00
 2 -14 5 0.08 0.00
 2 -14 4 -0.16 0.00
 2 -14 3 0.21 0.00
 2 -14 2 0.42 0.00
 2 -14 1 -0.10 0.00
 -2 14 0 -0.57 0.00
 -2 14 1 -0.46 0.00
 -2 14 2 -0.10 0.00
 -2 14 3 -0.09 0.00
 -2 14 4 -0.46 0.00
 -2 14 5 -0.50 0.00
 -2 14 6 0.26 0.00
 3 -15 11 0.23 0.00
 3 -15 10 -0.15 0.00
 3 -15 9 -0.02 0.00
 3 -15 8 0.34 0.00
 3 -15 7 0.08 0.00
 3 -15 6 -0.08 0.00
 3 -15 5 -0.01 0.00
 3 -15 4 -0.21 0.00
 3 -15 3 -0.20 0.00
 3 -15 2 0.09 0.00
 3 -15 1 0.09 0.00
 -3 15 0 -0.04 0.00
 -3 15 1 0.21 0.00
 -3 15 2 0.51 0.00
 -3 15 3 0.27 0.00
 -3 15 4 -0.11 0.00
 4 -16 9 -0.07 0.00
 4 -16 8 0.04 0.00
 4 -16 7 0.13 0.00
 4 -16 6 0.20 0.00
 4 -16 5 0.03 0.00
 4 -16 4 -0.05 0.00
 4 -16 3 0.12 0.00
 4 -16 2 0.04 0.00
 -16 3 7 0.04 0.00
 -16 3 6 0.09 0.00
 -16 3 5 -0.06 0.00
 -16 3 4 0.09 0.00
 -16 3 3 -0.06 0.00
 -16 3 2 -0.31 0.00
 -16 3 1 0.34 0.00
 -16 3 0 0.51 0.00
 16 -3 1 -0.26 0.00
 -15 2 11 0.58 0.00
 -15 2 10 0.21 0.00
 -15 2 9 -0.33 0.00
 -15 2 8 -0.26 0.00
 -15 2 7 0.24 0.00
 -15 2 6 0.33 0.00
 -15 2 5 -0.09 0.00
 -15 2 4 -0.07 0.00
 -15 2 3 0.11 0.00
 -15 2 2 -0.03 0.00
 -15 2 1 0.05 0.00
 -15 2 0 0.04 0.00
 15 -2 1 -0.25 0.00
 15 -2 2 -0.27 0.00
 15 -2 3 -0.04 0.00
 15 -2 4 0.29 0.00
 -14 1 14 0.25 0.00
 -14 1 13 -0.20 0.00
 -14 1 12 -0.40 0.00
 -14 1 11 -0.03 0.00
 -14 1 10 0.13 0.00
 -14 1 9 0.18 0.00
 -14 1 8 0.12 0.00
 -14 1 7 -0.40 0.00
 -14 1 6 -0.35 0.00
 -14 1 5 0.73 0.00
 -14 1 4 1.02 0.00
 -14 1 3 -0.04 0.00
 -14 1 2 -0.40 0.00
 -14 1 1 0.22 0.00
 -14 1 0 0.28 0.00
 14 -1 1 -0.21 0.00
 14 -1 2 -0.58 0.00
 14 -1 3 -0.50 0.00
 14 -1 4 0.00 0.00
 14 -1 5 0.21 0.00
 14 -1 6 0.21 0.00
 -13 0 16 -0.25 0.00
 -13 0 15 -0.28 0.00
 -13 0 14 0.24 0.00
 -13 0 13 -0.01 0.00
 -13 0 12 -0.36 0.00
 -13 0 11 0.10 0.00
 -13 0 10 0.19 0.00
 -13 0 9 -0.23 0.00
 -13 0 8 -0.18 0.00
 -13 0 7 -0.20 0.00
 -13 0 6 -0.40 0.00
 -13 0 5 0.02 0.00
 -13 0 4 0.41 0.00
 -13 0 3 0.31 0.00
 -13 0 2 0.49 0.00
 -13 0 1 0.47 0.00
 13 0 0 -0.03 0.00
 13 0 1 -0.07 0.00
 13 0 2 -0.08 0.00
 13 0 3 -0.21 0.00
 13 0 4 0.03 0.00
 13 0 5 0.13 0.00
 13 0 6 0.06 0.00
 13 0 7 0.02 0.00
 13 0 8 -0.21 0.00
 -12 -1 17 0.30 0.00
 -12 -1 16 0.62 0.00
 -12 -1 15 0.16 0.00
 -12 -1 14 -0.12 0.00
 -12 -1 13 0.07 0.00
 -12 -1 12 0.01 0.00
 -12 -1 11 0.18 0.00
 -12 -1 10 0.74 0.00
 -12 -1 9 0.57 0.00
 -12 -1 8 -0.26 0.00
 -12 -1 7 -0.57 0.00
 -12 -1 6 -0.24 0.00
 -12 -1 5 0.10 0.00
 -12 -1 4 -0.20 0.00
 -12 -1 3 -0.76 0.00
 -12 -1 2 -0.23 0.00
 -12 -1 1 0.87 0.00
 12 1 0 0.80 0.00
 12 1 1 -0.11 0.00
 12 1 2 -0.41 0.00
 12 1 3 0.27 0.00
 12 1 4 0.57 0.00
 12 1 5 -0.27 0.00
 12 1 6 -0.67 0.00
 12 1 7 -0.05 0.00
 12 1 8 0.18 0.00
 -11 -2 18 0.26 0.00
 -11 -2 17 -0.16 0.00
 -11 -2 16 -0.39 0.00
 -11 -2 15 -0.15 0.00
 -11 -2 14 -0.04 0.00
 -11 -2 13 0.15 0.00
 -11 -2 12 0.24 0.00
 -11 -2 11 -0.27 0.00
 -11 -2 10 -0.29 0.00
 -11 -2 9 0.57 0.00
 -11 -2 8 0.71 0.00
 -11 -2 7 0.09 0.00
 -11 -2 6 0.17 0.00
 -11 -2 5 0.68 0.00
 -11 -2 4 0.10 0.00
 -11 -2 3 -1.13 0.00
 -11 -2 2 -1.03 0.00
 -11 -2 1 0.24 0.00
 11 2 0 0.75 0.00
 11 2 1 0.09 0.00
 11 2 2 -0.56 0.00
 11 2 3 -0.25 0.00
 11 2 4 0.52 0.00
 11 2 5 0.59 0.00
 11 2 6 -0.18 0.00
 11 2 7 -0.72 0.00
 11 2 8 -0.30 0.00
 11 2 9 0.20 0.00
 -10 -3 18 0.06 0.00
 -10 -3 17 0.31 0.00
 -10 -3 16 0.19 0.00
 -10 -3 15 -0.39 0.00
 -10 -3 14 -0.62 0.00
 -10 -3 13 0.14 0.00
 -10 -3 12 0.50 0.00
 -10 -3 11 -0.32 0.00
 -10 -3 10 -0.49 0.00
 -10 -3 9 0.13 0.00
 -10 -3 8 -0.29 0.00
 -10 -3 7 -0.98 0.00
 -10 -3 6 0.01 0.00
 -10 -3 5 1.45 0.00
 -10 -3 4 0.84 0.00
 -10 -3 3 -0.84 0.00
 -10 -3 2 -0.89 0.00
 -10 -3 1 -0.03 0.00
 10 3 0 0.14 0.00
 10 3 1 0.48 0.00
 10 3 2 0.91 0.00
 10 3 3 0.17 0.00
 10 3 4 -0.85 0.00
 10 3 5 -0.60 0.00
 10 3 6 0.25 0.00
 10 3 7 0.42 0.00
 10 3 8 0.35 0.00
 10 3 9 0.48 0.00
 10 3 10 0.35 0.00
 -9 -4 18 0.10 0.00
 -9 -4 17 -0.01 0.00
 -9 -4 16 0.17 0.00
 -9 -4 15 0.02 0.00
 -9 -4 14 -0.52 0.00
 -9 -4 13 -0.01 0.00
 -9 -4 12 0.44 0.00
 -9 -4 11 -0.25 0.00
 -9 -4 10 0.02 0.00
 -9 -4 9 0.74 0.00
 -9 -4 8 -0.33 0.00
 -9 -4 7 -1.27 0.00
 -9 -4 6 0.00 0.00
 -9 -4 5 1.27 0.00
 -9 -4 4 0.39 0.00
 -9 -4 3 -0.89 0.00
 -9 -4 2 -0.59 0.00
 -9 -4 1 -0.18 0.00
 9 4 0 -0.67 0.00
 9 4 1 -0.51 0.00
 9 4 2 0.45 0.00
 9 4 3 0.70 0.00
 9 4 4 0.20 0.00
 9 4 5 -0.13 0.00
 9 4 6 -0.39 0.00
 9 4 7 -0.61 0.00
 9 4 8 0.02 0.00
 9 4 9 0.86 0.00
 9 4 10 0.87 0.00
 9 4 11 0.56 0.00
 -8 -5 19 -0.06 0.00
 -8 -5 18 0.13 0.00
 -8 -5 17 0.00 0.00
 -8 -5 16 0.18 0.00
 -8 -5 15 0.33 0.00
 -8 -5 14 0.15 0.00
 -8 -5 13 0.50 0.00
 -8 -5 12 0.13 0.00
 -8 -5 11 -1.16 0.00
 -8 -5 10 -0.36 0.00
 -8 -5 9 1.47 0.00
 -8 -5 8 0.71 0.00
 -8 -5 7 -1.02 0.00
 -8 -5 6 -0.56 0.00
 -8 -5 5 0.93 0.00
 -8 -5 4 1.19 0.00
 -8 -5 3 0.51 0.00
 -8 -5 2 -0.01 0.00
 -8 -5 1 -0.28 0.00
 8 5 0 -0.18 0.00
 8 5 1 0.13 0.00
 8 5 2 -0.10 0.00
 8 5 3 -0.51 0.00
 8 5 4 -0.24 0.00
 8 5 5 0.39 0.00
 8 5 6 0.04 0.00
 8 5 7 -0.97 0.00
 8 5 8 -0.56 0.00
 8 5 9 0.68 0.00
 8 5 10 0.75 0.00
 8 5 11 0.33 0.00
 -7 -6 20 -0.07 0.00
 -7 -6 19 0.12 0.00
 -7 -6 18 0.17 0.00
 -7 -6 17 -0.24 0.00
 -7 -6 16 -0.06 0.00
 -7 -6 15 -0.15 0.00
 -7 -6 14 -0.51 0.00
 -7 -6 13 0.59 0.00
 -7 -6 12 1.19 0.00
 -7 -6 11 -0.43 0.00
 -7 -6 10 -1.11 0.00
 -7 -6 9 0.31 0.00
 -7 -6 8 0.57 0.00
 -7 -6 7 -0.44 0.00
 -7 -6 6 -0.10 0.00
 -7 -6 5 0.28 0.00
 -7 -6 4 -0.71 0.00
 -7 -6 3 -0.37 0.00
 -7 -6 2 1.13 0.00
 -7 -6 1 0.55 0.00
 7 6 0 -0.65 0.00
 7 6 1 -0.21 0.00
 7 6 2 0.38 0.00
 7 6 3 0.33 0.00
 7 6 4 0.35 0.00
 7 6 5 0.31 0.00
 7 6 6 -0.35 0.00
 7 6 7 -1.11 0.00
 7 6 8 -0.65 0.00
 7 6 9 0.36 0.00
 7 6 10 0.51 0.00
 7 6 11 0.23 0.00
 -6 -7 20 -0.47 0.00
 -6 -7 19 -0.04 0.00
 -6 -7 18 0.40 0.00
 -6 -7 17 0.24 0.00
 -6 -7 16 0.38 0.00
 -6 -7 15 0.22 0.00
 -6 -7 14 -0.37 0.00
 -6 -7 13 -0.17 0.00
 -6 -7 12 0.09 0.00
 -6 -7 11 -0.30 0.00
 -6 -7 10 -0.03 0.00
 -6 -7 9 1.05 0.00
 -6 -7 8 1.00 0.00
 -6 -7 7 -0.53 0.00
 -6 -7 6 -0.68 0.00
 -6 -7 5 0.71 0.00
 -6 -7 4 0.13 0.00
 -6 -7 3 -1.16 0.00
 -6 -7 2 0.03 0.00
 -6 -7 1 1.02 0.00
 6 7 0 -0.02 0.00
 6 7 1 -0.60 0.00
 6 7 2 -0.33 0.00
 6 7 3 -0.11 0.00
 6 7 4 0.36 0.00
 6 7 5 0.59 0.00
 6 7 6 -0.08 0.00
 6 7 7 -0.61 0.00
 6 7 8 -0.16 0.00
 6 7 9 0.24 0.00
 6 7 10 0.18 0.00
 6 7 11 0.19 0.00
 -5 -8 20 -0.23 0.00
 -5 -8 19 0.06 0.00
 -5 -8 18 0.17 0.00
 -5 -8 17 0.02 0.00
 -5 -8 16 0.03 0.00
 -5 -8 15 0.01 0.00
 -5 -8 14 0.19 0.00
 -5 -8 13 0.55 0.00
 -5 -8 12 0.02 0.00
 -5 -8 11 -0.78 0.00
 -5 -8 10 -0.36 0.00
 -5 -8 9 0.12 0.00
 -5 -8 8 -0.12 0.00
 -5 -8 7 0.38 0.00
 -5 -8 6 1.21 0.00
 -5 -8 5 0.69 0.00
 -5 -8 4 -0.42 0.00
 -5 -8 3 -0.57 0.00
 -5 -8 2 -0.15 0.00
 -5 -8 1 -0.02 0.00
 5 8 0 0.32 0.00
 5 8 1 0.90 0.00
 5 8 2 0.53 0.00
 5 8 3 -0.58 0.00
 5 8 4 -0.84 0.00
 5 8 5 -0.13 0.00
 5 8 6 0.36 0.00
 5 8 7 0.34 0.00
 5 8 8 0.09 0.00
 5 8 9 -0.30 0.00
 5 8 10 -0.23 0.00
 -4 -9 19 0.00 0.00
 -4 -9 18 0.28 0.00
 -4 -9 17 0.13 0.00
 -4 -9 16 -0.02 0.00
 -4 -9 15 -0.10 0.00
 -4 -9 14 -0.24 0.00
 -4 -9 13 0.27 0.00
 -4 -9 12 0.56 0.00
 -4 -9 11 -0.17 0.00
 -4 -9 10 -0.15 0.00
 -4 -9 9 0.35 0.00
 -4 -9 8 -0.80 0.00
 -4 -9 7 -1.54 0.00
 -4 -9 6 0.13 0.00
 -4 -9 5 1.00 0.00
 -4 -9 4 -0.15 0.00
 -4 -9 3 -0.19 0.00
 -4 -9 2 0.33 0.00
 -4 -9 1 -0.76 0.00
 4 9 0 -0.95 0.00
 4 9 1 0.78 0.00
 4 9 2 1.29 0.00
 4 9 3 -0.10 0.00
 4 9 4 -1.10 0.00
 4 9 5 -0.74 0.00
 4 9 6 -0.10 0.00
 4 9 7 0.06 0.00
 4 9 8 0.48 0.00
 4 9 9 0.85 0.00
 4 9 10 0.29 0.00
 -3 -10 19 0.13 0.00
 -3 -10 18 -0.11 0.00
 -3 -10 17 -0.17 0.00
 -3 -10 16 -0.15 0.00
 -3 -10 15 -0.11 0.00
 -3 -10 14 -0.41 0.00
 -3 -10 13 -0.15 0.00
 -3 -10 12 0.54 0.00
 -3 -10 11 0.00 0.00
 -3 -10 10 -0.57 0.00
 -3 -10 9 0.37 0.00
 -3 -10 8 0.77 0.00
 -3 -10 7 -0.33 0.00
 -3 -10 6 -0.45 0.00
 -3 -10 5 0.31 0.00
 -3 -10 4 -0.18 0.00
 -3 -10 3 -0.45 0.00
 -3 -10 2 0.09 0.00
 -3 -10 1 -0.42 0.00
 3 10 0 -0.70 0.00
 3 10 1 0.19 0.00
 3 10 2 0.64 0.00
 3 10 3 0.52 0.00
 3 10 4 -0.10 0.00
 3 10 5 -0.64 0.00
 3 10 6 -0.07 0.00
 3 10 7 0.10 0.00
 3 10 8 -0.49 0.00
 3 10 9 -0.18 0.00
 3 10 10 0.45 0.00
 -2 -11 18 0.36 0.00
 -2 -11 17 0.36 0.00
 -2 -11 16 0.27 0.00
 -2 -11 15 -0.16 0.00
 -2 -11 14 -0.37 0.00
 -2 -11 13 -0.05 0.00
 -2 -11 12 0.09 0.00
 -2 -11 11 0.07 0.00
 -2 -11 10 0.04 0.00
 -2 -11 9 -0.18 0.00
 -2 -11 8 -0.14 0.00
 -2 -11 7 0.08 0.00
 -2 -11 6 0.39 0.00
 -2 -11 5 0.61 0.00
 -2 -11 4 0.25 0.00
 -2 -11 3 0.36 0.00
 -2 -11 2 0.57 0.00
 -2 -11 1 -0.54 0.00
 2 11 0 -0.92 0.00
 2 11 1 0.08 0.00
 2 11 2 0.16 0.00
 2 11 3 -0.33 0.00
 2 11 4 -0.26 0.00
 2 11 5 0.00 0.00
 2 11 6 0.21 0.00
 2 11 7 0.19 0.00
 2 11 8 0.07 0.00
 2 11 9 0.08 0.00
 -1 -12 17 0.16 0.00
 -1 -12 16 0.56 0.00
 -1 -12 15 0.09 0.00
 -1 -12 14 -0.28 0.00
 -1 -12 13 -0.02 0.00
 -1 -12 12 -0.19 0.00
 -1 -12 11 -0.41 0.00
 -1 -12 10 0.03 0.00
 -1 -12 9 0.26 0.00
 -1 -12 8 -0.08 0.00
 -1 -12 7 -0.51 0.00
 -1 -12 6 -0.35 0.00
 -1 -12 5 0.09 0.00
 -1 -12 4 -0.01 0.00
 -1 -12 3 0.28 0.00
 -1 -12 2 0.74 0.00
 -1 -12 1 -0.13 0.00
 1 12 0 -1.01 0.00
 1 12 1 -0.41 0.00
 1 12 2 0.78 0.00
 1 12 3 0.84 0.00
 1 12 4 -0.46 0.00
 1 12 5 -0.81 0.00
 1 12 6 -0.04 0.00
 1 12 7 -0.35 0.00
 1 12 8 -0.86 0.00
 0 -13 16 0.29 0.00
 0 -13 15 0.03 0.00
 0 -13 14 -0.21 0.00
 0 -13 13 -0.07 0.00
 0 -13 12 -0.07 0.00
 0 -13 11 0.10 0.00
 0 -13 10 0.34 0.00
 0 -13 9 0.10 0.00
 0 -13 8 -0.11 0.00
 0 -13 7 -0.02 0.00
 0 -13 6 0.07 0.00
 0 -13 5 -0.12 0.00
 0 -13 4 -0.21 0.00
 0 -13 3 0.56 0.00
 0 -13 2 0.86 0.00
 0 -13 1 -0.24 0.00
 0 13 0 -1.11 0.00
 0 13 1 -1.01 0.00
 0 13 2 -0.23 0.00
 0 13 3 0.55 0.00
 0 13 4 0.15 0.00
 0 13 5 -0.47 0.00
 0 13 6 0.10 0.00
 0 13 7 0.61 0.00
 1 -14 14 -0.20 0.00
 1 -14 13 -0.30 0.00
 1 -14 12 -0.18 0.00
 1 -14 11 0.01 0.00
 1 -14 10 0.15 0.00
 1 -14 9 0.31 0.00
 1 -14 8 0.24 0.00
 1 -14 7 -0.20 0.00
 1 -14 6 -0.16 0.00
 1 -14 5 0.14 0.00
 1 -14 4 -0.06 0.00
 1 -14 3 -0.07 0.00
 1 -14 2 0.28 0.00
 1 -14 1 0.47 0.00
 -1 14 0 0.35 0.00
 -1 14 1 -0.11 0.00
 -1 14 2 -0.18 0.00
 -1 14 3 0.27 0.00
 -1 14 4 0.07 0.00
 -1 14 5 -0.84 0.00
 -1 14 6 -1.19 0.00
 2 -15 12 -0.11 0.00
 2 -15 11 0.09 0.00
 2 -15 10 0.04 0.00
 2 -15 9 -0.40 0.00
 2 -15 8 -0.27 0.00
 2 -15 7 0.24 0.00
 2 -15 6 0.25 0.00
 2 -15 5 -0.05 0.00
 2 -15 4 -0.11 0.00
 2 -15 3 -0.10 0.00
 2 -15 2 -0.41 0.00
 2 -15 1 -0.45 0.00
 -2 15 0 -0.22 0.00
 -2 15 1 -0.47 0.00
 -2 15 2 -0.49 0.00
 -2 15 3 0.16 0.00
 -2 15 4 0.38 0.00
 3 -16 9 -0.01 0.00
 3 -16 8 -0.34 0.00
 3 -16 7 -0.34 0.00
 3 -16 6 0.08 0.00
 3 -16 5 0.19 0.00
 3 -16 4 -0.03 0.00
 3 -16 3 0.05 0.00
 3 -16 2 0.23 0.00
 -16 2 6 0.04 0.00
 -16 2 5 0.23 0.00
 -16 2 4 -0.03 0.00
 -16 2 3 0.17 0.00
 -16 2 2 0.22 0.00
 -16 2 1 -0.03 0.00
 -16 2 0 0.04 0.00
 -15 1 12 0.15 0.00
 -15 1 11 0.01 0.00
 -15 1 10 -0.16 0.00
 -15 1 9 -0.34 0.00
 -15 1 8 -0.05 0.00
 -15 1 7 0.02 0.00
 -15 1 6 -0.73 0.00
 -15 1 5 -1.15 0.00
 -15 1 4 -0.29 0.00
 -15 1 3 0.58 0.00
 -15 1 2 0.35 0.00
 -15 1 1 0.08 0.00
 -15 1 0 0.36 0.00
 15 -1 1 0.53 0.00
 15 -1 2 0.29 0.00
 15 -1 3 -0.14 0.00
 15 -1 4 -0.27 0.00
 -14 0 14 0.24 0.00
 -14 0 13 0.52 0.00
 -14 0 12 -0.12 0.00
 -14 0 11 -0.30 0.00
 -14 0 10 0.36 0.00
 -14 0 9 0.55 0.00
 -14 0 8 0.37 0.00
 -14 0 7 0.35 0.00
 -14 0 6 -0.16 0.00
 -14 0 5 -0.90 0.00
 -14 0 4 -0.91 0.00
 -14 0 3 -0.65 0.00
 -14 0 2 -0.31 0.00
 -14 0 1 0.41 0.00
 14 0 0 0.49 0.00
 14 0 1 0.00 0.00
 14 0 2 -0.02 0.00
 14 0 3 0.00 0.00
 14 0 4 -0.10 0.00
 14 0 5 0.05 0.00
 -13 -1 16 -0.16 0.00
 -13 -1 15 0.09 0.00
 -13 -1 14 0.11 0.00
 -13 -1 13 0.35 0.00
 -13 -1 12 0.13 0.00
 -13 -1 11 -0.65 0.00
 -13 -1 10 -0.70 0.00
 -13 -1 9 0.21 0.00
 -13 -1 8 0.79 0.00
 -13 -1 7 0.70 0.00
 -13 -1 6 0.41 0.00
 -13 -1 5 0.21 0.00
 -13 -1 4 0.26 0.00
 -13 -1 3 -0.15 0.00
 -13 -1 2 -0.98 0.00
 -13 -1 1 -0.71 0.00
 13 1 0 0.33 0.00
 13 1 1 0.48 0.00
 13 1 2 -0.25 0.00
 13 1 3 -0.59 0.00
 13 1 4 -0.03 0.00
 13 1 5 0.43 0.00
 13 1 6 0.04 0.00
 13 1 7 -0.36 0.00
 -12 -2 17 0.19 0.00
 -12 -2 16 -0.18 0.00
 -12 -2 15 -0.37 0.00
 -12 -2 14 -0.20 0.00
 -12 -2 13 -0.12 0.00
 -12 -2 12 0.05 0.00
 -12 -2 11 0.17 0.00
 -12 -2 10 -0.23 0.00
 -12 -2 9 -0.60 0.00
 -12 -2 8 -0.48 0.00
 -12 -2 7 -0.21 0.00
 -12 -2 6 0.02 0.00
 -12 -2 5 0.38 0.00
 -12 -2 4 0.89 0.00
 -12 -2 3 0.75 0.00
 -12 -2 2 -0.17 0.00
 -12 -2 1 -0.50 0.00
 12 2 0 0.09 0.00
 12 2 1 0.52 0.00
 12 2 2 0.26 0.00
 12 2 3 -0.31 0.00
 12 2 4 -0.44 0.00
 12 2 5 0.20 0.00
 12 2 6 0.73 0.00
 12 2 7 0.18 0.00
 12 2 8 -0.49 0.00
 -11 -3 17 -0.03 0.00
 -11 -3 16 0.22 0.00
 -11 -3 15 0.31 0.00
 -11 -3 14 -0.22 0.00
 -11 -3 13 -0.60 0.00
 -11 -3 12 -0.08 0.00
 -11 -3 11 0.26 0.00
 -11 -3 10 0.06 0.00
 -11 -3 9 0.26 0.00
 -11 -3 8 0.35 0.00
 -11 -3 7 -0.41 0.00
 -11 -3 6 -1.04 0.00
 -11 -3 5 -0.41 0.00
 -11 -3 4 0.71 0.00
 -11 -3 3 0.40 0.00
 -11 -3 2 -0.64 0.00
 -11 -3 1 -0.27 0.00
 11 3 0 0.30 0.00
 11 3 1 -0.27 0.00
 11 3 2 -0.14 0.00
 11 3 3 0.98 0.00
 11 3 4 0.92 0.00
 11 3 5 -0.23 0.00
 11 3 6 -0.73 0.00
 11 3 7 -0.50 0.00
 11 3 8 -0.20 0.00
 11 3 9 0.02 0.00
 -10 -4 18 0.31 0.00
 -10 -4 17 0.48 0.00
 -10 -4 16 0.08 0.00
 -10 -4 15 0.32 0.00
 -10 -4 14 0.18 0.00
 -10 -4 13 -0.36 0.00
 -10 -4 12 0.14 0.00
 -10 -4 11 0.13 0.00
 -10 -4 10 -0.65 0.00
 -10 -4 9 0.16 0.00
 -10 -4 8 1.09 0.00
 -10 -4 7 0.06 0.00
 -10 -4 6 -0.81 0.00
 -10 -4 5 0.05 0.00
 -10 -4 4 1.06 0.00
 -10 -4 3 0.51 0.00
 -10 -4 2 -0.59 0.00
 -10 -4 1 -0.30 0.00
 10 4 0 0.19 0.00
 10 4 1 -0.60 0.00
 10 4 2 -0.96 0.00
 10 4 3 0.13 0.00
 10 4 4 0.98 0.00
 10 4 5 0.74 0.00
 10 4 6 0.00 0.00
 10 4 7 -0.81 0.00
 10 4 8 -0.99 0.00
 10 4 9 -0.44 0.00
 -9 -5 18 -0.30 0.00
 -9 -5 17 0.06 0.00
 -9 -5 16 -0.19 0.00
 -9 -5 15 -0.20 0.00
 -9 -5 14 -0.22 0.00
 -9 -5 13 -0.06 0.00
 -9 -5 12 0.72 0.00
 -9 -5 11 0.23 0.00
 -9 -5 10 -1.08 0.00
 -9 -5 9 -0.44 0.00
 -9 -5 8 0.72 0.00
 -9 -5 7 0.09 0.00
 -9 -5 6 -0.84 0.00
 -9 -5 5 -0.56 0.00
 -9 -5 4 0.28 0.00
 -9 -5 3 0.75 0.00
 -9 -5 2 0.69 0.00
 -9 -5 1 0.34 0.00
 9 5 0 -0.25 0.00
 9 5 1 -0.55 0.00
 9 5 2 -0.08 0.00
 9 5 3 0.33 0.00
 9 5 4 -0.01 0.00
 9 5 5 -0.16 0.00
 9 5 6 0.25 0.00
 9 5 7 -0.11 0.00
 9 5 8 -1.00 0.00
 9 5 9 -0.81 0.00
 9 5 10 -0.04 0.00
 -8 -6 19 -0.30 0.00
 -8 -6 18 0.14 0.00
 -8 -6 17 0.39 0.00
 -8 -6 16 0.11 0.00
 -8 -6 15 0.02 0.00
 -8 -6 14 -0.56 0.00
 -8 -6 13 -0.93 0.00
 -8 -6 12 0.12 0.00
 -8 -6 11 0.53 0.00
 -8 -6 10 -0.43 0.00
 -8 -6 9 -0.38 0.00
 -8 -6 8 0.47 0.00
 -8 -6 7 0.06 0.00
 -8 -6 6 -0.57 0.00
 -8 -6 5 -0.07 0.00
 -8 -6 4 -0.08 0.00
 -8 -6 3 -0.76 0.00
 -8 -6 2 0.02 0.00
 -8 -6 1 1.14 0.00
 8 6 0 0.38 0.00
 8 6 1 -0.70 0.00
 8 6 2 -0.54 0.00
 8 6 3 -0.02 0.00
 8 6 4 0.25 0.00
 8 6 5 0.60 0.00
 8 6 6 0.78 0.00
 8 6 7 0.00 0.00
 8 6 8 -1.04 0.00
 8 6 9 -0.90 0.00
 8 6 10 -0.16 0.00
 -7 -7 19 -0.58 0.00
 -7 -7 18 -0.43 0.00
 -7 -7 17 0.05 0.00
 -7 -7 16 0.29 0.00
 -7 -7 15 0.46 0.00
 -7 -7 14 0.32 0.00
 -7 -7 13 0.13 0.00
 -7 -7 12 0.08 0.00
 -7 -7 11 -0.51 0.00
 -7 -7 10 -1.30 0.00
 -7 -7 9 -0.82 0.00
 -7 -7 8 0.79 0.00
 -7 -7 7 1.02 0.00
 -7 -7 6 -0.44 0.00
 -7 -7 5 -0.44 0.00
 -7 -7 4 0.61 0.00
 -7 -7 3 -0.20 0.00
 -7 -7 2 -0.83 0.00
 -7 -7 1 0.44 0.00
 7 7 0 0.83 0.00
 7 7 1 0.03 0.00
 7 7 2 -0.28 0.00
 7 7 3 -0.50 0.00
 7 7 4 -0.36 0.00
 7 7 5 0.59 0.00
 7 7 6 0.96 0.00
 7 7 7 0.08 0.00
 7 7 8 -0.59 0.00
 7 7 9 -0.31 0.00
 7 7 10 -0.03 0.00
 -6 -8 19 -0.15 0.00
 -6 -8 18 -0.19 0.00
 -6 -8 17 -0.30 0.00
 -6 -8 16 -0.09 0.00
 -6 -8 15 -0.08 0.00
 -6 -8 14 -0.37 0.00
 -6 -8 13 0.26 0.00
 -6 -8 12 1.06 0.00
 -6 -8 11 0.21 0.00
 -6 -8 10 -0.84 0.00
 -6 -8 9 -0.43 0.00
 -6 -8 8 -0.28 0.00
 -6 -8 7 -0.97 0.00
 -6 -8 6 -0.48 0.00
 -6 -8 5 0.79 0.00
 -6 -8 4 0.52 0.00
 -6 -8 3 -0.65 0.00
 -6 -8 2 -0.55 0.00
 -6 -8 1 0.11 0.00
 6 8 0 -0.24 0.00
 6 8 1 -0.52 0.00
 6 8 2 0.05 0.00
 6 8 3 0.26 0.00
 6 8 4 -0.11 0.00
 6 8 5 -0.25 0.00
 6 8 6 -0.26 0.00
 6 8 7 -0.26 0.00
 6 8 8 0.15 0.00
 6 8 9 0.50 0.00
 6 8 10 0.26 0.00
 -5 -9 19 -0.25 0.00
 -5 -9 18 0.13 0.00
 -5 -9 17 0.14 0.00
 -5 -9 16 -0.08 0.00
 -5 -9 15 0.06 0.00
 -5 -9 14 -0.19 0.00
 -5 -9 13 -0.52 0.00
 -5 -9 12 0.20 0.00
 -5 -9 11 0.55 0.00
 -5 -9 10 -0.16 0.00
 -5 -9 9 0.21 0.00
 -5 -9 8 1.02 0.00
 -5 -9 7 -0.13 0.00
 -5 -9 6 -1.12 0.00
 -5 -9 5 0.15 0.00
 -5 -9 4 0.68 0.00
 -5 -9 3 -0.40 0.00
 -5 -9 2 -0.19 0.00
 -5 -9 1 0.40 0.00
 5 9 0 -0.46 0.00
 5 9 1 -0.68 0.00
 5 9 2 0.31 0.00
 5 9 3 0.72 0.00
 5 9 4 0.26 0.00
 5 9 5 -0.26 0.00
 5 9 6 -0.49 0.00
 5 9 7 -0.87 0.00
 5 9 8 -1.13 0.00
 5 9 9 -0.27 0.00
 -4 -10 19 0.04 0.00
 -4 -10 18 0.28 0.00
 -4 -10 17 0.34 0.00
 -4 -10 16 -0.08 0.00
 -4 -10 15 -0.12 0.00
 -4 -10 14 0.10 0.00
 -4 -10 13 -0.28 0.00
 -4 -10 12 -0.21 0.00
 -4 -10 11 0.44 0.00
 -4 -10 10 0.13 0.00
 -4 -10 9 -0.42 0.00
 -4 -10 8 0.12 0.00
 -4 -10 7 0.35 0.00
 -4 -10 6 -0.14 0.00
 -4 -10 5 0.46 0.00
 -4 -10 4 1.08 0.00
 -4 -10 3 0.23 0.00
 -4 -10 2 -0.18 0.00
 -4 -10 1 -0.05 0.00
 4 10 0 -0.57 0.00
 4 10 1 -0.26 0.00
 4 10 2 0.50 0.00
 4 10 3 0.32 0.00
 4 10 4 0.08 0.00
 4 10 5 0.06 0.00
 4 10 6 0.16 0.00
 4 10 7 0.21 0.00
 4 10 8 -0.42 0.00
 4 10 9 -0.92 0.00
 -3 -11 18 -0.05 0.00
 -3 -11 17 0.22 0.00
 -3 -11 16 0.28 0.00
 -3 -11 15 0.06 0.00
 -3 -11 14 -0.20 0.00
 -3 -11 13 -0.22 0.00
 -3 -11 12 -0.18 0.00
 -3 -11 11 -0.07 0.00
 -3 -11 10 0.07 0.00
 -3 -11 9 -0.11 0.00
 -3 -11 8 -0.12 0.00
 -3 -11 7 -0.21 0.00
 -3 -11 6 -0.85 0.00
 -3 -11 5 -0.63 0.00
 -3 -11 4 0.10 0.00
 -3 -11 3 0.06 0.00
 -3 -11 2 0.40 0.00
 -3 -11 1 0.48 0.00
 3 11 0 -0.58 0.00
 3 11 1 -0.41 0.00
 3 11 2 0.78 0.00
 3 11 3 0.49 0.00
 3 11 4 -0.59 0.00
 3 11 5 -0.51 0.00
 3 11 6 0.26 0.00
 3 11 7 0.16 0.00
 3 11 8 -0.38 0.00
 3 11 9 -0.20 0.00
 -2 -12 17 -0.42 0.00
 -2 -12 16 0.09 0.00
 -2 -12 15 0.31 0.00
 -2 -12 14 -0.16 0.00
 -2 -12 13 -0.20 0.00
 -2 -12 12 0.08 0.00
 -2 -12 11 -0.21 0.00
 -2 -12 10 -0.42 0.00
 -2 -12 9 -0.01 0.00
 -2 -12 8 0.51 0.00
 -2 -12 7 0.29 0.00
 -2 -12 6 -0.18 0.00
 -2 -12 5 0.21 0.00
 -2 -12 4 0.06 0.00
 -2 -12 3 -0.89 0.00
 -2 -12 2 -0.27 0.00
 -2 -12 1 0.67 0.00
 2 12 0 -0.11 0.00
 2 12 1 -1.08 0.00
 2 12 2 -0.75 0.00
 2 12 3 0.46 0.00
 2 12 4 0.71 0.00
 2 12 5 -0.23 0.00
 2 12 6 -0.09 0.00
 2 12 7 0.62 0.00
 2 12 8 0.12 0.00
 -1 -13 16 0.04 0.00
 -1 -13 15 0.28 0.00
 -1 -13 14 0.12 0.00
 -1 -13 13 -0.01 0.00
 -1 -13 12 -0.23 0.00
 -1 -13 11 -0.54 0.00
 -1 -13 10 -0.52 0.00
 -1 -13 9 -0.17 0.00
 -1 -13 8 0.14 0.00
 -1 -13 7 -0.23 0.00
 -1 -13 6 -0.51 0.00
 -1 -13 5 0.26 0.00
 -1 -13 4 0.31 0.00
 -1 -13 3 -0.33 0.00
 -1 -13 2 0.36 0.00
 -1 -13 1 1.12 0.00
 1 13 0 0.68 0.00
 1 13 1 -0.03 0.00
 1 13 2 -0.51 0.00
 1 13 3 -0.29 0.00
 1 13 4 0.09 0.00
 1 13 5 -0.39 0.00
 1 13 6 -0.66 0.00
 1 13 7 0.00 0.00
 0 -14 14 0.12 0.00
 0 -14 13 0.08 0.00
 0 -14 12 0.00 0.00
 0 -14 11 -0.17 0.00
 0 -14 10 -0.53 0.00
 0 -14 9 -0.48 0.00
 0 -14 8 0.18 0.00
 0 -14 7 0.15 0.00
 0 -14 6 -0.42 0.00
 0 -14 5 -0.34 0.00
 0 -14 4 -0.31 0.00
 0 -14 3 -0.40 0.00
 0 -14 2 -0.31 0.00
 0 -14 1 -0.58 0.00
 0 14 0 -0.35 0.00
 0 14 1 0.25 0.00
 0 14 2 0.05 0.00
 0 14 3 0.19 0.00
 0 14 4 0.93 0.00
 0 14 5 0.70 0.00
 1 -15 12 -0.06 0.00
 1 -15 11 -0.01 0.00
 1 -15 10 0.18 0.00
 1 -15 9 0.17 0.00
 1 -15 8 -0.24 0.00
 1 -15 7 -0.40 0.00
 1 -15 6 0.19 0.00
 1 -15 5 0.52 0.00
 1 -15 4 0.07 0.00
 1 -15 3 0.36 0.00
 1 -15 2 0.90 0.00
 1 -15 1 0.04 0.00
 -1 15 0 -0.42 0.00
 -1 15 1 0.22 0.00
 -1 15 2 -0.04 0.00
 -1 15 3 -0.55 0.00
 2 -16 10 -0.10 0.00
 2 -16 9 0.33 0.00
 2 -16 8 0.43 0.00
 2 -16 7 -0.26 0.00
 2 -16 6 -0.37 0.00
 2 -16 5 0.19 0.00
 2 -16 4 0.16 0.00
 2 -16 3 -0.08 0.00
 2 -16 2 -0.13 0.00
 -16 1 7 0.39 0.00
 -16 1 6 0.63 0.00
 -16 1 5 0.14 0.00
 -16 1 4 -0.68 0.00
 -16 1 3 -0.84 0.00
 -16 1 2 -0.33 0.00
 -16 1 1 -0.06 0.00
 -16 1 0 -0.17 0.00
 -15 0 12 0.32 0.00
 -15 0 11 -0.27 0.00
 -15 0 10 -0.50 0.00
 -15 0 9 -0.19 0.00
 -15 0 8 0.00 0.00
 -15 0 7 0.31 0.00
 -15 0 6 0.85 0.00
 -15 0 5 0.86 0.00
 -15 0 4 0.36 0.00
 -15 0 3 -0.18 0.00
 -15 0 2 -0.82 0.00
 -15 0 1 -0.76 0.00
 15 0 0 0.09 0.00
 15 0 1 0.26 0.00
 15 0 2 -0.11 0.00
 15 0 3 -0.13 0.00
 -14 -1 14 -0.49 0.00
 -14 -1 13 -0.27 0.00
 -14 -1 12 0.44 0.00
 -14 -1 11 0.64 0.00
 -14 -1 10 -0.13 0.00
 -14 -1 9 -0.92 0.00
 -14 -1 8 -0.89 0.00
 -14 -1 7 -0.40 0.00
 -14 -1 6 0.07 0.00
 -14 -1 5 0.17 0.00
 -14 -1 4 0.17 0.00
 -14 -1 3 0.54 0.00
 -14 -1 2 0.44 0.00
 -14 -1 1 -0.33 0.00
 14 1 0 -0.39 0.00
 14 1 1 0.27 0.00
 14 1 2 0.50 0.00
 14 1 3 0.15 0.00
 14 1 4 -0.22 0.00
 -13 -2 16 0.42 0.00
 -13 -2 15 0.00 0.00
 -13 -2 14 -0.25 0.00
 -13 -2 13 -0.04 0.00
 -13 -2 12 0.01 0.00
 -13 -2 11 0.00 0.00
 -13 -2 10 0.24 0.00
 -13 -2 9 0.42 0.00
 -13 -2 8 0.13 0.00
 -13 -2 7 -0.41 0.00
 -13 -2 6 -0.58 0.00
 -13 -2 5 -0.50 0.00
 -13 -2 4 -0.56 0.00
 -13 -2 3 -0.36 0.00
 -13 -2 2 -0.02 0.00
 -13 -2 1 0.06 0.00
 13 2 0 0.07 0.00
 13 2 1 0.07 0.00
 13 2 2 0.06 0.00
 13 2 3 0.30 0.00
 13 2 4 0.19 0.00
 13 2 5 -0.43 0.00
 13 2 6 -0.18 0.00
 -12 -3 17 -0.03 0.00
 -12 -3 16 0.03 0.00
 -12 -3 15 0.29 0.00
 -12 -3 14 0.38 0.00
 -12 -3 13 0.01 0.00
 -12 -3 12 -0.24 0.00
 -12 -3 11 -0.10 0.00
 -12 -3 10 -0.17 0.00
 -12 -3 9 -0.18 0.00
 -12 -3 8 0.33 0.00
 -12 -3 7 0.62 0.00
 -12 -3 6 0.29 0.00
 -12 -3 5 -0.15 0.00
 -12 -3 4 -0.03 0.00
 -12 -3 3 0.35 0.00
 -12 -3 2 -0.33 0.00
 -12 -3 1 -1.13 0.00
 12 3 0 -0.34 0.00
 12 3 1 0.35 0.00
 12 3 2 -0.53 0.00
 12 3 3 -0.81 0.00
 12 3 4 0.30 0.00
 12 3 5 0.85 0.00
 12 3 6 0.47 0.00
 12 3 7 0.05 0.00
 -11 -4 17 0.03 0.00
 -11 -4 16 0.21 0.00
 -11 -4 15 -0.14 0.00
 -11 -4 14 0.25 0.00
 -11 -4 13 0.16 0.00
 -11 -4 12 -0.25 0.00
 -11 -4 11 0.25 0.00
 -11 -4 10 0.08 0.00
 -11 -4 9 -0.81 0.00
 -11 -4 8 -0.42 0.00
 -11 -4 7 0.27 0.00
 -11 -4 6 -0.12 0.00
 -11 -4 5 -0.53 0.00
 -11 -4 4 0.17 0.00
 -11 -4 3 1.17 0.00
 -11 -4 2 0.72 0.00
 -11 -4 1 -0.40 0.00
 11 4 0 -0.05 0.00
 11 4 1 0.61 0.00
 11 4 2 -0.35 0.00
 11 4 3 -1.26 0.00
 11 4 4 -0.68 0.00
 11 4 5 0.38 0.00
 11 4 6 1.01 0.00
 11 4 7 0.70 0.00
 11 4 8 -0.13 0.00
 -10 -5 18 -0.50 0.00
 -10 -5 17 -0.16 0.00
 -10 -5 16 0.18 0.00
 -10 -5 15 -0.03 0.00
 -10 -5 14 -0.12 0.00
 -10 -5 13 -0.40 0.00
 -10 -5 12 -0.34 0.00
 -10 -5 11 0.49 0.00
 -10 -5 10 0.42 0.00
 -10 -5 9 -0.33 0.00
 -10 -5 8 -0.17 0.00
 -10 -5 7 0.11 0.00
 -10 -5 6 -0.25 0.00
 -10 -5 5 -0.59 0.00
 -10 -5 4 -0.58 0.00
 -10 -5 3 -0.29 0.00
 -10 -5 2 -0.05 0.00
 -10 -5 1 0.27 0.00
 10 5 0 0.78 0.00
 10 5 1 0.45 0.00
 10 5 2 -0.53 0.00
 10 5 3 -0.36 0.00
 10 5 4 0.47 0.00
 10 5 5 0.31 0.00
 10 5 6 0.04 0.00
 10 5 7 0.32 0.00
 10 5 8 0.16 0.00
 -9 -6 19 -0.10 0.00
 -9 -6 18 -0.56 0.00
 -9 -6 17 0.01 0.00
 -9 -6 16 0.40 0.00
 -9 -6 15 0.46 0.00
 -9 -6 14 0.58 0.00
 -9 -6 13 0.01 0.00
 -9 -6 12 -0.50 0.00
 -9 -6 11 -0.07 0.00
 -9 -6 10 0.07 0.00
 -9 -6 9 -0.19 0.00
 -9 -6 8 0.14 0.00
 -9 -6 7 0.34 0.00
 -9 -6 6 -0.03 0.00
 -9 -6 5 -0.06 0.00
 -9 -6 4 0.11 0.00
 -9 -6 3 -0.40 0.00
 -9 -6 2 -0.97 0.00
 -9 -6 1 -0.34 0.00
 9 6 0 0.78 0.00
 9 6 1 0.61 0.00
 9 6 2 -0.48 0.00
 9 6 3 -0.61 0.00
 9 6 5 0.42 0.00
 9 6 6 0.51 0.00
 9 6 7 0.76 0.00
 9 6 8 0.36 0.00
 9 6 9 -0.35 0.00
 -8 -7 19 0.25 0.00
 -8 -7 18 -0.51 0.00
 -8 -7 17 -0.75 0.00
 -8 -7 16 -0.38 0.00
 -8 -7 15 -0.09 0.00
 -8 -7 14 -0.01 0.00
 -8 -7 13 0.22 0.00
 -8 -7 12 0.63 0.00
 -8 -7 11 0.70 0.00
 -8 -7 10 -0.02 0.00
 -8 -7 9 -0.99 0.00
 -8 -7 8 -0.80 0.00
 -8 -7 7 0.40 0.00
 -8 -7 6 0.50 0.00
 -8 -7 5 -0.37 0.00
 -8 -7 4 -0.07 0.00
 -8 -7 3 0.35 0.00
 -8 -7 2 -0.57 0.00
 -8 -7 1 -0.74 0.00
 8 7 0 0.21 0.00
 8 7 1 0.26 0.00
 8 7 2 -0.17 0.00
 8 7 3 -0.27 0.00
 8 7 4 -0.65 0.00
 8 7 5 -0.67 0.00
 8 7 6 0.32 0.00
 8 7 7 0.92 0.00
 8 7 8 0.35 0.00
 8 7 9 -0.21 0.00
 -7 -8 19 0.21 0.00
 -7 -8 18 0.31 0.00
 -7 -8 17 -0.08 0.00
 -7 -8 16 -0.20 0.00
 -7 -8 15 0.19 0.00
 -7 -8 14 -0.21 0.00
 -7 -8 13 -0.80 0.00
 -7 -8 12 0.06 0.00
 -7 -8 11 1.02 0.00
 -7 -8 10 0.37 0.00
 -7 -8 9 -0.31 0.00
 -7 -8 8 0.18 0.00
 -7 -8 7 0.10 0.00
 -7 -8 6 -0.81 0.00
 -7 -8 5 -0.41 0.00
 -7 -8 4 0.82 0.00
 -7 -8 3 0.49 0.00
 -7 -8 2 -0.68 0.00
 -7 -8 1 -0.30 0.00
 7 8 0 0.74 0.00
 7 8 1 0.49 0.00
 7 8 2 -0.23 0.00
 7 8 3 -0.34 0.00
 7 8 4 -0.35 0.00
 7 8 5 -0.19 0.00
 7 8 6 0.30 0.00
 7 8 7 0.10 0.00
 7 8 8 -0.60 0.00
 7 8 9 -0.51 0.00
 -6 -9 19 -0.27 0.00
 -6 -9 18 -0.18 0.00
 -6 -9 17 0.05 0.00
 -6 -9 16 -0.11 0.00
 -6 -9 15 -0.02 0.00
 -6 -9 14 0.28 0.00
 -6 -9 13 -0.06 0.00
 -6 -9 12 -0.37 0.00
 -6 -9 11 0.05 0.00
 -6 -9 10 -0.01 0.00
 -6 -9 9 -0.51 0.00
 -6 -9 8 0.20 0.00
 -6 -9 7 0.87 0.00
 -6 -9 6 -0.25 0.00
 -6 -9 5 -0.83 0.00
 -6 -9 4 0.47 0.00
 -6 -9 3 0.75 0.00
 -6 -9 2 -0.23 0.00
 -6 -9 1 -0.10 0.00
 6 9 0 0.28 0.00
 6 9 1 -0.02 0.00
 6 9 2 0.06 0.00
 6 9 3 0.31 0.00
 6 9 4 0.20 0.00
 6 9 5 0.17 0.00
 6 9 6 0.55 0.00
 6 9 7 0.76 0.00
 6 9 8 -0.06 0.00
 -5 -10 18 -0.25 0.00
 -5 -10 17 0.25 0.00
 -5 -10 16 0.30 0.00
 -5 -10 15 -0.27 0.00
 -5 -10 14 -0.24 0.00
 -5 -10 13 0.19 0.00
 -5 -10 12 -0.03 0.00
 -5 -10 11 -0.35 0.00
 -5 -10 10 -0.22 0.00
 -5 -10 9 -0.13 0.00
 -5 -10 8 -0.08 0.00
 -5 -10 7 -0.04 0.00
 -5 -10 6 -0.68 0.00
 -5 -10 5 -1.17 0.00
 -5 -10 4 -0.22 0.00
 -5 -10 3 0.50 0.00
 -5 -10 2 0.14 0.00
 -5 -10 1 0.21 0.00
 5 10 0 -0.10 0.00
 5 10 1 -0.96 0.00
 5 10 2 -0.34 0.00
 5 10 3 0.82 0.00
 5 10 4 0.61 0.00
 5 10 5 -0.18 0.00
 5 10 6 -0.17 0.00
 5 10 7 0.57 0.00
 5 10 8 0.87 0.00
 -4 -11 18 -0.36 0.00
 -4 -11 17 -0.07 0.00
 -4 -11 16 0.25 0.00
 -4 -11 15 0.16 0.00
 -4 -11 14 -0.13 0.00
 -4 -11 13 -0.08 0.00
 -4 -11 12 0.01 0.00
 -4 -11 11 -0.08 0.00
 -4 -11 10 0.08 0.00
 -4 -11 9 -0.06 0.00
 -4 -11 8 -0.23 0.00
 -4 -11 7 0.76 0.00
 -4 -11 6 1.01 0.00
 -4 -11 5 -0.39 0.00
 -4 -11 4 -0.60 0.00
 -4 -11 3 0.05 0.00
 -4 -11 2 -0.12 0.00
 -4 -11 1 -0.01 0.00
 4 11 0 -0.15 0.00
 4 11 1 -1.11 0.00
 4 11 2 -0.71 0.00
 4 11 3 0.92 0.00
 4 11 4 0.86 0.00
 4 11 5 -0.63 0.00
 4 11 6 -0.51 0.00
 4 11 7 0.68 0.00
 4 11 8 0.48 0.00
 -3 -12 17 -0.18 0.00
 -3 -12 16 -0.14 0.00
 -3 -12 15 0.27 0.00
 -3 -12 14 0.23 0.00
 -3 -12 13 -0.08 0.00
 -3 -12 12 0.06 0.00
 -3 -12 11 0.12 0.00
 -3 -12 10 -0.18 0.00
 -3 -12 9 -0.47 0.00
 -3 -12 8 -0.47 0.00
 -3 -12 7 -0.21 0.00
 -3 -12 6 -0.46 0.00
 -3 -12 5 -0.19 0.00
 -3 -12 4 1.27 0.00
 -3 -12 3 1.22 0.00
 -3 -12 2 -0.18 0.00
 -3 -12 1 -0.08 0.00
 3 12 0 0.64 0.00
 3 12 1 0.41 0.00
 3 12 2 -0.19 0.00
 3 12 3 -0.21 0.00
 3 12 4 0.24 0.00
 3 12 5 -0.08 0.00
 3 12 6 -0.61 0.00
 3 12 7 -0.08 0.00
 -2 -13 16 -0.34 0.00
 -2 -13 15 -0.19 0.00
 -2 -13 14 -0.04 0.00
 -2 -13 13 0.28 0.00
 -2 -13 12 0.52 0.00
 -2 -13 11 0.40 0.00
 -2 -13 10 0.12 0.00
 -2 -13 9 -0.33 0.00
 -2 -13 8 -0.05 0.00
 -2 -13 7 0.53 0.00
 -2 -13 6 -0.67 0.00
 -2 -13 5 -1.63 0.00
 -2 -13 4 -0.33 0.00
 -2 -13 3 0.17 0.00
 -2 -13 2 -0.68 0.00
 -2 -13 1 -0.61 0.00
 2 13 0 -0.05 0.00
 2 13 1 0.22 0.00
 2 13 2 0.37 0.00
 2 13 3 0.55 0.00
 2 13 4 0.69 0.00
 2 13 5 0.27 0.00
 2 13 6 -0.37 0.00
 -1 -14 14 -0.28 0.00
 -1 -14 13 -0.15 0.00
 -1 -14 12 0.14 0.00
 -1 -14 11 0.46 0.00
 -1 -14 10 0.53 0.00
 -1 -14 9 -0.03 0.00
 -1 -14 8 -0.06 0.00
 -1 -14 7 0.66 0.00
 -1 -14 6 0.62 0.00
 -1 -14 5 0.34 0.00
 -1 -14 4 0.29 0.00
 -1 -14 3 0.10 0.00
 -1 -14 2 0.59 0.00
 -1 -14 1 0.57 0.00
 1 14 0 -0.61 0.00
 1 14 1 -0.75 0.00
 1 14 2 -0.39 0.00
 1 14 3 -0.58 0.00
 1 14 4 0.17 0.00
 0 -15 13 -0.06 0.00
 0 -15 12 -0.15 0.00
 0 -15 11 -0.07 0.00
 0 -15 10 -0.03 0.00
 0 -15 9 0.01 0.00
 0 -15 8 0.18 0.00
 0 -15 7 -0.11 0.00
 0 -15 6 -0.49 0.00
 0 -15 5 0.18 0.00
 0 -15 4 0.22 0.00
 0 -15 3 -0.67 0.00
 0 -15 2 0.42 0.00
 0 -15 1 1.78 0.00
 0 15 0 0.48 0.00
 0 15 1 -0.42 0.00
 1 -16 10 -0.02 0.00
 1 -16 9 -0.37 0.00
 1 -16 8 0.19 0.00
 1 -16 7 0.35 0.00
 1 -16 6 -0.42 0.00
 1 -16 5 -0.37 0.00
 1 -16 4 0.09 0.00
 -16 0 8 -0.14 0.00
 -16 0 7 -0.38 0.00
 -16 0 6 -0.43 0.00
 -16 0 5 -0.13 0.00
 -16 0 4 0.30 0.00
 -16 0 3 0.76 0.00
 -16 0 2 0.58 0.00
 -16 0 1 -0.27 0.00
 -15 -1 12 -0.48 0.00
 -15 -1 11 -0.03 0.00
 -15 -1 10 0.74 0.00
 -15 -1 9 0.81 0.00
 -15 -1 8 0.26 0.00
 -15 -1 7 -0.17 0.00
 -15 -1 6 -0.20 0.00
 -15 -1 5 0.00 0.00
 -15 -1 4 -0.06 0.00
 -15 -1 3 -0.18 0.00
 -15 -1 2 0.14 0.00
 -15 -1 1 0.22 0.00
 15 1 0 -0.19 0.00
 15 1 1 -0.33 0.00
 15 1 2 -0.10 0.00
 -14 -2 14 0.00 0.00
 -14 -2 13 -0.22 0.00
 -14 -2 12 -0.01 0.00
 -14 -2 11 0.02 0.00
 -14 -2 10 -0.20 0.00
 -14 -2 9 -0.06 0.00
 -14 -2 8 0.50 0.00
 -14 -2 7 0.63 0.00
 -14 -2 6 0.26 0.00
 -14 -2 5 0.26 0.00
 -14 -2 4 0.51 0.00
 -14 -2 3 0.27 0.00
 -14 -2 2 -0.34 0.00
 -14 -2 1 -0.70 0.00
 14 2 0 -0.32 0.00
 14 2 1 0.31 0.00
 14 2 2 0.08 0.00
 14 2 3 -0.43 0.00
 -13 -3 15 -0.10 0.00
 -13 -3 14 0.22 0.00
 -13 -3 13 0.25 0.00
 -13 -3 12 -0.05 0.00
 -13 -3 11 -0.09 0.00
 -13 -3 10 0.10 0.00
 -13 -3 9 -0.10 0.00
 -13 -3 8 -0.31 0.00
 -13 -3 7 -0.15 0.00
 -13 -3 6 -0.01 0.00
 -13 -3 5 0.06 0.00
 -13 -3 4 0.13 0.00
 -13 -3 3 0.48 0.00
 -13 -3 2 0.91 0.00
 -13 -3 1 0.27 0.00
 13 3 0 -0.72 0.00
 13 3 1 -0.21 0.00
 13 3 2 0.55 0.00
 13 3 3 -0.10 0.00
 13 3 4 -0.63 0.00
 13 3 5 -0.25 0.00
 -12 -4 16 0.10 0.00
 -12 -4 15 -0.01 0.00
 -12 -4 14 -0.39 0.00
 -12 -4 13 0.19 0.00
 -12 -4 12 0.31 0.00
 -12 -4 11 -0.17 0.00
 -12 -4 10 0.18 0.00
 -12 -4 9 0.37 0.00
 -12 -4 8 -0.13 0.00
 -12 -4 7 -0.12 0.00
 -12 -4 6 0.12 0.00
 -12 -4 5 -0.31 0.00
 -12 -4 4 -0.82 0.00
 -12 -4 3 -0.47 0.00
 -12 -4 2 0.36 0.00
 -12 -4 1 0.34 0.00
 12 4 0 -0.27 0.00
 12 4 1 0.05 0.00
 12 4 2 0.70 0.00
 12 4 3 0.27 0.00
 12 4 4 -0.51 0.00
 12 4 5 -0.82 0.00
 12 4 6 -0.50 0.00
 -11 -5 17 -0.36 0.00
 -11 -5 16 0.03 0.00
 -11 -5 15 0.32 0.00
 -11 -5 14 0.13 0.00
 -11 -5 13 0.12 0.00
 -11 -5 12 -0.11 0.00
 -11 -5 11 -0.35 0.00
 -11 -5 10 0.05 0.00
 -11 -5 9 0.35 0.00
 -11 -5 8 0.19 0.00
 -11 -5 7 0.09 0.00
 -11 -5 6 0.10 0.00
 -11 -5 5 0.06 0.00
 -11 -5 4 0.02 0.00
 -11 -5 3 0.12 0.00
 -11 -5 2 0.00 0.00
 -11 -5 1 -0.68 0.00
 11 5 0 -0.76 0.00
 11 5 1 0.33 0.00
 11 5 2 0.53 0.00
 11 5 3 -0.50 0.00
 11 5 4 -0.47 0.00
 11 5 5 0.36 0.00
 11 5 6 0.35 0.00
 11 5 7 0.10 0.00
 -10 -6 18 -0.24 0.00
 -10 -6 17 -0.75 0.00
 -10 -6 16 -0.31 0.00
 -10 -6 15 -0.11 0.00
 -10 -6 14 0.01 0.00
 -10 -6 13 0.44 0.00
 -10 -6 12 0.30 0.00
 -10 -6 11 -0.18 0.00
 -10 -6 10 -0.24 0.00
 -10 -6 9 -0.11 0.00
 -10 -6 8 0.07 0.00
 -10 -6 7 0.13 0.00
 -10 -6 6 -0.15 0.00
 -10 -6 5 -0.17 0.00
 -10 -6 4 0.22 0.00
 -10 -6 3 0.53 0.00
 -10 -6 2 0.38 0.00
 -10 -6 1 -0.39 0.00
 10 6 0 -0.64 0.00
 10 6 1 0.39 0.00
 10 6 2 0.53 0.00
 10 6 3 -0.94 0.00
 10 6 4 -1.22 0.00
 10 6 5 -0.06 0.00
 10 6 6 0.44 0.00
 10 6 7 0.43 0.00
 -9 -7 18 0.77 0.00
 -9 -7 17 0.06 0.00
 -9 -7 16 -0.29 0.00
 -9 -7 15 -0.12 0.00
 -9 -7 14 -0.17 0.00
 -9 -7 13 -0.23 0.00
 -9 -7 12 0.11 0.00
 -9 -7 11 0.43 0.00
 -9 -7 10 0.50 0.00
 -9 -7 9 0.20 0.00
 -9 -7 8 -0.34 0.00
 -9 -7 7 -0.28 0.00
 -9 -7 6 0.24 0.00
 -9 -7 5 0.10 0.00
 -9 -7 4 -0.25 0.00
 -9 -7 3 0.18 0.00
 -9 -7 2 0.36 0.00
 -9 -7 1 -0.22 0.00
 9 7 0 -0.10 0.00
 9 7 1 0.62 0.00
 9 7 2 0.40 0.00
 9 7 3 -0.22 0.00
 9 7 4 -0.19 0.00
 9 7 5 -0.32 0.00
 9 7 6 -0.57 0.00
 9 7 7 0.01 0.00
 9 7 8 0.61 0.00
 -8 -8 18 0.26 0.00
 -8 -8 17 0.35 0.00
 -8 -8 16 -0.20 0.00
 -8 -8 15 -0.07 0.00
 -8 -8 14 0.41 0.00
 -8 -8 13 -0.02 0.00
 -8 -8 12 -0.46 0.00
 -8 -8 11 0.13 0.00
 -8 -8 10 0.65 0.00
 -8 -8 9 0.22 0.00
 -8 -8 8 0.00 0.00
 -8 -8 7 0.48 0.00
 -8 -8 6 0.30 0.00
 -8 -8 5 -0.44 0.00
 -8 -8 4 -0.15 0.00
 -8 -8 3 0.72 0.00
 -8 -8 2 0.33 0.00
 -8 -8 1 -0.74 0.00
 8 8 0 -0.47 0.00
 8 8 1 0.70 0.00
 8 8 2 0.87 0.00
 8 8 3 0.35 0.00
 8 8 4 0.10 0.00
 8 8 5 -0.37 0.00
 8 8 6 -0.49 0.00
 8 8 7 0.36 0.00
 -7 -9 18 0.09 0.00
 -7 -9 17 0.21 0.00
 -7 -9 16 0.00 0.00
 -7 -9 15 -0.22 0.00
 -7 -9 14 -0.10 0.00
 -7 -9 13 0.00 0.00
 -7 -9 12 0.01 0.00
 -7 -9 11 0.29 0.00
 -7 -9 10 0.40 0.00
 -7 -9 9 -0.27 0.00
 -7 -9 8 -0.52 0.00
 -7 -9 7 0.42 0.00
 -7 -9 6 0.61 0.00
 -7 -9 5 -0.54 0.00
 -7 -9 4 -0.64 0.00
 -7 -9 3 0.35 0.00
 -7 -9 2 0.25 0.00
 -7 -9 1 -0.31 0.00
 7 9 0 -0.23 0.00
 7 9 1 -0.23 0.00
 7 9 2 -0.18 0.00
 7 9 3 0.33 0.00
 7 9 4 0.62 0.00
 7 9 5 0.09 0.00
 7 9 6 -0.49 0.00
 7 9 7 0.00 0.00
 -6 -10 18 -0.21 0.00
 -6 -10 17 -0.10 0.00
 -6 -10 16 0.36 0.00
 -6 -10 15 0.40 0.00
 -6 -10 14 -0.14 0.00
 -6 -10 13 -0.35 0.00
 -6 -10 12 0.13 0.00
 -6 -10 11 0.54 0.00
 -6 -10 10 0.24 0.00
 -6 -10 9 -0.20 0.00
 -6 -10 8 0.07 0.00
 -6 -10 7 0.75 0.00
 -6 -10 6 0.75 0.00
 -6 -10 5 -0.09 0.00
 -6 -10 4 -0.38 0.00
 -6 -10 3 0.22 0.00
 -6 -10 2 0.11 0.00
 -6 -10 1 -0.23 0.00
 6 10 0 0.37 0.00
 6 10 1 0.18 0.00
 6 10 2 -1.12 0.00
 6 10 3 -1.08 0.00
 6 10 4 0.35 0.00
 6 10 5 0.81 0.00
 6 10 6 0.00 0.00
 6 10 7 -0.45 0.00
 -5 -11 17 -0.26 0.00
 -5 -11 16 0.04 0.00
 -5 -11 15 0.30 0.00
 -5 -11 14 0.11 0.00
 -5 -11 13 -0.14 0.00
 -5 -11 12 -0.04 0.00
 -5 -11 11 -0.06 0.00
 -5 -11 10 0.06 0.00
 -5 -11 9 0.36 0.00
 -5 -11 8 -0.55 0.00
 -5 -11 7 -1.17 0.00
 -5 -11 6 0.42 0.00
 -5 -11 5 1.09 0.00
 -5 -11 4 -0.22 0.00
 -5 -11 3 -0.08 0.00
 -5 -11 2 1.02 0.00
 -5 -11 1 0.90 0.00
 5 11 0 0.53 0.00
 5 11 1 0.19 0.00
 5 11 2 -0.86 0.00
 5 11 3 -0.96 0.00
 5 11 4 0.63 0.00
 5 11 5 0.85 0.00
 5 11 6 -0.61 0.00
 -4 -12 17 0.03 0.00
 -4 -12 16 -0.11 0.00
 -4 -12 15 -0.04 0.00
 -4 -12 14 0.14 0.00
 -4 -12 13 -0.01 0.00
 -4 -12 12 0.06 0.00
 -4 -12 11 0.28 0.00
 -4 -12 10 0.17 0.00
 -4 -12 9 0.27 0.00
 -4 -12 8 0.36 0.00
 -4 -12 7 0.14 0.00
 -4 -12 6 -0.34 0.00
 -4 -12 5 -1.46 0.00
 -4 -12 4 -1.68 0.00
 -4 -12 3 -0.15 0.00
 -4 -12 2 0.70 0.00
 -4 -12 1 0.18 0.00
 4 12 0 -0.29 0.00
 4 12 1 -0.39 0.00
 4 12 2 -0.32 0.00
 4 12 3 0.08 0.00
 4 12 4 0.74 0.00
 4 12 5 0.68 0.00
 4 12 6 -0.27 0.00
 -3 -13 16 0.17 0.00
 -3 -13 15 0.08 0.00
 -3 -13 14 -0.25 0.00
 -3 -13 13 -0.41 0.00
 -3 -13 12 -0.07 0.00
 -3 -13 11 0.20 0.00
 -3 -13 10 0.57 0.00
 -3 -13 9 0.52 0.00
 -3 -13 8 -0.13 0.00
 -3 -13 7 0.92 0.00
 -3 -13 6 2.28 0.00
 -3 -13 5 0.65 0.00
 -3 -13 4 -0.93 0.00
 -3 -13 3 0.12 0.00
 -3 -13 2 0.86 0.00
 -3 -13 1 0.19 0.00
 3 13 0 -0.36 0.00
 3 13 1 -0.65 0.00
 3 13 2 -1.05 0.00
 3 13 3 -0.70 0.00
 3 13 4 0.67 0.00
 3 13 5 1.15 0.00
 -2 -14 14 0.28 0.00
 -2 -14 13 -0.20 0.00
 -2 -14 12 -0.32 0.00
 -2 -14 11 -0.40 0.00
 -2 -14 10 -0.21 0.00
 -2 -14 9 0.07 0.00
 -2 -14 8 -0.29 0.00
 -2 -14 7 -0.32 0.00
 -2 -14 6 0.04 0.00
 -2 -14 5 0.15 0.00
 -2 -14 4 0.42 0.00
 -2 -14 3 0.17 0.00
 -2 -14 2 0.10 0.00
 -2 -14 1 1.19 0.00
 2 14 0 1.26 0.00
 2 14 1 0.42 0.00
 2 14 2 0.20 0.00
 2 14 3 -0.63 0.00
 2 14 4 -1.29 0.00
 -1 -15 13 0.34 0.00
 -1 -15 12 0.19 0.00
 -1 -15 11 0.01 0.00
 -1 -15 10 0.15 0.00
 -1 -15 9 0.13 0.00
 -1 -15 8 -0.03 0.00
 -1 -15 7 0.13 0.00
 -1 -15 6 -0.36 0.00
 -1 -15 5 -0.60 0.00
 -1 -15 4 0.37 0.00
 -1 -15 3 -0.43 0.00
 -1 -15 2 -2.18 0.00
 -1 -15 1 -0.70 0.00
 1 15 0 1.24 0.00
 1 15 1 0.30 0.00
 0 -16 10 0.31 0.00
 0 -16 9 0.20 0.00
 0 -16 8 -0.03 0.00
 0 -16 7 0.43 0.00
 0 -16 6 0.24 0.00
 0 -16 5 -0.29 0.00
 -16 -1 7 0.08 0.00
 -16 -1 6 -0.07 0.00
 -16 -1 5 -0.08 0.00
 -15 -2 12 -0.12 0.00
 -15 -2 11 -0.06 0.00
 -15 -2 10 -0.06 0.00
 -15 -2 9 -0.36 0.00
 -15 -2 8 -0.41 0.00
 -15 -2 7 0.03 0.00
 -15 -2 6 0.16 0.00
 -15 -2 5 -0.28 0.00
 -15 -2 4 -0.43 0.00
 -15 -2 3 0.18 0.00
 -15 -2 2 0.76 0.00
 -15 -2 1 0.32 0.00
 15 2 0 -0.60 0.00
 15 2 1 -0.42 0.00
 -14 -3 14 -0.21 0.00
 -14 -3 13 0.27 0.00
 -14 -3 12 0.38 0.00
 -14 -3 11 -0.12 0.00
 -14 -3 10 -0.32 0.00
 -14 -3 9 -0.11 0.00
 -14 -3 8 -0.02 0.00
 -14 -3 7 0.12 0.00
 -14 -3 6 0.23 0.00
 -14 -3 5 0.12 0.00
 -14 -3 4 0.00 0.00
 -14 -3 3 -0.29 0.00
 -14 -3 2 -0.25 0.00
 -14 -3 1 0.45 0.00
 14 3 0 0.37 0.00
 14 3 1 -0.57 0.00
 -13 -4 15 0.40 0.00
 -13 -4 14 -0.03 0.00
 -13 -4 13 -0.62 0.00
 -13 -4 12 0.13 0.00
 -13 -4 11 0.57 0.00
 -13 -4 10 -0.01 0.00
 -13 -4 9 -0.18 0.00
 -13 -4 8 -0.19 0.00
 -13 -4 7 -0.36 0.00
 -13 -4 6 0.07 0.00
 -13 -4 5 0.61 0.00
 -13 -4 4 0.60 0.00
 -13 -4 3 0.39 0.00
 -13 -4 2 0.08 0.00
 -13 -4 1 -0.08 0.00
 13 4 0 0.00 0.00
 13 4 1 -0.11 0.00
 13 4 2 -0.10 0.00
 13 4 3 0.14 0.00
 13 4 4 0.30 0.00
 -12 -5 16 -0.48 0.00
 -12 -5 15 -0.07 0.00
 -12 -5 14 0.21 0.00
 -12 -5 13 -0.05 0.00
 -12 -5 12 0.06 0.00
 -12 -5 11 0.18 0.00
 -12 -5 10 -0.09 0.00
 -12 -5 9 0.07 0.00
 -12 -5 8 0.36 0.00
 -12 -5 7 -0.02 0.00
 -12 -5 6 -0.43 0.00
 -12 -5 5 -0.35 0.00
 -12 -5 4 -0.26 0.00
 -12 -5 3 0.01 0.00
 -12 -5 2 0.82 0.00
 -12 -5 1 1.13 0.00
 12 5 0 0.19 0.00
 12 5 1 -0.49 0.00
 12 5 2 0.16 0.00
 12 5 3 0.41 0.00
 12 5 4 -0.34 0.00
 12 5 5 -0.44 0.00
 -11 -6 17 0.15 0.00
 -11 -6 16 -0.24 0.00
 -11 -6 15 -0.02 0.00
 -11 -6 14 -0.17 0.00
 -11 -6 13 -0.24 0.00
 -11 -6 12 0.30 0.00
 -11 -6 11 0.44 0.00
 -11 -6 10 -0.04 0.00
 -11 -6 9 -0.13 0.00
 -11 -6 8 0.36 0.00
 -11 -6 7 0.63 0.00
 -11 -6 6 0.24 0.00
 -11 -6 5 -0.24 0.00
 -11 -6 4 -0.47 0.00
 -11 -6 3 -0.59 0.00
 -11 -6 2 -0.12 0.00
 -11 -6 1 0.61 0.00
 11 6 0 0.16 0.00
 11 6 1 -0.29 0.00
 11 6 2 0.86 0.00
 11 6 3 1.11 0.00
 11 6 4 -0.56 0.00
 11 6 5 -1.23 0.00
 11 6 6 -0.44 0.00
 -10 -7 17 0.55 0.00
 -10 -7 16 0.16 0.00
 -10 -7 15 0.06 0.00
 -10 -7 14 0.01 0.00
 -10 -7 13 -0.35 0.00
 -10 -7 12 -0.18 0.00
 -10 -7 11 0.26 0.00
 -10 -7 10 0.15 0.00
 -10 -7 9 0.09 0.00
 -10 -7 8 0.24 0.00
 -10 -7 7 0.14 0.00
 -10 -7 6 0.15 0.00
 -10 -7 5 0.39 0.00
 -10 -7 4 0.25 0.00
 -10 -7 3 0.02 0.00
 -10 -7 2 0.21 0.00
 -10 -7 1 0.07 0.00
 10 7 0 -0.56 0.00
 10 7 1 -0.21 0.00
 10 7 2 0.94 0.00
 10 7 3 0.69 0.00
 10 7 4 -0.35 0.00
 10 7 5 -0.35 0.00
 10 7 6 -0.22 0.00
 -9 -8 17 0.27 0.00
 -9 -8 16 0.25 0.00
 -9 -8 15 -0.21 0.00
 -9 -8 14 -0.14 0.00
 -9 -8 13 -0.10 0.00
 -9 -8 12 -0.34 0.00
 -9 -8 11 -0.31 0.00
 -9 -8 10 -0.01 0.00
 -9 -8 9 0.11 0.00
 -9 -8 8 -0.06 0.00
 -9 -8 7 -0.12 0.00
 -9 -8 6 0.04 0.00
 -9 -8 5 -0.02 0.00
 -9 -8 4 -0.28 0.00
 -9 -8 3 -0.02 0.00
 -9 -8 2 0.67 0.00
 -9 -8 1 0.42 0.00
 9 8 0 -0.79 0.00
 9 8 1 -0.77 0.00
 9 8 2 0.45 0.00
 9 8 3 0.53 0.00
 9 8 4 0.12 0.00
 9 8 5 0.40 0.00
 9 8 6 -0.04 0.00
 -8 -9 18 -0.15 0.00
 -8 -9 17 0.25 0.00
 -8 -9 16 0.32 0.00
 -8 -9 15 0.09 0.00
 -8 -9 14 0.15 0.00
 -8 -9 13 -0.03 0.00
 -8 -9 12 -0.59 0.00
 -8 -9 11 -0.47 0.00
 -8 -9 10 0.39 0.00
 -8 -9 9 0.40 0.00
 -8 -9 8 -0.49 0.00
 -8 -9 7 -0.34 0.00
 -8 -9 6 0.61 0.00
 -8 -9 5 0.21 0.00
 -8 -9 4 -0.65 0.00
 -8 -9 3 -0.13 0.00
 -8 -9 2 0.53 0.00
 -8 -9 1 0.19 0.00
 8 9 0 -0.18 0.00
 8 9 1 -0.24 0.00
 8 9 2 -0.43 0.00
 8 9 3 -0.66 0.00
 8 9 4 -0.21 0.00
 8 9 5 0.75 0.00
 8 9 6 0.65 0.00
 -7 -10 17 -0.24 0.00
 -7 -10 16 -0.20 0.00
 -7 -10 15 0.01 0.00
 -7 -10 14 0.32 0.00
 -7 -10 13 0.16 0.00
 -7 -10 12 -0.44 0.00
 -7 -10 11 -0.39 0.00
 -7 -10 10 0.21 0.00
 -7 -10 9 0.03 0.00
 -7 -10 8 -0.55 0.00
 -7 -10 7 -0.15 0.00
 -7 -10 6 0.54 0.00
 -7 -10 5 0.15 0.00
 -7 -10 4 -0.62 0.00
 -7 -10 3 -0.14 0.00
 -7 -10 2 0.84 0.00
 -7 -10 1 0.50 0.00
 7 10 0 -0.20 0.00
 7 10 1 0.41 0.00
 7 10 2 0.86 0.00
 7 10 3 -0.42 0.00
 7 10 4 -1.40 0.00
 -6 -11 17 -0.07 0.00
 -6 -11 16 -0.01 0.00
 -6 -11 15 0.15 0.00
 -6 -11 14 0.20 0.00
 -6 -11 13 0.05 0.00
 -6 -11 12 0.03 0.00
 -6 -11 11 0.04 0.00
 -6 -11 10 -0.25 0.00
 -6 -11 9 0.17 0.00
 -6 -11 8 0.82 0.00
 -6 -11 7 -0.35 0.00
 -6 -11 6 -1.26 0.00
 -6 -11 5 0.14 0.00
 -6 -11 4 0.42 0.00
 -6 -11 3 -1.32 0.00
 -6 -11 2 -1.33 0.00
 -6 -11 1 0.39 0.00
 6 11 0 0.79 0.00
 6 11 1 0.35 0.00
 6 11 2 0.40 0.00
 6 11 3 -0.30 0.00
 6 11 4 -0.87 0.00
 6 11 5 0.15 0.00
 -5 -12 16 0.05 0.00
 -5 -12 15 0.17 0.00
 -5 -12 14 0.24 0.00
 -5 -12 13 0.07 0.00
 -5 -12 12 -0.14 0.00
 -5 -12 11 0.26 0.00
 -5 -12 10 0.31 0.00
 -5 -12 9 -0.06 0.00
 -5 -12 8 0.41 0.00
 -5 -12 7 0.92 0.00
 -5 -12 6 1.01 0.00
 -5 -12 5 1.16 0.00
 -5 -12 4 0.54 0.00
 -5 -12 3 -0.56 0.00
 -5 -12 2 -0.62 0.00
 -5 -12 1 0.30 0.00
 5 12 0 0.90 0.00
 5 12 1 0.41 0.00
 5 12 2 -0.68 0.00
 5 12 3 -1.33 0.00
 5 12 4 -0.58 0.00
 5 12 5 0.79 0.00
 -4 -13 15 0.33 0.00
 -4 -13 14 0.39 0.00
 -4 -13 13 -0.03 0.00
 -4 -13 12 -0.34 0.00
 -4 -13 11 -0.57 0.00
 -4 -13 10 -0.54 0.00
 -4 -13 9 0.14 0.00
 -4 -13 8 -0.38 0.00
 -4 -13 7 -1.66 0.00
 -4 -13 6 -0.38 0.00
 -4 -13 5 1.45 0.00
 -4 -13 4 0.49 0.00
 -4 -13 3 -0.59 0.00
 -4 -13 2 0.34 0.00
 -4 -13 1 1.30 0.00
 4 13 0 1.24 0.00
 4 13 1 1.09 0.00
 4 13 2 0.40 0.00
 4 13 3 -1.34 0.00
 4 13 4 -1.50 0.00
 -3 -14 14 0.41 0.00
 -3 -14 13 0.31 0.00
 -3 -14 12 0.23 0.00
 -3 -14 11 0.36 0.00
 -3 -14 10 -0.17 0.00
 -3 -14 9 -0.47 0.00
 -3 -14 8 -0.20 0.00
 -3 -14 7 -0.11 0.00
 -3 -14 6 -0.22 0.00
 -3 -14 5 -0.70 0.00
 -3 -14 4 -0.90 0.00
 -3 -14 3 -0.72 0.00
 -3 -14 2 -1.01 0.00
 -3 -14 1 -0.65 0.00
 3 14 0 0.09 0.00
 3 14 1 -0.03 0.00
 3 14 2 0.45 0.00
 -2 -15 12 0.05 0.00
 -2 -15 11 0.05 0.00
 -2 -15 10 -0.14 0.00
 -2 -15 9 -0.04 0.00
 -2 -15 8 -0.03 0.00
 -2 -15 7 0.25 0.00
 -2 -15 6 0.47 0.00
 -2 -15 5 -0.31 0.00
 -2 -15 4 0.12 0.00
 -2 -15 3 1.73 0.00
 -2 -15 2 0.61 0.00
 -2 -15 1 -1.48 0.00
 2 15 0 -0.70 0.00
 -15 -3 11 0.60 0.00
 -15 -3 10 0.28 0.00
 -15 -3 9 -0.15 0.00
 -15 -3 8 -0.56 0.00
 -15 -3 7 -0.74 0.00
 -15 -3 6 -0.42 0.00
 -15 -3 5 -0.08 0.00
 -15 -3 4 0.32 0.00
 -15 -3 3 0.66 0.00
 -15 -3 2 0.21 0.00
 -15 -3 1 -0.16 0.00
 -14 -4 13 -0.03 0.00
 -14 -4 12 -0.77 0.00
 -14 -4 11 -0.12 0.00
 -14 -4 10 0.66 0.00
 -14 -4 9 0.67 0.00
 -14 -4 8 0.35 0.00
 -14 -4 7 -0.47 0.00
 -14 -4 6 -1.12 0.00
 -14 -4 5 -0.97 0.00
 -14 -4 4 -0.76 0.00
 -14 -4 3 -0.17 0.00
 -14 -4 2 0.79 0.00
 -14 -4 1 0.67 0.00
 14 4 0 0.05 0.00
 14 4 1 0.14 0.00
 14 4 2 0.32 0.00
 -13 -5 14 -0.02 0.00
 -13 -5 13 0.12 0.00
 -13 -5 12 -0.30 0.00
 -13 -5 11 -0.26 0.00
 -13 -5 10 -0.12 0.00
 -13 -5 9 -0.12 0.00
 -13 -5 8 0.57 0.00
 -13 -5 7 1.09 0.00
 -13 -5 6 0.35 0.00
 -13 -5 5 -0.39 0.00
 -13 -5 4 -0.54 0.00
 -13 -5 3 -0.92 0.00
 -13 -5 2 -1.08 0.00
 -13 -5 1 -0.31 0.00
 13 5 0 0.56 0.00
 13 5 1 0.40 0.00
 13 5 2 -0.16 0.00
 13 5 3 0.05 0.00
 -12 -6 15 0.09 0.00
 -12 -6 14 0.28 0.00
 -12 -6 13 -0.15 0.00
 -12 -6 12 -0.46 0.00
 -12 -6 11 0.00 0.00
 -12 -6 10 -0.02 0.00
 -12 -6 9 -0.70 0.00
 -12 -6 8 -0.56 0.00
 -12 -6 7 0.36 0.00
 -12 -6 6 0.71 0.00
 -12 -6 5 0.51 0.00
 -12 -6 4 0.48 0.00
 -12 -6 3 0.30 0.00
 -12 -6 2 -0.38 0.00
 -12 -6 1 -0.51 0.00
 12 6 0 0.04 0.00
 12 6 1 -0.24 0.00
 12 6 2 -0.54 0.00
 12 6 3 0.53 0.00
 12 6 4 1.06 0.00
 -11 -7 16 -0.01 0.00
 -11 -7 15 -0.01 0.00
 -11 -7 14 0.31 0.00
 -11 -7 13 0.06 0.00
 -11 -7 12 -0.49 0.00
 -11 -7 11 -0.08 0.00
 -11 -7 10 0.20 0.00
 -11 -7 9 -0.46 0.00
 -11 -7 8 -0.53 0.00
 -11 -7 7 0.00 0.00
 -11 -7 6 -0.11 0.00
 -11 -7 5 -0.29 0.00
 -11 -7 4 -0.16 0.00
 -11 -7 3 -0.21 0.00
 -11 -7 2 0.01 0.00
 -11 -7 1 0.66 0.00
 11 7 0 0.44 0.00
 11 7 1 -0.75 0.00
 11 7 2 -0.60 0.00
 11 7 3 0.83 0.00
 11 7 4 0.87 0.00
 -10 -8 16 0.16 0.00
 -10 -8 15 0.17 0.00
 -10 -8 14 0.18 0.00
 -10 -8 13 0.22 0.00
 -10 -8 12 -0.13 0.00
 -10 -8 11 -0.22 0.00
 -10 -8 10 -0.03 0.00
 -10 -8 9 -0.15 0.00
 -10 -8 8 -0.10 0.00
 -10 -8 7 0.18 0.00
 -10 -8 6 0.05 0.00
 -10 -8 5 -0.11 0.00
 -10 -8 4 -0.15 0.00
 -10 -8 3 -0.67 0.00
 -10 -8 2 -0.73 0.00
 -10 -8 1 0.46 0.00
 10 8 0 0.64 0.00
 10 8 1 -0.87 0.00
 10 8 2 -0.82 0.00
 10 8 3 0.57 0.00
 10 8 4 0.30 0.00
 10 8 5 -0.21 0.00
 -9 -9 17 -0.33 0.00
 -9 -9 16 0.05 0.00
 -9 -9 15 -0.10 0.00
 -9 -9 14 -0.06 0.00
 -9 -9 13 0.53 0.00
 -9 -9 12 0.41 0.00
 -9 -9 11 -0.46 0.00
 -9 -9 10 -0.40 0.00
 -9 -9 9 0.47 0.00
 -9 -9 8 0.26 0.00
 -9 -9 7 -0.55 0.00
 -9 -9 6 -0.03 0.00
 -9 -9 5 0.78 0.00
 -9 -9 4 0.13 0.00
 -9 -9 3 -0.66 0.00
 -9 -9 2 -0.22 0.00
 -9 -9 1 0.49 0.00
 9 9 0 0.47 0.00
 9 9 1 -0.05 0.00
 9 9 2 -0.08 0.00
 9 9 3 0.02 0.00
 9 9 4 -0.82 0.00
 9 9 5 -1.07 0.00
 -8 -10 17 0.01 0.00
 -8 -10 16 0.20 0.00
 -8 -10 15 -0.01 0.00
 -8 -10 14 -0.27 0.00
 -8 -10 13 0.12 0.00
 -8 -10 12 0.43 0.00
 -8 -10 11 -0.02 0.00
 -8 -10 10 -0.17 0.00
 -8 -10 9 0.20 0.00
 -8 -10 8 -0.13 0.00
 -8 -10 7 -0.65 0.00
 -8 -10 6 -0.04 0.00
 -8 -10 5 0.75 0.00
 -8 -10 4 0.14 0.00
 -8 -10 3 -1.10 0.00
 -8 -10 2 -1.02 0.00
 -8 -10 1 0.25 0.00
 8 10 0 0.57 0.00
 8 10 1 -0.29 0.00
 8 10 2 0.08 0.00
 8 10 3 1.19 0.00
 -7 -11 16 -0.17 0.00
 -7 -11 15 0.09 0.00
 -7 -11 14 0.22 0.00
 -7 -11 13 0.11 0.00
 -7 -11 12 -0.06 0.00
 -7 -11 11 0.17 0.00
 -7 -11 10 0.25 0.00
 -7 -11 9 -0.22 0.00
 -7 -11 8 0.21 0.00
 -7 -11 7 1.03 0.00
 -7 -11 6 0.07 0.00
 -7 -11 5 -0.64 0.00
 -7 -11 4 0.94 0.00
 -7 -11 3 1.53 0.00
 -7 -11 2 -0.60 0.00
 -7 -11 1 -1.50 0.00
 7 11 0 0.06 0.00
 7 11 1 0.42 0.00
 7 11 2 -0.22 0.00
 7 11 3 0.28 0.00
 7 11 4 0.25 0.00
 -6 -12 16 -0.50 0.00
 -6 -12 15 -0.29 0.00
 -6 -12 14 0.03 0.00
 -6 -12 13 0.16 0.00
 -6 -12 12 -0.31 0.00
 -6 -12 11 -0.49 0.00
 -6 -12 10 -0.04 0.00
 -6 -12 9 -0.47 0.00
 -6 -12 8 -0.91 0.00
 -6 -12 7 -0.10 0.00
 -6 -12 6 -0.04 0.00
 -6 -12 5 -0.86 0.00
 -6 -12 4 -0.30 0.00
 -6 -12 3 0.88 0.00
 -6 -12 2 0.48 0.00
 -6 -12 1 -0.50 0.00
 6 12 0 0.08 0.00
 6 12 1 1.36 0.00
 6 12 2 1.43 0.00
 6 12 3 0.17 0.00
 -5 -13 15 -0.28 0.00
 -5 -13 14 0.04 0.00
 -5 -13 13 0.29 0.00
 -5 -13 12 0.39 0.00
 -5 -13 11 0.21 0.00
 -5 -13 10 -0.46 0.00
 -5 -13 9 -0.34 0.00
 -5 -13 8 0.67 0.00
 -5 -13 7 0.06 0.00
 -5 -13 6 -1.36 0.00
 -5 -13 5 -0.87 0.00
 -5 -13 4 -0.20 0.00
 -5 -13 3 -1.15 0.00
 -5 -13 2 -1.93 0.00
 -5 -13 1 -1.27 0.00
 5 13 0 -0.28 0.00
 5 13 1 0.41 0.00
 5 13 2 1.45 0.00
 5 13 3 1.23 0.00
 -4 -14 13 -0.01 0.00
 -4 -14 12 -0.28 0.00
 -4 -14 11 0.26 0.00
 -4 -14 10 0.92 0.00
 -4 -14 9 0.35 0.00
 -4 -14 8 -0.39 0.00
 -4 -14 7 -0.29 0.00
 -4 -14 6 0.47 0.00
 -4 -14 5 1.00 0.00
 -4 -14 4 0.64 0.00
 -4 -14 3 0.09 0.00
 -4 -14 2 -0.55 0.00
 -4 -14 1 -0.71 0.00
 4 14 0 0.19 0.00
 4 14 1 0.16 0.00
 -3 -15 11 -0.04 0.00
 -3 -15 10 0.27 0.00
 -3 -15 9 0.25 0.00
 -3 -15 8 -0.20 0.00
 -3 -15 7 -0.57 0.00
 -3 -15 6 -0.05 0.00
 -3 -15 5 -0.24 0.00
 -3 -15 4 -1.43 0.00
 -3 -15 3 -0.69 0.00
 -3 -15 2 0.97 0.00
 -15 -4 9 0.16 0.00
 -15 -4 8 1.02 0.00
 -15 -4 7 1.27 0.00
 -15 -4 6 0.55 0.00
 -15 -4 5 0.04 0.00
 -15 -4 4 -0.29 0.00
 -15 -4 3 -1.15 0.00
 -14 -5 12 0.22 0.00
 -14 -5 11 -0.08 0.00
 -14 -5 10 -0.28 0.00
 -14 -5 9 -0.67 0.00
 -14 -5 8 -0.82 0.00
 -14 -5 7 0.25 0.00
 -14 -5 6 1.17 0.00
 -14 -5 5 0.75 0.00
 -14 -5 4 0.29 0.00
 -14 -5 3 0.32 0.00
 -14 -5 2 0.00 0.00
 -14 -5 1 -0.62 0.00
 14 5 0 -0.64 0.00
 -13 -6 14 0.10 0.00
 -13 -6 13 0.51 0.00
 -13 -6 12 0.15 0.00
 -13 -6 11 -0.02 0.00
 -13 -6 10 0.38 0.00
 -13 -6 9 0.09 0.00
 -13 -6 8 -0.81 0.00
 -13 -6 7 -0.84 0.00
 -13 -6 6 -0.15 0.00
 -13 -6 5 0.09 0.00
 -13 -6 4 -0.16 0.00
 -13 -6 3 -0.08 0.00
 -13 -6 2 0.36 0.00
 -13 -6 1 0.24 0.00
 13 6 0 -0.11 0.00
 13 6 1 0.06 0.00
 -12 -7 14 -0.23 0.00
 -12 -7 13 0.30 0.00
 -12 -7 12 0.01 0.00
 -12 -7 11 -0.28 0.00
 -12 -7 10 0.53 0.00
 -12 -7 9 0.54 0.00
 -12 -7 8 -0.51 0.00
 -12 -7 7 -0.40 0.00
 -12 -7 6 0.27 0.00
 -12 -7 5 0.24 0.00
 -12 -7 4 0.19 0.00
 -12 -7 3 -0.18 0.00
 -12 -7 2 -1.05 0.00
 -12 -7 1 -0.93 0.00
 12 7 0 0.29 0.00
 12 7 1 0.57 0.00
 12 7 2 -0.50 0.00
 -11 -8 15 -0.05 0.00
 -11 -8 14 -0.14 0.00
 -11 -8 13 0.08 0.00
 -11 -8 12 0.09 0.00
 -11 -8 11 -0.23 0.00
 -11 -8 10 0.09 0.00
 -11 -8 9 0.26 0.00
 -11 -8 8 -0.32 0.00
 -11 -8 7 -0.23 0.00
 -11 -8 6 0.16 0.00
 -11 -8 5 0.00 0.00
 -11 -8 4 0.60 0.00
 -11 -8 3 1.13 0.00
 -11 -8 2 -0.24 0.00
 -11 -8 1 -1.07 0.00
 11 8 0 0.40 0.00
 11 8 1 0.70 0.00
 11 8 2 -0.93 0.00
 -10 -9 15 0.16 0.00
 -10 -9 14 -0.23 0.00
 -10 -9 13 -0.26 0.00
 -10 -9 12 0.36 0.00
 -10 -9 11 0.29 0.00
 -10 -9 10 -0.40 0.00
 -10 -9 9 -0.28 0.00
 -10 -9 8 0.36 0.00
 -10 -9 7 0.16 0.00
 -10 -9 6 -0.55 0.00
 -10 -9 5 -0.43 0.00
 -10 -9 4 0.33 0.00
 -10 -9 3 0.39 0.00
 -10 -9 2 -0.45 0.00
 -10 -9 1 -0.67 0.00
 10 9 0 0.40 0.00
 10 9 1 0.79 0.00
 10 9 2 0.00 0.00
 -9 -10 15 0.34 0.00
 -9 -10 14 0.17 0.00
 -9 -10 13 -0.33 0.00
 -9 -10 12 -0.12 0.00
 -9 -10 11 0.27 0.00
 -9 -10 10 0.09 0.00
 -9 -10 9 0.07 0.00
 -9 -10 8 0.40 0.00
 -9 -10 7 0.20 0.00
 -9 -10 6 -0.35 0.00
 -9 -10 5 -0.16 0.00
 -9 -10 4 0.83 0.00
 -9 -10 3 1.12 0.00
 -9 -10 2 -0.21 0.00
 -9 -10 1 -1.31 0.00
 9 10 0 -0.37 0.00
 9 10 1 0.35 0.00
 9 10 2 -0.47 0.00
 9 10 3 -0.17 0.00
 -8 -11 15 -0.31 0.00
 -8 -11 14 -0.09 0.00
 -8 -11 13 0.09 0.00
 -8 -11 12 -0.05 0.00
 -8 -11 11 -0.33 0.00
 -8 -11 10 -0.05 0.00
 -8 -11 9 0.04 0.00
 -8 -11 8 -0.59 0.00
 -8 -11 7 -0.27 0.00
 -8 -11 6 0.64 0.00
 -8 -11 5 -0.21 0.00
 -8 -11 4 -1.24 0.00
 -8 -11 3 0.42 0.00
 -8 -11 2 1.89 0.00
 -8 -11 1 0.19 0.00
 8 11 0 -0.84 0.00
 8 11 1 0.49 0.00
 8 11 2 0.45 0.00
 -7 -12 14 -0.28 0.00
 -7 -12 13 0.10 0.00
 -7 -12 12 0.25 0.00
 -7 -12 11 -0.13 0.00
 -7 -12 10 0.24 0.00
 -7 -12 9 0.62 0.00
 -7 -12 8 -0.59 0.00
 -7 -12 7 -0.94 0.00
 -7 -12 6 0.73 0.00
 -7 -12 5 0.86 0.00
 -7 -12 4 -1.18 0.00
 -7 -12 3 -1.71 0.00
 -7 -12 2 -0.34 0.00
 -7 -12 1 -0.27 0.00
 7 12 0 -1.26 0.00
 7 12 1 -0.80 0.00
 7 12 2 0.59 0.00
 -6 -13 14 -0.27 0.00
 -6 -13 13 -0.24 0.00
 -6 -13 12 0.03 0.00
 -6 -13 11 0.47 0.00
 -6 -13 10 0.44 0.00
 -6 -13 9 -0.16 0.00
 -6 -13 8 0.07 0.00
 -6 -13 7 0.90 0.00
 -6 -13 6 0.75 0.00
 -6 -13 5 0.56 0.00
 -6 -13 4 1.14 0.00
 -6 -13 3 1.23 0.00
 -6 -13 2 0.26 0.00
 -6 -13 1 -0.97 0.00
 6 13 0 -1.40 0.00
 6 13 1 -1.23 0.00
 -5 -14 12 -0.28 0.00
 -5 -14 11 -0.89 0.00
 -5 -14 10 -0.29 0.00
 -5 -14 9 0.61 0.00
 -5 -14 8 0.53 0.00
 -5 -14 7 -0.17 0.00
 -5 -14 6 -0.74 0.00
 -5 -14 5 -0.44 0.00
 -5 -14 4 0.39 0.00
 -5 -14 3 0.95 0.00
 -5 -14 2 0.69 0.00
 -5 -14 1 -0.51 0.00
 -4 -15 8 0.96 0.00
 -4 -15 7 0.48 0.00
 -4 -15 6 0.36 0.00
 -4 -15 5 1.08 0.00
 -4 -15 4 0.41 0.00
 -4 -15 3 -0.90 0.00
 -14 -6 9 0.41 0.00
 -14 -6 8 0.42 0.00
 -14 -6 7 -0.07 0.00
 -14 -6 6 -0.40 0.00
 -14 -6 5 0.05 0.00
 -14 -6 4 0.54 0.00
 -14 -6 3 -0.01 0.00
 -13 -7 12 0.16 0.00
 -13 -7 11 -0.33 0.00
 -13 -7 10 -0.30 0.00
 -13 -7 9 0.64 0.00
 -13 -7 8 0.42 0.00
 -13 -7 7 -0.47 0.00
 -13 -7 6 -0.34 0.00
 -13 -7 5 -0.06 0.00
 -13 -7 4 0.28 0.00
 -13 -7 3 1.15 0.00
 -13 -7 2 1.03 0.00
 -13 -7 1 -0.26 0.00
 -12 -8 13 0.14 0.00
 -12 -8 12 0.31 0.00
 -12 -8 11 0.03 0.00
 -12 -8 10 -0.25 0.00
 -12 -8 9 0.35 0.00
 -12 -8 8 0.40 0.00
 -12 -8 7 -0.13 0.00
 -12 -8 6 0.06 0.00
 -12 -8 5 -0.43 0.00
 -12 -8 4 -1.27 0.00
 -12 -8 3 0.10 0.00
 -12 -8 2 1.50 0.00
 -12 -8 1 0.20 0.00
 -11 -9 13 -0.12 0.00
 -11 -9 12 -0.10 0.00
 -11 -9 11 0.32 0.00
 -11 -9 10 0.29 0.00
 -11 -9 9 -0.06 0.00
 -11 -9 8 -0.21 0.00
 -11 -9 7 0.15 0.00
 -11 -9 6 0.75 0.00
 -11 -9 5 0.38 0.00
 -11 -9 4 -0.49 0.00
 -11 -9 3 0.05 0.00
 -11 -9 2 0.75 0.00
 -11 -9 1 -0.42 0.00
 11 9 0 -1.22 0.00
 -10 -10 14 0.24 0.00
 -10 -10 13 0.11 0.00
 -10 -10 12 -0.35 0.00
 -10 -10 11 -0.20 0.00
 -10 -10 10 0.07 0.00
 -10 -10 9 -0.10 0.00
 -10 -10 8 -0.36 0.00
 -10 -10 7 -0.18 0.00
 -10 -10 6 0.26 0.00
 -10 -10 5 -0.05 0.00
 -10 -10 4 -0.70 0.00
 -10 -10 3 0.26 0.00
 -10 -10 2 1.77 0.00
 -10 -10 1 0.91 0.00
 10 10 0 -0.67 0.00
 -9 -11 14 -0.07 0.00
 -9 -11 13 -0.04 0.00
 -9 -11 12 0.06 0.00
 -9 -11 11 -0.06 0.00
 -9 -11 10 -0.29 0.00
 -9 -11 9 0.13 0.00
 -9 -11 8 0.24 0.00
 -9 -11 7 -0.66 0.00
 -9 -11 6 -0.57 0.00
 -9 -11 5 0.48 0.00
 -9 -11 4 -0.34 0.00
 -9 -11 3 -1.77 0.00
 -9 -11 2 -0.43 0.00
 -9 -11 1 1.06 0.00
 9 11 0 -0.11 0.00
 -8 -12 13 -0.09 0.00
 -8 -12 12 0.15 0.00
 -8 -12 11 -0.19 0.00
 -8 -12 10 -0.54 0.00
 -8 -12 9 0.64 0.00
 -8 -12 8 1.29 0.00
 -8 -12 7 -0.29 0.00
 -8 -12 6 -0.92 0.00
 -8 -12 5 0.91 0.00
 -8 -12 4 1.77 0.00
 -8 -12 3 0.33 0.00
 -8 -12 2 -0.35 0.00
 -8 -12 1 0.32 0.00
 8 12 0 -0.09 0.00
 -7 -13 9 -0.33 0.00
 -7 -13 8 -0.57 0.00
 -7 -13 7 -0.31 0.00
 -7 -13 6 -0.14 0.00
 -7 -13 5 -0.32 0.00
 -7 -13 4 -0.06 0.00
 -7 -13 3 0.57 0.00
 -7 -13 2 1.36 0.00
 -7 -13 1 1.57 0.00
 -6 -14 8 -0.15 0.00
 -6 -14 7 0.20 0.00
 -6 -14 6 0.42 0.00
 -6 -14 5 -0.02 0.00
 -6 -14 4 -0.47 0.00
 -6 -14 3 -0.34 0.00
 -13 -8 9 -0.26 0.00
 -13 -8 8 0.20 0.00
 -13 -8 7 0.10 0.00
 -13 -8 6 0.24 0.00
 -13 -8 5 0.96 0.00
 -12 -9 11 -0.24 0.00
 -12 -9 10 -0.16 0.00
 -12 -9 9 0.13 0.00
 -12 -9 8 0.24 0.00
 -12 -9 7 -0.61 0.00
 -12 -9 6 -0.80 0.00
 -12 -9 5 0.48 0.00
 -12 -9 4 0.58 0.00
 -11 -10 11 -0.21 0.00
 -11 -10 10 -0.13 0.00
 -11 -10 9 0.19 0.00
 -11 -10 8 0.25 0.00
 -11 -10 7 -0.40 0.00
 -11 -10 6 -0.67 0.00
 -11 -10 5 0.10 0.00
 -11 -10 4 -0.23 0.00
 -10 -11 11 0.31 0.00
 -10 -11 10 0.09 0.00
 -10 -11 9 -0.12 0.00
 -10 -11 8 0.51 0.00
 -10 -11 7 0.77 0.00
 -10 -11 6 -0.06 0.00
 -9 -12 5 -0.66 0.00
 -9 -12 4 0.25 0.00
 1 0 0 -21.77 0.00
 16 0 0 -0.43 0.00
 0 1 0 -36.31 0.00
 16 1 0 0.23 0.00
 16 2 0 0.37 0.00
 15 3 0 0.45 0.00
 15 4 0 0.19 0.00
 -16 6 0 0.19 0.00
 14 6 0 0.12 0.00
 -16 7 0 0.26 0.00
 13 7 0 -0.78 0.00
 -16 8 0 -0.18 0.00
 12 8 0 -0.70 0.00
 13 8 0 0.01 0.00
 -16 9 0 0.45 0.00
 -15 9 0 0.00 0.00
 12 9 0 0.06 0.00
 -15 10 0 -0.17 0.00
 11 10 0 0.91 0.00
 -15 11 0 0.23 0.00
 -14 11 0 0.10 0.00
 10 11 0 0.28 0.00
 -14 12 0 0.51 0.00
 9 12 0 0.81 0.00
 -13 13 0 0.58 0.00
 -12 13 0 -0.22 0.00
 7 13 0 0.66 0.00
 8 13 0 0.70 0.00
 -12 14 0 0.31 0.00
 -11 14 0 -0.48 0.00
 5 14 0 -0.76 0.00
 6 14 0 0.03 0.00
 -11 15 0 -0.13 0.00
 -10 15 0 -0.11 0.00
 -9 15 0 0.21 0.00
 3 15 0 -0.25 0.00
 4 15 0 -0.50 0.00
 -9 16 0 0.17 0.00
 -8 16 0 -0.23 0.00
 -7 16 0 -0.41 0.00
 -6 16 0 0.31 0.00
 -5 16 0 0.10 0.00
 -4 16 0 -0.59 0.00
 -3 16 0 0.72 0.00
 -2 16 0 0.10 0.00
 -1 16 0 -0.57 0.00
 0 16 0 0.33 0.00
 1 16 0 -0.03 0.00
 2 16 0 -0.12 0.00
 -3 -16 1 -0.06 0.00
 -2 -16 1 -0.04 0.00
 -1 -16 1 -0.19 0.00
 0 -16 1 0.05 0.00
 1 -16 1 0.07 0.00
 2 -16 1 -0.33 0.00
 3 -16 1 0.51 0.00
 4 -16 1 -0.22 0.00
 6 -16 1 0.46 0.00
 7 -16 1 0.31 0.00
 8 -16 1 -0.45 0.00
 9 -16 1 -0.41 0.00
 -5 -15 1 0.66 0.00
 -4 -15 1 -0.37 0.00
 -3 -15 1 0.57 0.00
 10 -15 1 0.06 0.00
 11 -15 1 -0.06 0.00
 -7 -14 1 -0.05 0.00
 -6 -14 1 0.78 0.00
 11 -14 1 -0.44 0.00
 12 -14 1 -0.14 0.00
 -8 -13 1 -0.14 0.00
 13 -13 1 0.32 0.00
 -9 -12 1 0.35 0.00
 14 -12 1 0.10 0.00
 -10 -11 1 -0.43 0.00
 14 -11 1 -0.07 0.00
 15 -11 1 0.15 0.00
 -11 -10 1 1.05 0.00
 15 -10 1 0.22 0.00
 -12 -9 1 1.28 0.00
 15 -9 1 -0.59 0.00
 16 -9 1 0.23 0.00
 -13 -8 1 0.73 0.00
 16 -8 1 -0.10 0.00
 -14 -7 1 0.78 0.00
 16 -7 1 -0.11 0.00
 -14 -6 1 -0.08 0.00
 16 -6 1 0.30 0.00
 -15 -5 1 0.30 0.00
 16 -5 1 -0.30 0.00
 -15 -4 1 0.04 0.00
 -16 -3 1 -0.02 0.00
 -16 -2 1 0.45 0.00
 16 -2 1 0.01 0.00
 -16 -1 1 0.15 0.00
 0 -1 1 -34.55 0.00
 1 -1 1 -38.90 0.00
 16 -1 1 -0.11 0.00
 -1 0 1 -106.51 0.00
 0 0 1 50.28 0.00
 16 0 1 0.07 0.00
 0 1 1 0.19 0.00
 16 1 1 0.12 0.00
 15 3 1 0.57 0.00
 15 4 1 -0.24 0.00
 14 5 1 0.00 0.00
 14 6 1 -0.15 0.00
 -16 7 1 -0.07 0.00
 13 7 1 -0.05 0.00
 -16 8 1 0.28 0.00
 12 8 1 0.53 0.00
 -16 9 1 0.16 0.00
 11 9 1 0.01 0.00
 12 9 1 -0.80 0.00
 -15 10 1 -0.05 0.00
 10 10 1 -0.30 0.00
 11 10 1 0.09 0.00
 -15 11 1 0.08 0.00
 -14 11 1 0.41 0.00
 9 11 1 -0.56 0.00
 10 11 1 -0.35 0.00
 -14 12 1 0.43 0.00
 8 12 1 -1.08 0.00
 9 12 1 0.37 0.00
 -13 13 1 0.40 0.00
 -12 13 1 -0.08 0.00
 7 13 1 -0.26 0.00
 -12 14 1 0.49 0.00
 -11 14 1 -0.28 0.00
 5 14 1 0.19 0.00
 6 14 1 -0.51 0.00
 -11 15 1 0.09 0.00
 -10 15 1 -0.24 0.00
 -9 15 1 0.10 0.00
 -8 15 1 0.16 0.00
 2 15 1 0.41 0.00
 3 15 1 0.16 0.00
 4 15 1 -0.28 0.00
 -8 16 1 0.30 0.00
 -7 16 1 -0.23 0.00
 -6 16 1 -0.08 0.00
 -5 16 1 0.42 0.00
 -4 16 1 -0.79 0.00
 -3 16 1 0.08 0.00
 -2 16 1 0.94 0.00
 -1 16 1 -0.57 0.00
 0 16 1 -0.27 0.00
 1 16 1 0.29 0.00
 -3 -16 2 0.07 0.00
 -2 -16 2 -0.34 0.00
 -1 -16 2 0.32 0.00
 0 -16 2 -0.22 0.00
 1 -16 2 0.03 0.00
 7 -16 2 0.57 0.00
 8 -16 2 0.45 0.00
 9 -16 2 -0.56 0.00
 -5 -15 2 0.77 0.00
 -4 -15 2 -0.74 0.00
 10 -15 2 -0.12 0.00
 11 -15 2 0.04 0.00
 -7 -14 2 -0.19 0.00
 -6 -14 2 0.41 0.00
 11 -14 2 -0.08 0.00
 12 -14 2 -0.32 0.00
 -8 -13 2 -0.96 0.00
 13 -13 2 -0.13 0.00
 -10 -12 2 -0.14 0.00
 -9 -12 2 0.19 0.00
 14 -12 2 -0.27 0.00
 -11 -11 2 0.34 0.00
 -10 -11 2 -1.28 0.00
 14 -11 2 0.03 0.00
 -12 -10 2 -1.15 0.00
 -11 -10 2 -0.85 0.00
 15 -10 2 0.18 0.00
 -12 -9 2 0.34 0.00
 15 -9 2 -0.32 0.00
 -13 -8 2 -0.42 0.00
 16 -8 2 0.16 0.00
 -14 -7 2 0.36 0.00
 16 -7 2 -0.29 0.00
 -14 -6 2 -0.53 0.00
 16 -6 2 -0.07 0.00
 -15 -5 2 0.25 0.00
 16 -5 2 0.06 0.00
 -15 -4 2 -1.05 0.00
 16 -4 2 0.46 0.00
 -16 -3 2 0.20 0.00
 16 -3 2 -0.24 0.00
 -16 -2 2 -0.36 0.00
 16 -2 2 -0.21 0.00
 -16 -1 2 0.06 0.00
 16 -1 2 0.18 0.00
 -1 0 2 -56.23 0.00
 16 0 2 0.18 0.00
 16 1 2 -0.07 0.00
 15 2 2 0.47 0.00
 14 3 2 -0.44 0.00
 15 3 2 -0.14 0.00
 14 5 2 0.23 0.00
 -16 6 2 -0.61 0.00
 13 6 2 -0.11 0.00
 -16 7 2 -0.38 0.00
 13 7 2 0.40 0.00
 -16 8 2 0.28 0.00
 12 8 2 0.72 0.00
 -16 9 2 -0.05 0.00
 11 9 2 0.47 0.00
 -15 10 2 0.31 0.00
 10 10 2 0.01 0.00
 -15 11 2 -0.25 0.00
 -14 11 2 0.32 0.00
 9 11 2 0.52 0.00
 -14 12 2 0.13 0.00
 -13 12 2 0.29 0.00
 8 12 2 -0.93 0.00
 -13 13 2 0.15 0.00
 -12 13 2 -0.19 0.00
 6 13 2 -0.57 0.00
 7 13 2 -0.75 0.00
 -12 14 2 0.53 0.00
 -11 14 2 -0.07 0.00
 -10 14 2 -0.35 0.00
 4 14 2 -0.48 0.00
 5 14 2 0.23 0.00
 -10 15 2 -0.21 0.00
 -9 15 2 -0.06 0.00
 -8 15 2 0.36 0.00
 0 15 2 0.39 0.00
 1 15 2 -0.29 0.00
 2 15 2 -0.26 0.00
 3 15 2 0.38 0.00
 -8 16 2 0.09 0.00
 -7 16 2 0.11 0.00
 -6 16 2 -0.32 0.00
 -5 16 2 0.59 0.00
 -4 16 2 -0.21 0.00
 -3 16 2 -0.74 0.00
 -2 16 2 0.83 0.00
 -1 16 2 0.23 0.00
 0 16 2 -0.61 0.00
 -4 -16 3 0.50 0.00
 -3 -16 3 0.67 0.00
 -2 -16 3 -1.03 0.00
 -1 -16 3 0.14 0.00
 0 -16 3 0.31 0.00
 1 -16 3 -0.09 0.00
 7 -16 3 -0.38 0.00
 8 -16 3 0.83 0.00
 9 -16 3 -0.01 0.00
 -6 -15 3 -0.32 0.00
 -5 -15 3 1.16 0.00
 10 -15 3 -0.12 0.00
 11 -15 3 -0.22 0.00
 -7 -14 3 0.24 0.00
 11 -14 3 -0.06 0.00
 12 -14 3 -0.16 0.00
 -9 -13 3 0.58 0.00
 -8 -13 3 -0.64 0.00
 13 -13 3 -0.29 0.00
 -10 -12 3 0.13 0.00
 -9 -12 3 0.70 0.00
 13 -12 3 0.18 0.00
 14 -12 3 -0.11 0.00
 -11 -11 3 1.05 0.00
 -10 -11 3 0.00 0.00
 14 -11 3 -0.13 0.00
 -12 -10 3 0.31 0.00
 -11 -10 3 -1.59 0.00
 15 -10 3 -0.07 0.00
 -13 -9 3 -0.11 0.00
 -12 -9 3 -0.42 0.00
 15 -9 3 -0.09 0.00
 -13 -8 3 -1.33 0.00
 15 -8 3 -0.16 0.00
 -14 -7 3 -0.67 0.00
 16 -7 3 -0.01 0.00
 -15 -6 3 0.66 0.00
 16 -6 3 -0.06 0.00
 -15 -5 3 0.01 0.00
 16 -5 3 0.03 0.00
 -16 -4 3 0.54 0.00
 16 -4 3 -0.21 0.00
 -16 -3 3 -0.33 0.00
 16 -3 3 0.21 0.00
 -16 -2 3 -0.54 0.00
 16 -2 3 -0.22 0.00
 -16 -1 3 0.14 0.00
 16 -1 3 0.22 0.00
 15 1 3 0.14 0.00
 15 2 3 0.26 0.00
 14 3 3 0.22 0.00
 15 3 3 -0.29 0.00
 -16 4 3 0.01 0.00
 14 4 3 0.12 0.00
 14 5 3 -0.11 0.00
 13 6 3 -0.51 0.00
 -16 7 3 0.08 0.00
 12 7 3 -0.70 0.00
 -16 8 3 0.06 0.00
 11 8 3 -0.82 0.00
 12 8 3 -0.40 0.00
 -16 9 3 -0.15 0.00
 10 9 3 0.23 0.00
 11 9 3 -0.32 0.00
 -15 10 3 0.18 0.00
 10 10 3 -0.65 0.00
 -15 11 3 -0.33 0.00
 -14 11 3 0.13 0.00
 8 11 3 -0.45 0.00
 9 11 3 0.38 0.00
 -14 12 3 -0.01 0.00
 -13 12 3 0.30 0.00
 7 12 3 1.19 0.00
 8 12 3 -0.14 0.00
 -13 13 3 0.11 0.00
 -12 13 3 -0.05 0.00
 6 13 3 0.90 0.00
 -12 14 3 0.36 0.00
 -11 14 3 0.42 0.00
 -10 14 3 -0.51 0.00
 3 14 3 0.86 0.00
 4 14 3 0.24 0.00
 -10 15 3 -0.06 0.00
 -9 15 3 -0.39 0.00
 -8 15 3 0.37 0.00
 -7 15 3 0.16 0.00
 0 15 3 0.12 0.00
 1 15 3 0.57 0.00
 2 15 3 -0.41 0.00
 -7 16 3 0.21 0.00
 -6 16 3 -0.40 0.00
 -5 16 3 0.10 0.00
 -4 16 3 0.44 0.00
 -3 16 3 -0.65 0.00
 -2 16 3 0.18 0.00
 -1 16 3 0.52 0.00
 -4 -16 4 -0.09 0.00
 -3 -16 4 1.76 0.00
 -2 -16 4 -0.57 0.00
 -1 -16 4 -0.84 0.00
 0 -16 4 0.19 0.00
 7 -16 4 -0.69 0.00
 8 -16 4 0.23 0.00
 9 -16 4 0.26 0.00
 -6 -15 4 -0.91 0.00
 -5 -15 4 1.41 0.00
 10 -15 4 0.21 0.00
 11 -15 4 -0.24 0.00
 -8 -14 4 -0.61 0.00
 -7 -14 4 0.42 0.00
 11 -14 4 -0.19 0.00
 12 -14 4 -0.21 0.00
 -9 -13 4 0.04 0.00
 -8 -13 4 -0.28 0.00
 12 -13 4 0.23 0.00
 13 -13 4 -0.10 0.00
 -10 -12 4 -0.16 0.00
 13 -12 4 -0.10 0.00
 -11 -11 4 0.41 0.00
 -10 -11 4 0.96 0.00
 14 -11 4 -0.23 0.00
 -12 -10 4 0.77 0.00
 14 -10 4 -0.01 0.00
 15 -10 4 0.04 0.00
 -13 -9 4 0.02 0.00
 15 -9 4 -0.07 0.00
 -13 -8 4 0.07 0.00
 15 -8 4 -0.17 0.00
 -14 -7 4 -0.71 0.00
 15 -7 4 0.06 0.00
 -15 -6 4 -0.15 0.00
 16 -6 4 -0.02 0.00
 -15 -5 4 0.30 0.00
 16 -5 4 -0.11 0.00
 -16 -4 4 0.50 0.00
 16 -4 4 -0.04 0.00
 -16 -3 4 -0.69 0.00
 16 -3 4 0.11 0.00
 -16 -2 4 0.18 0.00
 16 -2 4 -0.25 0.00
 -16 -1 4 0.11 0.00
 15 0 4 -0.16 0.00
 15 1 4 0.31 0.00
 14 2 4 0.08 0.00
 15 2 4 -0.29 0.00
 14 3 4 0.10 0.00
 14 4 4 -0.08 0.00
 13 5 4 0.30 0.00
 9 6 4 0.15 0.00
 13 6 4 -0.13 0.00
 -16 7 4 0.22 0.00
 12 7 4 0.23 0.00
 -16 8 4 0.36 0.00
 11 8 4 0.39 0.00
 -16 9 4 -0.33 0.00
 -15 9 4 0.28 0.00
 10 9 4 0.83 0.00
 -15 10 4 -0.08 0.00
 8 10 4 0.41 0.00
 9 10 4 1.03 0.00
 -14 11 4 0.14 0.00
 8 11 4 0.01 0.00
 -14 12 4 -0.14 0.00
 -13 12 4 0.41 0.00
 6 12 4 -1.12 0.00
 7 12 4 0.64 0.00
 -13 13 4 0.01 0.00
 -12 13 4 0.29 0.00
 5 13 4 -0.82 0.00
 6 13 4 1.10 0.00
 -11 14 4 0.65 0.00
 -10 14 4 0.02 0.00
 3 14 4 -0.34 0.00
 4 14 4 0.59 0.00
 -9 15 4 -0.26 0.00
 -8 15 4 -0.31 0.00
 -7 15 4 0.55 0.00
 -6 15 4 -0.03 0.00
 -1 15 4 0.06 0.00
 0 15 4 -0.69 0.00
 1 15 4 0.28 0.00
 -6 16 4 -0.03 0.00
 -5 16 4 -0.36 0.00
 -4 16 4 0.31 0.00
 -3 16 4 -0.25 0.00
 -4 -16 5 -1.48 0.00
 -3 -16 5 1.39 0.00
 -2 -16 5 0.94 0.00
 -1 -16 5 -0.59 0.00
 7 -16 5 -0.20 0.00
 8 -16 5 -0.10 0.00
 9 -16 5 0.35 0.00
 -6 -15 5 -1.31 0.00
 -5 -15 5 0.31 0.00
 9 -15 5 -0.09 0.00
 10 -15 5 0.26 0.00
 -8 -14 5 -0.62 0.00
 -7 -14 5 0.04 0.00
 11 -14 5 -0.01 0.00
 12 -14 5 -0.33 0.00
 -9 -13 5 -0.27 0.00
 -8 -13 5 -0.27 0.00
 12 -13 5 0.10 0.00
 -10 -12 5 -0.33 0.00
 13 -12 5 -0.21 0.00
 -11 -11 5 -0.19 0.00
 -10 -11 5 0.08 0.00
 14 -11 5 0.05 0.00
 -12 -10 5 -0.06 0.00
 14 -10 5 -0.31 0.00
 -13 -9 5 -0.84 0.00
 15 -9 5 0.13 0.00
 -14 -8 5 -0.11 0.00
 15 -8 5 -0.02 0.00
 -14 -7 5 -0.20 0.00
 15 -7 5 -0.21 0.00
 -15 -6 5 -0.51 0.00
 15 -6 5 0.19 0.00
 -15 -5 5 0.52 0.00
 15 -5 5 0.18 0.00
 -16 -4 5 0.30 0.00
 15 -4 5 -0.30 0.00
 -16 -3 5 -0.55 0.00
 15 -3 5 -0.11 0.00
 -16 -2 5 0.57 0.00
 15 -2 5 0.58 0.00
 15 -1 5 -0.13 0.00
 15 0 5 -0.31 0.00
 14 1 5 -0.21 0.00
 15 1 5 0.12 0.00
 14 2 5 0.32 0.00
 14 3 5 0.01 0.00
 13 4 5 0.24 0.00
 13 5 5 0.03 0.00
 12 6 5 0.10 0.00
 -16 7 5 -0.13 0.00
 11 7 5 -0.04 0.00
 -16 8 5 0.24 0.00
 11 8 5 0.09 0.00
 -16 9 5 -0.19 0.00
 -15 9 5 0.01 0.00
 10 9 5 -0.02 0.00
 -15 10 5 -0.17 0.00
 7 10 5 -0.48 0.00
 8 10 5 -0.93 0.00
 9 10 5 0.76 0.00
 -14 11 5 0.19 0.00
 7 11 5 -0.32 0.00
 8 11 5 0.22 0.00
 -13 12 5 0.38 0.00
 6 12 5 -0.84 0.00
 -12 13 5 0.29 0.00
 -11 13 5 0.03 0.00
 4 13 5 0.25 0.00
 5 13 5 -1.15 0.00
 -11 14 5 0.26 0.00
 -10 14 5 0.48 0.00
 -9 14 5 -0.36 0.00
 1 14 5 1.18 0.00
 2 14 5 -0.29 0.00
 3 14 5 -0.97 0.00
 -9 15 5 0.19 0.00
 -8 15 5 -0.46 0.00
 -7 15 5 -0.15 0.00
 -6 15 5 0.39 0.00
 -5 15 5 0.38 0.00
 -4 15 5 -0.30 0.00
 -3 15 5 -0.25 0.00
 -2 15 5 0.02 0.00
 -1 15 5 0.53 0.00
 0 15 5 -0.18 0.00
 -4 -16 6 -1.35 0.00
 -3 -16 6 -0.42 0.00
 -2 -16 6 0.93 0.00
 -1 -16 6 0.30 0.00
 7 -16 6 -0.06 0.00
 8 -16 6 -0.20 0.00
 9 -16 6 0.41 0.00
 -6 -15 6 -0.53 0.00
 -5 -15 6 -0.29 0.00
 9 -15 6 -0.24 0.00
 10 -15 6 0.25 0.00
 -8 -14 6 0.03 0.00
 -7 -14 6 -0.53 0.00
 11 -14 6 0.19 0.00
 -9 -13 6 0.03 0.00
 -8 -13 6 -0.33 0.00
 12 -13 6 0.01 0.00
 -10 -12 6 -0.18 0.00
 -9 -12 6 -0.11 0.00
 13 -12 6 0.06 0.00
 -11 -11 6 0.23 0.00
 13 -11 6 -0.06 0.00
 14 -11 6 0.17 0.00
 -12 -10 6 0.09 0.00
 14 -10 6 -0.14 0.00
 -13 -9 6 -0.30 0.00
 14 -9 6 -0.06 0.00
 -14 -8 6 -0.37 0.00
 14 -8 6 -0.09 0.00
 15 -8 6 0.20 0.00
 -14 -7 6 -0.18 0.00
 15 -7 6 -0.09 0.00
 -15 -6 6 0.12 0.00
 15 -6 6 0.02 0.00
 -15 -5 6 -0.26 0.00
 15 -5 6 0.11 0.00
 -16 -4 6 0.60 0.00
 15 -4 6 -0.28 0.00
 -16 -3 6 -0.36 0.00
 15 -3 6 -0.12 0.00
 -16 -2 6 0.19 0.00
 15 -2 6 0.45 0.00
 15 -1 6 -0.10 0.00
 14 0 6 0.21 0.00
 14 1 6 0.14 0.00
 14 2 6 -0.50 0.00
 -14 3 6 0.37 0.00
 13 3 6 0.01 0.00
 13 4 6 -0.17 0.00
 12 5 6 0.06 0.00
 12 6 6 -0.51 0.00
 -16 7 6 -0.08 0.00
 11 7 6 -0.08 0.00
 -16 8 6 -0.25 0.00
 10 8 6 0.40 0.00
 -15 9 6 0.07 0.00
 9 9 6 0.02 0.00
 -15 10 6 -0.06 0.00
 -14 10 6 -0.04 0.00
 7 10 6 0.49 0.00
 8 10 6 -0.84 0.00
 -14 11 6 0.15 0.00
 6 11 6 0.45 0.00
 7 11 6 0.07 0.00
 -13 12 6 -0.11 0.00
 -12 12 6 0.74 0.00
 5 12 6 0.78 0.00
 6 12 6 0.21 0.00
 -12 13 6 0.20 0.00
 -11 13 6 0.00 0.00
 3 13 6 0.34 0.00
 4 13 6 0.64 0.00
 -10 14 6 0.33 0.00
 -9 14 6 -0.03 0.00
 -8 14 6 -0.05 0.00
 0 14 6 -0.34 0.00
 1 14 6 0.96 0.00
 2 14 6 0.52 0.00
 -7 15 6 -0.54 0.00
 -6 15 6 -0.15 0.00
 -5 15 6 0.67 0.00
 -4 15 6 -0.03 0.00
 -3 15 6 -0.30 0.00
 -2 15 6 -0.11 0.00
 -1 15 6 0.19 0.00
 -4 -16 7 0.19 0.00
 -3 -16 7 -0.70 0.00
 -2 -16 7 -0.20 0.00
 -1 -16 7 0.09 0.00
 6 -16 7 0.13 0.00
 7 -16 7 0.05 0.00
 8 -16 7 -0.35 0.00
 -6 -15 7 -0.19 0.00
 -5 -15 7 0.11 0.00
 8 -15 7 0.21 0.00
 9 -15 7 -0.32 0.00
 10 -15 7 0.26 0.00
 -8 -14 7 0.73 0.00
 -7 -14 7 -0.35 0.00
 10 -14 7 0.13 0.00
 11 -14 7 0.29 0.00
 -9 -13 7 0.37 0.00
 -8 -13 7 -0.42 0.00
 11 -13 7 -0.13 0.00
 12 -13 7 0.00 0.00
 -10 -12 7 -0.36 0.00
 -9 -12 7 0.79 0.00
 12 -12 7 0.10 0.00
 13 -12 7 0.02 0.00
 -11 -11 7 0.19 0.00
 13 -11 7 -0.14 0.00
 -12 -10 7 0.59 0.00
 13 -10 7 0.14 0.00
 14 -10 7 0.18 0.00
 -13 -9 7 0.72 0.00
 14 -9 7 0.21 0.00
 -14 -8 7 -0.03 0.00
 14 -8 7 -0.35 0.00
 -14 -7 7 0.14 0.00
 14 -7 7 0.00 0.00
 -15 -6 7 0.17 0.00
 15 -6 7 -0.03 0.00
 -15 -5 7 -0.92 0.00
 15 -5 7 -0.29 0.00
 -16 -4 7 0.26 0.00
 15 -4 7 0.26 0.00
 -16 -3 7 0.11 0.00
 15 -3 7 -0.11 0.00
 -16 -2 7 -0.28 0.00
 14 -2 7 -0.62 0.00
 14 -1 7 0.30 0.00
 14 0 7 0.27 0.00
 14 1 7 0.20 0.00
 -16 2 7 -0.44 0.00
 13 2 7 0.66 0.00
 13 3 7 0.09 0.00
 12 4 7 0.23 0.00
 12 5 7 0.15 0.00
 -16 6 7 0.19 0.00
 11 6 7 0.07 0.00
 -16 7 7 -0.01 0.00
 10 7 7 -0.53 0.00
 -16 8 7 0.00 0.00
 9 8 7 -0.65 0.00
 -15 9 7 0.02 0.00
 8 9 7 -0.29 0.00
 9 9 7 0.47 0.00
 -14 10 7 -0.18 0.00
 7 10 7 0.39 0.00
 -14 11 7 -0.06 0.00
 -13 11 7 0.46 0.00
 5 11 7 -0.56 0.00
 6 11 7 -0.45 0.00
 -13 12 7 -0.44 0.00
 -12 12 7 0.30 0.00
 4 12 7 -0.57 0.00
 5 12 7 -0.07 0.00
 -11 13 7 0.13 0.00
 -10 13 7 -0.22 0.00
 2 13 7 -0.43 0.00
 3 13 7 -0.02 0.00
 -9 14 7 0.05 0.00
 -8 14 7 -0.23 0.00
 -7 14 7 0.26 0.00
 -6 14 7 0.24 0.00
 -5 14 7 -0.17 0.00
 -4 14 7 -0.59 0.00
 -3 14 7 0.26 0.00
 -2 14 7 0.92 0.00
 -1 14 7 -0.37 0.00
 0 14 7 -0.91 0.00
 1 14 7 0.32 0.00
 -4 -16 8 0.31 0.00
 -3 -16 8 0.36 0.00
 -2 -16 8 -0.34 0.00
 -1 -16 8 -0.27 0.00
 5 -16 8 -0.07 0.00
 6 -16 8 -0.06 0.00
 7 -16 8 0.30 0.00
 8 -16 8 -0.30 0.00
 -6 -15 8 -0.48 0.00
 -5 -15 8 -0.36 0.00
 8 -15 8 0.23 0.00
 9 -15 8 -0.20 0.00
 -8 -14 8 0.31 0.00
 -7 -14 8 0.50 0.00
 9 -14 8 -0.30 0.00
 10 -14 8 -0.16 0.00
 11 -14 8 0.36 0.00
 -9 -13 8 0.56 0.00
 -8 -13 8 -0.19 0.00
 11 -13 8 -0.19 0.00
 -10 -12 8 -0.45 0.00
 -9 -12 8 -0.03 0.00
 12 -12 8 0.13 0.00
 -11 -11 8 -0.29 0.00
 13 -11 8 0.09 0.00
 -12 -10 8 0.21 0.00
 13 -10 8 -0.28 0.00
 -13 -9 8 0.17 0.00
 13 -9 8 -0.31 0.00
 14 -9 8 0.20 0.00
 -14 -8 8 -0.14 0.00
 14 -8 8 -0.04 0.00
 -14 -7 8 0.49 0.00
 14 -7 8 -0.13 0.00
 -15 -6 8 -0.25 0.00
 14 -6 8 0.05 0.00
 -15 -5 8 -0.44 0.00
 14 -5 8 0.32 0.00
 -16 -4 8 -0.55 0.00
 14 -4 8 -0.33 0.00
 -16 -3 8 0.68 0.00
 14 -3 8 0.19 0.00
 -16 -2 8 -0.24 0.00
 14 -2 8 -0.15 0.00
 -16 -1 8 0.13 0.00
 14 -1 8 0.06 0.00
 -16 1 8 0.05 0.00
 13 1 8 -0.14 0.00
 -16 2 8 -0.25 0.00
 13 2 8 0.49 0.00
 -16 3 8 -0.22 0.00
 12 3 8 -0.16 0.00
 -16 4 8 0.41 0.00
 12 4 8 0.35 0.00
 -16 5 8 0.00 0.00
 11 5 8 0.18 0.00
 -16 6 8 -0.34 0.00
 10 6 8 0.52 0.00
 -16 7 8 -0.13 0.00
 10 7 8 -0.34 0.00
 -15 8 8 0.01 0.00
 8 8 8 0.63 0.00
 9 8 8 -0.18 0.00
 -15 9 8 -0.13 0.00
 7 9 8 0.81 0.00
 8 9 8 -0.39 0.00
 -14 10 8 0.15 0.00
 6 10 8 -0.03 0.00
 7 10 8 0.05 0.00
 -13 11 8 0.19 0.00
 5 11 8 0.41 0.00
 -12 12 8 -0.11 0.00
 -11 12 8 0.29 0.00
 3 12 8 0.42 0.00
 4 12 8 -0.13 0.00
 -11 13 8 0.30 0.00
 -10 13 8 -0.27 0.00
 -9 13 8 0.15 0.00
 0 13 8 -0.09 0.00
 1 13 8 0.46 0.00
 2 13 8 -0.12 0.00
 -8 14 8 -0.11 0.00
 -7 14 8 -0.17 0.00
 -6 14 8 0.17 0.00
 -5 14 8 0.32 0.00
 -4 14 8 -0.38 0.00
 -3 14 8 -0.40 0.00
 -2 14 8 0.44 0.00
 -1 14 8 0.51 0.00
 -4 -16 9 -0.55 0.00
 -3 -16 9 0.49 0.00
 -2 -16 9 0.19 0.00
 -1 -16 9 -0.32 0.00
 5 -16 9 0.11 0.00
 6 -16 9 -0.24 0.00
 7 -16 9 0.20 0.00
 -6 -15 9 0.03 0.00
 -5 -15 9 -0.91 0.00
 -4 -15 9 0.31 0.00
 7 -15 9 -0.09 0.00
 8 -15 9 0.00 0.00
 9 -15 9 -0.06 0.00
 -8 -14 9 -0.70 0.00
 -7 -14 9 0.60 0.00
 -6 -14 9 -0.31 0.00
 9 -14 9 0.05 0.00
 10 -14 9 -0.49 0.00
 -9 -13 9 0.48 0.00
 -8 -13 9 0.31 0.00
 10 -13 9 0.23 0.00
 11 -13 9 -0.07 0.00
 -10 -12 9 0.14 0.00
 -9 -12 9 -1.02 0.00
 11 -12 9 -0.09 0.00
 12 -12 9 -0.07 0.00
 -11 -11 9 -0.13 0.00
 12 -11 9 -0.19 0.00
 -12 -10 9 -0.08 0.00
 13 -10 9 -0.04 0.00
 -13 -9 9 -0.46 0.00
 13 -9 9 -0.08 0.00
 -14 -8 9 -0.14 0.00
 13 -8 9 -0.04 0.00
 -14 -7 9 -0.05 0.00
 13 -7 9 -0.02 0.00
 14 -7 9 0.00 0.00
 -15 -6 9 -0.13 0.00
 14 -6 9 0.17 0.00
 -15 -5 9 0.11 0.00
 14 -5 9 0.20 0.00
 -16 -4 9 -0.74 0.00
 14 -4 9 -0.36 0.00
 -16 -3 9 0.70 0.00
 14 -3 9 -0.07 0.00
 -16 -2 9 0.04 0.00
 13 -2 9 0.01 0.00
 -16 -1 9 -0.15 0.00
 13 -1 9 -0.02 0.00
 -16 0 9 -0.06 0.00
 13 0 9 -0.20 0.00
 -16 1 9 0.25 0.00
 12 1 9 -0.11 0.00
 13 1 9 0.03 0.00
 -16 2 9 0.11 0.00
 12 2 9 -0.24 0.00
 -16 3 9 -0.45 0.00
 12 3 9 -0.17 0.00
 -16 4 9 0.27 0.00
 11 4 9 -0.32 0.00
 -16 5 9 0.23 0.00
 10 5 9 -0.35 0.00
 11 5 9 0.18 0.00
 -16 6 9 -0.37 0.00
 10 6 9 0.42 0.00
 -16 7 9 0.11 0.00
 -15 7 9 -0.56 0.00
 9 7 9 0.42 0.00
 -15 8 9 0.35 0.00
 8 8 9 0.00 0.00
 -14 9 9 -0.46 0.00
 6 9 9 -1.05 0.00
 7 9 9 0.59 0.00
 -14 10 9 0.28 0.00
 -13 10 9 -0.04 0.00
 5 10 9 0.18 0.00
 6 10 9 0.35 0.00
 -13 11 9 -0.33 0.00
 -12 11 9 0.22 0.00
 4 11 9 -0.13 0.00
 -11 12 9 0.12 0.00
 -10 12 9 -0.11 0.00
 1 12 9 -0.17 0.00
 2 12 9 -0.47 0.00
 3 12 9 0.20 0.00
 -10 13 9 -0.06 0.00
 -9 13 9 -0.10 0.00
 -8 13 9 0.38 0.00
 -7 13 9 -0.14 0.00
 -6 13 9 -0.12 0.00
 -5 13 9 -0.12 0.00
 -4 13 9 -0.27 0.00
 -3 13 9 0.27 0.00
 -2 13 9 0.74 0.00
 -1 13 9 -0.06 0.00
 0 13 9 -0.74 0.00
 -5 14 9 0.28 0.00
 -4 14 9 0.12 0.00
 -4 -16 10 -0.51 0.00
 -3 -16 10 -0.20 0.00
 -2 -16 10 0.50 0.00
 -1 -16 10 -0.48 0.00
 3 -16 10 0.10 0.00
 4 -16 10 -0.06 0.00
 5 -16 10 0.10 0.00
 6 -16 10 -0.05 0.00
 7 -16 10 -0.07 0.00
 -6 -15 10 0.47 0.00
 -5 -15 10 -0.19 0.00
 -4 -15 10 -0.47 0.00
 6 -15 10 0.06 0.00
 7 -15 10 0.10 0.00
 8 -15 10 0.02 0.00
 -8 -14 10 -0.73 0.00
 -7 -14 10 0.21 0.00
 -6 -14 10 -0.30 0.00
 8 -14 10 -0.04 0.00
 9 -14 10 0.34 0.00
 10 -14 10 -0.30 0.00
 -9 -13 10 0.02 0.00
 -8 -13 10 0.59 0.00
 -7 -13 10 -0.13 0.00
 10 -13 10 0.18 0.00
 -10 -12 10 0.49 0.00
 -9 -12 10 -0.33 0.00
 11 -12 10 0.22 0.00
 -11 -11 10 0.12 0.00
 12 -11 10 -0.11 0.00
 -12 -10 10 0.04 0.00
 12 -10 10 0.04 0.00
 -13 -9 10 -0.13 0.00
 12 -9 10 -0.14 0.00
 13 -9 10 0.24 0.00
 -14 -8 10 0.08 0.00
 -13 -8 10 -0.14 0.00
 13 -8 10 0.13 0.00
 -14 -7 10 -0.28 0.00
 13 -7 10 -0.11 0.00
 -15 -6 10 0.11 0.00
 -14 -6 10 0.06 0.00
 13 -6 10 -0.20 0.00
 -15 -5 10 0.17 0.00
 13 -5 10 -0.23 0.00
 -16 -4 10 -0.33 0.00
 -15 -4 10 -0.53 0.00
 13 -4 10 0.44 0.00
 -16 -3 10 0.35 0.00
 13 -3 10 0.21 0.00
 -16 -2 10 0.07 0.00
 13 -2 10 -0.46 0.00
 -16 -1 10 -0.59 0.00
 13 -1 10 0.34 0.00
 -16 0 10 0.07 0.00
 12 0 10 0.11 0.00
 -16 1 10 0.49 0.00
 12 1 10 -0.03 0.00
 -16 2 10 0.10 0.00
 11 2 10 -0.09 0.00
 12 2 10 0.14 0.00
 -16 3 10 -0.51 0.00
 11 3 10 0.21 0.00
 -16 4 10 0.19 0.00
 10 4 10 -0.03 0.00
 11 4 10 -0.20 0.00
 -16 5 10 0.00 0.00
 10 5 10 -0.45 0.00
 -16 6 10 -0.20 0.00
 -15 6 10 -0.15 0.00
 9 6 10 -0.49 0.00
 -15 7 10 -0.23 0.00
 8 7 10 -0.11 0.00
 -15 8 10 0.27 0.00
 -14 8 10 0.04 0.00
 7 8 10 0.04 0.00
 -14 9 10 -0.35 0.00
 -13 9 10 0.02 0.00
 5 9 10 0.79 0.00
 6 9 10 -0.76 0.00
 -13 10 10 -0.26 0.00
 -12 10 10 0.54 0.00
 4 10 10 -0.40 0.00
 5 10 10 -0.39 0.00
 -12 11 10 -0.36 0.00
 -11 11 10 0.10 0.00
 2 11 10 0.04 0.00
 3 11 10 0.02 0.00
 -10 12 10 -0.12 0.00
 -9 12 10 -0.05 0.00
 -8 12 10 -0.09 0.00
 -7 12 10 -0.18 0.00
 0 12 10 0.27 0.00
 1 12 10 0.50 0.00
 -8 13 10 0.21 0.00
 -7 13 10 0.10 0.00
 -6 13 10 0.18 0.00
 -5 13 10 -0.07 0.00
 -4 13 10 -0.45 0.00
 -3 13 10 -0.31 0.00
 -2 13 10 0.39 0.00
 -1 13 10 0.72 0.00
 -3 -16 11 -0.50 0.00
 -2 -16 11 0.40 0.00
 -1 -16 11 -0.23 0.00
 0 -16 11 -0.21 0.00
 1 -16 11 0.22 0.00
 2 -16 11 -0.02 0.00
 3 -16 11 -0.04 0.00
 4 -16 11 0.05 0.00
 5 -16 11 -0.04 0.00
 6 -16 11 0.12 0.00
 -6 -15 11 -0.10 0.00
 -5 -15 11 0.56 0.00
 -4 -15 11 -0.40 0.00
 5 -15 11 -0.10 0.00
 6 -15 11 0.03 0.00
 7 -15 11 -0.02 0.00
 8 -15 11 0.08 0.00
 -7 -14 11 0.06 0.00
 -6 -14 11 0.27 0.00
 8 -14 11 -0.03 0.00
 9 -14 11 0.14 0.00
 -9 -13 11 -0.41 0.00
 -8 -13 11 0.31 0.00
 -7 -13 11 -0.18 0.00
 9 -13 11 -0.21 0.00
 10 -13 11 0.04 0.00
 -10 -12 11 0.07 0.00
 -9 -12 11 0.47 0.00
 10 -12 11 -0.29 0.00
 11 -12 11 0.28 0.00
 -11 -11 11 0.01 0.00
 11 -11 11 -0.01 0.00
 -12 -10 11 0.18 0.00
 12 -10 11 -0.22 0.00
 -13 -9 11 0.09 0.00
 12 -9 11 -0.31 0.00
 -13 -8 11 0.20 0.00
 12 -8 11 0.10 0.00
 -14 -7 11 0.13 0.00
 12 -7 11 0.13 0.00
 13 -7 11 0.02 0.00
 -15 -6 11 0.06 0.00
 -14 -6 11 0.04 0.00
 12 -6 11 -0.02 0.00
 13 -6 11 -0.17 0.00
 -15 -5 11 0.16 0.00
 13 -5 11 -0.04 0.00
 -15 -4 11 -0.62 0.00
 13 -4 11 0.01 0.00
 -16 -3 11 -0.12 0.00
 12 -3 11 -0.40 0.00
 13 -3 11 0.02 0.00
 -16 -2 11 0.10 0.00
 12 -2 11 0.71 0.00
 -16 -1 11 -0.46 0.00
 12 -1 11 -0.48 0.00
 -16 0 11 0.23 0.00
 12 0 11 -0.11 0.00
 -16 1 11 0.28 0.00
 11 1 11 0.17 0.00
 -16 2 11 -0.17 0.00
 11 2 11 -0.30 0.00
 -16 3 11 0.06 0.00
 10 3 11 0.00 0.00
 -16 4 11 -0.05 0.00
 10 4 11 0.15 0.00
 -16 5 11 -0.17 0.00
 -15 5 11 0.15 0.00
 9 5 11 0.16 0.00
 -15 6 11 -0.46 0.00
 8 6 11 0.10 0.00
 -15 7 11 0.06 0.00
 -14 7 11 0.13 0.00
 7 7 11 -0.06 0.00
 -14 8 11 -0.18 0.00
 -13 8 11 0.38 0.00
 5 8 11 0.19 0.00
 6 8 11 0.00 0.00
 -13 9 11 -0.25 0.00
 -12 9 11 0.74 0.00
 4 9 11 -0.40 0.00
 5 9 11 0.64 0.00
 -12 10 11 -0.31 0.00
 -11 10 11 0.93 0.00
 3 10 11 0.30 0.00
 4 10 11 0.19 0.00
 -11 11 11 -0.27 0.00
 -10 11 11 0.27 0.00
 -9 11 11 0.21 0.00
 -8 11 11 -0.40 0.00
 0 11 11 0.01 0.00
 1 11 11 -0.09 0.00
 2 11 11 0.03 0.00
 -9 12 11 -0.11 0.00
 -8 12 11 0.09 0.00
 -7 12 11 -0.18 0.00
 -6 12 11 -0.15 0.00
 -5 12 11 0.50 0.00
 -4 12 11 -0.10 0.00
 -3 12 11 -0.44 0.00
 -2 12 11 0.44 0.00
 -1 12 11 -0.14 0.00
 0 12 11 -0.40 0.00
 -3 -16 12 -0.18 0.00
 -2 -16 12 0.05 0.00
 -1 -16 12 0.19 0.00
 0 -16 12 -0.22 0.00
 1 -16 12 -0.06 0.00
 2 -16 12 0.06 0.00
 3 -16 12 -0.06 0.00
 4 -16 12 0.05 0.00
 5 -16 12 -0.05 0.00
 -5 -15 12 0.32 0.00
 -4 -15 12 0.16 0.00
 -3 -15 12 -0.31 0.00
 3 -15 12 0.26 0.00
 4 -15 12 0.05 0.00
 5 -15 12 -0.21 0.00
 6 -15 12 0.09 0.00
 7 -15 12 0.04 0.00
 -7 -14 12 -0.13 0.00
 -6 -14 12 0.59 0.00
 7 -14 12 -0.21 0.00
 8 -14 12 0.16 0.00
 -9 -13 12 -0.12 0.00
 -8 -13 12 -0.03 0.00
 -7 -13 12 -0.28 0.00
 9 -13 12 -0.09 0.00
 -10 -12 12 -0.22 0.00
 -9 -12 12 0.21 0.00
 10 -12 12 -0.18 0.00
 -11 -11 12 -0.11 0.00
 -10 -11 12 0.24 0.00
 10 -11 12 0.13 0.00
 11 -11 12 -0.18 0.00
 -12 -10 12 0.25 0.00
 -11 -10 12 0.15 0.00
 11 -10 12 0.26 0.00
 -12 -9 12 -0.22 0.00
 11 -9 12 0.16 0.00
 -13 -8 12 -0.02 0.00
 11 -8 12 -0.36 0.00
 12 -8 12 -0.05 0.00
 -14 -7 12 0.13 0.00
 11 -7 12 0.04 0.00
 12 -7 12 0.02 0.00
 -14 -6 12 0.19 0.00
 12 -6 12 0.19 0.00
 -15 -5 12 0.08 0.00
 12 -5 12 0.03 0.00
 -15 -4 12 0.07 0.00
 12 -4 12 -0.19 0.00
 -15 -3 12 0.19 0.00
 12 -3 12 -0.02 0.00
 -16 -2 12 0.20 0.00
 12 -2 12 0.15 0.00
 -16 -1 12 0.12 0.00
 11 -1 12 0.50 0.00
 -16 0 12 -0.02 0.00
 11 0 12 -0.02 0.00
 -16 1 12 0.05 0.00
 10 1 12 -0.22 0.00
 11 1 12 -0.11 0.00
 -16 2 12 -0.36 0.00
 -15 2 12 0.08 0.00
 10 2 12 0.30 0.00
 -16 3 12 0.64 0.00
 -15 3 12 -0.08 0.00
 9 3 12 -0.41 0.00
 10 3 12 -0.12 0.00
 -16 4 12 -0.20 0.00
 -15 4 12 -0.03 0.00
 9 4 12 0.25 0.00
 -15 5 12 0.25 0.00
 8 5 12 0.26 0.00
 -15 6 12 -0.36 0.00
 7 6 12 -0.03 0.00
 8 6 12 0.11 0.00
 -14 7 12 0.32 0.00
 6 7 12 -0.06 0.00
 7 7 12 0.01 0.00
 -14 8 12 -0.26 0.00
 -13 8 12 -0.03 0.00
 5 8 12 0.08 0.00
 -13 9 12 -0.61 0.00
 -12 9 12 0.77 0.00
 -11 9 12 0.50 0.00
 3 9 12 0.15 0.00
 4 9 12 -0.38 0.00
 -12 10 12 -0.86 0.00
 -11 10 12 0.20 0.00
 -10 10 12 0.37 0.00
 -9 10 12 -0.56 0.00
 1 10 12 -0.10 0.00
 2 10 12 -0.08 0.00
 3 10 12 -0.07 0.00
 -10 11 12 0.07 0.00
 -9 11 12 0.20 0.00
 -8 11 12 -0.42 0.00
 -7 11 12 0.09 0.00
 -6 11 12 0.30 0.00
 -2 11 12 0.20 0.00
 -1 11 12 -0.33 0.00
 0 11 12 0.11 0.00
 1 11 12 -0.08 0.00
 -7 12 12 0.17 0.00
 -6 12 12 -0.26 0.00
 -5 12 12 0.26 0.00
 -4 12 12 0.25 0.00
 -3 12 12 -0.52 0.00
 -2 -16 13 -0.08 0.00
 -1 -16 13 0.12 0.00
 0 -16 13 0.10 0.00
 1 -16 13 -0.01 0.00
 2 -16 13 -0.07 0.00
 3 -16 13 -0.02 0.00
 -5 -15 13 -0.14 0.00
 -4 -15 13 0.29 0.00
 -3 -15 13 -0.09 0.00
 -2 -15 13 -0.17 0.00
 1 -15 13 -0.14 0.00
 2 -15 13 -0.12 0.00
 3 -15 13 0.11 0.00
 4 -15 13 0.21 0.00
 5 -15 13 -0.21 0.00
 6 -15 13 -0.07 0.00
 -7 -14 13 -0.15 0.00
 -6 -14 13 0.19 0.00
 -5 -14 13 0.06 0.00
 6 -14 13 0.22 0.00
 7 -14 13 -0.35 0.00
 -8 -13 13 0.21 0.00
 -7 -13 13 -0.21 0.00
 8 -13 13 0.11 0.00
 -9 -12 13 -0.04 0.00
 9 -12 13 -0.03 0.00
 -11 -11 13 -0.28 0.00
 -10 -11 13 0.18 0.00
 10 -11 13 -0.01 0.00
 -11 -10 13 0.36 0.00
 10 -10 13 -0.03 0.00
 -12 -9 13 -0.05 0.00
 10 -9 13 0.10 0.00
 11 -9 13 -0.14 0.00
 -13 -8 13 -0.19 0.00
 11 -8 13 -0.12 0.00
 -14 -7 13 -0.07 0.00
 -13 -7 13 -0.08 0.00
 11 -7 13 -0.02 0.00
 -14 -6 13 -0.11 0.00
 11 -6 13 -0.20 0.00
 -14 -5 13 0.17 0.00
 11 -5 13 0.04 0.00
 -15 -4 13 0.44 0.00
 11 -4 13 0.36 0.00
 -15 -3 13 -0.46 0.00
 11 -3 13 0.05 0.00
 -15 -2 13 0.08 0.00
 11 -2 13 -0.35 0.00
 -15 -1 13 -0.21 0.00
 11 -1 13 0.24 0.00
 -16 0 13 -0.34 0.00
 -15 0 13 0.09 0.00
 10 0 13 0.01 0.00
 -16 1 13 -0.10 0.00
 -15 1 13 0.31 0.00
 10 1 13 -0.10 0.00
 -15 2 13 -0.38 0.00
 9 2 13 0.06 0.00
 -15 3 13 0.41 0.00
 9 3 13 -0.26 0.00
 -15 4 13 -0.13 0.00
 8 4 13 -0.41 0.00
 -15 5 13 0.02 0.00
 -14 5 13 0.41 0.00
 7 5 13 -0.18 0.00
 -14 6 13 -0.56 0.00
 6 6 13 0.22 0.00
 7 6 13 -0.17 0.00
 -14 7 13 -0.15 0.00
 -13 7 13 0.79 0.00
 4 7 13 0.78 0.00
 5 7 13 0.00 0.00
 6 7 13 -0.33 0.00
 -13 8 13 -0.27 0.00
 -12 8 13 0.19 0.00
 3 8 13 0.32 0.00
 4 8 13 -0.20 0.00
 -12 9 13 -0.05 0.00
 -11 9 13 1.19 0.00
 -10 9 13 -0.46 0.00
 2 9 13 -0.09 0.00
 3 9 13 0.12 0.00
 -11 10 13 -0.38 0.00
 -10 10 13 0.22 0.00
 -9 10 13 -0.30 0.00
 -8 10 13 0.32 0.00
 -1 10 13 0.37 0.00
 0 10 13 0.14 0.00
 1 10 13 -0.19 0.00
 -8 11 13 -0.29 0.00
 -7 11 13 -0.29 0.00
 -6 11 13 0.23 0.00
 -5 11 13 0.25 0.00
 -4 11 13 -0.50 0.00
 -3 11 13 -0.13 0.00
 -2 11 13 0.54 0.00
 -4 -15 14 -0.04 0.00
 -3 -15 14 0.03 0.00
 -2 -15 14 -0.19 0.00
 -1 -15 14 0.29 0.00
 0 -15 14 0.19 0.00
 1 -15 14 -0.18 0.00
 2 -15 14 -0.17 0.00
 3 -15 14 -0.04 0.00
 4 -15 14 0.30 0.00
 5 -15 14 -0.05 0.00
 -6 -14 14 0.05 0.00
 -5 -14 14 -0.20 0.00
 -4 -14 14 -0.18 0.00
 4 -14 14 -0.21 0.00
 5 -14 14 -0.05 0.00
 6 -14 14 0.33 0.00
 -8 -13 14 0.36 0.00
 -7 -13 14 0.06 0.00
 7 -13 14 -0.05 0.00
 8 -13 14 -0.11 0.00
 -9 -12 14 0.02 0.00
 -8 -12 14 -0.08 0.00
 8 -12 14 0.28 0.00
 -10 -11 14 -0.03 0.00
 9 -11 14 0.19 0.00
 -11 -10 14 -0.03 0.00
 9 -10 14 -0.29 0.00
 10 -10 14 -0.04 0.00
 -12 -9 14 -0.07 0.00
 -11 -9 14 0.15 0.00
 10 -9 14 0.29 0.00
 -13 -8 14 -0.20 0.00
 -12 -8 14 0.15 0.00
 10 -8 14 0.11 0.00
 -13 -7 14 -0.18 0.00
 10 -7 14 0.03 0.00
 11 -7 14 0.08 0.00
 -14 -6 14 -0.45 0.00
 10 -6 14 0.21 0.00
 11 -6 14 -0.54 0.00
 -14 -5 14 -0.04 0.00
 10 -5 14 -0.19 0.00
 11 -5 14 0.09 0.00
 -14 -4 14 0.53 0.00
 10 -4 14 -0.45 0.00
 11 -4 14 0.18 0.00
 -15 -3 14 -0.32 0.00
 10 -3 14 0.10 0.00
 -15 -2 14 0.25 0.00
 10 -2 14 0.27 0.00
 -15 -1 14 0.26 0.00
 10 -1 14 -0.03 0.00
 -15 0 14 -0.43 0.00
 9 0 14 0.04 0.00
 10 0 14 0.14 0.00
 -15 1 14 0.00 0.00
 9 1 14 0.12 0.00
 -15 2 14 -0.06 0.00
 8 2 14 -0.44 0.00
 9 2 14 0.10 0.00
 -15 3 14 0.16 0.00
 -14 3 14 0.20 0.00
 8 3 14 0.43 0.00
 -15 4 14 -0.06 0.00
 -14 4 14 -0.05 0.00
 7 4 14 0.11 0.00
 -14 5 14 0.50 0.00
 6 5 14 -0.03 0.00
 -14 6 14 -0.17 0.00
 -13 6 14 -0.42 0.00
 5 6 14 -0.13 0.00
 6 6 14 0.37 0.00
 -13 7 14 0.15 0.00
 -12 7 14 0.68 0.00
 3 7 14 -0.26 0.00
 4 7 14 0.20 0.00
 -12 8 14 0.19 0.00
 -11 8 14 -0.20 0.00
 -10 8 14 -0.69 0.00
 2 8 14 0.11 0.00
 3 8 14 0.09 0.00
 -11 9 14 0.73 0.00
 -10 9 14 0.47 0.00
 -9 9 14 -0.79 0.00
 -1 9 14 -0.29 0.00
 0 9 14 -0.44 0.00
 1 9 14 0.21 0.00
 -9 10 14 -0.38 0.00
 -8 10 14 0.22 0.00
 -7 10 14 0.05 0.00
 -6 10 14 -0.19 0.00
 -5 10 14 0.46 0.00
 -4 10 14 -0.11 0.00
 -3 10 14 -0.12 0.00
 -2 10 14 -0.30 0.00
 -1 10 14 -0.01 0.00
 -3 -15 15 -0.12 0.00
 -2 -15 15 -0.25 0.00
 -1 -15 15 0.07 0.00
 0 -15 15 0.36 0.00
 1 -15 15 -0.01 0.00
 2 -15 15 -0.09 0.00
 3 -15 15 -0.25 0.00
 -5 -14 15 -0.13 0.00
 -4 -14 15 -0.40 0.00
 -3 -14 15 -0.08 0.00
 -2 -14 15 0.51 0.00
 -1 -14 15 -0.15 0.00
 0 -14 15 -0.03 0.00
 1 -14 15 0.02 0.00
 2 -14 15 0.02 0.00
 3 -14 15 0.17 0.00
 4 -14 15 -0.10 0.00
 5 -14 15 -0.21 0.00
 -7 -13 15 0.17 0.00
 -6 -13 15 -0.18 0.00
 5 -13 15 -0.13 0.00
 6 -13 15 0.02 0.00
 7 -13 15 0.15 0.00
 -9 -12 15 0.07 0.00
 -8 -12 15 0.11 0.00
 -7 -12 15 -0.29 0.00
 7 -12 15 -0.50 0.00
 8 -12 15 0.07 0.00
 -10 -11 15 -0.11 0.00
 -9 -11 15 -0.07 0.00
 8 -11 15 -0.21 0.00
 -11 -10 15 -0.18 0.00
 -10 -10 15 -0.22 0.00
 8 -10 15 0.36 0.00
 9 -10 15 -0.20 0.00
 -11 -9 15 0.00 0.00
 9 -9 15 -0.20 0.00
 -12 -8 15 0.09 0.00
 9 -8 15 -0.06 0.00
 10 -8 15 -0.22 0.00
 -13 -7 15 0.21 0.00
 -12 -7 15 -0.34 0.00
 9 -7 15 -0.06 0.00
 10 -7 15 0.08 0.00
 -13 -6 15 -0.29 0.00
 9 -6 15 -0.17 0.00
 10 -6 15 0.52 0.00
 -14 -5 15 0.19 0.00
 -13 -5 15 -0.34 0.00
 9 -5 15 0.38 0.00
 10 -5 15 -0.13 0.00
 -14 -4 15 -0.07 0.00
 10 -4 15 -0.32 0.00
 -14 -3 15 -0.28 0.00
 9 -3 15 -0.21 0.00
 10 -3 15 -0.08 0.00
 -15 -2 15 0.05 0.00
 -14 -2 15 0.35 0.00
 9 -2 15 -0.02 0.00
 -15 -1 15 0.37 0.00
 -14 -1 15 -0.27 0.00
 9 -1 15 -0.22 0.00
 -15 0 15 -0.20 0.00
 -14 0 15 -0.04 0.00
 8 0 15 0.14 0.00
 9 0 15 -0.09 0.00
 -15 1 15 -0.21 0.00
 -14 1 15 0.06 0.00
 8 1 15 -0.08 0.00
 -14 2 15 -0.08 0.00
 7 2 15 0.51 0.00
 8 2 15 -0.12 0.00
 -14 3 15 0.10 0.00
 7 3 15 -0.24 0.00
 -14 4 15 -0.17 0.00
 -13 4 15 0.24 0.00
 6 4 15 0.13 0.00
 -13 5 15 0.56 0.00
 5 5 15 -0.03 0.00
 -13 6 15 -0.26 0.00
 -12 6 15 -0.10 0.00
 3 6 15 -0.14 0.00
 4 6 15 -0.06 0.00
 -12 7 15 0.24 0.00
 -11 7 15 0.14 0.00
 2 7 15 -0.34 0.00
 3 7 15 -0.16 0.00
 -11 8 15 0.43 0.00
 -10 8 15 -0.73 0.00
 -9 8 15 -0.02 0.00
 0 8 15 -0.19 0.00
 1 8 15 -0.28 0.00
 2 8 15 0.20 0.00
 -9 9 15 -0.14 0.00
 -8 9 15 -0.58 0.00
 -7 9 15 -0.08 0.00
 -6 9 15 0.78 0.00
 -5 9 15 -0.04 0.00
 -4 9 15 -0.68 0.00
 -3 9 15 -0.06 0.00
 -2 9 15 0.43 0.00
 -1 9 15 0.31 0.00
 -4 -14 16 -0.16 0.00
 -3 -14 16 -0.30 0.00
 -2 -14 16 0.28 0.00
 -1 -14 16 0.05 0.00
 0 -14 16 -0.23 0.00
 1 -14 16 0.03 0.00
 2 -14 16 -0.03 0.00
 3 -14 16 0.11 0.00
 4 -14 16 0.10 0.00
 -6 -13 16 0.01 0.00
 -5 -13 16 -0.34 0.00
 -4 -13 16 0.05 0.00
 3 -13 16 0.11 0.00
 4 -13 16 0.08 0.00
 5 -13 16 -0.03 0.00
 -8 -12 16 0.17 0.00
 -7 -12 16 0.07 0.00
 5 -12 16 -0.20 0.00
 6 -12 16 0.48 0.00
 7 -12 16 -0.11 0.00
 -9 -11 16 0.03 0.00
 -8 -11 16 -0.31 0.00
 6 -11 16 -0.38 0.00
 7 -11 16 0.24 0.00
 -10 -10 16 -0.31 0.00
 -9 -10 16 -0.12 0.00
 7 -10 16 -0.26 0.00
 8 -10 16 0.26 0.00
 -11 -9 16 -0.11 0.00
 -10 -9 16 -0.03 0.00
 8 -9 16 -0.01 0.00
 -12 -8 16 -0.02 0.00
 -11 -8 16 -0.14 0.00
 8 -8 16 0.09 0.00
 9 -8 16 0.17 0.00
 -12 -7 16 -0.05 0.00
 8 -7 16 0.03 0.00
 9 -7 16 -0.21 0.00
 -13 -6 16 -0.16 0.00
 -12 -6 16 0.10 0.00
 8 -6 16 0.04 0.00
 9 -6 16 -0.32 0.00
 -13 -5 16 0.12 0.00
 8 -5 16 -0.36 0.00
 9 -5 16 0.23 0.00
 -14 -4 16 -0.30 0.00
 -13 -4 16 -0.15 0.00
 9 -4 16 0.30 0.00
 -14 -3 16 0.05 0.00
 -13 -3 16 -0.23 0.00
 8 -3 16 0.00 0.00
 9 -3 16 -0.07 0.00
 -14 -2 16 0.11 0.00
 8 -2 16 -0.03 0.00
 -14 -1 16 -0.17 0.00
 8 -1 16 0.20 0.00
 -14 0 16 0.37 0.00
 7 0 16 -0.37 0.00
 8 0 16 0.05 0.00
 -14 1 16 -0.20 0.00
 7 1 16 0.08 0.00
 -14 2 16 -0.02 0.00
 -13 2 16 0.00 0.00
 6 2 16 -0.37 0.00
 7 2 16 0.06 0.00
 -14 3 16 0.15 0.00
 -13 3 16 -0.01 0.00
 5 3 16 -0.06 0.00
 6 3 16 0.00 0.00
 -13 4 16 -0.06 0.00
 -12 4 16 0.37 0.00
 4 4 16 0.01 0.00
 5 4 16 -0.07 0.00
 -13 5 16 0.16 0.00
 -12 5 16 0.18 0.00
 3 5 16 0.35 0.00
 4 5 16 0.09 0.00
 -12 6 16 0.10 0.00
 -11 6 16 -0.26 0.00
 2 6 16 0.10 0.00
 3 6 16 0.01 0.00
 -11 7 16 0.09 0.00
 -10 7 16 -0.25 0.00
 -9 7 16 0.09 0.00
 0 7 16 -0.25 0.00
 1 7 16 0.38 0.00
 -9 8 16 -0.46 0.00
 -8 8 16 -0.08 0.00
 -7 8 16 0.13 0.00
 -6 8 16 0.50 0.00
 -5 8 16 -0.36 0.00
 -4 8 16 -0.26 0.00
 -3 8 16 0.24 0.00
 -2 8 16 -0.05 0.00
 -1 8 16 0.15 0.00
 0 8 16 0.12 0.00
 -6 9 16 0.24 0.00
 -5 9 16 0.48 0.00
 -4 9 16 -0.20 0.00
 -2 -14 17 0.15 0.00
 -1 -14 17 0.19 0.00
 0 -14 17 -0.19 0.00
 1 -14 17 -0.02 0.00
 -5 -13 17 -0.12 0.00
 -4 -13 17 -0.06 0.00
 -3 -13 17 0.26 0.00
 -2 -13 17 -0.23 0.00
 -1 -13 17 -0.25 0.00
 0 -13 17 -0.10 0.00
 1 -13 17 0.48 0.00
 2 -13 17 -0.08 0.00
 3 -13 17 -0.13 0.00
 4 -13 17 0.04 0.00
 -7 -12 17 0.42 0.00
 -6 -12 17 -0.20 0.00
 -5 -12 17 -0.15 0.00
 3 -12 17 -0.24 0.00
 4 -12 17 0.08 0.00
 5 -12 17 -0.19 0.00
 -8 -11 17 -0.06 0.00
 -7 -11 17 -0.22 0.00
 5 -11 17 0.37 0.00
 6 -11 17 -0.37 0.00
 -9 -10 17 -0.25 0.00
 6 -10 17 0.31 0.00
 7 -10 17 -0.07 0.00
 -10 -9 17 -0.15 0.00
 7 -9 17 0.02 0.00
 -11 -8 17 -0.16 0.00
 -10 -8 17 -0.21 0.00
 7 -8 17 -0.09 0.00
 8 -8 17 0.02 0.00
 -12 -7 17 -0.01 0.00
 -11 -7 17 -0.10 0.00
 7 -7 17 0.02 0.00
 8 -7 17 0.10 0.00
 -12 -6 17 0.40 0.00
 7 -6 17 0.07 0.00
 8 -6 17 0.13 0.00
 -13 -5 17 0.40 0.00
 -12 -5 17 -0.02 0.00
 7 -5 17 0.06 0.00
 8 -5 17 -0.27 0.00
 -13 -4 17 -0.17 0.00
 -12 -4 17 -0.51 0.00
 7 -4 17 -0.12 0.00
 8 -4 17 -0.03 0.00
 -13 -3 17 -0.02 0.00
 7 -3 17 0.26 0.00
 8 -3 17 0.06 0.00
 -13 -2 17 0.29 0.00
 7 -2 17 -0.06 0.00
 -13 -1 17 -0.56 0.00
 7 -1 17 0.02 0.00
 -13 0 17 0.37 0.00
 6 0 17 0.34 0.00
 7 0 17 -0.12 0.00
 -13 1 17 -0.11 0.00
 5 1 17 -0.04 0.00
 6 1 17 -0.01 0.00
 -13 2 17 0.06 0.00
 -12 2 17 -0.18 0.00
 5 2 17 0.19 0.00
 -13 3 17 0.28 0.00
 -12 3 17 -0.05 0.00
 4 3 17 0.00 0.00
 5 3 17 0.11 0.00
 -12 4 17 0.13 0.00
 -11 4 17 0.13 0.00
 3 4 17 0.03 0.00
 4 4 17 -0.02 0.00
 -11 5 17 0.02 0.00
 -10 5 17 0.17 0.00
 1 5 17 -0.06 0.00
 2 5 17 -0.14 0.00
 3 5 17 -0.03 0.00
 -11 6 17 0.14 0.00
 -10 6 17 -0.31 0.00
 -9 6 17 0.08 0.00
 -1 6 17 -0.60 0.00
 0 6 17 0.07 0.00
 1 6 17 0.33 0.00
 -9 7 17 -0.28 0.00
 -8 7 17 0.29 0.00
 -7 7 17 0.52 0.00
 -6 7 17 -0.40 0.00
 -5 7 17 -0.23 0.00
 -4 7 17 0.08 0.00
 -3 7 17 -0.08 0.00
 -2 7 17 0.08 0.00
 -1 7 17 0.23 0.00
 -6 8 17 0.41 0.00
 -5 8 17 0.26 0.00
 -4 8 17 -0.38 0.00
 -3 -13 18 0.23 0.00
 -2 -13 18 0.01 0.00
 -1 -13 18 -0.02 0.00
 0 -13 18 -0.40 0.00
 1 -13 18 0.14 0.00
 2 -13 18 0.21 0.00
 -6 -12 18 0.27 0.00
 -5 -12 18 -0.06 0.00
 -4 -12 18 0.02 0.00
 -3 -12 18 0.10 0.00
 -2 -12 18 -0.29 0.00
 -1 -12 18 -0.42 0.00
 0 -12 18 0.37 0.00
 1 -12 18 0.16 0.00
 2 -12 18 0.16 0.00
 3 -12 18 -0.15 0.00
 4 -12 18 -0.05 0.00
 -7 -11 18 -0.01 0.00
 -6 -11 18 0.10 0.00
 -5 -11 18 -0.19 0.00
 3 -11 18 -0.09 0.00
 4 -11 18 -0.13 0.00
 5 -11 18 0.37 0.00
 -9 -10 18 0.05 0.00
 -8 -10 18 0.07 0.00
 -7 -10 18 -0.15 0.00
 4 -10 18 0.52 0.00
 5 -10 18 -0.43 0.00
 6 -10 18 -0.09 0.00
 -10 -9 18 0.20 0.00
 -9 -9 18 -0.39 0.00
 5 -9 18 0.03 0.00
 6 -9 18 0.09 0.00
 -10 -8 18 -0.19 0.00
 -9 -8 18 -0.25 0.00
 5 -8 18 0.06 0.00
 6 -8 18 0.06 0.00
 -11 -7 18 -0.43 0.00
 -10 -7 18 0.33 0.00
 5 -7 18 -0.34 0.00
 6 -7 18 0.00 0.00
 7 -7 18 0.13 0.00
 -11 -6 18 0.84 0.00
 6 -6 18 -0.08 0.00
 7 -6 18 -0.06 0.00
 -12 -5 18 0.31 0.00
 -11 -5 18 0.16 0.00
 6 -5 18 0.12 0.00
 7 -5 18 0.12 0.00
 -12 -4 18 -0.22 0.00
 -11 -4 18 -0.79 0.00
 6 -4 18 -0.10 0.00
 7 -4 18 -0.17 0.00
 -12 -3 18 0.07 0.00
 -11 -3 18 -0.06 0.00
 6 -3 18 -0.23 0.00
 7 -3 18 0.04 0.00
 -13 -2 18 -0.06 0.00
 -12 -2 18 0.05 0.00
 6 -2 18 0.00 0.00
 -13 -1 18 -0.33 0.00
 -12 -1 18 -0.18 0.00
 5 -1 18 -0.06 0.00
 6 -1 18 -0.09 0.00
 -13 0 18 0.39 0.00
 -12 0 18 0.11 0.00
 5 0 18 -0.17 0.00
 -12 1 18 -0.19 0.00
 4 1 18 0.08 0.00
 5 1 18 -0.08 0.00
 -12 2 18 0.04 0.00
 -11 2 18 -0.25 0.00
 3 2 18 -0.11 0.00
 4 2 18 -0.05 0.00
 -12 3 18 0.22 0.00
 -11 3 18 -0.04 0.00
 -10 3 18 -0.08 0.00
 2 3 18 0.27 0.00
 3 3 18 -0.04 0.00
 -11 4 18 0.01 0.00
 -10 4 18 -0.21 0.00
 -9 4 18 0.16 0.00
 0 4 18 0.14 0.00
 1 4 18 0.23 0.00
 2 4 18 -0.21 0.00
 -10 5 18 0.11 0.00
 -9 5 18 0.22 0.00
 -8 5 18 -0.13 0.00
 -2 5 18 -0.28 0.00
 -1 5 18 0.32 0.00
 0 5 18 0.11 0.00
 1 5 18 -0.17 0.00
 -9 6 18 -0.21 0.00
 -8 6 18 0.09 0.00
 -7 6 18 0.07 0.00
 -6 6 18 -0.06 0.00
 -5 6 18 -0.13 0.00
 -4 6 18 -0.19 0.00
 -3 6 18 0.48 0.00
 -2 6 18 0.33 0.00
 -1 6 18 -0.29 0.00
 -4 -12 19 -0.01 0.00
 -3 -12 19 0.08 0.00
 -2 -12 19 0.17 0.00
 -1 -12 19 -0.38 0.00
 0 -12 19 -0.02 0.00
 1 -12 19 0.03 0.00
 -6 -11 19 0.24 0.00
 -5 -11 19 0.14 0.00
 -4 -11 19 -0.26 0.00
 -3 -11 19 -0.33 0.00
 -2 -11 19 0.33 0.00
 -1 -11 19 -0.12 0.00
 0 -11 19 -0.01 0.00
 1 -11 19 0.33 0.00
 2 -11 19 -0.16 0.00
 3 -11 19 -0.01 0.00
 -7 -10 19 0.04 0.00
 -6 -10 19 0.09 0.00
 -5 -10 19 -0.31 0.00
 2 -10 19 -0.33 0.00
 3 -10 19 -0.35 0.00
 4 -10 19 0.40 0.00
 -8 -9 19 -0.13 0.00
 -7 -9 19 0.12 0.00
 3 -9 19 0.29 0.00
 4 -9 19 -0.02 0.00
 5 -9 19 -0.13 0.00
 -9 -8 19 -0.21 0.00
 -8 -8 19 -0.15 0.00
 4 -8 19 0.12 0.00
 5 -8 19 -0.16 0.00
 -10 -7 19 -0.33 0.00
 -9 -7 19 0.68 0.00
 4 -7 19 0.03 0.00
 5 -7 19 -0.06 0.00
 -11 -6 19 0.50 0.00
 -10 -6 19 0.52 0.00
 4 -6 19 -0.53 0.00
 5 -6 19 0.08 0.00
 6 -6 19 0.08 0.00
 -11 -5 19 0.48 0.00
 -10 -5 19 0.16 0.00
 -9 -5 19 -0.60 0.00
 4 -5 19 -0.10 0.00
 5 -5 19 0.04 0.00
 6 -5 19 0.07 0.00
 -11 -4 19 -0.49 0.00
 -10 -4 19 -0.32 0.00
 -9 -4 19 0.08 0.00
 5 -4 19 0.18 0.00
 -12 -3 19 0.07 0.00
 -11 -3 19 0.09 0.00
 -10 -3 19 -0.24 0.00
 4 -3 19 0.30 0.00
 5 -3 19 0.04 0.00
 -12 -2 19 -0.19 0.00
 -11 -2 19 0.08 0.00
 -10 -2 19 0.15 0.00
 4 -2 19 0.14 0.00
 5 -2 19 0.14 0.00
 -12 -1 19 -0.07 0.00
 -11 -1 19 -0.04 0.00
 4 -1 19 0.07 0.00
 -12 0 19 0.26 0.00
 -11 0 19 -0.11 0.00
 3 0 19 0.19 0.00
 4 0 19 -0.01 0.00
 -11 1 19 0.08 0.00
 -10 1 19 -0.02 0.00
 2 1 19 -0.01 0.00
 3 1 19 -0.17 0.00
 -11 2 19 -0.13 0.00
 -10 2 19 0.16 0.00
 -9 2 19 -0.04 0.00
 1 2 19 -0.20 0.00
 2 2 19 -0.01 0.00
 -10 3 19 0.10 0.00
 -9 3 19 0.13 0.00
 -8 3 19 -0.30 0.00
 -7 3 19 -0.12 0.00
 -1 3 19 -0.08 0.00
 0 3 19 0.29 0.00
 1 3 19 -0.26 0.00
 -9 4 19 -0.14 0.00
 -8 4 19 0.10 0.00
 -7 4 19 0.16 0.00
 -6 4 19 -0.10 0.00
 -5 4 19 -0.04 0.00
 -4 4 19 0.68 0.00
 -3 4 19 -0.64 0.00
 -2 4 19 -0.04 0.00
 -1 4 19 0.14 0.00
 0 4 19 -0.21 0.00
 -8 5 19 0.24 0.00
 -7 5 19 -0.45 0.00
 -6 5 19 0.28 0.00
 -5 5 19 0.16 0.00
 -4 5 19 -0.48 0.00
 -3 5 19 0.23 0.00
 -2 5 19 -0.08 0.00
 -4 -11 20 0.10 0.00
 -3 -11 20 -0.36 0.00
 -2 -11 20 0.10 0.00
 -1 -11 20 0.04 0.00
 0 -11 20 -0.16 0.00
 -6 -10 20 0.25 0.00
 -5 -10 20 -0.04 0.00
 -4 -10 20 -0.19 0.00
 -3 -10 20 0.47 0.00
 -2 -10 20 -0.33 0.00
 -1 -10 20 -0.32 0.00
 0 -10 20 0.12 0.00
 1 -10 20 0.31 0.00
 2 -10 20 0.14 0.00
 -7 -9 20 0.22 0.00
 -6 -9 20 0.12 0.00
 -5 -9 20 -0.19 0.00
 -4 -9 20 -0.13 0.00
 0 -9 20 0.23 0.00
 1 -9 20 -0.17 0.00
 2 -9 20 -0.26 0.00
 3 -9 20 0.00 0.00
 -8 -8 20 -0.09 0.00
 -7 -8 20 0.08 0.00
 -6 -8 20 -0.06 0.00
 1 -8 20 -0.20 0.00
 2 -8 20 -0.11 0.00
 3 -8 20 -0.13 0.00
 -9 -7 20 0.05 0.00
 -8 -7 20 0.37 0.00
 -7 -7 20 0.05 0.00
 2 -7 20 -0.22 0.00
 3 -7 20 0.28 0.00
 4 -7 20 0.07 0.00
 -9 -6 20 0.33 0.00
 -8 -6 20 0.02 0.00
 2 -6 20 0.13 0.00
 3 -6 20 0.38 0.00
 4 -6 20 -0.11 0.00
 -10 -5 20 0.56 0.00
 -9 -5 20 -0.14 0.00
 -8 -5 20 -0.14 0.00
 2 -5 20 0.59 0.00
 3 -5 20 0.02 0.00
 4 -5 20 -0.28 0.00
 -10 -4 20 -0.25 0.00
 -9 -4 20 0.01 0.00
 -8 -4 20 -0.05 0.00
 2 -4 20 -0.05 0.00
 3 -4 20 0.09 0.00
 4 -4 20 -0.12 0.00
 -10 -3 20 -0.27 0.00
 -9 -3 20 0.11 0.00
 -8 -3 20 0.29 0.00
 2 -3 20 -0.25 0.00
 3 -3 20 -0.38 0.00
 4 -3 20 0.09 0.00
 -11 -2 20 -0.19 0.00
 -10 -2 20 0.14 0.00
 -9 -2 20 -0.17 0.00
 2 -2 20 0.27 0.00
 3 -2 20 -0.03 0.00
 -10 -1 20 0.39 0.00
 -9 -1 20 0.08 0.00
 1 -1 20 0.33 0.00
 2 -1 20 -0.08 0.00
 3 -1 20 -0.09 0.00
 -10 0 20 -0.31 0.00
 -9 0 20 0.28 0.00
 0 0 20 -0.05 0.00
 1 0 20 -0.02 0.00
 2 0 20 -0.10 0.00
 -10 1 20 -0.02 0.00
 -9 1 20 -0.46 0.00
 -8 1 20 0.12 0.00
 -7 1 20 0.20 0.00
 -1 1 20 0.23 0.00
 0 1 20 -0.17 0.00
 1 1 20 -0.08 0.00
 -9 2 20 0.10 0.00
 -8 2 20 0.00 0.00
 -7 2 20 0.39 0.00
 -6 2 20 -0.52 0.00
 -5 2 20 -0.28 0.00
 -4 2 20 0.47 0.00
 -3 2 20 0.08 0.00
 -2 2 20 -0.18 0.00
 -1 2 20 -0.18 0.00
 0 2 20 0.17 0.00
 -8 3 20 -0.03 0.00
 -7 3 20 -0.04 0.00
 -6 3 20 -0.16 0.00
 -5 3 20 0.02 0.00
 -4 3 20 -0.12 0.00
 -3 3 20 0.20 0.00
 -2 3 20 0.17 0.00
 -1 3 20 -0.36 0.00
 -6 4 20 0.17 0.00
 -5 4 20 -0.47 0.00
 -4 4 20 0.50 0.00
 -5 -9 21 0.08 0.00
 -4 -9 21 0.09 0.00
 -3 -9 21 0.02 0.00
 -2 -9 21 -0.47 0.00
 -1 -9 21 -0.05 0.00
 0 -9 21 0.31 0.00
 -6 -8 21 0.14 0.00
 -5 -8 21 -0.03 0.00
 -4 -8 21 -0.34 0.00
 -3 -8 21 0.00 0.00
 -2 -8 21 0.16 0.00
 -1 -8 21 -0.09 0.00
 0 -8 21 0.30 0.00
 1 -8 21 -0.09 0.00
 -7 -7 21 0.27 0.00
 -6 -7 21 0.01 0.00
 -5 -7 21 -0.31 0.00
 -4 -7 21 0.14 0.00
 -3 -7 21 -0.22 0.00
 -2 -7 21 0.23 0.00
 -1 -7 21 0.21 0.00
 0 -7 21 -0.16 0.00
 1 -7 21 0.18 0.00
 2 -7 21 -0.34 0.00
 -8 -6 21 0.12 0.00
 -7 -6 21 0.17 0.00
 -6 -6 21 -0.05 0.00
 -5 -6 21 -0.40 0.00
 -4 -6 21 0.49 0.00
 -3 -6 21 0.44 0.00
 -2 -6 21 -0.79 0.00
 -1 -6 21 0.05 0.00
 0 -6 21 0.18 0.00
 1 -6 21 -0.13 0.00
 2 -6 21 -0.12 0.00
 -8 -5 21 0.05 0.00
 -7 -5 21 -0.05 0.00
 -6 -5 21 -0.18 0.00
 -5 -5 21 0.17 0.00
 -4 -5 21 -0.22 0.00
 -3 -5 21 -0.24 0.00
 -2 -5 21 0.28 0.00
 -1 -5 21 0.16 0.00
 0 -5 21 0.15 0.00
 1 -5 21 -0.44 0.00
 2 -5 21 0.02 0.00
 -9 -4 21 0.00 0.00
 -8 -4 21 0.12 0.00
 -7 -4 21 -0.12 0.00
 -6 -4 21 -0.15 0.00
 -5 -4 21 0.21 0.00
 -4 -4 21 -0.21 0.00
 -3 -4 21 -0.01 0.00
 -2 -4 21 0.36 0.00
 -1 -4 21 0.06 0.00
 0 -4 21 -0.26 0.00
 1 -4 21 0.05 0.00
 2 -4 21 -0.08 0.00
 -9 -3 21 -0.19 0.00
 -8 -3 21 0.25 0.00
 -7 -3 21 0.13 0.00
 -6 -3 21 -0.51 0.00
 -1 -3 21 -0.16 0.00
 0 -3 21 -0.24 0.00
 1 -3 21 0.25 0.00
 2 -3 21 0.28 0.00
 -9 -2 21 -0.16 0.00
 -8 -2 21 -0.09 0.00
 -7 -2 21 -0.15 0.00
 -6 -2 21 0.41 0.00
 -2 -2 21 -0.13 0.00
 -1 -2 21 -0.14 0.00
 0 -2 21 0.25 0.00
 1 -2 21 -0.18 0.00
 -9 -1 21 0.52 0.00
 -8 -1 21 -0.13 0.00
 -7 -1 21 0.05 0.00
 -6 -1 21 -0.07 0.00
 -5 -1 21 -0.36 0.00
 -4 -1 21 0.31 0.00
 -3 -1 21 0.15 0.00
 -2 -1 21 -0.34 0.00
 -1 -1 21 0.16 0.00
 0 -1 21 -0.11 0.00
 1 -1 21 0.11 0.00
 -8 0 21 0.19 0.00
 -7 0 21 -0.37 0.00
 -6 0 21 -0.20 0.00
 -5 0 21 0.53 0.00
 -4 0 21 -0.04 0.00
 -3 0 21 -0.43 0.00
 -2 0 21 0.20 0.00
 -1 0 21 0.25 0.00
 0 0 21 -0.07 0.00
 -7 1 21 -0.20 0.00
 -6 1 21 0.35 0.00
 -5 1 21 0.50 0.00
 -4 1 21 -0.42 0.00
 -3 1 21 -0.15 0.00
 -2 1 21 -0.03 0.00
 -1 1 21 0.09 0.00
 -6 2 21 0.05 0.00
 -5 2 21 -0.42 0.00
 -4 2 21 0.05 0.00
 0 0 0 0.00 0.00
# SQUEEZE RESULTS (Version = 71116)
# Note: Data are Listed for all Voids in the P1 Unit Cell
# i.e. Centre of Gravity, Solvent Accessible Volume,
# Recovered number of Electrons in the Void and
# Details about the Squeezed Material
;
_platon_squeeze_void_probe_radius 1.20
_olex2_date_sample_data_collection 2016-11-25
_olex2_submission_special_instructions 'No special instructions were received'
loop_
_space_group_symop_operation_xyz
'x, y, z'
'-x, -y, -z'
loop_
_atom_site_label
_atom_site_type_symbol
_atom_site_fract_x
_atom_site_fract_y
_atom_site_fract_z
_atom_site_U_iso_or_equiv
_atom_site_adp_type
_atom_site_occupancy
_atom_site_site_symmetry_order
_atom_site_calc_flag
_atom_site_refinement_flags_posn
_atom_site_refinement_flags_adp
_atom_site_refinement_flags_occupancy
_atom_site_disorder_assembly
_atom_site_disorder_group
Zn01 Zn 0.69140(4) 0.81903(4) 0.64716(3) 0.0605(2) Uani 1 1 d . . . . .
C1A C 1.1645(4) 0.9779(6) 0.9418(4) 0.096(3) Uani 0.593(9) 1 d . U P A 1
C2A C 1.2368(6) 1.0105(7) 0.9006(3) 0.129(4) Uani 0.593(9) 1 d G U P A 1
H2A H 1.2209 0.9898 0.8431 0.155 Uiso 0.593(9) 1 calc R . P A 1
C3A C 1.3329(5) 1.0741(7) 0.9453(4) 0.131(4) Uani 0.593(9) 1 d G U P A 1
H3A H 1.3813 1.0959 0.9178 0.157 Uiso 0.593(9) 1 calc R . P A 1
C4A C 1.3568(4) 1.1050(6) 1.0313(4) 0.109(3) Uani 0.593(9) 1 d G U P A 1
H4A H 1.4211 1.1475 1.0612 0.130 Uiso 0.593(9) 1 calc R . P A 1
C5A C 1.2845(5) 1.0724(6) 1.0725(3) 0.110(3) Uani 0.593(9) 1 d G U P A 1
H5A H 1.3004 1.0931 1.1300 0.132 Uiso 0.593(9) 1 calc R . P A 1
C6A C 1.1883(5) 1.0089(6) 1.0278(4) 0.111(3) Uani 0.593(9) 1 d G U P A 1
H6A H 1.1400 0.9870 1.0554 0.133 Uiso 0.593(9) 1 calc R . P A 1
C1 C 1.1721(8) 0.9556(13) 0.9391(13) 0.203(8) Uani 0.407(9) 1 d . U P A 2
C2 C 1.2563(11) 0.9078(12) 0.9331(13) 0.204(8) Uani 0.407(9) 1 d G U P A 2
H2 H 1.2449 0.8380 0.9037 0.245 Uiso 0.407(9) 1 calc R . P A 2
C3 C 1.3574(9) 0.9644(15) 0.9710(13) 0.210(8) Uani 0.407(9) 1 d G U P A 2
H3 H 1.4137 0.9324 0.9670 0.252 Uiso 0.407(9) 1 calc R . P A 2
C4 C 1.3744(8) 1.0687(14) 1.0149(13) 0.216(8) Uani 0.407(9) 1 d G U P A 2
H4 H 1.4421 1.1066 1.0403 0.259 Uiso 0.407(9) 1 calc R . P A 2
C5 C 1.2903(11) 1.1165(12) 1.0209(14) 0.222(8) Uani 0.407(9) 1 d G U P A 2
H5 H 1.3017 1.1862 1.0503 0.266 Uiso 0.407(9) 1 calc R . P A 2
C6 C 1.1891(9) 1.0599(14) 0.9830(14) 0.203(8) Uani 0.407(9) 1 d G U P A 2
H6 H 1.1328 1.0918 0.9870 0.243 Uiso 0.407(9) 1 calc R . P A 2
C7A C 1.0429(7) 0.7826(8) 0.9745(5) 0.104(4) Uani 0.512(12) 1 d . U P B 1
C8A C 0.9940(8) 0.7814(10) 1.0384(6) 0.123(4) Uani 0.512(12) 1 d G U P B 1
H8A H 0.9372 0.8130 1.0407 0.148 Uiso 0.512(12) 1 calc R . P B 1
C9A C 1.0301(9) 0.7331(10) 1.0987(6) 0.137(4) Uani 0.512(12) 1 d G U P B 1
H9A H 0.9974 0.7324 1.1414 0.165 Uiso 0.512(12) 1 calc R . P B 1
C10A C 1.1151(8) 0.6860(9) 1.0953(6) 0.147(4) Uani 0.512(12) 1 d G U P B 1
H10A H 1.1392 0.6537 1.1356 0.176 Uiso 0.512(12) 1 calc R . P B 1
C11A C 1.1640(8) 0.6872(11) 1.0314(7) 0.141(4) Uani 0.512(12) 1 d G U P B 1
H11A H 1.2208 0.6557 1.0291 0.170 Uiso 0.512(12) 1 calc R . P B 1
C12A C 1.1279(8) 0.7355(10) 0.9711(6) 0.127(4) Uani 0.512(12) 1 d G U P B 1
H12A H 1.1605 0.7363 0.9284 0.152 Uiso 0.512(12) 1 calc R . P B 1
C7 C 1.0501(12) 0.6672(11) 0.9562(5) 0.156(5) Uani 0.488(12) 1 d . U P B 2
H7 H 1.0283 0.6288 0.9009 0.187 Uiso 0.488(12) 1 calc R . P B 2
C8 C 1.0439(9) 0.7718(11) 0.9784(6) 0.145(5) Uani 0.488(12) 1 d G U P B 2
C9 C 1.0765(12) 0.8292(9) 1.0610(6) 0.160(5) Uani 0.488(12) 1 d G U P B 2
H9 H 1.0724 0.8992 1.0758 0.192 Uiso 0.488(12) 1 calc R . P B 2
C10 C 1.1153(12) 0.7821(12) 1.1214(5) 0.164(6) Uani 0.488(12) 1 d G U P B 2
H10 H 1.1372 0.8205 1.1767 0.197 Uiso 0.488(12) 1 calc R . P B 2
C11 C 1.1215(11) 0.6776(12) 1.0992(7) 0.178(6) Uani 0.488(12) 1 d G U P B 2
H11 H 1.1475 0.6460 1.1397 0.214 Uiso 0.488(12) 1 calc R . P B 2
C12 C 1.0889(13) 0.6201(10) 1.0166(8) 0.170(6) Uani 0.488(12) 1 d G U P B 2
H12 H 1.0930 0.5502 1.0018 0.204 Uiso 0.488(12) 1 calc R . P B 2
O1 O 0.6185(3) 0.9245(3) 0.7242(2) 0.0870(8) Uani 1 1 d D U . . .
C13S C 0.6396(7) 1.0319(5) 0.7409(6) 0.139(2) Uani 1 1 d D U . . .
H13A H 0.6276 1.0522 0.6897 0.167 Uiso 1 1 calc R . . . .
H13B H 0.7119 1.0603 0.7710 0.167 Uiso 1 1 calc R . . . .
C14S C 0.5134(6) 0.8940(6) 0.7245(5) 0.133(2) Uani 1 1 d D U . . .
H14A H 0.5047 0.8350 0.7477 0.160 Uiso 1 1 calc R . . . .
H14B H 0.4694 0.8737 0.6685 0.160 Uiso 1 1 calc R . . . .
C15S C 0.4840(7) 0.9849(6) 0.7758(5) 0.133(2) Uani 1 1 d D U . . .
H15A H 0.4196 0.9983 0.7464 0.159 Uiso 1 1 calc R . . . .
H15B H 0.4747 0.9721 0.8274 0.159 Uiso 1 1 calc R . . . .
C16S C 0.5698(7) 1.0725(5) 0.7913(5) 0.140(2) Uani 1 1 d D U . . .
H16A H 0.6058 1.0962 0.8495 0.168 Uiso 1 1 calc R . . . .
H16B H 0.5449 1.1301 0.7744 0.168 Uiso 1 1 calc R . . . .
C009 C 0.5707(3) 0.6200(3) 0.6769(2) 0.0585(8) Uani 1 1 d . . . . .
C010 C 0.5840(3) 0.8993(4) 0.4210(3) 0.0741(11) Uani 1 1 d . . . . .
H010 H 0.5929 0.9427 0.3936 0.089 Uiso 1 1 d R . . . .
C011 C 0.7477(4) 1.1962(4) 0.4175(3) 0.0860(13) Uani 1 1 d . . . . .
H011 H 0.7086 1.2460 0.4093 0.103 Uiso 1 1 calc R . . . .
C012 C 0.9015(3) 0.7826(4) 0.8573(3) 0.0763(11) Uani 1 1 d . . . . .
C013 C 0.9697(4) 1.0522(4) 0.7081(3) 0.0800(12) Uani 1 1 d . . . . .
H013 H 1.0330 1.0899 0.7441 0.096 Uiso 1 1 calc R . . . .
C014 C 0.0580(4) 0.4363(5) 0.2867(3) 0.0960(15) Uani 1 1 d . . . . .
H014 H 0.0186 0.3687 0.2630 0.115 Uiso 1 1 calc R . . . .
C015 C 0.0738(4) 0.4143(4) 0.5590(3) 0.0841(12) Uani 1 1 d . . . . .
H015 H 0.0136 0.4341 0.5703 0.101 Uiso 1 1 calc R . . . .
C016 C 0.8300(5) 1.1889(4) 0.3829(4) 0.0915(14) Uani 1 1 d . . . . .
H016 H 0.8469 1.2330 0.3510 0.110 Uiso 1 1 calc R . . . .
C017 C 0.8228(3) 0.7029(4) 0.8501(3) 0.0727(10) Uani 1 1 d . . . . .
H017 H 0.8214 0.6590 0.8846 0.087 Uiso 1 1 calc R . . . .
C018 C 0.8629(4) 1.0501(3) 0.4432(3) 0.0792(12) Uani 1 1 d . . . . .
H018 H 0.9025 1.0007 0.4515 0.095 Uiso 1 1 calc R . . . .
C019 C 0.0833(4) 0.6171(5) 0.2928(3) 0.0913(14) Uani 1 1 d . . . . .
H019 H 0.0619 0.6716 0.2735 0.110 Uiso 1 1 calc R . . . .
C00A C 0.2409(3) 0.4579(3) 0.5311(2) 0.0614(8) Uani 1 1 d . . . . .
C01A C 0.1776(5) 0.2865(4) 0.5401(4) 0.1058(18) Uani 1 1 d . . . . .
H01A H 0.1866 0.2188 0.5377 0.127 Uiso 1 1 calc R . . . .
C00B C 0.6459(3) 0.6254(3) 0.7496(2) 0.0616(8) Uani 1 1 d . . . . .
C01B C 0.0864(5) 0.3149(5) 0.5545(4) 0.1036(17) Uani 1 1 d . . . . .
H01B H 0.0340 0.2660 0.5610 0.124 Uiso 1 1 calc R . . . .
C00C C 0.8261(3) 0.9949(3) 0.6033(2) 0.0630(8) Uani 1 1 d . . . . .
C01C C 0.0268(4) 0.5180(6) 0.2589(3) 0.1002(17) Uani 1 1 d . . . . .
H01C H -0.0335 0.5049 0.2166 0.120 Uiso 1 1 calc R . . . .
C00D C 0.4720(3) 0.5492(3) 0.6446(2) 0.0634(9) Uani 1 1 d . . . . .
H00D H 0.4458 0.4976 0.6672 0.076 Uiso 1 1 calc R . . . .
C01D C 0.8876(5) 1.1155(4) 0.3957(4) 0.1006(17) Uani 1 1 d . . . . .
H01D H 0.9438 1.1098 0.3722 0.121 Uiso 1 1 calc R . . . .
C00E C 0.4230(3) 0.5712(3) 0.5744(2) 0.0576(8) Uani 1 1 d . . . . .
C01E C 1.0036(4) 0.8285(5) 0.9094(3) 0.0947(15) Uani 1 1 d . . . . .
C00F C 0.3214(3) 0.5340(3) 0.5158(2) 0.0595(8) Uani 1 1 d . . . . .
C01F C 1.0604(4) 0.9129(5) 0.8947(3) 0.0992(16) Uani 1 1 d . . . . .
C00G C 0.2049(3) 0.5550(3) 0.3848(2) 0.0670(9) Uani 1 1 d . . . . .
C01G C 0.6233(6) 0.4469(4) 0.7686(4) 0.109(2) Uani 1 1 d . . . . .
H01G H 0.6354 0.4220 0.7169 0.131 Uiso 1 1 calc R . . . .
C00H C 0.3018(3) 0.5782(3) 0.4526(2) 0.0635(8) Uani 1 1 d . . . . .
C00I C 0.1499(3) 0.4852(3) 0.5469(3) 0.0698(10) Uani 1 1 d . . . . .
H00I H 0.1404 0.5527 0.5493 0.084 Uiso 1 1 calc R . . . .
C00J C 0.4672(3) 0.7000(3) 0.5006(2) 0.0574(8) Uani 1 1 d . . . . .
C01J C 0.5872(7) 0.4119(6) 0.8904(5) 0.132(3) Uani 1 1 d . . . . .
H01J H 0.5721 0.3648 0.9205 0.158 Uiso 1 1 calc R . . . .
C00K C 0.9068(3) 0.9629(3) 0.7163(3) 0.0667(9) Uani 1 1 d . . . . .
C01K C 0.6092(6) 0.5831(5) 0.8754(4) 0.114(2) Uani 1 1 d . . . . .
H01K H 0.6111 0.6535 0.8977 0.137 Uiso 1 1 calc R . . . .
C00L C 0.4930(3) 0.6555(3) 0.5651(2) 0.0577(8) Uani 1 1 d . . . . .
C00M C 0.7529(3) 0.9854(3) 0.5291(2) 0.0616(8) Uani 1 1 d . . . . .
C01M C 0.5916(8) 0.5127(7) 0.9213(5) 0.142(3) Uani 1 1 d . . . . .
H01M H 0.5828 0.5367 0.9743 0.171 Uiso 1 1 calc R . . . .
C00N C 0.9211(3) 1.0725(3) 0.6388(3) 0.0741(10) Uani 1 1 d . . . . .
H00N H 0.9446 1.1268 0.6177 0.089 Uiso 1 1 calc R . . . .
C00O C 0.5273(3) 0.7840(3) 0.4833(2) 0.0579(8) Uani 1 1 d . . . . .
C00P C 0.6562(3) 0.9121(3) 0.4980(2) 0.0601(8) Uani 1 1 d . . . . .
C01P C 0.6044(7) 0.3782(5) 0.8158(5) 0.139(3) Uani 1 1 d . . . . .
H01P H 0.6039 0.3078 0.7951 0.167 Uiso 1 1 calc R . . . .
C00Q C 0.5040(3) 0.8220(3) 0.4132(3) 0.0723(11) Uani 1 1 d . . . . .
H00Q H 0.4443 0.7977 0.3696 0.087 Uiso 1 1 calc R . . . .
C00R C 0.7795(3) 1.0578(3) 0.4783(3) 0.0627(8) Uani 1 1 d . . . . .
C00S C 0.1481(3) 0.4546(4) 0.3500(3) 0.0784(11) Uani 1 1 d . . . . .
H00S H 0.1695 0.3996 0.3683 0.094 Uiso 1 1 calc R . . . .
C00T C 0.6241(3) 0.5499(3) 0.7975(3) 0.0694(10) Uani 1 1 d . . . . .
C00U C 0.1735(4) 0.6373(4) 0.3566(3) 0.0771(11) Uani 1 1 d . . . . .
H00U H 0.2124 0.7051 0.3801 0.093 Uiso 1 1 calc R . . . .
C00V C 0.9296(3) 0.9134(3) 0.7793(3) 0.0704(10) Uani 1 1 d . . . . .
C00W C 0.7218(4) 1.1311(3) 0.4644(3) 0.0739(10) Uani 1 1 d . . . . .
H00W H 0.6648 1.1366 0.4869 0.089 Uiso 1 1 calc R . . . .
C00X C 0.8696(3) 0.8280(3) 0.7915(3) 0.0698(10) Uani 1 1 d . . . . .
C00Y C 0.7415(3) 0.6983(3) 0.7793(2) 0.0653(9) Uani 1 1 d . . . . .
C00Z C 0.2549(4) 0.3583(3) 0.5293(3) 0.0824(12) Uani 1 1 d . . . . .
H00Z H 0.3165 0.3394 0.5208 0.099 Uiso 1 1 calc R . . . .
N003 N 0.5821(2) 0.6848(2) 0.62651(19) 0.0586(7) Uani 1 1 d . . . . .
N004 N 0.8192(2) 0.9292(3) 0.6533(2) 0.0630(7) Uani 1 1 d . . . . .
N006 N 0.6201(2) 0.8398(2) 0.53491(18) 0.0571(6) Uani 1 1 d . . . . .
N008 N 0.7726(3) 0.7762(3) 0.7445(2) 0.0652(7) Uani 1 1 d . . . . .
O002 O 0.37320(19) 0.6573(2) 0.44369(16) 0.0623(6) Uani 1 1 d . . . . .
O005 O 1.0249(2) 0.9553(3) 0.8350(2) 0.0807(8) Uani 1 1 d . . . . .
loop_
_atom_site_aniso_label
_atom_site_aniso_U_11
_atom_site_aniso_U_22
_atom_site_aniso_U_33
_atom_site_aniso_U_23
_atom_site_aniso_U_13
_atom_site_aniso_U_12
Zn01 0.0584(3) 0.0612(3) 0.0654(3) 0.0268(2) 0.0167(2) 0.0066(2)
C1A 0.088(5) 0.130(6) 0.065(4) 0.025(4) 0.008(3) 0.029(4)
C2A 0.105(6) 0.169(8) 0.084(5) 0.019(5) 0.008(4) -0.010(5)
C3A 0.104(5) 0.159(7) 0.109(5) 0.011(5) 0.030(5) 0.000(5)
C4A 0.073(5) 0.128(6) 0.103(5) 0.009(5) 0.000(4) 0.026(4)
C5A 0.087(5) 0.133(6) 0.089(5) 0.001(4) 0.009(4) 0.025(4)
C6A 0.092(5) 0.141(7) 0.083(4) 0.008(5) 0.007(4) 0.027(4)
C1 0.082(7) 0.228(14) 0.210(14) -0.058(11) -0.014(9) 0.020(8)
C2 0.084(7) 0.238(14) 0.209(14) -0.050(11) -0.004(8) 0.021(8)
C3 0.082(6) 0.248(15) 0.219(14) -0.045(11) -0.010(8) 0.024(8)
C4 0.073(7) 0.246(15) 0.233(14) -0.052(11) -0.025(9) 0.017(8)
C5 0.089(7) 0.235(14) 0.236(14) -0.064(11) -0.032(9) 0.018(8)
C6 0.072(6) 0.219(14) 0.220(14) -0.061(11) -0.027(8) 0.018(8)
C7A 0.096(7) 0.162(8) 0.092(6) 0.077(6) 0.036(5) 0.054(6)
C8A 0.126(8) 0.184(9) 0.097(6) 0.080(6) 0.040(5) 0.065(7)
C9A 0.153(8) 0.193(9) 0.108(6) 0.096(6) 0.043(6) 0.065(7)
C10A 0.155(9) 0.200(9) 0.122(7) 0.099(7) 0.028(6) 0.072(7)
C11A 0.139(8) 0.189(9) 0.130(7) 0.085(7) 0.029(6) 0.081(7)
C12A 0.117(7) 0.178(9) 0.118(7) 0.077(6) 0.030(5) 0.072(7)
C7 0.148(10) 0.216(11) 0.098(6) 0.023(7) 0.010(6) 0.083(9)
C8 0.129(10) 0.214(11) 0.074(6) 0.001(7) 0.004(7) 0.071(9)
C9 0.150(11) 0.229(11) 0.082(6) 0.011(6) 0.003(6) 0.068(9)
C10 0.161(11) 0.235(12) 0.087(6) 0.029(7) 0.012(7) 0.065(10)
C11 0.176(11) 0.242(12) 0.107(7) 0.035(8) 0.012(8) 0.068(10)
C12 0.168(11) 0.229(11) 0.109(7) 0.033(7) 0.012(7) 0.075(10)
O1 0.102(2) 0.0822(19) 0.094(2) 0.0313(16) 0.0445(18) 0.0339(17)
C13S 0.175(5) 0.092(3) 0.163(5) 0.025(4) 0.076(4) 0.037(3)
C14S 0.115(4) 0.136(4) 0.151(5) 0.015(4) 0.058(4) 0.039(3)
C15S 0.156(5) 0.133(4) 0.139(5) 0.040(4) 0.073(4) 0.064(4)
C16S 0.177(5) 0.110(4) 0.155(5) 0.026(4) 0.073(5) 0.066(4)
C009 0.062(2) 0.0610(19) 0.0584(18) 0.0251(15) 0.0186(15) 0.0108(16)
C010 0.078(3) 0.078(3) 0.074(2) 0.043(2) 0.021(2) 0.004(2)
C011 0.096(3) 0.070(3) 0.107(4) 0.044(2) 0.033(3) 0.022(2)
C012 0.069(2) 0.091(3) 0.069(2) 0.027(2) 0.0123(19) 0.014(2)
C013 0.065(2) 0.074(3) 0.091(3) 0.021(2) 0.012(2) -0.005(2)
C014 0.080(3) 0.102(4) 0.081(3) -0.001(3) 0.012(2) -0.004(3)
C015 0.068(2) 0.093(3) 0.105(3) 0.042(3) 0.036(2) 0.013(2)
C016 0.112(4) 0.081(3) 0.103(3) 0.050(3) 0.049(3) 0.013(3)
C017 0.071(2) 0.085(3) 0.067(2) 0.035(2) 0.0148(19) 0.013(2)
C018 0.081(3) 0.071(2) 0.106(3) 0.040(2) 0.046(2) 0.022(2)
C019 0.079(3) 0.120(4) 0.079(3) 0.039(3) 0.012(2) 0.024(3)
C00A 0.0577(19) 0.061(2) 0.070(2) 0.0237(16) 0.0232(16) 0.0081(16)
C01A 0.117(4) 0.063(3) 0.155(5) 0.043(3) 0.061(4) 0.012(3)
C00B 0.065(2) 0.067(2) 0.0622(19) 0.0301(16) 0.0227(16) 0.0135(17)
C01B 0.095(4) 0.089(3) 0.139(5) 0.045(3) 0.056(4) -0.002(3)
C00C 0.062(2) 0.059(2) 0.071(2) 0.0243(16) 0.0208(17) 0.0045(16)
C01C 0.072(3) 0.140(5) 0.074(3) 0.022(3) 0.005(2) 0.008(3)
C00D 0.069(2) 0.064(2) 0.066(2) 0.0332(17) 0.0243(17) 0.0086(17)
C01D 0.108(4) 0.094(3) 0.131(5) 0.050(3) 0.074(4) 0.021(3)
C00E 0.0576(19) 0.0553(18) 0.067(2) 0.0259(15) 0.0222(16) 0.0089(15)
C01E 0.082(3) 0.125(4) 0.075(3) 0.029(3) 0.013(2) 0.023(3)
C00F 0.0596(19) 0.0559(18) 0.066(2) 0.0184(15) 0.0226(16) 0.0081(15)
C01F 0.084(3) 0.130(5) 0.077(3) 0.024(3) 0.014(2) 0.020(3)
C00G 0.058(2) 0.084(3) 0.062(2) 0.0234(18) 0.0208(16) 0.0110(18)
C01G 0.175(6) 0.083(3) 0.100(4) 0.048(3) 0.063(4) 0.040(4)
C00H 0.059(2) 0.068(2) 0.068(2) 0.0251(17) 0.0228(16) 0.0106(17)
C00I 0.065(2) 0.071(2) 0.084(3) 0.0300(19) 0.0286(19) 0.0171(18)
C00J 0.0508(17) 0.064(2) 0.0635(19) 0.0287(15) 0.0182(15) 0.0091(15)
C01J 0.167(7) 0.130(6) 0.113(5) 0.085(5) 0.031(5) 0.003(5)
C00K 0.059(2) 0.068(2) 0.069(2) 0.0193(17) 0.0139(17) 0.0022(17)
C01K 0.166(6) 0.104(4) 0.092(4) 0.040(3) 0.064(4) 0.027(4)
C00L 0.0573(19) 0.0585(19) 0.0660(19) 0.0301(15) 0.0218(16) 0.0090(15)
C00M 0.061(2) 0.059(2) 0.072(2) 0.0277(16) 0.0235(17) 0.0122(16)
C01M 0.205(9) 0.150(7) 0.096(4) 0.058(4) 0.071(5) 0.021(6)
C00N 0.068(2) 0.064(2) 0.088(3) 0.0287(19) 0.018(2) -0.0044(18)
C00O 0.0560(18) 0.063(2) 0.0633(19) 0.0304(15) 0.0204(15) 0.0096(15)
C00P 0.0598(19) 0.062(2) 0.065(2) 0.0278(16) 0.0191(16) 0.0123(16)
C01P 0.223(9) 0.092(4) 0.133(6) 0.071(4) 0.064(6) 0.039(5)
C00Q 0.066(2) 0.077(2) 0.076(2) 0.041(2) 0.0094(18) -0.0012(19)
C00R 0.061(2) 0.0568(19) 0.075(2) 0.0256(16) 0.0237(17) 0.0056(16)
C00S 0.070(2) 0.083(3) 0.075(2) 0.012(2) 0.019(2) 0.011(2)
C00T 0.068(2) 0.081(3) 0.065(2) 0.0379(19) 0.0137(17) 0.0088(19)
C00U 0.072(2) 0.090(3) 0.074(2) 0.035(2) 0.018(2) 0.013(2)
C00V 0.061(2) 0.077(2) 0.068(2) 0.0215(18) 0.0110(17) 0.0024(18)
C00W 0.077(3) 0.066(2) 0.094(3) 0.034(2) 0.038(2) 0.021(2)
C00X 0.062(2) 0.077(2) 0.072(2) 0.0255(19) 0.0157(18) 0.0106(18)
C00Y 0.064(2) 0.074(2) 0.063(2) 0.0306(17) 0.0150(16) 0.0154(18)
C00Z 0.079(3) 0.061(2) 0.119(4) 0.031(2) 0.045(3) 0.014(2)
N003 0.0624(17) 0.0561(16) 0.0614(16) 0.0269(13) 0.0175(13) 0.0051(13)
N004 0.0548(16) 0.0661(18) 0.0687(18) 0.0271(14) 0.0144(13) 0.0029(13)
N006 0.0567(16) 0.0556(15) 0.0631(16) 0.0243(12) 0.0182(13) 0.0078(12)
N008 0.0626(18) 0.0685(18) 0.0664(17) 0.0258(14) 0.0157(14) 0.0091(14)
O002 0.0544(13) 0.0694(15) 0.0656(14) 0.0317(12) 0.0139(11) 0.0010(11)
O005 0.0661(17) 0.087(2) 0.0774(18) 0.0270(15) 0.0017(14) -0.0028(14)
loop_
_atom_type_symbol
_atom_type_description
_atom_type_scat_dispersion_real
_atom_type_scat_dispersion_imag
_atom_type_scat_source
C C 0.0181 0.0091 'International Tables Vol C Tables 4.2.6.8 and 6.1.1.4'
H H 0.0000 0.0000 'International Tables Vol C Tables 4.2.6.8 and 6.1.1.4'
N N 0.0311 0.0180 'International Tables Vol C Tables 4.2.6.8 and 6.1.1.4'
O O 0.0492 0.0322 'International Tables Vol C Tables 4.2.6.8 and 6.1.1.4'
Zn Zn -1.5491 0.6778 'International Tables Vol C Tables 4.2.6.8 and 6.1.1.4'
loop_
_geom_angle_atom_site_label_1
_geom_angle_atom_site_label_2
_geom_angle_atom_site_label_3
_geom_angle
N003 Zn01 O1 97.08(13)
N003 Zn01 N004 166.29(13)
N003 Zn01 N006 90.84(12)
N004 Zn01 O1 96.56(14)
N004 Zn01 N006 88.94(12)
N006 Zn01 O1 96.99(12)
N008 Zn01 O1 94.12(13)
N008 Zn01 N003 86.35(12)
N008 Zn01 N004 91.24(13)
N008 Zn01 N006 168.79(13)
C2A C1A C6A 120.0
C2A C1A C01F 120.4(5)
C6A C1A C01F 119.5(5)
C1A C2A H2A 120.0
C3A C2A C1A 120.0
C3A C2A H2A 120.0
C2A C3A H3A 120.0
C2A C3A C4A 120.0
C4A C3A H3A 120.0
C3A C4A H4A 120.0
C3A C4A C5A 120.0
C5A C4A H4A 120.0
C4A C5A H5A 120.0
C4A C5A C6A 120.0
C6A C5A H5A 120.0
C1A C6A H6A 120.0
C5A C6A C1A 120.0
C5A C6A H6A 120.0
C2 C1 C6 120.0
C2 C1 C01F 127.8(10)
C6 C1 C01F 111.7(10)
C1 C2 H2 120.0
C3 C2 C1 120.0
C3 C2 H2 120.0
C2 C3 H3 120.0
C2 C3 C4 120.0
C4 C3 H3 120.0
C3 C4 H4 120.0
C5 C4 C3 120.0
C5 C4 H4 120.0
C4 C5 H5 120.0
C6 C5 C4 120.0
C6 C5 H5 120.0
C1 C6 H6 120.0
C5 C6 C1 120.0
C5 C6 H6 120.0
C8A C7A C12A 120.0
C8A C7A C01E 120.7(5)
C12A C7A C01E 119.2(5)
C7A C8A H8A 120.0
C7A C8A C9A 120.0
C9A C8A H8A 120.0
C8A C9A H9A 120.0
C10A C9A C8A 120.0
C10A C9A H9A 120.0
C9A C10A H10A 120.0
C11A C10A C9A 120.0
C11A C10A H10A 120.0
C10A C11A H11A 120.0
C10A C11A C12A 120.0
C12A C11A H11A 120.0
C7A C12A H12A 120.0
C11A C12A C7A 120.0
C11A C12A H12A 120.0
C8 C7 H7 120.0
C8 C7 C12 120.0
C12 C7 H7 120.0
C7 C8 C9 120.0
C7 C8 C01E 120.7(8)
C9 C8 C01E 119.3(8)
C8 C9 H9 120.0
C10 C9 C8 120.0
C10 C9 H9 120.0
C9 C10 H10 120.0
C11 C10 C9 120.0
C11 C10 H10 120.0
C10 C11 H11 120.0
C10 C11 C12 120.0
C12 C11 H11 120.0
C7 C12 H12 120.0
C11 C12 C7 120.0
C11 C12 H12 120.0
C13S O1 Zn01 125.4(4)
C13S O1 C14S 106.6(5)
C14S O1 Zn01 120.3(3)
O1 C13S H13A 110.1
O1 C13S H13B 110.1
O1 C13S C16S 108.1(6)
H13A C13S H13B 108.4
C16S C13S H13A 110.1
C16S C13S H13B 110.1
O1 C14S H14A 110.2
O1 C14S H14B 110.2
O1 C14S C15S 107.6(6)
H14A C14S H14B 108.5
C15S C14S H14A 110.2
C15S C14S H14B 110.2
C14S C15S H15A 110.6
C14S C15S H15B 110.6
H15A C15S H15B 108.8
C16S C15S C14S 105.5(6)
C16S C15S H15A 110.6
C16S C15S H15B 110.6
C13S C16S H16A 110.7
C13S C16S H16B 110.7
C15S C16S C13S 105.0(6)
C15S C16S H16A 110.7
C15S C16S H16B 110.7
H16A C16S H16B 108.8
C00B C009 C00D 126.3(3)
N003 C009 C00B 124.3(3)
N003 C009 C00D 109.5(3)
C00P C010 H010 119.7
C00Q C010 H010 132.3
C00Q C010 C00P 107.4(3)
C016 C011 H011 119.6
C016 C011 C00W 120.9(4)
C00W C011 H011 119.6
C017 C012 C01E 137.8(5)
C017 C012 C00X 106.9(4)
C00X C012 C01E 115.3(4)
C00K C013 H013 126.4
C00N C013 H013 126.4
C00N C013 C00K 107.2(4)
C01C C014 H014 119.8
C01C C014 C00S 120.4(5)
C00S C014 H014 119.8
C01B C015 H015 120.1
C01B C015 C00I 119.9(5)
C00I C015 H015 120.1
C011 C016 H016 120.4
C011 C016 C01D 119.1(4)
C01D C016 H016 120.4
C012 C017 H017 126.3
C012 C017 C00Y 107.4(4)
C00Y C017 H017 126.3
C01D C018 H018 119.9
C01D C018 C00R 120.3(4)
C00R C018 H018 119.9
C01C C019 H019 120.0
C01C C019 C00U 119.9(5)
C00U C019 H019 120.0
C00I C00A C00F 120.7(3)
C00Z C00A C00F 120.5(4)
C00Z C00A C00I 118.8(4)
C01B C01A H01A 119.9
C00Z C01A H01A 119.9
C00Z C01A C01B 120.3(5)
C009 C00B C00T 118.6(3)
C00Y C00B C009 123.8(3)
C00Y C00B C00T 117.6(3)
C015 C01B C01A 119.9(4)
C015 C01B H01B 120.1
C01A C01B H01B 120.1
C00M C00C C00N 126.3(4)
N004 C00C C00M 125.1(3)
N004 C00C C00N 108.6(3)
C014 C01C H01C 119.7
C019 C01C C014 120.6(5)
C019 C01C H01C 119.7
C009 C00D H00D 126.2
C00E C00D C009 107.5(3)
C00E C00D H00D 126.2
C016 C01D C018 120.5(5)
C016 C01D H01D 119.7
C018 C01D H01D 119.7
C00D C00E C00F 135.8(3)
C00D C00E C00L 105.7(3)
C00L C00E C00F 118.4(3)
C012 C01E C7A 118.1(6)
C012 C01E C8 115.7(7)
C01F C01E C7A 123.1(6)
C01F C01E C8 125.5(7)
C01F C01E C012 118.7(5)
C00E C00F C00A 119.7(3)
C00H C00F C00A 122.6(4)
C00H C00F C00E 117.5(3)
C01E C01F C1A 129.4(5)
C01E C01F C1 121.5(11)
O005 C01F C1A 107.0(5)
O005 C01F C1 114.7(11)
O005 C01F C01E 123.5(5)
C00S C00G C00H 120.9(4)
C00S C00G C00U 120.5(4)
C00U C00G C00H 118.6(4)
C01P C01G H01G 119.8
C00T C01G H01G 119.8
C00T C01G C01P 120.5(6)
C00F C00H C00G 128.3(4)
C00F C00H O002 122.4(3)
O002 C00H C00G 109.2(3)
C015 C00I C00A 121.1(4)
C015 C00I H00I 119.4
C00A C00I H00I 119.4
C00L C00J C00O 128.2(3)
O002 C00J C00L 117.8(3)
O002 C00J C00O 113.9(3)
C01M C01J H01J 120.2
C01M C01J C01P 119.6(5)
C01P C01J H01J 120.2
C00V C00K C013 126.2(4)
N004 C00K C013 110.4(4)
N004 C00K C00V 123.4(4)
C01M C01K H01K 119.6
C00T C01K H01K 119.6
C00T C01K C01M 120.8(6)
C00J C00L C00E 121.4(3)
N003 C00L C00E 111.6(3)
N003 C00L C00J 127.0(3)
C00C C00M C00P 125.1(3)
C00C C00M C00R 117.3(3)
C00P C00M C00R 117.5(3)
C01J C01M C01K 120.7(7)
C01J C01M H01M 119.6
C01K C01M H01M 119.6
C013 C00N C00C 107.3(4)
C013 C00N H00N 126.3
C00C C00N H00N 126.3
C00Q C00O C00J 127.4(4)
N006 C00O C00J 122.5(3)
N006 C00O C00Q 110.1(3)
C00M C00P C010 125.2(3)
N006 C00P C010 109.1(3)
N006 C00P C00M 125.6(3)
C01G C01P H01P 119.5
C01J C01P C01G 121.0(7)
C01J C01P H01P 119.5
C010 C00Q C00O 107.1(4)
C010 C00Q H00Q 126.5
C00O C00Q H00Q 126.5
C018 C00R C00M 119.7(4)
C00W C00R C018 118.6(4)
C00W C00R C00M 121.7(4)
C014 C00S H00S 120.5
C00G C00S C014 119.0(5)
C00G C00S H00S 120.5
C01G C00T C00B 121.9(4)
C01G C00T C01K 117.3(4)
C01K C00T C00B 120.7(4)
C019 C00U H00U 120.2
C00G C00U C019 119.5(5)
C00G C00U H00U 120.2
C00X C00V C00K 128.5(4)
O005 C00V C00K 114.9(4)
O005 C00V C00X 116.6(4)
C011 C00W C00R 120.6(4)
C011 C00W H00W 119.7
C00R C00W H00W 119.7
C00V C00X C012 123.8(4)
N008 C00X C012 110.2(4)
N008 C00X C00V 125.9(4)
C00B C00Y C017 125.8(4)
N008 C00Y C017 109.0(4)
N008 C00Y C00B 125.2(3)
C00A C00Z C01A 120.0(4)
C00A C00Z H00Z 120.0
C01A C00Z H00Z 120.0
C009 N003 Zn01 129.5(2)
C00L N003 Zn01 123.5(2)
C00L N003 C009 105.8(3)
C00C N004 Zn01 127.1(3)
C00K N004 Zn01 125.5(3)
C00K N004 C00C 106.5(3)
C00O N006 Zn01 126.7(2)
C00O N006 C00P 106.2(3)
C00P N006 Zn01 127.0(2)
C00X N008 Zn01 124.1(3)
C00X N008 C00Y 106.4(3)
C00Y N008 Zn01 129.3(3)
C00J O002 C00H 122.2(3)
C01F O005 C00V 121.9(4)
loop_
_geom_bond_atom_site_label_1
_geom_bond_atom_site_label_2
_geom_bond_distance
Zn01 O1 2.191(3)
Zn01 N003 2.054(3)
Zn01 N004 2.056(3)
Zn01 N006 2.068(3)
Zn01 N008 2.048(3)
C1A C2A 1.3900
C1A C6A 1.3900
C1A C01F 1.484(8)
C2A H2A 0.9300
C2A C3A 1.3900
C3A H3A 0.9300
C3A C4A 1.3900
C4A H4A 0.9300
C4A C5A 1.3900
C5A H5A 0.9300
C5A C6A 1.3900
C6A H6A 0.9300
C1 C2 1.3900
C1 C6 1.3900
C1 C01F 1.489(11)
C2 H2 0.9300
C2 C3 1.3900
C3 H3 0.9300
C3 C4 1.3900
C4 H4 0.9300
C4 C5 1.3900
C5 H5 0.9300
C5 C6 1.3900
C6 H6 0.9300
C7A C8A 1.3900
C7A C12A 1.3900
C7A C01E 1.444(7)
C8A H8A 0.9300
C8A C9A 1.3900
C9A H9A 0.9300
C9A C10A 1.3900
C10A H10A 0.9300
C10A C11A 1.3900
C11A H11A 0.9300
C11A C12A 1.3900
C12A H12A 0.9300
C7 H7 0.9300
C7 C8 1.3900
C7 C12 1.3900
C8 C9 1.3900
C8 C01E 1.599(11)
C9 H9 0.9300
C9 C10 1.3900
C10 H10 0.9300
C10 C11 1.3900
C11 H11 0.9300
C11 C12 1.3900
C12 H12 0.9300
O1 C13S 1.379(7)
O1 C14S 1.407(8)
C13S H13A 0.9700
C13S H13B 0.9700
C13S C16S 1.480(9)
C14S H14A 0.9700
C14S H14B 0.9700
C14S C15S 1.489(8)
C15S H15A 0.9700
C15S H15B 0.9700
C15S C16S 1.448(9)
C16S H16A 0.9700
C16S H16B 0.9700
C009 C00B 1.411(5)
C009 C00D 1.426(5)
C009 N003 1.377(4)
C010 H010 0.8397
C010 C00P 1.424(6)
C010 C00Q 1.336(6)
C011 H011 0.9300
C011 C016 1.362(7)
C011 C00W 1.375(6)
C012 C017 1.349(6)
C012 C01E 1.426(7)
C012 C00X 1.425(6)
C013 H013 0.9300
C013 C00K 1.413(6)
C013 C00N 1.342(6)
C014 H014 0.9300
C014 C01C 1.383(9)
C014 C00S 1.393(7)
C015 H015 0.9300
C015 C01B 1.361(7)
C015 C00I 1.371(6)
C016 H016 0.9300
C016 C01D 1.372(8)
C017 H017 0.9300
C017 C00Y 1.436(5)
C018 H018 0.9300
C018 C01D 1.381(6)
C018 C00R 1.381(6)
C019 H019 0.9300
C019 C01C 1.358(8)
C019 C00U 1.396(6)
C00A C00F 1.480(5)
C00A C00I 1.386(5)
C00A C00Z 1.376(6)
C01A H01A 0.9300
C01A C01B 1.386(8)
C01A C00Z 1.378(7)
C00B C00T 1.481(5)
C00B C00Y 1.408(6)
C01B H01B 0.9300
C00C C00M 1.403(5)
C00C C00N 1.437(6)
C00C N004 1.374(5)
C01C H01C 0.9300
C00D H00D 0.9300
C00D C00E 1.366(5)
C01D H01D 0.9300
C00E C00F 1.452(5)
C00E C00L 1.420(5)
C01E C01F 1.373(8)
C00F C00H 1.354(5)
C01F O005 1.325(7)
C00G C00H 1.490(6)
C00G C00S 1.375(6)
C00G C00U 1.395(6)
C01G H01G 0.9300
C01G C01P 1.392(7)
C01G C00T 1.359(7)
C00H O002 1.378(4)
C00I H00I 0.9300
C00J C00L 1.385(5)
C00J C00O 1.412(5)
C00J O002 1.372(4)
C01J H01J 0.9300
C01J C01M 1.325(11)
C01J C01P 1.336(11)
C00K C00V 1.402(6)
C00K N004 1.356(5)
C01K H01K 0.9300
C01K C01M 1.390(8)
C01K C00T 1.374(7)
C00L N003 1.355(5)
C00M C00P 1.420(5)
C00M C00R 1.502(5)
C01M H01M 0.9300
C00N H00N 0.9300
C00O C00Q 1.410(5)
C00O N006 1.359(5)
C00P N006 1.363(4)
C01P H01P 0.9300
C00Q H00Q 0.9300
C00R C00W 1.376(6)
C00S H00S 0.9300
C00U H00U 0.9300
C00V C00X 1.384(6)
C00V O005 1.374(5)
C00W H00W 0.9300
C00X N008 1.363(5)
C00Y N008 1.375(5)
C00Z H00Z 0.9300
loop_
_platon_squeeze_void_nr
_platon_squeeze_void_average_x
_platon_squeeze_void_average_y
_platon_squeeze_void_average_z
_platon_squeeze_void_volume
_platon_squeeze_void_count_electrons
_platon_squeeze_void_content
1 0.293 0.451 0.813 273 61 ' '
2 0.707 0.549 0.187 272 61 ' '
loop_
_platon_missing_refln_index_h
_platon_missing_refln_index_k
_platon_missing_refln_index_l
_platon_missing_refln_theta
1 0 0 3.448
0 1 0 3.452
0 -1 1 3.775
1 -1 1 5.092
-1 0 1 3.824
0 0 1 2.734
0 1 1 4.958
-1 0 2 5.689
