#------------------------------------------------------------------------------
#$Date: 2019-07-14 02:38:31 +0300 (Sun, 14 Jul 2019) $
#$Revision: 217017 $
#$URL: file:///home/coder/svn-repositories/cod/cif/1/55/21/1552107.cif $
#------------------------------------------------------------------------------
#
# This file is available in the Crystallography Open Database (COD),
# http://www.crystallography.net/
#
# All data on this site have been placed in the public domain by the
# contributors.
#
data_1552107
loop_
_publ_author_name
'Ge, Yuansheng'
'Cheng, Guoe'
'Xu, Nanfeng'
'Wang, Weizhou'
'Ke, Hanzhong'
_publ_section_title
;
 Zinc 2-N-Methyl N-confused porphyrin: An Efficient Catalyst for the
 Conversion of CO2 into Cyclic Carbonates
;
_journal_name_full               'Catalysis Science &amp; Technology'
_journal_paper_doi               10.1039/C9CY00739C
_journal_year                    2019
_chemical_formula_moiety         'C45 H31 Cl N4 Zn'
_chemical_formula_sum            'C45 H31 Cl N4 Zn'
_chemical_formula_weight         728.56
_space_group_crystal_system      monoclinic
_space_group_IT_number           15
_space_group_name_Hall           '-I 2ya'
_space_group_name_H-M_alt        'I 1 2/a 1'
_symmetry_space_group_name_Hall  '-I 2ya'
_symmetry_space_group_name_H-M   'I 1 2/a 1'
_atom_sites_solution_hydrogens   geom
_atom_sites_solution_primary     dual
_audit_creation_date             2018-10-16
_audit_creation_method
;
Olex2 1.2
(compiled 2018.05.29 svn.r3508 for OlexSys, GUI svn.r5506)
;
_audit_update_record
;
2019-03-11 deposited with the CCDC.    2019-07-12 downloaded from the CCDC.
;
_cell_angle_alpha                90
_cell_angle_beta                 106.951(6)
_cell_angle_gamma                90
_cell_formula_units_Z            8
_cell_length_a                   18.7682(11)
_cell_length_b                   13.7292(6)
_cell_length_c                   31.4518(16)
_cell_measurement_reflns_used    7141
_cell_measurement_temperature    291
_cell_measurement_theta_max      21.7480
_cell_measurement_theta_min      3.7970
_cell_volume                     7752.2(7)
_computing_cell_refinement       'CrysAlisPro 1.171.39.46 (Rigaku OD, 2018)'
_computing_data_collection       'CrysAlisPro 1.171.39.46 (Rigaku OD, 2018)'
_computing_data_reduction        'CrysAlisPro 1.171.39.46 (Rigaku OD, 2018)'
_computing_molecular_graphics    'Olex2 (Dolomanov et al., 2009)'
_computing_publication_material  'Olex2 (Dolomanov et al., 2009)'
_computing_structure_refinement  'ShelXL (Sheldrick, 2015)'
_computing_structure_solution    'ShelXT (Sheldrick, 2015)'
_diffrn_ambient_temperature      291
_diffrn_detector                 'CCD plate'
_diffrn_detector_area_resol_mean 8.0584
_diffrn_detector_type            EosS2
_diffrn_measured_fraction_theta_full 0.997
_diffrn_measured_fraction_theta_max 0.868
_diffrn_measurement_details
;
List of Runs (angles in degrees, time in seconds):

  # Type    Start    End  Width  t~exp~   \w     \q     \k     \f   Frames
#--------------------------------------------------------------------------
  1  \w    -29.00  51.00   1.00   20.00    --  -13.80  57.00-150.00   80
  2  \w    -17.00  25.00   1.00   20.00    --  -13.80 -99.00 120.00   42
  3  \w    -52.00  42.00   1.00   20.00    --   14.82 -77.00 -30.00   94
  4  \w     15.00  65.00   1.00   20.00    --   14.82  57.00 -90.00   50
  5  \w    -12.00  82.00   1.00   20.00    --   14.82  77.00  90.00   94
;
_diffrn_measurement_device       'four-circle diffractometer'
_diffrn_measurement_device_type
'SuperNova, Single source at offset/far, EosS2'
_diffrn_measurement_method       '\w scans'
_diffrn_orient_matrix_type
'CrysAlisPro convention (1999,Acta A55,543-557)'
_diffrn_orient_matrix_UB_11      -0.0007335000
_diffrn_orient_matrix_UB_12      0.0361423000
_diffrn_orient_matrix_UB_13      -0.0162522000
_diffrn_orient_matrix_UB_21      -0.0371532000
_diffrn_orient_matrix_UB_22      0.0118668000
_diffrn_orient_matrix_UB_23      -0.0008685000
_diffrn_orient_matrix_UB_31      0.0133542000
_diffrn_orient_matrix_UB_32      0.0350061000
_diffrn_orient_matrix_UB_33      0.0170624000
_diffrn_radiation_monochromator  mirror
_diffrn_radiation_probe          x-ray
_diffrn_radiation_type           MoK\a
_diffrn_radiation_wavelength     0.71073
_diffrn_reflns_av_R_equivalents  0.0835
_diffrn_reflns_av_unetI/netI     0.1178
_diffrn_reflns_Laue_measured_fraction_full 0.997
_diffrn_reflns_Laue_measured_fraction_max 0.868
_diffrn_reflns_limit_h_max       24
_diffrn_reflns_limit_h_min       -21
_diffrn_reflns_limit_k_max       17
_diffrn_reflns_limit_k_min       -17
_diffrn_reflns_limit_l_max       38
_diffrn_reflns_limit_l_min       -42
_diffrn_reflns_number            29454
_diffrn_reflns_point_group_measured_fraction_full 0.997
_diffrn_reflns_point_group_measured_fraction_max 0.868
_diffrn_reflns_theta_full        25.242
_diffrn_reflns_theta_max         28.431
_diffrn_reflns_theta_min         3.262
_diffrn_source                   'micro-focus sealed X-ray tube'
_diffrn_source_type              'SuperNova (Mo) X-ray Source'
_exptl_absorpt_coefficient_mu    0.738
_exptl_absorpt_correction_T_max  1.00000
_exptl_absorpt_correction_T_min  0.41323
_exptl_absorpt_correction_type   multi-scan
_exptl_absorpt_process_details
;
CrysAlisPro 1.171.39.46 (Rigaku Oxford Diffraction, 2018)
Empirical absorption correction using spherical harmonics,
 implemented in SCALE3 ABSPACK scaling algorithm.
;
_exptl_crystal_colour            'dark black'
_exptl_crystal_colour_modifier   dark
_exptl_crystal_colour_primary    black
_exptl_crystal_density_diffrn    1.248
_exptl_crystal_description       block
_exptl_crystal_F_000             3008
_exptl_crystal_size_max          0.29
_exptl_crystal_size_mid          0.28
_exptl_crystal_size_min          0.27
_platon_squeeze_details
;
TITL wwz181015-2_a.res in I2/a
CELL   18.7682   13.7292   31.4518     90.00    106.95     90.00
SPGR I2/a
# Solvent Accessible Volume =      1132
# Note: Atoms in Void as Cxxx and Qxxx all others
C101 0.633 0.637 0.017 !       2.42 eA-3
C102 0.975 0.940 0.494 !       1.96 eA-3
C103 0.025 0.060 0.506 !       1.96 eA-3
C104 0.595 0.574 0.017 !       1.94 eA-3
Q105 0.527 0.155 0.195 !       1.23 eA-3
C106 0.534 0.542 0.048 !       1.14 eA-3
Q107 0.021 0.123 0.415 !       1.02 eA-3
C108 0.441 0.339 0.026 !       0.99 eA-3
C109 0.962 0.513 0.038 !       0.94 eA-3
C110 0.585 0.881 0.468 !       0.94 eA-3
C111 0.088 0.543 0.006 !       0.94 eA-3
C112 0.961 0.401 0.021 !       0.93 eA-3
C113 0.512 0.375 0.001 !       0.92 eA-3
C114 0.169 0.326 0.036 !       0.91 eA-3
Q115 0.503 0.817 0.478 !       0.89 eA-3
C116 0.320 0.321 0.007 !       0.88 eA-3
C117 0.140 0.269 0.017 !       0.86 eA-3
Q118 0.597 0.452 0.050 !       0.86 eA-3
C119 0.021 0.516 0.038 !       0.86 eA-3
Q120 0.463 0.380 0.219 !       0.85 eA-3
Q121 0.643 0.811 0.240 !       0.84 eA-3
Q122 0.561 0.405 0.039 !       0.82 eA-3
Q123 0.472 0.453 0.275 !       0.81 eA-3
C124 0.516 0.604 0.029 !       0.81 eA-3
Q125 0.249 0.640 0.360 !       0.80 eA-3
Q126 0.025 0.531 0.076 !       0.79 eA-3
Q127 0.570 0.877 0.211 !       0.77 eA-3
Q128 0.549 0.438 0.054 !       0.77 eA-3
Q129 0.126 0.327 0.057 !       0.77 eA-3
C130 0.215 0.358 0.032 !       0.76 eA-3
C131 0.437 0.527 0.022 !       0.75 eA-3
Q132 0.498 0.371 0.041 !       0.75 eA-3
C133 0.098 0.452 0.071 !       0.74 eA-3
C134 0.627 0.762 0.495 !       0.74 eA-3
Q135 0.629 0.501 0.093 !       0.73 eA-3
Q136 0.787 0.878 0.321 !       0.73 eA-3
Q137 0.281 0.299 0.148 !       0.72 eA-3
Q138 0.622 0.842 0.202 !       0.71 eA-3
C139 0.156 0.277 0.046 !       0.71 eA-3
C140 0.810 0.765 0.493 !       0.71 eA-3
Q141 0.378 0.407 0.039 !       0.71 eA-3
Q142 0.647 0.872 0.266 !       0.70 eA-3
Q143 0.600 0.702 0.202 !       0.70 eA-3
Q144 0.075 0.388 0.086 !       0.70 eA-3
Q145 0.258 0.263 0.452 !       0.69 eA-3
Q146 0.688 0.392 0.256 !       0.69 eA-3
Q147 0.671 0.862 0.243 !       0.69 eA-3
Q148 0.950 0.329 0.258 !       0.68 eA-3
Q149 0.873 0.552 0.267 !       0.68 eA-3
Q150 0.672 0.517 0.030 !       0.68 eA-3
Q151 0.949 0.216 0.429 !       0.68 eA-3
Q152 0.596 0.970 0.068 !       0.68 eA-3
C153 0.443 0.402 0.048 !       0.67 eA-3
Q154 0.647 0.719 0.189 !       0.67 eA-3
Q155 0.093 0.568 0.083 !       0.67 eA-3
Q156 0.048 0.418 0.268 !       0.66 eA-3
C157 0.686 0.785 0.046 !       0.66 eA-3
Q158 0.339 0.619 0.163 !       0.66 eA-3
Q159 0.007 0.576 0.104 !       0.66 eA-3
C160 0.440 0.909 0.491 !       0.66 eA-3
C161 0.752 0.729 0.023 !       0.65 eA-3
Q162 0.096 0.094 0.180 !       0.65 eA-3
Q163 0.280 0.322 0.299 !       0.65 eA-3
Q164 0.797 0.019 0.303 !       0.64 eA-3
Q165 0.202 0.734 0.250 !       0.64 eA-3
Q166 0.706 0.905 0.209 !       0.64 eA-3
Q167 0.561 0.596 0.070 !       0.64 eA-3
Q168 0.638 0.761 0.210 !       0.63 eA-3
Q169 0.785 0.408 0.367 !       0.63 eA-3
Q170 0.982 0.890 0.429 !       0.63 eA-3
C171 0.333 0.316 0.477 !       0.63 eA-3
Q172 0.230 0.436 0.204 !       0.63 eA-3
Q173 0.512 0.172 0.475 !       0.63 eA-3
Q174 0.537 0.609 0.103 !       0.62 eA-3
C175 0.445 0.299-0.001 !       0.62 eA-3
C176 0.588 0.424 0.022 !       0.62 eA-3
Q177 0.990 0.680 0.243 !       0.62 eA-3
Q178 0.095 0.231 0.194 !       0.61 eA-3
Q179 0.514 0.326 0.282 !       0.61 eA-3
Q180 0.073 0.792 0.220 !       0.61 eA-3
Q181 0.514 0.656 0.208 !       0.61 eA-3
Q182 0.498 0.031 0.273 !       0.60 eA-3
Q183 0.095 0.360 0.071 !       0.60 eA-3
Q184 0.311 0.641 0.127 !       0.60 eA-3
Q185 0.750 0.844 0.000 !       0.60 eA-3
Q186 0.405 0.314 0.280 !       0.59 eA-3
Q187 0.033 0.219 0.235 !       0.59 eA-3
Q188 0.422 0.515 0.063 !       0.59 eA-3
Q189 0.798 0.624 0.225 !       0.59 eA-3
Q190 0.327 0.356 0.172 !       0.59 eA-3
Q191 0.214 0.357 0.080 !       0.59 eA-3
Q192 0.267 0.469 0.326 !       0.58 eA-3
Q193 0.382 0.547 0.039 !       0.58 eA-3
Q194 0.512 0.222 0.244 !       0.58 eA-3
Q195 0.224 0.264 0.072 !       0.58 eA-3
Q196 0.295 0.299 0.196 !       0.58 eA-3
Q197 0.711 0.702 0.463 !       0.58 eA-3
Q198 0.673 0.811 0.195 !       0.58 eA-3
Q199 0.729 0.455 0.248 !       0.58 eA-3
;
_refine_diff_density_max         1.068
_refine_diff_density_min         -0.490
_refine_diff_density_rms         0.085
_refine_ls_extinction_method     none
_refine_ls_goodness_of_fit_ref   1.054
_refine_ls_hydrogen_treatment    constr
_refine_ls_matrix_type           full
_refine_ls_number_parameters     461
_refine_ls_number_reflns         8465
_refine_ls_number_restraints     0
_refine_ls_restrained_S_all      1.054
_refine_ls_R_factor_all          0.1416
_refine_ls_R_factor_gt           0.0811
_refine_ls_shift/su_max          0.001
_refine_ls_shift/su_mean         0.000
_refine_ls_structure_factor_coef Fsqd
_refine_ls_weighting_details
'w=1/[\s^2^(Fo^2^)+(0.0667P)^2^+18.3939P] where P=(Fo^2^+2Fc^2^)/3'
_refine_ls_weighting_scheme      calc
_refine_ls_wR_factor_gt          0.1694
_refine_ls_wR_factor_ref         0.1958
_reflns_Friedel_coverage         0.000
_reflns_number_gt                4923
_reflns_number_total             8465
_reflns_threshold_expression     'I > 2\s(I)'
_iucr_refine_instructions_details
;

    wwz181015-2_sq.res created by SHELXL-2014/7

TITL wwz181015-2_a.res in I2/a
REM Old TITL WWZ181015-2 in Ia #9
REM SHELXT solution in I2/a
REM R1 0.194, Rweak 0.221, Alpha 0.069, Orientation as input
REM Formula found by SHELXT: C43 N3 O3 Zn Cl
CELL 0.71073 18.7682 13.7292 31.4518 90 106.951 90
ZERR 8 0.0011 0.0006 0.0016 0 0.006 0
LATT 2
SYMM 0.5-X,+Y,-Z
SFAC C H Cl N Zn
UNIT 360 248 8 32 8
 
L.S. 5 0 39
PLAN  20
SIZE 0.29 0.28 0.27
TEMP 17.85
BOND $H
list 4
ABIN
fmap 2 53
acta
REM <olex2.extras>
REM <HklSrc "%.\\wwz181015-2_sq.hkl">
REM </olex2.extras>
 
WGHT    0.066700   18.393900
FVAR       0.10172
ZN1   5    0.616861    0.628839    0.727521    11.00000    0.03339    0.03724 =
         0.03242    0.00002    0.01198    0.00230
CL1   3    0.517841    0.574026    0.747504    11.00000    0.04974    0.04797 =
         0.05434   -0.00059    0.02703   -0.01268
N1    4    0.470726    0.828875    0.730255    11.00000    0.03609    0.04288 =
         0.06335   -0.00928    0.01863   -0.00493
N2    4    0.576900    0.660021    0.659140    11.00000    0.03231    0.03694 =
         0.03383    0.00150    0.01072    0.00007
N3    4    0.688446    0.532379    0.714545    11.00000    0.03437    0.04412 =
         0.03381   -0.00080    0.01385    0.00765
N4    4    0.696091    0.663236    0.788402    11.00000    0.03367    0.03602 =
         0.03362    0.00072    0.00762    0.00237
C1    1    0.509852    0.832375    0.772053    11.00000    0.03914    0.03487 =
         0.03371   -0.00923    0.00874    0.00125
AFIX  43
H1    2    0.490933    0.842275    0.795947    11.00000   -1.20000
AFIX   0
C2    1    0.585380    0.818666    0.774882    11.00000    0.03903    0.02751 =
         0.04245   -0.00359    0.00915    0.00127
C3    1    0.588824    0.806504    0.731326    11.00000    0.03317    0.02657 =
         0.04141    0.00369    0.01203   -0.00424
AFIX  13
H3    2    0.624676    0.849560    0.723462    11.00000   -1.20000
AFIX   0
C4    1    0.516328    0.813763    0.702765    11.00000    0.03958    0.02871 =
         0.04135    0.00341    0.00965    0.00243
C5    1    0.490823    0.798568    0.655797    11.00000    0.04402    0.03481 =
         0.03767   -0.00243    0.00628   -0.00218
C6    1    0.527505    0.732423    0.636441    11.00000    0.03701    0.03708 =
         0.03566    0.00616    0.00967    0.00116
C7    1    0.517531    0.720795    0.589466    11.00000    0.05155    0.05138 =
         0.03506    0.01724    0.01210    0.01080
AFIX  43
H7    2    0.489043    0.760552    0.566939    11.00000   -1.20000
AFIX   0
C8    1    0.556369    0.643036    0.584132    11.00000    0.05273    0.05523 =
         0.03192    0.00282    0.01451    0.00673
AFIX  43
H8    2    0.559880    0.618953    0.557178    11.00000   -1.20000
AFIX   0
C9    1    0.591778    0.602944    0.627082    11.00000    0.03647    0.04020 =
         0.03095    0.00162    0.01292    0.00016
C10   1    0.634763    0.516636    0.634268    11.00000    0.04077    0.04385 =
         0.03453   -0.00093    0.01554    0.00740
C11   1    0.678512    0.483022    0.675226    11.00000    0.03300    0.05485 =
         0.03510   -0.00098    0.00919    0.01374
C12   1    0.722126    0.395045    0.684035    11.00000    0.05625    0.05331 =
         0.04205   -0.00350    0.01425    0.01928
AFIX  43
H12   2    0.723944    0.347388    0.663363    11.00000   -1.20000
AFIX   0
C13   1    0.759476    0.394241    0.727230    11.00000    0.05014    0.05097 =
         0.03899    0.00158    0.01373    0.02384
AFIX  43
H13   2    0.791983    0.345792    0.741983    11.00000   -1.20000
AFIX   0
C14   1    0.740744    0.481084    0.746914    11.00000    0.03634    0.04013 =
         0.03729    0.00732    0.01831    0.01031
C15   1    0.770687    0.511941    0.790317    11.00000    0.03124    0.04342 =
         0.03480    0.00522    0.01552    0.00253
C16   1    0.753489    0.601361    0.807719    11.00000    0.03349    0.04224 =
         0.02833   -0.00062    0.01034   -0.00097
C17   1    0.796658    0.640194    0.850504    11.00000    0.03539    0.04987 =
         0.04073    0.00193    0.00796    0.00193
AFIX  43
H17   2    0.839200    0.612559    0.869700    11.00000   -1.20000
AFIX   0
C18   1    0.763977    0.722723    0.857121    11.00000    0.04502    0.04451 =
         0.04025   -0.00526    0.00763   -0.00623
AFIX  43
H18   2    0.780025    0.763744    0.881587    11.00000   -1.20000
AFIX   0
C19   1    0.698940    0.736858    0.819271    11.00000    0.04047    0.03707 =
         0.03323   -0.00171    0.00631   -0.00453
C20   1    0.644224    0.805863    0.815917    11.00000    0.04181    0.03343 =
         0.04291   -0.00269    0.01117   -0.00433
C21   1    0.389993    0.826178    0.717545    11.00000    0.07942    0.13510 =
         0.09110   -0.01327    0.02366    0.00076
AFIX 137
H21A  2    0.373768    0.818741    0.743624    11.00000   -1.50000
H21B  2    0.372366    0.772237    0.697865    11.00000   -1.50000
H21C  2    0.370412    0.885769    0.702733    11.00000   -1.50000
AFIX   0
C22   1    0.426640    0.854519    0.628308    11.00000    0.04084    0.04258 =
         0.04091    0.00219    0.00971    0.00372
C23   1    0.418763    0.952453    0.637475    11.00000    0.06350    0.04628 =
         0.06283    0.00793    0.00745    0.00296
AFIX  43
H23   2    0.454012    0.981157    0.661286    11.00000   -1.20000
AFIX   0
C24   1    0.361147    1.007794    0.612754    11.00000    0.07504    0.06398 =
         0.10439    0.02354    0.02372    0.02908
AFIX  43
H24   2    0.357636    1.073211    0.619550    11.00000   -1.20000
AFIX   0
C25   1    0.308414    0.966086    0.577767    11.00000    0.06344    0.09217 =
         0.08073    0.03718    0.02196    0.03636
AFIX  43
H25   2    0.269663    1.003537    0.560170    11.00000   -1.20000
AFIX   0
C26   1    0.313160    0.868611    0.568857    11.00000    0.05375    0.11749 =
         0.04306    0.00413    0.00548    0.01899
AFIX  43
H26   2    0.276979    0.840185    0.545420    11.00000   -1.20000
AFIX   0
C27   1    0.370939    0.812528    0.594267    11.00000    0.05427    0.05938 =
         0.04712    0.00144    0.00867    0.01031
AFIX  43
H27   2    0.372510    0.746238    0.588523    11.00000   -1.20000
AFIX   0
C28   1    0.634324    0.457344    0.594066    11.00000    0.04343    0.04805 =
         0.03190   -0.00050    0.01579    0.00637
C29   1    0.570724    0.412225    0.569064    11.00000    0.04336    0.06459 =
         0.04167   -0.00155    0.01553    0.00157
AFIX  43
H29   2    0.526613    0.419953    0.576523    11.00000   -1.20000
AFIX   0
C30   1    0.571378    0.355130    0.532741    11.00000    0.06702    0.05787 =
         0.03799   -0.00627   -0.00266   -0.00125
AFIX  43
H30   2    0.528120    0.324118    0.516193    11.00000   -1.20000
AFIX   0
C31   1    0.636250    0.344759    0.521417    11.00000    0.08546    0.06688 =
         0.03771   -0.01184    0.02461    0.01350
AFIX  43
H31   2    0.637070    0.306702    0.497103    11.00000   -1.20000
AFIX   0
C32   1    0.697981    0.389190    0.545249    11.00000    0.07471    0.11097 =
         0.04777   -0.01709    0.03466    0.00987
AFIX  43
H32   2    0.741785    0.381772    0.537420    11.00000   -1.20000
AFIX   0
C33   1    0.697995    0.446188    0.581453    11.00000    0.04791    0.09800 =
         0.04502   -0.02306    0.01992   -0.00749
AFIX  43
H33   2    0.741579    0.477320    0.597446    11.00000   -1.20000
AFIX   0
C34   1    0.827003    0.447972    0.820634    11.00000    0.03669    0.04390 =
         0.03262    0.00244    0.00672    0.00687
C35   1    0.894521    0.428369    0.813099    11.00000    0.04151    0.06063 =
         0.06543    0.02366    0.01585    0.01491
AFIX  43
H35   2    0.905979    0.458595    0.789451    11.00000   -1.20000
AFIX   0
C36   1    0.945673    0.364660    0.839961    11.00000    0.04311    0.07170 =
         0.09134    0.02314    0.01530    0.01817
AFIX  43
H36   2    0.990454    0.351101    0.834117    11.00000   -1.20000
AFIX   0
C37   1    0.928675    0.321786    0.875579    11.00000    0.05985    0.07434 =
         0.08203    0.03001   -0.00107    0.01315
AFIX  43
H37   2    0.963284    0.281176    0.894632    11.00000   -1.20000
AFIX   0
C38   1    0.861490    0.338452    0.883100    11.00000    0.08419    0.08478 =
         0.05561    0.03303    0.02575    0.01182
AFIX  43
H38   2    0.849635    0.307336    0.906416    11.00000   -1.20000
AFIX   0
C39   1    0.811775    0.401392    0.855990    11.00000    0.06365    0.07162 =
         0.04750    0.01551    0.02286    0.01961
AFIX  43
H39   2    0.766499    0.413096    0.861542    11.00000   -1.20000
AFIX   0
C40   1    0.638283    0.865248    0.854262    11.00000    0.04153    0.04408 =
         0.05079   -0.01447    0.01003   -0.00325
C41   1    0.652222    0.826355    0.897159    11.00000    0.06979    0.06947 =
         0.04568   -0.01520    0.01885   -0.00343
AFIX  43
H41   2    0.668338    0.762285    0.902705    11.00000   -1.20000
AFIX   0
C42   1    0.642005    0.883278    0.931235    11.00000    0.07845    0.12051 =
         0.06104   -0.04177    0.03538   -0.01997
AFIX  43
H42   2    0.652013    0.857519    0.959720    11.00000   -1.20000
AFIX   0
C43   1    0.617082    0.977938    0.923234    11.00000    0.05205    0.11367 =
         0.10229   -0.07301    0.02772   -0.01309
AFIX  43
H43   2    0.610222    1.015805    0.946244    11.00000   -1.20000
AFIX   0
C44   1    0.602400    1.016187    0.881140    11.00000    0.04803    0.08060 =
         0.10461   -0.05318    0.00349    0.00580
AFIX  43
H44   2    0.585069    1.079743    0.875523    11.00000   -1.20000
AFIX   0
C45   1    0.613449    0.960075    0.847378    11.00000    0.05155    0.05674 =
         0.05764   -0.02179   -0.00078    0.00589
AFIX  43
H45   2    0.603895    0.986873    0.819113    11.00000   -1.20000
AFIX   0
HKLF 4
 
REM  wwz181015-2_a.res in I2/a
REM R1 =  0.0811 for    4923 Fo > 4sig(Fo)  and  0.1416 for all    8465 data
REM    461 parameters refined using      0 restraints
 
END  
     
WGHT      0.0667     18.3877 

REM Highest difference peak  1.068,  deepest hole -0.490,  1-sigma level  0.085
Q1    1   0.4669  0.8450  0.8012  11.00000  0.05    1.07
Q2    1   0.5386  0.6255  0.7787  11.00000  0.05    0.44
Q3    1   1.0140  0.3636  0.8990  11.00000  0.05    0.44
Q4    1   0.7519  0.3633  0.6418  11.00000  0.05    0.42
Q5    1   0.7202  0.5796  0.7017  11.00000  0.05    0.39
Q6    1   0.6167  0.6609  0.6982  11.00000  0.05    0.36
Q7    1   0.6369  0.6662  0.7640  11.00000  0.05    0.35
Q8    1   0.6343  0.8050  0.7232  11.00000  0.05    0.33
Q9    1   0.6546  0.6013  0.7590  11.00000  0.05    0.32
Q10   1   0.7792  0.6223  0.8209  11.00000  0.05    0.30
Q11   1   0.8115  0.3781  0.7442  11.00000  0.05    0.30
Q12   1   0.6766  0.6414  0.7425  11.00000  0.05    0.29
Q13   1   0.5145  0.8588  0.7652  11.00000  0.05    0.29
Q14   1   0.7729  0.6581  0.8600  11.00000  0.05    0.28
Q15   1   0.5392  0.5330  0.7397  11.00000  0.05    0.28
Q16   1   0.5411  0.6996  0.6403  11.00000  0.05    0.28
Q17   1   0.5561  0.7843  0.7218  11.00000  0.05    0.28
Q18   1   0.2992  0.8421  0.6181  11.00000  0.05    0.27
Q19   1   0.6422  0.4939  0.6625  11.00000  0.05    0.27
Q20   1   0.5198  0.5410  0.7219  11.00000  0.05    0.26

  REM The information below was added by Olex2.
  REM
  REM R1 = 0.0811 for 4923 Fo > 4sig(Fo) and 0.1416 for all 30213 data
  REM n/a parameters refined using n/a restraints
  REM Highest difference peak 1.07, deepest hole -0.49
  REM Mean Shift 0, Max Shift -0.001.

  REM +++ Tabular Listing of Refinement Information +++
  REM R1_all = 0.1416
  REM R1_gt = 0.0811
  REM wR_ref = 0.1958
  REM GOOF = 1.054
  REM Shift_max = -0.001
  REM Shift_mean = 0
  REM Reflections_all = 30213
  REM Reflections_gt = 4923
  REM Parameters = n/a
  REM Hole = -0.49
  REM Peak = 1.07
  REM Flack = n/a

  
;
_cod_data_source_file            c9cy00739c2.cif
_cod_data_source_block           wwz181015-2_sq
_cod_database_code               1552107
_shelx_shelxl_version_number     2014/7
_shelx_space_group_comment
;
The symmetry employed for this shelxl refinement is uniquely defined
by the following loop, which should always be used as a source of
symmetry information in preference to the above space-group names.
They are only intended as comments.
;
_shelx_estimated_absorpt_t_max   0.826
_shelx_estimated_absorpt_t_min   0.814
_reflns_odcompleteness_completeness 99.68
_reflns_odcompleteness_iscentric 1
_reflns_odcompleteness_theta     25.30
_olex2_refinement_description
;
1. Fixed Uiso
 At 1.2 times of:
  All C(H) groups
 At 1.5 times of:
  All C(H,H,H) groups
2.a Ternary CH refined with riding coordinates:
 C3(H3)
2.b Aromatic/amide H refined with riding coordinates:
 C1(H1), C7(H7), C8(H8), C12(H12), C13(H13), C17(H17), C18(H18), C23(H23),
 C24(H24), C25(H25), C26(H26), C27(H27), C29(H29), C30(H30), C31(H31), C32(H32),
  C33(H33), C35(H35), C36(H36), C37(H37), C38(H38), C39(H39), C41(H41),
 C42(H42), C43(H43), C44(H44), C45(H45)
2.c Idealised Me refined as rotating group:
 C21(H21A,H21B,H21C)
;
_shelx_fab_file
;
 20 0 6 1.99 0.00
 20 0 4 1.15 0.00
 20 0 2 0.94 0.00
 20 1 7 -0.72 0.00
 20 1 5 0.34 0.00
 20 1 3 0.37 0.00
 20 2 6 -2.05 0.00
 20 2 4 -1.81 0.00
 20 2 2 -1.70 0.00
 20 3 7 -0.10 0.00
 20 3 5 -0.27 0.00
 20 3 3 -0.54 0.00
 20 4 6 2.66 0.00
 20 4 4 2.46 0.00
 20 4 2 1.28 0.00
 20 5 5 -2.62 0.00
 20 5 3 -1.93 0.00
 20 6 6 2.28 0.00
 20 6 4 1.94 0.00
 19 1 10 3.33 0.00
 19 1 8 4.41 0.00
 19 1 6 3.74 0.00
 19 1 4 1.97 0.00
 19 1 2 0.35 0.00
 19 2 9 -2.94 0.00
 19 2 7 -3.40 0.00
 19 2 5 -1.68 0.00
 19 2 3 0.61 0.00
 19 2 1 1.89 0.00
 19 3 10 -0.48 0.00
 19 3 8 0.45 0.00
 19 3 6 -0.25 0.00
 19 3 4 -2.03 0.00
 19 3 2 -3.37 0.00
 19 4 9 0.98 0.00
 19 4 7 0.60 0.00
 19 4 5 0.99 0.00
 19 4 3 1.87 0.00
 19 4 1 2.56 0.00
 19 5 10 -1.52 0.00
 19 5 8 -1.12 0.00
 19 5 6 -0.22 0.00
 19 5 4 0.04 0.00
 19 5 2 -0.50 0.00
 19 6 9 2.18 0.00
 19 6 7 0.77 0.00
 19 6 5 -1.09 0.00
 19 6 3 -2.07 0.00
 19 7 8 0.39 0.00
 19 7 6 2.83 0.00
 19 7 4 4.62 0.00
 19 8 5 -4.40 0.00
 18 0 12 -3.89 0.00
 18 0 10 -2.96 0.00
 18 0 8 -3.40 0.00
 18 0 6 -3.38 0.00
 18 0 4 -2.39 0.00
 18 0 2 -1.93 0.00
 18 0 0 -2.30 0.00
 18 1 13 4.04 0.00
 18 1 11 2.44 0.00
 18 1 9 2.24 0.00
 18 1 7 2.70 0.00
 18 1 5 2.46 0.00
 18 1 3 2.16 0.00
 18 1 1 2.85 0.00
 18 2 12 -2.91 0.00
 18 2 10 -1.88 0.00
 18 2 8 -1.98 0.00
 18 2 6 -2.21 0.00
 18 2 4 -2.24 0.00
 18 2 2 -2.89 0.00
 18 2 0 -3.97 0.00
 18 3 13 1.97 0.00
 18 3 11 0.82 0.00
 18 3 9 0.95 0.00
 18 3 7 2.05 0.00
 18 3 5 2.96 0.00
 18 3 3 3.45 0.00
 18 3 1 3.73 0.00
 18 4 12 2.64 0.00
 18 4 10 2.76 0.00
 18 4 8 0.88 0.00
 18 4 6 -1.50 0.00
 18 4 4 -2.92 0.00
 18 4 2 -3.02 0.00
 18 4 0 -2.13 0.00
 18 5 11 -5.23 0.00
 18 5 9 -4.09 0.00
 18 5 7 -1.88 0.00
 18 5 5 0.14 0.00
 18 5 3 1.23 0.00
 18 5 1 1.17 0.00
 18 6 12 3.30 0.00
 18 6 10 2.61 0.00
 18 6 8 1.30 0.00
 18 6 6 -0.23 0.00
 18 6 4 -1.79 0.00
 18 6 2 -2.77 0.00
 18 7 11 0.58 0.00
 18 7 9 1.31 0.00
 18 7 7 2.41 0.00
 18 7 5 4.00 0.00
 18 7 3 5.57 0.00
 18 8 10 0.94 0.00
 18 8 8 0.36 0.00
 18 8 6 -1.18 0.00
 18 8 4 -3.45 0.00
 18 9 9 -1.78 0.00
 18 9 7 -1.01 0.00
 18 9 5 0.32 0.00
 18 10 6 -2.76 0.00
 17 1 14 0.42 0.00
 17 1 12 0.81 0.00
 17 1 10 0.87 0.00
 17 1 8 0.33 0.00
 17 1 6 -0.55 0.00
 17 1 4 -1.08 0.00
 17 1 2 -0.87 0.00
 17 1 0 -0.29 0.00
 17 2 15 -0.11 0.00
 17 2 13 -0.43 0.00
 17 2 11 -1.56 0.00
 17 2 9 -2.75 0.00
 17 2 7 -2.82 0.00
 17 2 5 -1.71 0.00
 17 2 3 -0.29 0.00
 17 2 1 0.74 0.00
 -17 2 1 -1.26 0.00
 17 3 14 -1.26 0.00
 17 3 12 -1.05 0.00
 17 3 10 1.12 0.00
 17 3 8 3.46 0.00
 17 3 6 3.96 0.00
 17 3 4 2.35 0.00
 17 3 2 -0.11 0.00
 17 3 0 -1.90 0.00
 17 4 15 0.01 0.00
 17 4 13 0.82 0.00
 17 4 11 0.18 0.00
 17 4 9 -1.50 0.00
 17 4 7 -2.28 0.00
 17 4 5 -1.01 0.00
 17 4 3 1.45 0.00
 17 4 1 3.17 0.00
 17 5 14 2.29 0.00
 17 5 12 1.69 0.00
 17 5 10 1.23 0.00
 17 5 8 0.70 0.00
 17 5 6 -0.59 0.00
 17 5 4 -2.39 0.00
 17 5 2 -3.38 0.00
 17 5 0 -2.63 0.00
 17 6 15 -4.49 0.00
 17 6 13 -3.59 0.00
 17 6 11 -1.55 0.00
 17 6 9 -0.06 0.00
 17 6 7 0.49 0.00
 17 6 5 0.69 0.00
 17 6 3 0.77 0.00
 17 6 1 0.28 0.00
 17 7 14 0.95 0.00
 17 7 12 -1.67 0.00
 17 7 10 -3.56 0.00
 17 7 8 -3.26 0.00
 17 7 6 -1.61 0.00
 17 7 4 -0.22 0.00
 17 7 2 0.53 0.00
 17 8 13 4.69 0.00
 17 8 11 6.27 0.00
 17 8 9 5.67 0.00
 17 8 7 3.47 0.00
 17 8 5 1.68 0.00
 17 8 3 1.32 0.00
 17 9 12 -3.69 0.00
 17 9 10 -3.39 0.00
 17 9 8 -1.51 0.00
 17 9 6 0.31 0.00
 17 9 4 0.39 0.00
 17 10 9 1.76 0.00
 17 10 7 0.20 0.00
 17 10 5 -0.98 0.00
 16 0 16 -2.06 0.00
 16 0 14 -2.64 0.00
 16 0 12 -0.27 0.00
 16 0 10 1.86 0.00
 16 0 8 2.87 0.00
 16 0 6 3.43 0.00
 16 0 4 3.04 0.00
 16 0 2 0.94 0.00
 16 0 0 -1.40 0.00
 16 1 17 0.33 0.00
 16 1 15 2.37 0.00
 16 1 13 1.44 0.00
 16 1 11 0.44 0.00
 16 1 9 0.94 0.00
 16 1 7 1.61 0.00
 16 1 5 1.47 0.00
 16 1 3 1.47 0.00
 16 1 1 2.15 0.00
 -16 1 1 2.29 0.00
 16 2 16 -0.90 0.00
 16 2 14 -0.07 0.00
 16 2 12 0.32 0.00
 16 2 10 -1.95 0.00
 16 2 8 -5.44 0.00
 16 2 6 -7.12 0.00
 16 2 4 -6.29 0.00
 16 2 2 -4.58 0.00
 16 2 0 -3.27 0.00
 16 3 17 0.52 0.00
 16 3 15 -0.67 0.00
 16 3 13 -2.14 0.00
 16 3 11 -1.21 0.00
 16 3 9 2.10 0.00
 16 3 7 4.85 0.00
 16 3 5 4.87 0.00
 16 3 3 3.01 0.00
 16 3 1 1.55 0.00
 -16 3 1 1.76 0.00
 16 4 16 -0.94 0.00
 16 4 14 1.47 0.00
 16 4 12 3.00 0.00
 16 4 10 2.20 0.00
 16 4 8 0.34 0.00
 16 4 6 -0.37 0.00
 16 4 4 0.39 0.00
 16 4 2 1.10 0.00
 16 4 0 0.36 0.00
 16 5 17 2.80 0.00
 16 5 15 0.38 0.00
 16 5 13 -2.86 0.00
 16 5 11 -4.53 0.00
 16 5 9 -3.99 0.00
 16 5 7 -2.48 0.00
 16 5 5 -1.24 0.00
 16 5 3 -0.49 0.00
 16 5 1 0.18 0.00
 16 6 16 0.00 0.00
 16 6 14 2.70 0.00
 16 6 12 4.69 0.00
 16 6 10 4.72 0.00
 16 6 8 3.28 0.00
 16 6 6 1.44 0.00
 16 6 4 -0.05 0.00
 16 6 2 -0.87 0.00
 16 6 0 -1.06 0.00
 16 7 17 -0.67 0.00
 16 7 15 -2.89 0.00
 16 7 13 -4.11 0.00
 16 7 11 -3.57 0.00
 16 7 9 -2.20 0.00
 16 7 7 -1.18 0.00
 16 7 5 -0.71 0.00
 16 7 3 -0.51 0.00
 16 7 1 -0.45 0.00
 16 8 16 0.94 0.00
 16 8 14 1.63 0.00
 16 8 12 1.00 0.00
 16 8 10 -0.20 0.00
 16 8 8 -0.75 0.00
 16 8 6 -0.53 0.00
 16 8 4 -0.13 0.00
 16 8 2 0.32 0.00
 16 9 13 -0.50 0.00
 16 9 11 -0.60 0.00
 16 9 9 -0.77 0.00
 16 9 7 -0.81 0.00
 16 9 5 -0.35 0.00
 16 9 3 0.15 0.00
 16 10 12 0.75 0.00
 16 10 10 1.46 0.00
 16 10 8 1.99 0.00
 16 10 6 1.99 0.00
 16 10 4 1.89 0.00
 16 11 7 0.40 0.00
 15 1 18 2.16 0.00
 15 1 16 0.91 0.00
 15 1 14 0.05 0.00
 15 1 12 0.98 0.00
 15 1 10 3.24 0.00
 15 1 8 5.03 0.00
 15 1 6 4.94 0.00
 15 1 4 3.08 0.00
 15 1 2 0.64 0.00
 15 1 0 -0.99 0.00
 -15 1 2 1.07 0.00
 15 2 19 -3.47 0.00
 15 2 17 -2.08 0.00
 15 2 15 0.32 0.00
 15 2 13 1.23 0.00
 15 2 11 -0.20 0.00
 15 2 9 -2.23 0.00
 15 2 7 -2.54 0.00
 15 2 5 -0.55 0.00
 15 2 3 2.30 0.00
 15 2 1 3.98 0.00
 -15 2 1 -3.39 0.00
 15 3 18 3.31 0.00
 15 3 16 1.19 0.00
 15 3 14 -1.26 0.00
 15 3 12 -1.96 0.00
 15 3 10 -1.01 0.00
 15 3 8 -0.42 0.00
 15 3 6 -1.59 0.00
 15 3 4 -3.84 0.00
 15 3 2 -5.25 0.00
 15 3 0 -4.52 0.00
 -15 3 2 1.99 0.00
 15 4 19 -2.90 0.00
 15 4 17 -2.92 0.00
 15 4 15 -1.18 0.00
 15 4 13 1.00 0.00
 15 4 11 2.13 0.00
 15 4 9 2.08 0.00
 15 4 7 1.77 0.00
 15 4 5 1.69 0.00
 15 4 3 1.43 0.00
 15 4 1 0.58 0.00
 -15 4 1 0.52 0.00
 15 5 18 0.05 0.00
 15 5 16 1.23 0.00
 15 5 14 1.04 0.00
 15 5 12 -0.30 0.00
 15 5 10 -1.55 0.00
 15 5 8 -1.84 0.00
 15 5 6 -1.14 0.00
 15 5 4 0.29 0.00
 15 5 2 2.06 0.00
 15 5 0 3.37 0.00
 15 6 19 1.14 0.00
 15 6 17 -0.22 0.00
 15 6 15 -1.59 0.00
 15 6 13 -1.57 0.00
 15 6 11 -0.43 0.00
 15 6 9 0.75 0.00
 15 6 7 1.32 0.00
 15 6 5 1.21 0.00
 15 6 3 0.31 0.00
 15 6 1 -1.32 0.00
 15 7 18 1.39 0.00
 15 7 16 2.17 0.00
 15 7 14 1.89 0.00
 15 7 12 0.56 0.00
 15 7 10 -0.61 0.00
 15 7 8 -0.88 0.00
 15 7 6 -0.76 0.00
 15 7 4 -0.71 0.00
 15 7 2 -0.26 0.00
 15 7 0 0.92 0.00
 15 8 17 -1.33 0.00
 15 8 15 -0.33 0.00
 15 8 13 2.04 0.00
 15 8 11 3.84 0.00
 15 8 9 3.45 0.00
 15 8 7 1.50 0.00
 15 8 5 -0.05 0.00
 15 8 3 -0.48 0.00
 15 8 1 -0.87 0.00
 15 9 16 0.27 0.00
 15 9 14 -2.65 0.00
 15 9 12 -5.15 0.00
 15 9 10 -5.11 0.00
 15 9 8 -2.66 0.00
 15 9 6 -0.30 0.00
 15 9 4 0.10 0.00
 15 9 2 -0.49 0.00
 15 10 15 0.39 0.00
 15 10 13 1.67 0.00
 15 10 11 1.25 0.00
 15 10 9 -0.93 0.00
 15 10 7 -2.73 0.00
 15 10 5 -1.92 0.00
 15 11 12 -0.27 0.00
 15 11 10 0.79 0.00
 15 11 8 2.35 0.00
 15 11 6 2.44 0.00
 14 0 20 1.56 0.00
 14 0 18 -2.35 0.00
 14 0 16 -3.56 0.00
 14 0 14 -1.83 0.00
 14 0 12 -0.51 0.00
 14 0 10 -1.41 0.00
 14 0 8 -2.73 0.00
 14 0 6 -2.75 0.00
 14 0 4 -2.58 0.00
 14 0 2 -3.57 0.00
 14 0 0 -4.59 0.00
 -14 0 2 -3.97 0.00
 14 1 21 -2.10 0.00
 14 1 19 0.46 0.00
 14 1 17 2.23 0.00
 14 1 15 1.25 0.00
 14 1 13 -0.57 0.00
 14 1 11 -0.55 0.00
 14 1 9 0.71 0.00
 14 1 7 0.88 0.00
 14 1 5 -0.02 0.00
 14 1 3 0.12 0.00
 14 1 1 1.77 0.00
 -14 1 1 3.03 0.00
 14 2 20 0.34 0.00
 14 2 18 -0.36 0.00
 14 2 16 0.55 0.00
 14 2 14 2.42 0.00
 14 2 12 2.77 0.00
 14 2 10 1.19 0.00
 14 2 8 0.00 0.00
 14 2 6 0.65 0.00
 14 2 4 1.57 0.00
 14 2 2 0.81 0.00
 14 2 0 -1.22 0.00
 -14 2 2 -2.89 0.00
 14 3 21 -0.63 0.00
 14 3 19 -0.15 0.00
 14 3 17 -0.55 0.00
 14 3 15 -2.40 0.00
 14 3 13 -3.93 0.00
 14 3 11 -3.42 0.00
 14 3 9 -1.54 0.00
 14 3 7 -0.02 0.00
 14 3 5 0.90 0.00
 14 3 3 2.21 0.00
 14 3 1 3.99 0.00
 -14 3 1 5.01 0.00
 14 4 20 1.96 0.00
 14 4 18 1.74 0.00
 14 4 16 2.32 0.00
 14 4 14 3.75 0.00
 14 4 12 4.78 0.00
 14 4 10 4.56 0.00
 14 4 8 3.23 0.00
 14 4 6 1.04 0.00
 14 4 4 -1.97 0.00
 14 4 2 -5.09 0.00
 14 4 0 -6.86 0.00
 -14 4 2 -6.13 0.00
 14 5 21 -0.45 0.00
 14 5 19 -0.57 0.00
 14 5 17 -1.07 0.00
 14 5 15 -2.35 0.00
 14 5 13 -3.64 0.00
 14 5 11 -4.19 0.00
 14 5 9 -4.02 0.00
 14 5 7 -3.30 0.00
 14 5 5 -1.91 0.00
 14 5 3 0.15 0.00
 14 5 1 2.23 0.00
 -14 5 1 3.50 0.00
 14 6 20 -3.84 0.00
 14 6 18 -3.86 0.00
 14 6 16 -1.66 0.00
 14 6 14 1.02 0.00
 14 6 12 2.35 0.00
 14 6 10 2.29 0.00
 14 6 8 1.98 0.00
 14 6 6 2.08 0.00
 14 6 4 2.32 0.00
 14 6 2 2.10 0.00
 14 6 0 1.19 0.00
 14 7 21 2.37 0.00
 14 7 19 4.07 0.00
 14 7 17 2.81 0.00
 14 7 15 -0.11 0.00
 14 7 13 -1.96 0.00
 14 7 11 -1.79 0.00
 14 7 9 -0.85 0.00
 14 7 7 -0.60 0.00
 14 7 5 -1.19 0.00
 14 7 3 -1.86 0.00
 14 7 1 -1.85 0.00
 14 8 20 -2.44 0.00
 14 8 18 -2.43 0.00
 14 8 16 -0.41 0.00
 14 8 14 1.24 0.00
 14 8 12 1.06 0.00
 14 8 10 0.06 0.00
 14 8 8 -0.13 0.00
 14 8 6 0.72 0.00
 14 8 4 1.58 0.00
 14 8 2 1.55 0.00
 14 9 17 1.06 0.00
 14 9 15 0.87 0.00
 14 9 13 1.96 0.00
 14 9 11 3.34 0.00
 14 9 9 3.23 0.00
 14 9 7 1.45 0.00
 14 9 5 -0.57 0.00
 14 9 3 -1.47 0.00
 14 10 16 -0.60 0.00
 14 10 14 -2.25 0.00
 14 10 12 -3.60 0.00
 14 10 10 -3.22 0.00
 14 10 8 -1.12 0.00
 14 10 6 1.17 0.00
 14 10 4 2.36 0.00
 14 11 15 1.92 0.00
 14 11 13 2.02 0.00
 14 11 11 0.69 0.00
 14 11 9 -1.57 0.00
 14 11 7 -3.29 0.00
 14 11 5 -3.68 0.00
 13 1 22 0.85 0.00
 13 1 20 1.46 0.00
 13 1 18 0.25 0.00
 13 1 16 -1.43 0.00
 13 1 14 -1.81 0.00
 13 1 12 -0.68 0.00
 13 1 10 0.46 0.00
 13 1 8 0.12 0.00
 13 1 6 -1.69 0.00
 13 1 4 -3.61 0.00
 13 1 2 -4.34 0.00
 13 1 0 -3.47 0.00
 -13 1 2 1.41 0.00
 13 2 23 2.95 0.00
 13 2 21 0.23 0.00
 13 2 19 -0.84 0.00
 13 2 17 0.19 0.00
 13 2 15 1.65 0.00
 13 2 13 1.72 0.00
 13 2 11 0.42 0.00
 13 2 9 -0.72 0.00
 13 2 7 -0.70 0.00
 13 2 5 0.16 0.00
 13 2 3 0.96 0.00
 13 2 1 1.24 0.00
 -13 2 1 -0.91 0.00
 13 3 22 -3.17 0.00
 13 3 20 -1.33 0.00
 13 3 18 -0.24 0.00
 13 3 16 -0.50 0.00
 13 3 14 -1.37 0.00
 13 3 12 -1.78 0.00
 13 3 10 -1.34 0.00
 13 3 8 -0.30 0.00
 13 3 6 1.04 0.00
 13 3 4 2.25 0.00
 13 3 2 2.63 0.00
 13 3 0 1.77 0.00
 -13 3 2 0.10 0.00
 13 4 23 0.49 0.00
 13 4 21 1.07 0.00
 13 4 19 0.77 0.00
 13 4 17 0.35 0.00
 13 4 15 0.56 0.00
 13 4 13 1.14 0.00
 13 4 11 1.20 0.00
 13 4 9 0.35 0.00
 13 4 7 -0.99 0.00
 13 4 5 -1.95 0.00
 13 4 3 -1.87 0.00
 13 4 1 -0.65 0.00
 -13 4 1 -1.14 0.00
 13 5 22 2.82 0.00
 13 5 20 2.28 0.00
 13 5 18 2.21 0.00
 13 5 16 1.90 0.00
 13 5 14 1.02 0.00
 13 5 12 0.40 0.00
 13 5 10 0.88 0.00
 13 5 8 1.95 0.00
 13 5 6 2.21 0.00
 13 5 4 0.94 0.00
 13 5 2 -1.23 0.00
 13 5 0 -3.09 0.00
 -13 5 2 3.87 0.00
 -13 5 16 2.12 0.00
 -13 5 18 2.05 0.00
 13 6 23 -3.70 0.00
 13 6 21 -2.36 0.00
 13 6 19 -1.30 0.00
 13 6 17 -0.90 0.00
 13 6 15 -0.50 0.00
 13 6 13 0.06 0.00
 13 6 11 0.07 0.00
 13 6 9 -0.68 0.00
 13 6 7 -1.17 0.00
 13 6 5 -0.45 0.00
 13 6 3 1.10 0.00
 13 6 1 2.30 0.00
 -13 6 1 -2.82 0.00
 -13 6 15 -2.62 0.00
 13 7 22 2.16 0.00
 13 7 20 -0.33 0.00
 13 7 18 -1.91 0.00
 13 7 16 -2.36 0.00
 13 7 14 -2.36 0.00
 13 7 12 -2.09 0.00
 13 7 10 -1.28 0.00
 13 7 8 -0.33 0.00
 13 7 6 -0.11 0.00
 13 7 4 -0.52 0.00
 13 7 2 -0.53 0.00
 13 7 0 0.14 0.00
 13 8 21 -0.01 0.00
 13 8 19 1.33 0.00
 13 8 17 2.08 0.00
 13 8 15 2.35 0.00
 13 8 13 2.27 0.00
 13 8 11 1.43 0.00
 13 8 9 -0.11 0.00
 13 8 7 -1.35 0.00
 13 8 5 -1.64 0.00
 13 8 3 -1.83 0.00
 13 8 1 -2.83 0.00
 13 9 20 -1.00 0.00
 13 9 18 -1.27 0.00
 13 9 16 -1.66 0.00
 13 9 14 -2.05 0.00
 13 9 12 -1.73 0.00
 13 9 10 -0.16 0.00
 13 9 8 1.77 0.00
 13 9 6 2.49 0.00
 13 9 4 1.97 0.00
 13 9 2 1.92 0.00
 13 10 19 -1.88 0.00
 13 10 17 -1.31 0.00
 13 10 15 0.12 0.00
 13 10 13 1.40 0.00
 13 10 11 1.28 0.00
 13 10 9 -0.07 0.00
 13 10 7 -0.64 0.00
 13 10 5 0.79 0.00
 13 10 3 2.58 0.00
 13 11 18 2.71 0.00
 13 11 16 1.03 0.00
 13 11 14 -0.61 0.00
 13 11 12 -0.64 0.00
 13 11 10 1.17 0.00
 13 11 8 2.54 0.00
 13 11 6 0.80 0.00
 13 11 4 -3.40 0.00
 12 0 24 -0.70 0.00
 12 0 22 -2.11 0.00
 12 0 20 -3.78 0.00
 12 0 18 -4.01 0.00
 12 0 16 -2.15 0.00
 12 0 14 -0.28 0.00
 12 0 12 -0.48 0.00
 12 0 10 -1.64 0.00
 12 0 8 -1.21 0.00
 12 0 6 0.51 0.00
 12 0 4 0.73 0.00
 12 0 2 -1.14 0.00
 12 0 0 -2.12 0.00
 -12 0 2 -0.18 0.00
 12 1 23 -0.20 0.00
 12 1 21 1.16 0.00
 12 1 19 2.79 0.00
 12 1 17 2.61 0.00
 12 1 15 0.68 0.00
 12 1 13 -0.58 0.00
 12 1 11 0.04 0.00
 12 1 9 0.98 0.00
 12 1 7 0.91 0.00
 12 1 5 1.01 0.00
 12 1 3 2.51 0.00
 12 1 1 3.71 0.00
 -12 1 1 2.00 0.00
 -12 1 3 -1.95 0.00
 12 2 24 -0.54 0.00
 12 2 22 0.46 0.00
 12 2 20 -0.22 0.00
 12 2 18 -1.21 0.00
 12 2 16 -0.60 0.00
 12 2 14 1.24 0.00
 12 2 12 2.40 0.00
 12 2 10 2.05 0.00
 12 2 8 0.83 0.00
 12 2 6 -0.92 0.00
 12 2 4 -3.21 0.00
 12 2 2 -4.75 0.00
 12 2 0 -3.36 0.00
 -12 2 2 0.96 0.00
 12 3 25 5.19 0.00
 12 3 23 3.28 0.00
 12 3 21 1.39 0.00
 12 3 19 0.52 0.00
 12 3 17 -0.17 0.00
 12 3 15 -1.52 0.00
 12 3 13 -2.97 0.00
 12 3 11 -3.43 0.00
 12 3 9 -2.60 0.00
 12 3 7 -0.91 0.00
 12 3 5 1.07 0.00
 12 3 3 2.33 0.00
 12 3 1 1.58 0.00
 -12 3 1 -1.23 0.00
 -12 3 15 -3.22 0.00
 12 4 24 -4.14 0.00
 12 4 22 -3.19 0.00
 12 4 20 -2.29 0.00
 12 4 18 -1.49 0.00
 12 4 16 -0.37 0.00
 12 4 14 0.95 0.00
 12 4 12 1.82 0.00
 12 4 10 1.73 0.00
 12 4 8 0.79 0.00
 12 4 6 -0.40 0.00
 12 4 4 -1.01 0.00
 12 4 2 -0.42 0.00
 12 4 0 1.20 0.00
 -12 4 2 2.58 0.00
 -12 4 16 1.24 0.00
 -12 4 18 -0.34 0.00
 -12 4 20 -2.15 0.00
 12 5 23 0.01 0.00
 12 5 21 0.71 0.00
 12 5 19 1.20 0.00
 12 5 17 1.16 0.00
 12 5 15 0.72 0.00
 12 5 13 0.09 0.00
 12 5 11 -0.64 0.00
 12 5 9 -1.26 0.00
 12 5 7 -1.37 0.00
 12 5 5 -0.90 0.00
 12 5 3 -0.39 0.00
 12 5 1 -0.39 0.00
 -12 5 1 -0.82 0.00
 -12 5 15 -2.05 0.00
 -12 5 17 -0.62 0.00
 -12 5 19 2.30 0.00
 12 6 24 3.03 0.00
 12 6 22 1.80 0.00
 12 6 20 0.87 0.00
 12 6 18 0.97 0.00
 12 6 16 1.37 0.00
 12 6 14 1.19 0.00
 12 6 12 0.77 0.00
 12 6 10 1.02 0.00
 12 6 8 1.91 0.00
 12 6 6 2.48 0.00
 12 6 4 2.10 0.00
 12 6 2 1.17 0.00
 12 6 0 0.58 0.00
 -12 6 14 1.23 0.00
 -12 6 16 0.41 0.00
 12 7 23 -3.04 0.00
 12 7 21 -0.31 0.00
 12 7 19 0.51 0.00
 12 7 17 -0.71 0.00
 12 7 15 -1.77 0.00
 12 7 13 -1.30 0.00
 12 7 11 -0.23 0.00
 12 7 9 -0.03 0.00
 12 7 7 -0.70 0.00
 12 7 5 -1.08 0.00
 12 7 3 -0.42 0.00
 12 7 1 0.74 0.00
 -12 7 1 1.10 0.00
 12 8 24 3.33 0.00
 12 8 22 0.25 0.00
 12 8 20 -1.91 0.00
 12 8 18 -1.26 0.00
 12 8 16 0.58 0.00
 12 8 14 0.96 0.00
 12 8 12 -0.37 0.00
 12 8 10 -1.58 0.00
 12 8 8 -1.41 0.00
 12 8 6 -0.55 0.00
 12 8 4 -0.40 0.00
 12 8 2 -1.43 0.00
 12 8 0 -2.72 0.00
 12 9 21 3.42 0.00
 12 9 19 3.34 0.00
 12 9 17 1.73 0.00
 12 9 15 0.96 0.00
 12 9 13 1.90 0.00
 12 9 11 3.01 0.00
 12 9 9 2.57 0.00
 12 9 7 0.71 0.00
 12 9 5 -1.04 0.00
 12 9 3 -1.38 0.00
 12 9 1 -0.27 0.00
 -12 9 31 0.89 0.00
 12 10 20 -3.54 0.00
 12 10 18 -1.97 0.00
 12 10 16 -0.95 0.00
 12 10 14 -1.69 0.00
 12 10 12 -3.14 0.00
 12 10 10 -3.47 0.00
 12 10 8 -2.16 0.00
 12 10 6 -0.08 0.00
 12 10 4 1.55 0.00
 12 10 2 1.93 0.00
 12 11 19 0.38 0.00
 12 11 17 -1.88 0.00
 12 11 15 -2.22 0.00
 12 11 13 -0.90 0.00
 12 11 11 0.55 0.00
 12 11 9 1.16 0.00
 12 11 7 0.91 0.00
 12 11 5 -0.02 0.00
 11 1 26 -1.87 0.00
 11 1 24 -1.77 0.00
 11 1 22 -1.32 0.00
 11 1 20 -0.90 0.00
 11 1 18 -0.87 0.00
 11 1 16 -1.11 0.00
 11 1 14 -1.25 0.00
 11 1 12 -1.23 0.00
 11 1 10 -1.16 0.00
 11 1 8 -1.01 0.00
 11 1 6 -0.72 0.00
 11 1 4 -0.58 0.00
 11 1 2 -1.03 0.00
 11 1 0 -1.82 0.00
 -11 1 2 2.11 0.00
 -11 1 14 2.59 0.00
 11 2 25 1.35 0.00
 11 2 23 0.09 0.00
 11 2 21 -0.74 0.00
 11 2 19 -0.63 0.00
 11 2 17 0.26 0.00
 11 2 15 1.14 0.00
 11 2 13 1.49 0.00
 11 2 11 1.51 0.00
 11 2 9 1.56 0.00
 11 2 7 1.69 0.00
 11 2 5 2.05 0.00
 11 2 3 3.04 0.00
 11 2 1 4.49 0.00
 -11 2 1 -5.19 0.00
 -11 2 3 -4.25 0.00
 -11 2 15 -5.07 0.00
 -11 2 17 -4.68 0.00
 11 3 26 -2.58 0.00
 11 3 24 -1.72 0.00
 11 3 22 -0.38 0.00
 11 3 20 0.96 0.00
 11 3 18 1.50 0.00
 11 3 16 1.02 0.00
 11 3 14 0.12 0.00
 11 3 12 -0.46 0.00
 11 3 10 -0.53 0.00
 11 3 8 -0.39 0.00
 11 3 6 -0.63 0.00
 11 3 4 -1.88 0.00
 11 3 2 -4.05 0.00
 11 3 0 -5.71 0.00
 -11 3 2 5.33 0.00
 -11 3 14 3.18 0.00
 -11 3 16 1.94 0.00
 -11 3 18 0.66 0.00
 -11 3 20 -0.14 0.00
 11 4 25 2.90 0.00
 11 4 23 3.26 0.00
 11 4 21 2.19 0.00
 11 4 19 -0.14 0.00
 11 4 17 -2.19 0.00
 11 4 15 -2.68 0.00
 11 4 13 -1.74 0.00
 11 4 11 -0.42 0.00
 11 4 9 0.48 0.00
 11 4 7 0.91 0.00
 11 4 5 1.39 0.00
 11 4 3 2.36 0.00
 11 4 1 3.42 0.00
 -11 4 1 -3.49 0.00
 -11 4 15 -0.83 0.00
 -11 4 17 -0.31 0.00
 -11 4 19 0.68 0.00
 -11 4 21 1.66 0.00
 11 5 26 2.22 0.00
 11 5 24 1.10 0.00
 11 5 22 -0.89 0.00
 11 5 20 -1.80 0.00
 11 5 18 -1.05 0.00
 11 5 16 0.14 0.00
 11 5 14 0.47 0.00
 11 5 12 -0.20 0.00
 11 5 10 -1.33 0.00
 11 5 8 -2.57 0.00
 11 5 6 -3.67 0.00
 11 5 4 -4.34 0.00
 11 5 2 -4.34 0.00
 11 5 0 -3.73 0.00
 -11 5 2 2.62 0.00
 -11 5 14 0.73 0.00
 -11 5 16 1.57 0.00
 -11 5 18 0.51 0.00
 -11 5 20 -2.10 0.00
 11 6 25 -7.01 0.00
 11 6 23 -5.10 0.00
 11 6 21 -1.32 0.00
 11 6 19 1.74 0.00
 11 6 17 3.02 0.00
 11 6 15 3.10 0.00
 11 6 13 2.70 0.00
 11 6 11 2.18 0.00
 11 6 9 2.13 0.00
 11 6 7 3.08 0.00
 11 6 5 4.45 0.00
 11 6 3 4.88 0.00
 11 6 1 3.90 0.00
 -11 6 1 -2.51 0.00
 -11 6 15 0.20 0.00
 -11 6 17 -0.71 0.00
 -11 6 27 0.42 0.00
 -11 6 29 -0.30 0.00
 -11 6 31 -0.94 0.00
 -11 6 33 -0.90 0.00
 11 7 26 8.29 0.00
 11 7 24 8.09 0.00
 11 7 22 4.33 0.00
 11 7 20 -0.43 0.00
 11 7 18 -3.50 0.00
 11 7 16 -4.28 0.00
 11 7 14 -3.52 0.00
 11 7 12 -2.01 0.00
 11 7 10 -0.58 0.00
 11 7 8 -0.35 0.00
 11 7 6 -1.47 0.00
 11 7 4 -2.40 0.00
 11 7 2 -1.63 0.00
 11 7 0 0.25 0.00
 -11 7 14 -1.94 0.00
 -11 7 24 3.58 0.00
 -11 7 26 0.71 0.00
 -11 7 28 -2.01 0.00
 -11 7 30 -2.50 0.00
 -11 7 32 -0.27 0.00
 -11 7 34 2.80 0.00
 -11 7 36 4.45 0.00
 11 8 25 -6.56 0.00
 11 8 23 -4.25 0.00
 11 8 21 0.13 0.00
 11 8 19 3.47 0.00
 11 8 17 4.05 0.00
 11 8 15 2.53 0.00
 11 8 13 0.28 0.00
 11 8 11 -1.82 0.00
 11 8 9 -2.86 0.00
 11 8 7 -2.11 0.00
 11 8 5 -0.35 0.00
 11 8 3 0.45 0.00
 11 8 1 -0.45 0.00
 -11 8 21 -4.18 0.00
 -11 8 23 -3.87 0.00
 -11 8 25 -2.40 0.00
 -11 8 27 -0.33 0.00
 -11 8 29 0.99 0.00
 -11 8 31 0.60 0.00
 -11 8 33 -1.10 0.00
 -11 8 35 -2.72 0.00
 11 9 22 -1.63 0.00
 11 9 20 -3.87 0.00
 11 9 18 -4.32 0.00
 11 9 16 -2.93 0.00
 11 9 14 -0.82 0.00
 11 9 12 1.39 0.00
 11 9 10 3.31 0.00
 11 9 8 3.89 0.00
 11 9 6 2.52 0.00
 11 9 4 0.54 0.00
 11 9 2 -0.08 0.00
 -11 9 20 -1.06 0.00
 -11 9 22 -0.96 0.00
 -11 9 24 -1.18 0.00
 -11 9 26 -1.62 0.00
 -11 9 28 -1.66 0.00
 -11 9 30 -1.07 0.00
 -11 9 32 -0.27 0.00
 -11 9 34 0.23 0.00
 11 10 21 1.77 0.00
 11 10 19 3.59 0.00
 11 10 17 4.83 0.00
 11 10 15 5.25 0.00
 11 10 13 4.49 0.00
 11 10 11 2.23 0.00
 11 10 9 -0.39 0.00
 11 10 7 -1.24 0.00
 11 10 5 0.03 0.00
 11 10 3 1.25 0.00
 -11 10 19 2.54 0.00
 -11 10 21 1.93 0.00
 -11 10 23 1.99 0.00
 -11 10 25 2.70 0.00
 -11 10 27 2.83 0.00
 -11 10 29 1.80 0.00
 -11 10 31 0.37 0.00
 -11 10 33 -0.51 0.00
 11 11 20 3.23 0.00
 11 11 18 1.00 0.00
 11 11 16 -1.46 0.00
 11 11 14 -3.31 0.00
 11 11 12 -3.68 0.00
 11 11 10 -2.84 0.00
 11 11 8 -2.75 0.00
 11 11 6 -4.66 0.00
 11 11 4 -6.76 0.00
 11 13 16 2.87 0.00
 11 13 14 2.54 0.00
 10 0 26 6.51 0.00
 10 0 24 5.73 0.00
 10 0 22 4.42 0.00
 10 0 20 2.63 0.00
 10 0 18 1.80 0.00
 10 0 16 2.71 0.00
 10 0 14 3.92 0.00
 10 0 12 3.89 0.00
 10 0 10 3.48 0.00
 10 0 8 4.20 0.00
 10 0 6 5.21 0.00
 10 0 4 4.73 0.00
 10 0 2 3.75 0.00
 10 0 0 4.94 0.00
 -10 0 2 7.93 0.00
 -10 0 4 9.07 0.00
 -10 0 6 6.72 0.00
 -10 0 8 3.40 0.00
 -10 0 14 -0.36 0.00
 10 1 27 -4.83 0.00
 10 1 25 -3.78 0.00
 10 1 23 -2.95 0.00
 10 1 21 -1.75 0.00
 10 1 19 -0.69 0.00
 10 1 17 -1.10 0.00
 10 1 15 -2.79 0.00
 10 1 13 -3.93 0.00
 10 1 11 -3.86 0.00
 10 1 9 -3.93 0.00
 10 1 7 -4.82 0.00
 10 1 5 -5.27 0.00
 10 1 3 -4.80 0.00
 10 1 1 -5.24 0.00
 -10 1 1 -7.56 0.00
 -10 1 3 -9.44 0.00
 -10 1 5 -8.06 0.00
 -10 1 7 -4.62 0.00
 -10 1 13 -1.31 0.00
 -10 1 15 -1.05 0.00
 -10 1 17 -2.33 0.00
 10 2 26 -0.22 0.00
 10 2 24 0.45 0.00
 10 2 22 1.16 0.00
 10 2 20 0.69 0.00
 10 2 18 0.00 0.00
 10 2 16 0.78 0.00
 10 2 14 2.78 0.00
 10 2 12 4.19 0.00
 10 2 10 4.27 0.00
 10 2 8 3.85 0.00
 10 2 6 3.67 0.00
 10 2 4 3.90 0.00
 10 2 2 5.13 0.00
 10 2 0 7.53 0.00
 -10 2 2 9.22 0.00
 -10 2 4 7.82 0.00
 -10 2 6 3.84 0.00
 -10 2 14 1.22 0.00
 -10 2 16 0.85 0.00
 -10 2 18 1.38 0.00
 10 3 27 4.67 0.00
 10 3 25 2.83 0.00
 10 3 23 -0.56 0.00
 10 3 21 -2.49 0.00
 10 3 19 -1.60 0.00
 10 3 17 0.21 0.00
 10 3 15 0.32 0.00
 10 3 13 -1.52 0.00
 10 3 11 -3.42 0.00
 10 3 9 -3.84 0.00
 10 3 7 -2.88 0.00
 10 3 5 -1.76 0.00
 10 3 3 -1.82 0.00
 10 3 1 -3.48 0.00
 -10 3 1 -5.26 0.00
 -10 3 3 -4.73 0.00
 -10 3 5 -1.37 0.00
 -10 3 13 -0.11 0.00
 -10 3 15 -0.12 0.00
 -10 3 17 -0.02 0.00
 -10 3 19 -0.17 0.00
 -10 3 21 0.14 0.00
 10 4 26 -7.07 0.00
 10 4 24 -4.88 0.00
 10 4 22 -0.90 0.00
 10 4 20 1.71 0.00
 10 4 18 1.34 0.00
 10 4 16 -0.46 0.00
 10 4 14 -1.05 0.00
 10 4 12 0.39 0.00
 10 4 10 2.45 0.00
 10 4 8 3.30 0.00
 10 4 6 2.47 0.00
 10 4 4 1.02 0.00
 10 4 2 0.37 0.00
 10 4 0 0.83 0.00
 -10 4 2 1.15 0.00
 -10 4 14 2.55 0.00
 -10 4 16 2.88 0.00
 -10 4 18 1.88 0.00
 -10 4 20 -0.14 0.00
 -10 4 22 -2.02 0.00
 -10 4 26 0.97 0.00
 -10 4 28 4.05 0.00
 -10 4 30 4.75 0.00
 -10 4 32 2.98 0.00
 -10 4 34 0.74 0.00
 10 5 27 4.54 0.00
 10 5 25 6.31 0.00
 10 5 23 5.06 0.00
 10 5 21 1.43 0.00
 10 5 19 -1.73 0.00
 10 5 17 -2.31 0.00
 10 5 15 -0.89 0.00
 10 5 13 0.32 0.00
 10 5 11 0.07 0.00
 10 5 9 -0.96 0.00
 10 5 7 -1.45 0.00
 10 5 5 -0.92 0.00
 10 5 3 -0.02 0.00
 10 5 1 0.39 0.00
 -10 5 1 0.14 0.00
 -10 5 13 -4.00 0.00
 -10 5 15 -4.53 0.00
 -10 5 17 -3.05 0.00
 -10 5 19 -0.35 0.00
 -10 5 21 2.08 0.00
 -10 5 23 2.66 0.00
 -10 5 25 0.72 0.00
 -10 5 27 -2.44 0.00
 -10 5 29 -4.32 0.00
 -10 5 31 -3.64 0.00
 -10 5 33 -1.44 0.00
 -10 5 35 0.39 0.00
 10 6 26 -0.50 0.00
 10 6 24 -1.94 0.00
 10 6 22 -1.51 0.00
 10 6 20 0.68 0.00
 10 6 18 2.47 0.00
 10 6 16 2.01 0.00
 10 6 14 -0.12 0.00
 10 6 12 -1.84 0.00
 10 6 10 -2.00 0.00
 10 6 8 -1.20 0.00
 10 6 6 -0.65 0.00
 10 6 4 -0.91 0.00
 10 6 2 -1.58 0.00
 10 6 0 -1.81 0.00
 -10 6 14 2.96 0.00
 -10 6 16 2.80 0.00
 -10 6 18 1.98 0.00
 -10 6 20 1.42 0.00
 -10 6 22 1.28 0.00
 -10 6 24 1.01 0.00
 -10 6 26 0.28 0.00
 -10 6 28 -0.69 0.00
 -10 6 30 -1.35 0.00
 -10 6 32 -1.21 0.00
 -10 6 34 -0.10 0.00
 -10 6 36 1.54 0.00
 10 7 27 -4.21 0.00
 10 7 25 -3.74 0.00
 10 7 23 -1.99 0.00
 10 7 21 -1.01 0.00
 10 7 19 -1.27 0.00
 10 7 17 -1.21 0.00
 10 7 15 0.36 0.00
 10 7 13 2.57 0.00
 10 7 11 3.69 0.00
 10 7 9 3.22 0.00
 10 7 7 2.17 0.00
 10 7 5 1.69 0.00
 10 7 3 2.05 0.00
 10 7 1 2.50 0.00
 -10 7 1 2.06 0.00
 -10 7 13 -1.17 0.00
 -10 7 15 -2.77 0.00
 -10 7 17 -3.03 0.00
 -10 7 19 -2.65 0.00
 -10 7 21 -2.43 0.00
 -10 7 23 -1.99 0.00
 -10 7 25 -0.83 0.00
 -10 7 27 0.42 0.00
 -10 7 29 0.76 0.00
 -10 7 31 0.12 0.00
 -10 7 33 -0.73 0.00
 -10 7 35 -1.35 0.00
 10 8 26 7.58 0.00
 10 8 24 6.05 0.00
 10 8 22 3.01 0.00
 10 8 20 1.14 0.00
 10 8 18 0.88 0.00
 10 8 16 0.62 0.00
 10 8 14 -0.59 0.00
 10 8 12 -1.98 0.00
 10 8 10 -2.49 0.00
 10 8 8 -2.09 0.00
 10 8 6 -1.55 0.00
 10 8 4 -1.51 0.00
 10 8 2 -1.94 0.00
 10 8 0 -2.07 0.00
 -10 8 12 1.18 0.00
 -10 8 16 2.78 0.00
 -10 8 18 1.08 0.00
 -10 8 20 -0.41 0.00
 -10 8 22 -0.92 0.00
 -10 8 24 -1.07 0.00
 -10 8 26 -1.10 0.00
 -10 8 28 -0.40 0.00
 -10 8 30 0.90 0.00
 -10 8 32 1.40 0.00
 -10 8 34 0.32 0.00
 10 9 23 0.47 0.00
 10 9 21 1.60 0.00
 10 9 19 -0.09 0.00
 10 9 17 -2.91 0.00
 10 9 15 -4.40 0.00
 10 9 13 -3.96 0.00
 10 9 11 -2.64 0.00
 10 9 9 -1.59 0.00
 10 9 7 -1.10 0.00
 10 9 5 -0.77 0.00
 10 9 3 0.02 0.00
 10 9 1 1.33 0.00
 -10 9 15 -0.53 0.00
 -10 9 17 0.88 0.00
 -10 9 19 1.86 0.00
 -10 9 21 1.35 0.00
 -10 9 23 0.36 0.00
 -10 9 25 0.22 0.00
 -10 9 27 0.44 0.00
 -10 9 29 -0.18 0.00
 -10 9 31 -1.36 0.00
 -10 9 33 -1.66 0.00
 10 10 22 -10.21 0.00
 10 10 20 -6.53 0.00
 10 10 18 -0.75 0.00
 10 10 16 3.63 0.00
 10 10 14 5.12 0.00
 10 10 12 4.71 0.00
 10 10 10 4.00 0.00
 10 10 8 3.74 0.00
 10 10 6 3.77 0.00
 10 10 4 3.44 0.00
 10 10 2 2.14 0.00
 -10 10 14 -1.01 0.00
 -10 10 16 -1.35 0.00
 -10 10 18 -2.12 0.00
 -10 10 20 -2.05 0.00
 -10 10 22 -0.92 0.00
 -10 10 24 0.15 0.00
 -10 10 26 0.71 0.00
 -10 10 28 1.54 0.00
 -10 10 30 3.02 0.00
 -10 10 32 4.12 0.00
 -10 10 34 3.80 0.00
 10 11 23 12.02 0.00
 10 11 21 9.61 0.00
 10 11 19 5.09 0.00
 10 11 17 1.75 0.00
 10 11 15 0.76 0.00
 10 11 13 0.68 0.00
 10 11 11 -0.08 0.00
 10 11 9 -1.60 0.00
 10 11 7 -3.02 0.00
 10 11 5 -3.69 0.00
 10 11 3 -3.31 0.00
 10 12 18 -0.47 0.00
 10 12 16 -0.55 0.00
 10 12 14 -0.92 0.00
 10 13 17 -1.07 0.00
 10 13 15 -0.96 0.00
 10 13 13 -2.04 0.00
 10 13 11 -3.34 0.00
 9 1 28 4.32 0.00
 9 1 26 3.03 0.00
 9 1 24 1.45 0.00
 9 1 22 0.38 0.00
 9 1 20 -0.13 0.00
 9 1 18 -0.43 0.00
 9 1 16 -0.72 0.00
 9 1 14 -0.97 0.00
 9 1 12 -1.17 0.00
 9 1 10 -1.36 0.00
 9 1 8 -1.56 0.00
 9 1 6 -2.02 0.00
 9 1 4 -3.13 0.00
 9 1 2 -4.54 0.00
 9 1 0 -4.88 0.00
 -9 1 2 3.15 0.00
 -9 1 4 0.47 0.00
 -9 1 6 -0.86 0.00
 -9 1 8 0.18 0.00
 -9 1 10 2.26 0.00
 -9 1 12 3.42 0.00
 -9 1 14 3.01 0.00
 -9 1 16 1.76 0.00
 -9 1 18 0.63 0.00
 9 2 29 -6.34 0.00
 9 2 27 -4.76 0.00
 9 2 25 -1.50 0.00
 9 2 23 1.37 0.00
 9 2 21 2.48 0.00
 9 2 19 2.10 0.00
 9 2 17 1.36 0.00
 9 2 15 1.14 0.00
 9 2 13 1.75 0.00
 9 2 11 2.84 0.00
 9 2 9 3.65 0.00
 9 2 7 3.75 0.00
 9 2 5 3.87 0.00
 9 2 3 4.86 0.00
 9 2 1 5.92 0.00
 -9 2 1 -4.86 0.00
 -9 2 3 -1.31 0.00
 -9 2 5 2.09 0.00
 -9 2 7 2.46 0.00
 -9 2 9 0.09 0.00
 -9 2 11 -2.16 0.00
 -9 2 13 -2.30 0.00
 -9 2 15 -0.81 0.00
 -9 2 17 0.71 0.00
 -9 2 19 1.11 0.00
 9 3 28 1.96 0.00
 9 3 26 0.36 0.00
 9 3 24 -1.99 0.00
 9 3 22 -3.43 0.00
 9 3 20 -3.11 0.00
 9 3 18 -1.58 0.00
 9 3 16 -0.15 0.00
 9 3 14 0.08 0.00
 9 3 12 -1.30 0.00
 9 3 10 -3.54 0.00
 9 3 8 -5.02 0.00
 9 3 6 -4.78 0.00
 9 3 4 -3.59 0.00
 9 3 2 -2.61 0.00
 9 3 0 -1.55 0.00
 -9 3 2 -0.46 0.00
 -9 3 4 -2.96 0.00
 -9 3 6 -3.74 0.00
 -9 3 8 -2.17 0.00
 -9 3 12 0.96 0.00
 -9 3 14 0.71 0.00
 -9 3 16 0.23 0.00
 -9 3 18 0.07 0.00
 -9 3 20 0.37 0.00
 -9 3 22 1.12 0.00
 -9 3 24 1.88 0.00
 -9 3 26 2.12 0.00
 -9 3 28 2.03 0.00
 -9 3 30 2.07 0.00
 -9 3 32 1.80 0.00
 -9 3 34 0.40 0.00
 -9 3 36 -1.48 0.00
 9 4 27 2.87 0.00
 9 4 25 2.93 0.00
 9 4 23 3.35 0.00
 9 4 21 3.22 0.00
 9 4 19 2.21 0.00
 9 4 17 0.90 0.00
 9 4 15 0.04 0.00
 9 4 13 0.10 0.00
 9 4 11 1.16 0.00
 9 4 9 2.58 0.00
 9 4 7 3.20 0.00
 9 4 5 2.51 0.00
 9 4 3 1.22 0.00
 9 4 1 0.20 0.00
 -9 4 1 0.67 0.00
 -9 4 3 1.69 0.00
 -9 4 5 2.37 0.00
 -9 4 13 -0.50 0.00
 -9 4 15 -1.40 0.00
 -9 4 17 -1.83 0.00
 -9 4 19 -1.34 0.00
 -9 4 21 -0.55 0.00
 -9 4 23 -0.26 0.00
 -9 4 25 -0.35 0.00
 -9 4 27 -0.48 0.00
 -9 4 29 -0.74 0.00
 -9 4 31 -0.73 0.00
 -9 4 33 0.73 0.00
 -9 4 35 3.61 0.00
 -9 4 37 5.64 0.00
 9 5 28 -3.16 0.00
 9 5 26 -2.74 0.00
 9 5 24 -3.16 0.00
 9 5 22 -3.43 0.00
 9 5 20 -2.56 0.00
 9 5 18 -1.08 0.00
 9 5 16 -0.12 0.00
 9 5 14 0.08 0.00
 9 5 12 -0.04 0.00
 9 5 10 -0.30 0.00
 9 5 8 -0.72 0.00
 9 5 6 -0.98 0.00
 9 5 4 -0.76 0.00
 9 5 2 -0.31 0.00
 9 5 0 -0.03 0.00
 -9 5 2 -0.23 0.00
 -9 5 12 -2.23 0.00
 -9 5 14 -0.60 0.00
 -9 5 16 1.23 0.00
 -9 5 18 1.92 0.00
 -9 5 20 1.48 0.00
 -9 5 22 0.82 0.00
 -9 5 24 0.07 0.00
 -9 5 26 -1.30 0.00
 -9 5 28 -2.83 0.00
 -9 5 30 -3.55 0.00
 -9 5 32 -3.77 0.00
 -9 5 34 -4.66 0.00
 -9 5 36 -5.78 0.00
 9 6 27 -1.73 0.00
 9 6 25 -0.94 0.00
 9 6 23 0.72 0.00
 9 6 21 1.16 0.00
 9 6 19 -0.12 0.00
 9 6 17 -1.52 0.00
 9 6 15 -1.69 0.00
 9 6 13 -1.04 0.00
 9 6 11 -0.41 0.00
 9 6 9 0.21 0.00
 9 6 7 1.01 0.00
 9 6 5 1.37 0.00
 9 6 3 0.70 0.00
 9 6 1 -0.38 0.00
 -9 6 1 0.69 0.00
 -9 6 13 4.04 0.00
 -9 6 15 0.45 0.00
 -9 6 17 -2.54 0.00
 -9 6 19 -3.29 0.00
 -9 6 21 -2.21 0.00
 -9 6 23 -0.41 0.00
 -9 6 25 1.60 0.00
 -9 6 27 3.18 0.00
 -9 6 29 3.23 0.00
 -9 6 31 1.80 0.00
 -9 6 33 0.67 0.00
 -9 6 35 1.05 0.00
 9 7 28 3.93 0.00
 9 7 26 3.76 0.00
 9 7 24 1.66 0.00
 9 7 22 -0.45 0.00
 9 7 20 -0.53 0.00
 9 7 18 0.94 0.00
 9 7 16 1.82 0.00
 9 7 14 1.33 0.00
 9 7 12 0.49 0.00
 9 7 10 -0.09 0.00
 9 7 8 -0.84 0.00
 9 7 6 -1.70 0.00
 9 7 4 -1.57 0.00
 9 7 2 -0.20 0.00
 9 7 0 1.00 0.00
 -9 7 12 -3.52 0.00
 -9 7 14 -0.64 0.00
 -9 7 16 2.58 0.00
 -9 7 18 3.86 0.00
 -9 7 20 2.73 0.00
 -9 7 22 0.35 0.00
 -9 7 24 -1.96 0.00
 -9 7 26 -3.26 0.00
 -9 7 28 -2.76 0.00
 -9 7 30 -0.62 0.00
 -9 7 32 1.38 0.00
 -9 7 34 1.36 0.00
 -9 7 36 -0.26 0.00
 9 8 27 -4.81 0.00
 9 8 25 -4.07 0.00
 9 8 23 -1.16 0.00
 9 8 21 1.45 0.00
 9 8 19 1.92 0.00
 9 8 17 1.14 0.00
 9 8 15 0.81 0.00
 9 8 13 0.97 0.00
 9 8 11 0.84 0.00
 9 8 9 0.80 0.00
 9 8 7 1.63 0.00
 9 8 5 2.61 0.00
 9 8 3 2.23 0.00
 9 8 1 0.63 0.00
 -9 8 11 0.65 0.00
 -9 8 13 0.62 0.00
 -9 8 15 0.14 0.00
 -9 8 17 -0.60 0.00
 -9 8 19 -1.40 0.00
 -9 8 21 -1.76 0.00
 -9 8 23 -1.05 0.00
 -9 8 25 0.85 0.00
 -9 8 27 2.77 0.00
 -9 8 29 3.18 0.00
 -9 8 31 1.83 0.00
 -9 8 33 0.11 0.00
 -9 8 35 -0.75 0.00
 9 9 24 6.50 0.00
 9 9 22 2.81 0.00
 9 9 20 -0.74 0.00
 9 9 18 -2.35 0.00
 9 9 16 -2.71 0.00
 9 9 14 -2.75 0.00
 9 9 12 -2.27 0.00
 9 9 10 -1.40 0.00
 9 9 8 -1.33 0.00
 9 9 6 -2.44 0.00
 9 9 4 -3.31 0.00
 9 9 2 -2.72 0.00
 -9 9 10 0.80 0.00
 -9 9 12 -0.24 0.00
 -9 9 14 -1.82 0.00
 -9 9 16 -2.83 0.00
 -9 9 18 -2.15 0.00
 -9 9 20 -0.21 0.00
 -9 9 22 1.22 0.00
 -9 9 24 0.91 0.00
 -9 9 26 -0.55 0.00
 -9 9 28 -1.47 0.00
 -9 9 30 -0.82 0.00
 -9 9 32 0.86 0.00
 -9 9 34 2.37 0.00
 9 10 25 -6.00 0.00
 9 10 23 -4.02 0.00
 9 10 21 -0.64 0.00
 9 10 19 1.33 0.00
 9 10 17 1.48 0.00
 9 10 15 1.16 0.00
 9 10 13 0.89 0.00
 9 10 11 0.22 0.00
 9 10 9 -0.46 0.00
 9 10 7 -0.25 0.00
 9 10 5 0.54 0.00
 9 10 3 0.77 0.00
 -9 10 7 -1.79 0.00
 -9 10 11 -1.54 0.00
 -9 10 13 -0.64 0.00
 -9 10 15 0.65 0.00
 -9 10 17 1.09 0.00
 -9 10 19 0.36 0.00
 -9 10 21 -0.27 0.00
 -9 10 23 0.30 0.00
 -9 10 25 1.47 0.00
 -9 10 27 1.74 0.00
 -9 10 29 0.59 0.00
 -9 10 31 -1.08 0.00
 -9 10 33 -2.12 0.00
 9 11 24 1.84 0.00
 9 11 22 -0.41 0.00
 9 11 20 -1.55 0.00
 9 11 18 -0.84 0.00
 9 11 16 0.05 0.00
 9 11 14 -0.07 0.00
 9 11 12 -0.21 0.00
 9 11 10 0.69 0.00
 9 11 8 2.09 0.00
 9 11 6 3.11 0.00
 9 11 4 3.80 0.00
 -9 11 2 -0.91 0.00
 -9 11 16 0.24 0.00
 -9 11 18 1.22 0.00
 -9 11 20 2.14 0.00
 -9 11 22 1.70 0.00
 -9 11 24 0.06 0.00
 -9 11 26 -1.31 0.00
 -9 11 28 -1.49 0.00
 -9 11 30 -0.95 0.00
 -9 11 32 -0.49 0.00
 9 12 21 0.58 0.00
 9 12 19 -0.60 0.00
 9 12 17 -1.66 0.00
 9 12 15 -0.90 0.00
 9 12 13 0.85 0.00
 9 12 11 1.43 0.00
 9 12 9 0.27 0.00
 9 12 7 -1.55 0.00
 9 12 5 -3.39 0.00
 9 12 3 -4.91 0.00
 9 13 18 2.04 0.00
 9 13 16 2.64 0.00
 9 13 14 1.59 0.00
 9 13 12 0.41 0.00
 9 13 10 -0.06 0.00
 9 13 8 -0.42 0.00
 8 0 30 -0.12 0.00
 8 0 22 1.82 0.00
 8 0 20 1.41 0.00
 8 0 18 2.27 0.00
 8 0 16 5.10 0.00
 8 0 14 7.07 0.00
 8 0 12 6.34 0.00
 8 0 10 5.47 0.00
 8 0 8 7.64 0.00
 8 0 6 11.61 0.00
 8 0 4 13.81 0.00
 8 0 2 13.59 0.00
 8 0 0 12.66 0.00
 -8 0 2 10.98 0.00
 -8 0 4 7.58 0.00
 -8 0 6 4.53 0.00
 -8 0 8 4.93 0.00
 -8 0 10 7.35 0.00
 -8 0 12 7.12 0.00
 -8 0 14 3.61 0.00
 -8 0 16 1.18 0.00
 -8 0 18 2.13 0.00
 8 1 29 1.35 0.00
 8 1 27 1.85 0.00
 8 1 25 0.02 0.00
 8 1 23 -2.00 0.00
 8 1 21 -1.95 0.00
 8 1 19 -1.11 0.00
 8 1 17 -2.28 0.00
 8 1 15 -5.15 0.00
 8 1 13 -6.77 0.00
 8 1 11 -6.39 0.00
 8 1 9 -6.53 0.00
 8 1 7 -8.46 0.00
 8 1 5 -10.26 0.00
 8 1 3 -10.43 0.00
 8 1 1 -9.96 0.00
 -8 1 1 -9.13 0.00
 -8 1 3 -6.66 0.00
 -8 1 5 -2.59 0.00
 -8 1 7 -0.49 0.00
 -8 1 9 -2.02 0.00
 -8 1 11 -3.72 0.00
 -8 1 13 -2.19 0.00
 -8 1 15 0.44 0.00
 -8 1 17 0.24 0.00
 -8 1 19 -2.24 0.00
 8 2 30 0.98 0.00
 8 2 28 -0.78 0.00
 8 2 26 -0.32 0.00
 8 2 24 2.16 0.00
 8 2 22 3.31 0.00
 8 2 20 1.44 0.00
 8 2 18 -0.88 0.00
 8 2 16 -0.41 0.00
 8 2 14 2.38 0.00
 8 2 12 4.68 0.00
 8 2 10 5.39 0.00
 8 2 8 5.35 0.00
 8 2 6 4.74 0.00
 8 2 4 3.18 0.00
 8 2 2 1.53 0.00
 8 2 0 0.72 0.00
 -8 2 2 -0.38 0.00
 -8 2 4 -3.38 0.00
 -8 2 6 -6.38 0.00
 -8 2 8 -6.37 0.00
 -8 2 10 -4.07 0.00
 -8 2 12 -2.99 0.00
 -8 2 14 -3.63 0.00
 -8 2 16 -2.78 0.00
 -8 2 18 0.70 0.00
 -8 2 20 3.78 0.00
 -8 2 22 4.15 0.00
 -8 2 24 3.35 0.00
 -8 2 26 3.42 0.00
 -8 2 28 3.71 0.00
 -8 2 30 2.90 0.00
 -8 2 32 1.58 0.00
 -8 2 34 0.82 0.00
 -8 2 36 0.47 0.00
 8 3 29 -1.93 0.00
 8 3 27 -0.88 0.00
 8 3 25 -2.22 0.00
 8 3 23 -4.49 0.00
 8 3 21 -4.17 0.00
 8 3 19 -0.71 0.00
 8 3 17 2.50 0.00
 8 3 15 2.50 0.00
 8 3 13 0.23 0.00
 8 3 11 -1.47 0.00
 8 3 9 -1.26 0.00
 8 3 7 0.33 0.00
 8 3 5 2.45 0.00
 8 3 3 4.12 0.00
 8 3 1 4.51 0.00
 -8 3 1 4.25 0.00
 -8 3 3 5.46 0.00
 -8 3 5 8.16 0.00
 -8 3 7 9.84 0.00
 -8 3 9 8.91 0.00
 -8 3 11 6.93 0.00
 -8 3 13 5.66 0.00
 -8 3 15 4.00 0.00
 -8 3 17 0.66 0.00
 -8 3 19 -2.56 0.00
 -8 3 21 -3.04 0.00
 -8 3 23 -1.45 0.00
 -8 3 25 -0.62 0.00
 -8 3 27 -1.20 0.00
 -8 3 29 -1.37 0.00
 -8 3 31 -0.20 0.00
 -8 3 33 1.38 0.00
 -8 3 35 2.38 0.00
 -8 3 37 2.68 0.00
 8 4 30 1.04 0.00
 8 4 28 -0.83 0.00
 8 4 26 -0.87 0.00
 8 4 24 1.96 0.00
 8 4 22 4.80 0.00
 8 4 20 4.28 0.00
 8 4 18 0.80 0.00
 8 4 16 -2.01 0.00
 8 4 14 -1.98 0.00
 8 4 12 -0.67 0.00
 8 4 10 -0.69 0.00
 8 4 8 -2.56 0.00
 8 4 6 -4.79 0.00
 8 4 4 -5.68 0.00
 8 4 2 -4.56 0.00
 8 4 0 -2.32 0.00
 -8 4 2 -1.17 0.00
 -8 4 4 -2.58 0.00
 -8 4 6 -5.31 0.00
 -8 4 8 -6.71 0.00
 -8 4 10 -5.93 0.00
 -8 4 12 -4.34 0.00
 -8 4 14 -2.90 0.00
 -8 4 16 -1.22 0.00
 -8 4 18 0.36 0.00
 -8 4 20 0.46 0.00
 -8 4 22 -0.92 0.00
 -8 4 24 -1.81 0.00
 -8 4 26 -1.18 0.00
 -8 4 28 -0.61 0.00
 -8 4 30 -1.85 0.00
 -8 4 32 -4.38 0.00
 -8 4 34 -6.36 0.00
 -8 4 36 -6.79 0.00
 8 5 29 2.77 0.00
 8 5 27 4.99 0.00
 8 5 25 4.20 0.00
 8 5 23 0.60 0.00
 8 5 21 -2.52 0.00
 8 5 19 -2.42 0.00
 8 5 17 0.06 0.00
 8 5 15 1.88 0.00
 8 5 13 1.60 0.00
 8 5 11 0.55 0.00
 8 5 9 0.52 0.00
 8 5 7 1.65 0.00
 8 5 5 2.88 0.00
 8 5 3 3.21 0.00
 8 5 1 2.20 0.00
 -8 5 1 0.35 0.00
 -8 5 3 -0.86 0.00
 -8 5 5 -0.60 0.00
 -8 5 11 0.71 0.00
 -8 5 13 0.20 0.00
 -8 5 15 -0.29 0.00
 -8 5 17 -0.81 0.00
 -8 5 19 -0.78 0.00
 -8 5 21 0.34 0.00
 -8 5 23 1.78 0.00
 -8 5 25 2.18 0.00
 -8 5 27 1.48 0.00
 -8 5 29 0.95 0.00
 -8 5 31 1.34 0.00
 -8 5 33 2.05 0.00
 -8 5 35 2.27 0.00
 8 6 28 -3.34 0.00
 8 6 26 -4.67 0.00
 8 6 24 -3.84 0.00
 8 6 22 -1.22 0.00
 8 6 20 0.92 0.00
 8 6 18 0.80 0.00
 8 6 16 -0.89 0.00
 8 6 14 -2.08 0.00
 8 6 12 -1.80 0.00
 8 6 10 -0.75 0.00
 8 6 8 0.06 0.00
 8 6 6 0.15 0.00
 8 6 4 -0.45 0.00
 8 6 2 -1.18 0.00
 8 6 0 -0.96 0.00
 -8 6 10 2.79 0.00
 -8 6 12 2.48 0.00
 -8 6 14 2.39 0.00
 -8 6 16 2.56 0.00
 -8 6 18 2.92 0.00
 -8 6 20 2.78 0.00
 -8 6 22 1.55 0.00
 -8 6 24 -0.07 0.00
 -8 6 26 -0.54 0.00
 -8 6 28 0.78 0.00
 -8 6 30 2.92 0.00
 -8 6 32 4.33 0.00
 -8 6 34 4.31 0.00
 -8 6 36 3.15 0.00
 8 7 29 -0.74 0.00
 8 7 27 0.02 0.00
 8 7 25 1.23 0.00
 8 7 23 1.67 0.00
 8 7 21 0.95 0.00
 8 7 19 0.17 0.00
 8 7 17 0.47 0.00
 8 7 15 1.62 0.00
 8 7 13 2.56 0.00
 8 7 11 2.63 0.00
 8 7 9 1.87 0.00
 8 7 7 0.60 0.00
 8 7 5 -0.53 0.00
 8 7 3 -0.80 0.00
 8 7 1 -0.43 0.00
 -8 7 1 -0.43 0.00
 -8 7 9 -3.93 0.00
 -8 7 11 -4.02 0.00
 -8 7 13 -3.47 0.00
 -8 7 15 -2.31 0.00
 -8 7 17 -1.81 0.00
 -8 7 19 -2.92 0.00
 -8 7 21 -4.49 0.00
 -8 7 23 -4.45 0.00
 -8 7 25 -2.50 0.00
 -8 7 27 -0.59 0.00
 -8 7 29 -0.42 0.00
 -8 7 31 -1.62 0.00
 -8 7 33 -2.76 0.00
 -8 7 35 -3.02 0.00
 8 8 28 1.70 0.00
 8 8 26 -0.22 0.00
 8 8 24 -2.78 0.00
 8 8 22 -4.11 0.00
 8 8 20 -3.48 0.00
 8 8 18 -1.95 0.00
 8 8 16 -0.95 0.00
 8 8 14 -0.85 0.00
 8 8 12 -1.20 0.00
 8 8 10 -1.35 0.00
 8 8 8 -0.74 0.00
 8 8 6 0.60 0.00
 8 8 4 1.78 0.00
 8 8 2 1.91 0.00
 8 8 0 1.27 0.00
 -8 8 8 1.54 0.00
 -8 8 10 1.93 0.00
 -8 8 12 1.85 0.00
 -8 8 14 0.39 0.00
 -8 8 16 -1.61 0.00
 -8 8 18 -1.81 0.00
 -8 8 20 0.42 0.00
 -8 8 22 2.66 0.00
 -8 8 24 2.34 0.00
 -8 8 26 0.04 0.00
 -8 8 28 -1.59 0.00
 -8 8 30 -1.28 0.00
 -8 8 32 -0.08 0.00
 -8 8 34 0.74 0.00
 8 9 25 2.10 0.00
 8 9 23 3.43 0.00
 8 9 21 3.03 0.00
 8 9 19 1.29 0.00
 8 9 17 -0.46 0.00
 8 9 15 -1.43 0.00
 8 9 13 -1.69 0.00
 8 9 11 -1.52 0.00
 8 9 9 -1.20 0.00
 8 9 7 -1.05 0.00
 8 9 5 -1.03 0.00
 8 9 3 -0.67 0.00
 8 9 1 0.07 0.00
 -8 9 7 0.28 0.00
 -8 9 9 0.31 0.00
 -8 9 11 -0.45 0.00
 -8 9 13 -0.97 0.00
 -8 9 15 -0.01 0.00
 -8 9 17 1.73 0.00
 -8 9 19 2.55 0.00
 -8 9 21 2.39 0.00
 -8 9 23 2.70 0.00
 -8 9 25 3.71 0.00
 -8 9 27 3.68 0.00
 -8 9 29 1.73 0.00
 -8 9 31 -0.48 0.00
 -8 9 33 -0.90 0.00
 8 10 26 -2.39 0.00
 8 10 24 -1.81 0.00
 8 10 22 -0.06 0.00
 8 10 20 1.83 0.00
 8 10 18 2.65 0.00
 8 10 16 2.40 0.00
 8 10 14 2.06 0.00
 8 10 12 2.07 0.00
 8 10 10 1.87 0.00
 8 10 8 0.98 0.00
 8 10 6 -0.39 0.00
 8 10 4 -1.77 0.00
 8 10 2 -2.79 0.00
 -8 10 4 -1.13 0.00
 -8 10 6 -1.10 0.00
 -8 10 8 -1.77 0.00
 -8 10 10 -1.55 0.00
 -8 10 12 0.03 0.00
 -8 10 14 1.37 0.00
 -8 10 16 1.00 0.00
 -8 10 18 -0.48 0.00
 -8 10 20 -1.76 0.00
 -8 10 22 -2.66 0.00
 -8 10 24 -3.59 0.00
 -8 10 26 -3.89 0.00
 -8 10 28 -2.66 0.00
 -8 10 30 -0.62 0.00
 -8 10 32 0.31 0.00
 8 11 25 4.23 0.00
 8 11 23 2.34 0.00
 8 11 21 0.01 0.00
 8 11 19 -0.93 0.00
 8 11 17 -0.34 0.00
 8 11 15 0.12 0.00
 8 11 13 -0.71 0.00
 8 11 11 -2.01 0.00
 8 11 9 -2.20 0.00
 8 11 7 -0.91 0.00
 8 11 5 0.91 0.00
 8 11 3 2.24 0.00
 8 11 1 2.49 0.00
 -8 11 1 1.68 0.00
 -8 11 3 0.50 0.00
 -8 11 11 3.85 0.00
 -8 11 13 1.14 0.00
 -8 11 15 -1.32 0.00
 -8 11 17 -1.68 0.00
 -8 11 19 -0.41 0.00
 -8 11 21 1.13 0.00
 -8 11 23 2.28 0.00
 -8 11 25 2.80 0.00
 -8 11 27 2.26 0.00
 -8 11 29 0.80 0.00
 -8 11 31 -0.50 0.00
 8 12 22 -0.78 0.00
 8 12 20 0.09 0.00
 8 12 18 -0.73 0.00
 8 12 16 -1.87 0.00
 8 12 14 -1.49 0.00
 8 12 12 0.40 0.00
 8 12 10 2.12 0.00
 8 12 8 2.53 0.00
 8 12 6 2.03 0.00
 8 12 4 1.54 0.00
 8 12 2 1.45 0.00
 8 12 0 1.72 0.00
 8 13 21 -1.21 0.00
 8 13 19 -1.11 0.00
 8 13 17 -0.16 0.00
 8 13 15 0.30 0.00
 8 13 13 -0.19 0.00
 8 13 11 -0.70 0.00
 8 13 9 -0.50 0.00
 8 13 7 -0.19 0.00
 8 14 18 -0.42 0.00
 8 14 16 -0.34 0.00
 7 1 20 0.79 0.00
 7 1 18 2.24 0.00
 7 1 16 2.51 0.00
 7 1 14 1.37 0.00
 7 1 12 -0.18 0.00
 7 1 10 -0.41 0.00
 7 1 8 1.65 0.00
 7 1 6 4.86 0.00
 7 1 4 6.84 0.00
 7 1 2 6.71 0.00
 7 1 0 6.09 0.00
 -7 1 2 -6.85 0.00
 -7 1 4 -8.52 0.00
 -7 1 6 -8.99 0.00
 -7 1 8 -7.56 0.00
 -7 1 10 -5.54 0.00
 -7 1 12 -4.24 0.00
 -7 1 14 -3.54 0.00
 -7 1 16 -2.60 0.00
 -7 1 18 -1.22 0.00
 -7 1 20 0.10 0.00
 -7 1 22 0.76 0.00
 -7 1 24 0.58 0.00
 -7 1 26 0.08 0.00
 -7 1 28 0.06 0.00
 -7 1 30 0.75 0.00
 -7 1 32 1.48 0.00
 -7 1 34 1.58 0.00
 -7 1 36 1.31 0.00
 7 2 21 3.00 0.00
 7 2 19 -0.06 0.00
 7 2 17 -2.51 0.00
 7 2 15 -3.39 0.00
 7 2 13 -2.61 0.00
 7 2 11 -1.37 0.00
 7 2 9 -1.63 0.00
 7 2 7 -4.05 0.00
 7 2 5 -6.71 0.00
 7 2 3 -7.32 0.00
 7 2 1 -6.46 0.00
 -7 2 1 6.88 0.00
 -7 2 3 9.23 0.00
 -7 2 5 11.01 0.00
 -7 2 7 10.06 0.00
 -7 2 9 7.48 0.00
 -7 2 11 5.66 0.00
 -7 2 13 5.04 0.00
 -7 2 15 4.32 0.00
 -7 2 17 2.71 0.00
 -7 2 19 0.78 0.00
 -7 2 21 -0.46 0.00
 -7 2 23 -0.48 0.00
 -7 2 25 0.33 0.00
 -7 2 27 0.78 0.00
 -7 2 29 -0.05 0.00
 -7 2 31 -1.46 0.00
 -7 2 33 -1.79 0.00
 -7 2 35 -0.73 0.00
 -7 2 37 0.27 0.00
 7 3 20 -3.58 0.00
 7 3 18 -1.29 0.00
 7 3 16 0.57 0.00
 7 3 14 1.56 0.00
 7 3 12 1.60 0.00
 7 3 10 1.59 0.00
 7 3 8 2.82 0.00
 7 3 6 4.87 0.00
 7 3 4 5.28 0.00
 7 3 2 2.84 0.00
 7 3 0 -0.20 0.00
 -7 3 2 0.77 0.00
 -7 3 4 -1.03 0.00
 -7 3 6 -2.64 0.00
 -7 3 8 -2.78 0.00
 -7 3 10 -2.39 0.00
 -7 3 12 -2.26 0.00
 -7 3 14 -2.01 0.00
 -7 3 16 -1.40 0.00
 -7 3 18 -0.87 0.00
 -7 3 20 -0.62 0.00
 -7 3 22 -0.43 0.00
 -7 3 24 -0.33 0.00
 -7 3 26 -0.27 0.00
 -7 3 28 0.20 0.00
 -7 3 30 0.98 0.00
 -7 3 32 0.70 0.00
 -7 3 34 -1.46 0.00
 -7 3 36 -4.00 0.00
 7 4 21 2.69 0.00
 7 4 19 2.38 0.00
 7 4 17 1.93 0.00
 7 4 15 1.08 0.00
 7 4 13 0.16 0.00
 7 4 11 -0.07 0.00
 7 4 9 0.12 0.00
 7 4 7 -0.33 0.00
 7 4 5 -1.26 0.00
 7 4 3 -1.03 0.00
 7 4 1 1.02 0.00
 -7 4 1 -3.46 0.00
 -7 4 3 -4.67 0.00
 -7 4 5 -4.74 0.00
 -7 4 7 -4.37 0.00
 -7 4 9 -3.64 0.00
 -7 4 11 -2.77 0.00
 -7 4 13 -2.51 0.00
 -7 4 15 -2.97 0.00
 -7 4 17 -3.14 0.00
 -7 4 19 -2.50 0.00
 -7 4 21 -1.71 0.00
 -7 4 23 -1.17 0.00
 -7 4 25 -0.52 0.00
 -7 4 27 0.12 0.00
 -7 4 29 -0.02 0.00
 -7 4 31 -0.44 0.00
 -7 4 33 0.41 0.00
 -7 4 35 2.59 0.00
 -7 4 37 3.98 0.00
 7 5 30 -0.82 0.00
 7 5 28 -1.06 0.00
 7 5 26 -1.47 0.00
 7 5 24 -1.65 0.00
 7 5 22 -1.25 0.00
 7 5 20 -0.88 0.00
 7 5 18 -1.11 0.00
 7 5 16 -1.19 0.00
 7 5 14 -0.21 0.00
 7 5 12 1.01 0.00
 7 5 10 0.60 0.00
 7 5 8 -1.53 0.00
 7 5 6 -3.37 0.00
 7 5 4 -3.49 0.00
 7 5 2 -2.67 0.00
 7 5 0 -2.58 0.00
 -7 5 2 3.93 0.00
 -7 5 4 6.00 0.00
 -7 5 6 7.36 0.00
 -7 5 8 6.76 0.00
 -7 5 10 4.55 0.00
 -7 5 12 2.80 0.00
 -7 5 14 3.12 0.00
 -7 5 16 4.75 0.00
 -7 5 18 5.82 0.00
 -7 5 20 5.57 0.00
 -7 5 22 4.29 0.00
 -7 5 24 2.20 0.00
 -7 5 26 0.06 0.00
 -7 5 28 -0.37 0.00
 -7 5 30 1.41 0.00
 -7 5 32 3.14 0.00
 -7 5 34 2.37 0.00
 -7 5 36 -0.10 0.00
 7 6 31 0.40 0.00
 7 6 29 2.01 0.00
 7 6 27 3.55 0.00
 7 6 25 4.25 0.00
 7 6 23 3.12 0.00
 7 6 21 0.63 0.00
 7 6 19 -1.14 0.00
 7 6 17 -1.08 0.00
 7 6 15 -0.66 0.00
 7 6 13 -1.54 0.00
 7 6 11 -2.68 0.00
 7 6 9 -1.70 0.00
 7 6 7 1.57 0.00
 7 6 5 4.64 0.00
 7 6 3 5.60 0.00
 7 6 1 5.09 0.00
 -7 6 1 -4.93 0.00
 -7 6 3 -5.73 0.00
 -7 6 5 -6.44 0.00
 -7 6 7 -5.65 0.00
 -7 6 9 -3.29 0.00
 -7 6 11 -1.09 0.00
 -7 6 13 -0.93 0.00
 -7 6 15 -2.68 0.00
 -7 6 17 -4.57 0.00
 -7 6 19 -5.35 0.00
 -7 6 21 -4.96 0.00
 -7 6 23 -3.44 0.00
 -7 6 25 -0.89 0.00
 -7 6 27 1.24 0.00
 -7 6 29 1.26 0.00
 -7 6 31 -0.19 0.00
 -7 6 33 -0.53 0.00
 -7 6 35 1.03 0.00
 7 7 30 -1.37 0.00
 7 7 28 -2.68 0.00
 7 7 26 -3.80 0.00
 7 7 24 -3.48 0.00
 7 7 22 -0.79 0.00
 7 7 20 2.75 0.00
 7 7 18 4.16 0.00
 7 7 16 2.70 0.00
 7 7 14 0.88 0.00
 7 7 12 0.81 0.00
 7 7 10 1.29 0.00
 7 7 8 0.06 0.00
 7 7 6 -2.68 0.00
 7 7 4 -4.64 0.00
 7 7 2 -4.70 0.00
 7 7 0 -3.84 0.00
 -7 7 6 2.00 0.00
 -7 7 8 0.43 0.00
 -7 7 10 -0.86 0.00
 -7 7 12 -0.92 0.00
 -7 7 14 0.01 0.00
 -7 7 16 0.77 0.00
 -7 7 18 0.74 0.00
 -7 7 20 0.42 0.00
 -7 7 22 0.09 0.00
 -7 7 24 -0.82 0.00
 -7 7 26 -2.47 0.00
 -7 7 28 -3.76 0.00
 -7 7 30 -4.01 0.00
 -7 7 32 -4.12 0.00
 -7 7 34 -4.80 0.00
 7 8 29 0.39 0.00
 7 8 27 1.20 0.00
 7 8 25 2.74 0.00
 7 8 23 3.24 0.00
 7 8 21 1.36 0.00
 7 8 19 -1.31 0.00
 7 8 17 -1.86 0.00
 7 8 15 0.04 0.00
 7 8 13 1.98 0.00
 7 8 11 2.41 0.00
 7 8 9 2.37 0.00
 7 8 7 2.90 0.00
 7 8 5 3.19 0.00
 7 8 3 2.26 0.00
 7 8 1 0.83 0.00
 -7 8 5 0.39 0.00
 -7 8 7 1.58 0.00
 -7 8 9 2.50 0.00
 -7 8 11 2.38 0.00
 -7 8 13 1.56 0.00
 -7 8 15 1.17 0.00
 -7 8 17 1.87 0.00
 -7 8 19 3.21 0.00
 -7 8 21 4.25 0.00
 -7 8 23 4.61 0.00
 -7 8 25 4.26 0.00
 -7 8 27 3.10 0.00
 -7 8 29 1.42 0.00
 -7 8 31 0.59 0.00
 -7 8 33 1.57 0.00
 -7 8 35 3.22 0.00
 7 9 26 -0.58 0.00
 7 9 24 -4.71 0.00
 7 9 22 -7.35 0.00
 7 9 20 -6.28 0.00
 7 9 18 -3.25 0.00
 7 9 16 -1.53 0.00
 7 9 14 -1.81 0.00
 7 9 12 -2.41 0.00
 7 9 10 -2.32 0.00
 7 9 8 -1.86 0.00
 7 9 6 -1.08 0.00
 7 9 4 0.32 0.00
 7 9 2 1.66 0.00
 -7 9 6 -1.82 0.00
 -7 9 8 -2.77 0.00
 -7 9 10 -2.49 0.00
 -7 9 12 -1.50 0.00
 -7 9 14 -1.11 0.00
 -7 9 16 -1.79 0.00
 -7 9 18 -2.87 0.00
 -7 9 20 -3.45 0.00
 -7 9 22 -3.21 0.00
 -7 9 24 -2.17 0.00
 -7 9 26 -0.33 0.00
 -7 9 28 1.94 0.00
 -7 9 30 3.46 0.00
 -7 9 32 3.08 0.00
 -7 9 34 1.25 0.00
 7 10 27 -3.52 0.00
 7 10 25 -1.06 0.00
 7 10 23 2.73 0.00
 7 10 21 4.18 0.00
 7 10 19 2.31 0.00
 7 10 17 -0.11 0.00
 7 10 15 -0.54 0.00
 7 10 13 0.38 0.00
 7 10 11 0.68 0.00
 7 10 9 -0.13 0.00
 7 10 7 -1.34 0.00
 7 10 5 -2.40 0.00
 7 10 3 -2.69 0.00
 7 10 1 -1.47 0.00
 -7 10 1 -0.69 0.00
 -7 10 3 -1.59 0.00
 -7 10 5 -0.11 0.00
 -7 10 7 2.05 0.00
 -7 10 9 2.60 0.00
 -7 10 11 1.57 0.00
 -7 10 13 0.80 0.00
 -7 10 15 1.23 0.00
 -7 10 17 1.99 0.00
 -7 10 19 1.98 0.00
 -7 10 21 1.18 0.00
 -7 10 23 0.19 0.00
 -7 10 25 -0.80 0.00
 -7 10 27 -1.91 0.00
 -7 10 29 -2.89 0.00
 -7 10 31 -3.15 0.00
 -7 10 33 -2.63 0.00
 7 11 26 4.07 0.00
 7 11 24 2.81 0.00
 7 11 22 1.75 0.00
 7 11 20 2.52 0.00
 7 11 18 3.70 0.00
 7 11 16 2.92 0.00
 7 11 14 0.48 0.00
 7 11 12 -1.13 0.00
 7 11 10 -0.73 0.00
 7 11 8 0.53 0.00
 7 11 6 1.25 0.00
 7 11 4 0.90 0.00
 7 11 2 -0.80 0.00
 7 11 0 -3.45 0.00
 -7 11 2 5.07 0.00
 -7 11 4 3.77 0.00
 -7 11 6 0.42 0.00
 -7 11 8 -1.87 0.00
 -7 11 10 -1.54 0.00
 -7 11 12 -0.02 0.00
 -7 11 14 0.81 0.00
 -7 11 16 0.87 0.00
 -7 11 18 1.02 0.00
 -7 11 20 1.24 0.00
 -7 11 22 0.82 0.00
 -7 11 24 -0.18 0.00
 -7 11 26 -0.88 0.00
 -7 11 28 -0.75 0.00
 -7 11 30 -0.13 0.00
 -7 11 32 0.40 0.00
 7 12 23 -1.03 0.00
 7 12 21 -1.56 0.00
 7 12 19 -2.51 0.00
 7 12 17 -1.86 0.00
 7 12 15 0.48 0.00
 7 12 13 2.04 0.00
 7 12 11 1.16 0.00
 7 12 9 -0.79 0.00
 7 12 7 -1.63 0.00
 7 12 5 -0.87 0.00
 7 12 3 1.00 0.00
 7 12 1 3.73 0.00
 -7 12 15 0.11 0.00
 -7 12 17 0.29 0.00
 -7 12 19 -0.54 0.00
 -7 12 21 -1.60 0.00
 -7 12 23 -1.95 0.00
 -7 12 25 -1.53 0.00
 -7 12 27 -0.80 0.00
 -7 12 29 0.02 0.00
 -7 12 31 0.82 0.00
 7 13 22 -0.03 0.00
 7 13 20 1.18 0.00
 7 13 18 1.51 0.00
 7 13 16 0.05 0.00
 7 13 14 -1.45 0.00
 7 13 12 -0.89 0.00
 7 13 10 1.08 0.00
 7 13 8 2.19 0.00
 7 13 6 1.83 0.00
 7 14 19 -0.92 0.00
 7 14 17 -1.14 0.00
 7 14 15 -0.67 0.00
 7 14 13 -0.81 0.00
 6 0 16 9.20 0.00
 6 0 14 11.27 0.00
 6 0 12 8.58 0.00
 6 0 10 6.16 0.00
 6 0 8 7.28 0.00
 6 0 6 8.70 0.00
 6 0 4 6.72 0.00
 6 0 2 2.91 0.00
 6 0 0 0.11 0.00
 -6 0 2 -2.76 0.00
 -6 0 4 -6.89 0.00
 -6 0 6 -8.94 0.00
 -6 0 8 -5.96 0.00
 -6 0 10 -1.65 0.00
 -6 0 12 -1.61 0.00
 -6 0 14 -4.68 0.00
 -6 0 16 -5.08 0.00
 -6 0 18 -1.63 0.00
 -6 0 20 1.32 0.00
 -6 0 22 1.35 0.00
 -6 0 24 0.72 0.00
 -6 0 26 1.38 0.00
 -6 0 28 2.13 0.00
 -6 0 30 1.62 0.00
 -6 0 32 0.32 0.00
 -6 0 34 -1.09 0.00
 -6 0 36 -2.47 0.00
 -6 0 38 -3.03 0.00
 6 1 21 -1.94 0.00
 6 1 19 -1.93 0.00
 6 1 17 -5.33 0.00
 6 1 15 -8.39 0.00
 6 1 13 -7.21 0.00
 6 1 11 -4.21 0.00
 6 1 9 -4.42 0.00
 6 1 7 -7.45 0.00
 6 1 5 -8.34 0.00
 6 1 3 -5.32 0.00
 6 1 1 -1.28 0.00
 -6 1 1 2.35 0.00
 -6 1 3 6.51 0.00
 -6 1 5 9.84 0.00
 -6 1 7 8.55 0.00
 -6 1 9 3.40 0.00
 -6 1 11 0.51 0.00
 -6 1 13 2.65 0.00
 -6 1 15 5.19 0.00
 -6 1 17 3.62 0.00
 -6 1 19 -0.01 0.00
 -6 1 21 -1.51 0.00
 -6 1 23 -0.92 0.00
 -6 1 25 -0.79 0.00
 -6 1 27 -1.38 0.00
 -6 1 29 -1.27 0.00
 -6 1 31 -0.43 0.00
 -6 1 33 0.25 0.00
 -6 1 35 0.84 0.00
 -6 1 37 1.49 0.00
 6 2 22 3.50 0.00
 6 2 20 1.33 0.00
 6 2 18 1.22 0.00
 6 2 16 3.30 0.00
 6 2 14 3.87 0.00
 6 2 12 1.50 0.00
 6 2 10 -0.53 0.00
 6 2 8 0.38 0.00
 6 2 6 2.03 0.00
 6 2 4 1.55 0.00
 6 2 2 -0.14 0.00
 6 2 0 -1.07 0.00
 -6 2 2 -2.10 0.00
 -6 2 4 -4.43 0.00
 -6 2 6 -5.45 0.00
 -6 2 8 -2.85 0.00
 -6 2 10 0.52 0.00
 -6 2 12 0.40 0.00
 -6 2 14 -2.17 0.00
 -6 2 16 -2.71 0.00
 -6 2 18 -0.50 0.00
 -6 2 20 1.12 0.00
 -6 2 22 0.80 0.00
 -6 2 24 0.56 0.00
 -6 2 26 1.40 0.00
 -6 2 28 1.78 0.00
 -6 2 30 0.84 0.00
 -6 2 32 -0.25 0.00
 -6 2 34 -0.62 0.00
 -6 2 36 -0.77 0.00
 6 3 21 0.12 0.00
 6 3 19 1.71 0.00
 6 3 17 1.32 0.00
 6 3 15 -0.37 0.00
 6 3 13 -0.57 0.00
 6 3 11 1.15 0.00
 6 3 9 2.66 0.00
 6 3 7 3.23 0.00
 6 3 5 4.15 0.00
 6 3 3 5.27 0.00
 6 3 1 4.65 0.00
 -6 3 1 2.22 0.00
 -6 3 3 0.63 0.00
 -6 3 5 0.53 0.00
 -6 3 7 -0.08 0.00
 -6 3 9 -1.89 0.00
 -6 3 11 -2.76 0.00
 -6 3 13 -1.85 0.00
 -6 3 15 -1.40 0.00
 -6 3 17 -2.72 0.00
 -6 3 19 -3.73 0.00
 -6 3 21 -2.72 0.00
 -6 3 23 -1.36 0.00
 -6 3 25 -1.59 0.00
 -6 3 27 -2.25 0.00
 -6 3 29 -1.27 0.00
 -6 3 31 0.93 0.00
 -6 3 33 2.39 0.00
 -6 3 35 2.43 0.00
 -6 3 37 1.68 0.00
 6 4 22 0.63 0.00
 6 4 20 -0.59 0.00
 6 4 18 -2.07 0.00
 6 4 16 -2.19 0.00
 6 4 14 -1.72 0.00
 6 4 12 -1.94 0.00
 6 4 10 -2.14 0.00
 6 4 8 -1.13 0.00
 6 4 6 0.09 0.00
 6 4 4 -0.28 0.00
 6 4 2 -1.79 0.00
 6 4 0 -2.42 0.00
 -6 4 2 -1.70 0.00
 -6 4 4 -0.48 0.00
 -6 4 6 0.75 0.00
 -6 4 8 1.97 0.00
 -6 4 10 2.25 0.00
 -6 4 12 1.13 0.00
 -6 4 14 0.31 0.00
 -6 4 16 1.57 0.00
 -6 4 18 3.66 0.00
 -6 4 20 3.89 0.00
 -6 4 22 2.25 0.00
 -6 4 24 1.11 0.00
 -6 4 26 1.34 0.00
 -6 4 28 1.34 0.00
 -6 4 30 0.04 0.00
 -6 4 32 -1.61 0.00
 -6 4 34 -2.35 0.00
 -6 4 36 -2.05 0.00
 6 5 23 -2.08 0.00
 6 5 21 -1.75 0.00
 6 5 17 1.26 0.00
 6 5 15 1.60 0.00
 6 5 13 1.79 0.00
 6 5 11 2.03 0.00
 6 5 9 0.90 0.00
 6 5 7 -2.18 0.00
 6 5 5 -5.33 0.00
 6 5 3 -6.47 0.00
 6 5 1 -5.84 0.00
 -6 5 1 -5.08 0.00
 -6 5 3 -4.67 0.00
 -6 5 5 -4.21 0.00
 -6 5 7 -3.34 0.00
 -6 5 9 -1.87 0.00
 -6 5 11 0.27 0.00
 -6 5 13 2.19 0.00
 -6 5 15 2.42 0.00
 -6 5 17 0.97 0.00
 -6 5 19 -0.19 0.00
 -6 5 21 0.20 0.00
 -6 5 23 0.94 0.00
 -6 5 25 0.44 0.00
 -6 5 27 -0.79 0.00
 -6 5 29 -0.99 0.00
 -6 5 31 0.41 0.00
 -6 5 33 2.29 0.00
 -6 5 35 3.35 0.00
 6 6 22 0.32 0.00
 6 6 20 -0.74 0.00
 6 6 18 -1.61 0.00
 6 6 16 -1.26 0.00
 6 6 14 -0.27 0.00
 6 6 12 0.10 0.00
 6 6 10 0.07 0.00
 6 6 8 1.16 0.00
 6 6 6 3.66 0.00
 6 6 4 5.97 0.00
 6 6 2 6.74 0.00
 6 6 0 6.33 0.00
 -6 6 2 5.65 0.00
 -6 6 4 4.54 0.00
 -6 6 6 3.02 0.00
 -6 6 8 1.61 0.00
 -6 6 10 0.68 0.00
 -6 6 12 -0.14 0.00
 -6 6 14 -1.12 0.00
 -6 6 16 -1.91 0.00
 -6 6 18 -2.34 0.00
 -6 6 20 -2.67 0.00
 -6 6 22 -2.83 0.00
 -6 6 24 -2.22 0.00
 -6 6 26 -0.97 0.00
 -6 6 28 -0.44 0.00
 -6 6 30 -1.81 0.00
 -6 6 32 -4.44 0.00
 -6 6 34 -6.29 0.00
 -6 6 36 -5.89 0.00
 6 7 31 -0.13 0.00
 6 7 29 0.29 0.00
 6 7 27 0.25 0.00
 6 7 25 0.19 0.00
 6 7 23 0.54 0.00
 6 7 21 1.40 0.00
 6 7 19 2.24 0.00
 6 7 17 2.16 0.00
 6 7 15 0.91 0.00
 6 7 13 -0.50 0.00
 6 7 11 -1.15 0.00
 6 7 9 -1.41 0.00
 6 7 7 -2.07 0.00
 6 7 5 -2.75 0.00
 6 7 3 -2.52 0.00
 6 7 1 -1.52 0.00
 -6 7 3 -0.48 0.00
 -6 7 5 -0.15 0.00
 -6 7 7 0.25 0.00
 -6 7 9 0.10 0.00
 -6 7 11 -0.40 0.00
 -6 7 13 -0.13 0.00
 -6 7 15 1.13 0.00
 -6 7 17 2.30 0.00
 -6 7 19 2.54 0.00
 -6 7 21 2.30 0.00
 -6 7 23 2.21 0.00
 -6 7 25 1.99 0.00
 -6 7 27 1.23 0.00
 -6 7 29 0.66 0.00
 -6 7 31 1.34 0.00
 -6 7 33 3.01 0.00
 -6 7 35 4.03 0.00
 6 8 30 -1.61 0.00
 6 8 28 -0.78 0.00
 6 8 26 0.76 0.00
 6 8 24 1.96 0.00
 6 8 22 2.09 0.00
 6 8 20 1.10 0.00
 6 8 18 -0.29 0.00
 6 8 16 -1.03 0.00
 6 8 14 -0.74 0.00
 6 8 12 -0.02 0.00
 6 8 10 0.58 0.00
 6 8 8 1.10 0.00
 6 8 6 1.50 0.00
 6 8 4 1.25 0.00
 6 8 2 0.32 0.00
 6 8 0 -0.45 0.00
 -6 8 4 -0.64 0.00
 -6 8 6 -1.20 0.00
 -6 8 8 -1.47 0.00
 -6 8 10 -0.82 0.00
 -6 8 12 -0.18 0.00
 -6 8 14 -0.73 0.00
 -6 8 16 -1.74 0.00
 -6 8 18 -1.50 0.00
 -6 8 20 0.00 0.00
 -6 8 22 0.92 0.00
 -6 8 24 0.46 0.00
 -6 8 26 0.02 0.00
 -6 8 28 0.92 0.00
 -6 8 30 2.31 0.00
 -6 8 32 2.49 0.00
 -6 8 34 1.30 0.00
 6 9 27 -0.11 0.00
 6 9 25 -1.39 0.00
 6 9 23 -1.73 0.00
 6 9 21 -0.93 0.00
 6 9 19 0.49 0.00
 6 9 17 1.49 0.00
 6 9 15 1.45 0.00
 6 9 13 0.81 0.00
 6 9 11 0.44 0.00
 6 9 9 0.47 0.00
 6 9 7 0.33 0.00
 6 9 5 -0.12 0.00
 6 9 3 -0.49 0.00
 6 9 1 -0.66 0.00
 -6 9 1 -0.83 0.00
 -6 9 3 -0.55 0.00
 -6 9 5 0.52 0.00
 -6 9 7 1.58 0.00
 -6 9 9 1.29 0.00
 -6 9 11 -0.12 0.00
 -6 9 13 -0.69 0.00
 -6 9 15 0.37 0.00
 -6 9 17 1.28 0.00
 -6 9 19 0.39 0.00
 -6 9 21 -1.23 0.00
 -6 9 23 -1.39 0.00
 -6 9 25 -0.08 0.00
 -6 9 27 0.59 0.00
 -6 9 29 -0.41 0.00
 -6 9 31 -1.85 0.00
 -6 9 33 -2.34 0.00
 6 10 28 -0.51 0.00
 6 10 26 -0.28 0.00
 6 10 24 -1.01 0.00
 6 10 22 -2.68 0.00
 6 10 20 -4.34 0.00
 6 10 18 -4.75 0.00
 6 10 16 -3.36 0.00
 6 10 14 -1.10 0.00
 6 10 12 0.39 0.00
 6 10 10 0.50 0.00
 6 10 8 0.20 0.00
 6 10 6 0.57 0.00
 6 10 4 1.41 0.00
 6 10 2 1.92 0.00
 6 10 0 1.85 0.00
 -6 10 2 1.22 0.00
 -6 10 4 0.04 0.00
 -6 10 6 -1.51 0.00
 -6 10 8 -2.14 0.00
 -6 10 10 -0.90 0.00
 -6 10 12 1.13 0.00
 -6 10 14 1.99 0.00
 -6 10 16 1.43 0.00
 -6 10 18 0.89 0.00
 -6 10 20 0.86 0.00
 -6 10 22 0.03 0.00
 -6 10 24 -2.21 0.00
 -6 10 26 -4.22 0.00
 -6 10 28 -4.05 0.00
 -6 10 30 -1.99 0.00
 -6 10 32 0.11 0.00
 6 11 27 -0.33 0.00
 6 11 25 -0.56 0.00
 6 11 23 0.29 0.00
 6 11 21 1.98 0.00
 6 11 19 3.36 0.00
 6 11 17 3.22 0.00
 6 11 15 1.61 0.00
 6 11 13 -0.04 0.00
 6 11 11 -0.58 0.00
 6 11 9 -0.50 0.00
 6 11 7 -1.00 0.00
 6 11 5 -2.17 0.00
 6 11 3 -2.86 0.00
 6 11 1 -2.43 0.00
 -6 11 1 -1.39 0.00
 -6 11 3 -0.37 0.00
 -6 11 5 0.88 0.00
 -6 11 7 2.18 0.00
 -6 11 9 2.42 0.00
 -6 11 11 1.01 0.00
 -6 11 13 -0.96 0.00
 -6 11 15 -1.92 0.00
 -6 11 17 -1.77 0.00
 -6 11 19 -1.39 0.00
 -6 11 21 -0.91 0.00
 -6 11 23 0.16 0.00
 -6 11 25 1.47 0.00
 -6 11 27 1.91 0.00
 -6 11 29 1.15 0.00
 -6 11 31 0.09 0.00
 6 12 24 2.38 0.00
 6 12 22 1.84 0.00
 6 12 20 0.27 0.00
 6 12 18 -1.21 0.00
 6 12 16 -1.51 0.00
 6 12 14 -0.88 0.00
 6 12 12 -0.41 0.00
 6 12 10 -0.51 0.00
 6 12 8 -0.49 0.00
 6 12 6 0.06 0.00
 6 12 4 0.50 0.00
 6 12 2 0.21 0.00
 6 12 0 -0.31 0.00
 -6 12 8 -2.27 0.00
 -6 12 10 -3.14 0.00
 -6 12 12 -2.23 0.00
 -6 12 14 -0.46 0.00
 -6 12 16 0.65 0.00
 -6 12 18 0.78 0.00
 -6 12 20 0.58 0.00
 -6 12 22 0.57 0.00
 -6 12 24 0.86 0.00
 -6 12 26 1.50 0.00
 -6 12 28 2.30 0.00
 -6 12 30 2.65 0.00
 6 13 23 -1.71 0.00
 6 13 21 -1.23 0.00
 6 13 19 0.05 0.00
 6 13 17 1.10 0.00
 6 13 15 1.27 0.00
 6 13 13 0.92 0.00
 6 13 11 0.55 0.00
 6 13 9 0.07 0.00
 6 13 7 -0.65 0.00
 6 13 5 -1.06 0.00
 6 14 20 0.81 0.00
 6 14 18 0.45 0.00
 6 14 16 0.19 0.00
 6 14 14 -0.06 0.00
 6 14 12 -0.37 0.00
 5 1 22 -0.54 0.00
 5 1 20 1.34 0.00
 5 1 18 3.10 0.00
 5 1 16 4.53 0.00
 5 1 14 5.28 0.00
 5 1 12 5.50 0.00
 5 1 10 6.19 0.00
 5 1 8 7.84 0.00
 5 1 6 9.21 0.00
 5 1 4 8.68 0.00
 5 1 2 6.84 0.00
 5 1 0 6.16 0.00
 -5 1 2 -7.57 0.00
 -5 1 4 -8.70 0.00
 -5 1 6 -7.00 0.00
 -5 1 8 -3.02 0.00
 -5 1 10 0.31 0.00
 -5 1 12 1.10 0.00
 -5 1 14 -0.01 0.00
 -5 1 16 -1.23 0.00
 -5 1 18 -1.50 0.00
 -5 1 20 -0.89 0.00
 -5 1 22 -0.24 0.00
 -5 1 24 -0.27 0.00
 -5 1 26 -0.81 0.00
 -5 1 28 -0.97 0.00
 -5 1 30 -0.34 0.00
 -5 1 32 0.59 0.00
 -5 1 34 1.22 0.00
 -5 1 36 1.62 0.00
 5 2 23 -1.33 0.00
 5 2 21 -3.29 0.00
 5 2 19 -5.11 0.00
 5 2 17 -6.56 0.00
 5 2 15 -7.01 0.00
 5 2 13 -6.17 0.00
 5 2 11 -5.64 0.00
 5 2 9 -7.86 0.00
 5 2 7 -12.39 0.00
 5 2 5 -14.95 0.00
 5 2 3 -12.04 0.00
 5 2 1 -5.47 0.00
 -5 2 1 0.14 0.00
 -5 2 3 -2.03 0.00
 -5 2 5 -3.03 0.00
 -5 2 7 -4.59 0.00
 -5 2 9 -5.80 0.00
 -5 2 11 -5.45 0.00
 -5 2 13 -4.14 0.00
 -5 2 15 -3.15 0.00
 -5 2 17 -2.73 0.00
 -5 2 19 -2.40 0.00
 -5 2 21 -1.90 0.00
 -5 2 23 -1.21 0.00
 -5 2 25 -0.58 0.00
 -5 2 27 -0.58 0.00
 -5 2 29 -1.35 0.00
 -5 2 31 -1.86 0.00
 -5 2 33 -1.04 0.00
 -5 2 35 0.48 0.00
 -5 2 37 1.03 0.00
 5 3 22 1.61 0.00
 5 3 20 2.48 0.00
 5 3 18 3.68 0.00
 5 3 16 5.30 0.00
 5 3 14 5.96 0.00
 5 3 12 4.47 0.00
 5 3 10 2.26 0.00
 5 3 8 1.88 0.00
 5 3 6 2.86 0.00
 5 3 4 1.75 0.00
 5 3 2 -2.99 0.00
 5 3 0 -8.55 0.00
 -5 3 2 11.51 0.00
 -5 3 4 12.08 0.00
 -5 3 6 11.97 0.00
 -5 3 8 11.38 0.00
 -5 3 10 9.67 0.00
 -5 3 12 7.59 0.00
 -5 3 14 6.52 0.00
 -5 3 16 6.29 0.00
 -5 3 18 5.71 0.00
 -5 3 20 4.39 0.00
 -5 3 22 2.86 0.00
 -5 3 24 1.53 0.00
 -5 3 26 0.88 0.00
 -5 3 28 1.32 0.00
 -5 3 30 2.04 0.00
 -5 3 32 1.27 0.00
 -5 3 34 -1.35 0.00
 -5 3 36 -3.65 0.00
 5 4 23 2.07 0.00
 5 4 21 2.04 0.00
 5 4 19 2.11 0.00
 5 4 17 0.89 0.00
 5 4 15 -1.80 0.00
 5 4 13 -3.43 0.00
 5 4 11 -1.54 0.00
 5 4 9 2.95 0.00
 5 4 7 7.16 0.00
 5 4 5 10.18 0.00
 5 4 3 13.24 0.00
 5 4 1 16.53 0.00
 -5 4 1 -18.65 0.00
 -5 4 3 -18.89 0.00
 -5 4 5 -17.97 0.00
 -5 4 7 -16.14 0.00
 -5 4 9 -13.03 0.00
 -5 4 11 -9.41 0.00
 -5 4 13 -6.89 0.00
 -5 4 15 -5.59 0.00
 -5 4 17 -4.13 0.00
 -5 4 19 -2.01 0.00
 -5 4 21 -0.12 0.00
 -5 4 23 1.00 0.00
 -5 4 25 1.44 0.00
 -5 4 27 0.89 0.00
 -5 4 29 -0.70 0.00
 -5 4 31 -1.73 0.00
 -5 4 33 -0.41 0.00
 -5 4 35 2.41 0.00
 -5 4 37 4.05 0.00
 5 5 24 -2.86 0.00
 5 5 22 -2.08 0.00
 5 5 20 -2.19 0.00
 5 5 18 -2.97 0.00
 5 5 16 -2.52 0.00
 5 5 14 -0.51 0.00
 5 5 12 0.44 0.00
 5 5 10 -1.85 0.00
 5 5 8 -6.05 0.00
 5 5 6 -9.29 0.00
 5 5 4 -10.92 0.00
 5 5 2 -12.36 0.00
 5 5 0 -14.45 0.00
 -5 5 2 16.62 0.00
 -5 5 4 17.68 0.00
 -5 5 6 16.87 0.00
 -5 5 8 14.00 0.00
 -5 5 10 10.25 0.00
 -5 5 12 7.57 0.00
 -5 5 14 6.26 0.00
 -5 5 16 4.65 0.00
 -5 5 18 1.82 0.00
 -5 5 20 -0.97 0.00
 -5 5 22 -2.48 0.00
 -5 5 24 -3.04 0.00
 -5 5 26 -3.11 0.00
 -5 5 28 -2.22 0.00
 -5 5 30 -0.77 0.00
 -5 5 32 -0.55 0.00
 -5 5 34 -2.17 0.00
 -5 5 36 -3.60 0.00
 5 6 29 1.07 0.00
 5 6 23 0.93 0.00
 5 6 21 -1.12 0.00
 5 6 19 -1.07 0.00
 5 6 17 0.50 0.00
 5 6 15 1.05 0.00
 5 6 13 0.11 0.00
 5 6 11 0.11 0.00
 5 6 9 2.51 0.00
 5 6 7 5.30 0.00
 5 6 5 5.79 0.00
 5 6 3 4.19 0.00
 5 6 1 2.96 0.00
 -5 6 1 -3.87 0.00
 -5 6 3 -6.29 0.00
 -5 6 5 -8.26 0.00
 -5 6 7 -8.15 0.00
 -5 6 9 -6.15 0.00
 -5 6 11 -4.06 0.00
 -5 6 13 -3.25 0.00
 -5 6 15 -3.03 0.00
 -5 6 17 -2.19 0.00
 -5 6 19 -0.94 0.00
 -5 6 21 0.04 0.00
 -5 6 23 1.20 0.00
 -5 6 25 2.94 0.00
 -5 6 27 4.01 0.00
 -5 6 29 3.10 0.00
 -5 6 31 1.43 0.00
 -5 6 33 1.17 0.00
 -5 6 35 2.10 0.00
 5 7 28 -0.93 0.00
 5 7 26 -2.48 0.00
 5 7 24 -2.04 0.00
 5 7 22 0.58 0.00
 5 7 20 2.97 0.00
 5 7 18 2.93 0.00
 5 7 16 1.42 0.00
 5 7 14 0.84 0.00
 5 7 12 1.16 0.00
 5 7 10 0.24 0.00
 5 7 8 -2.23 0.00
 5 7 6 -3.72 0.00
 5 7 4 -2.45 0.00
 5 7 2 0.13 0.00
 5 7 0 1.26 0.00
 -5 7 2 -0.01 0.00
 -5 7 4 1.99 0.00
 -5 7 6 2.70 0.00
 -5 7 8 1.46 0.00
 -5 7 10 -0.55 0.00
 -5 7 12 -1.64 0.00
 -5 7 14 -1.29 0.00
 -5 7 16 -0.15 0.00
 -5 7 18 1.21 0.00
 -5 7 20 2.38 0.00
 -5 7 22 2.28 0.00
 -5 7 24 0.16 0.00
 -5 7 26 -2.42 0.00
 -5 7 28 -2.80 0.00
 -5 7 30 -0.75 0.00
 -5 7 32 1.02 0.00
 -5 7 34 0.75 0.00
 5 8 27 1.33 0.00
 5 8 25 2.75 0.00
 5 8 23 2.06 0.00
 5 8 21 -0.61 0.00
 5 8 19 -2.67 0.00
 5 8 17 -2.33 0.00
 5 8 15 -0.88 0.00
 5 8 13 -0.33 0.00
 5 8 11 -0.34 0.00
 5 8 9 0.52 0.00
 5 8 7 1.83 0.00
 5 8 5 1.89 0.00
 5 8 3 0.60 0.00
 5 8 1 -0.33 0.00
 -5 8 1 -0.09 0.00
 -5 8 3 -0.91 0.00
 -5 8 5 -0.81 0.00
 -5 8 7 0.16 0.00
 -5 8 9 1.00 0.00
 -5 8 11 1.06 0.00
 -5 8 13 0.61 0.00
 -5 8 15 0.23 0.00
 -5 8 17 -0.26 0.00
 -5 8 19 -1.34 0.00
 -5 8 21 -2.46 0.00
 -5 8 23 -2.23 0.00
 -5 8 25 -0.50 0.00
 -5 8 27 0.96 0.00
 -5 8 29 0.82 0.00
 -5 8 31 0.09 0.00
 -5 8 33 0.25 0.00
 5 9 28 -0.43 0.00
 5 9 26 -1.39 0.00
 5 9 24 -1.94 0.00
 5 9 22 -0.64 0.00
 5 9 20 1.79 0.00
 5 9 18 2.83 0.00
 5 9 16 1.61 0.00
 5 9 14 0.02 0.00
 5 9 12 -0.30 0.00
 5 9 10 0.01 0.00
 5 9 8 -0.08 0.00
 5 9 6 -0.16 0.00
 5 9 4 0.31 0.00
 5 9 2 0.64 0.00
 5 9 0 0.18 0.00
 -5 9 2 0.31 0.00
 -5 9 4 -0.26 0.00
 -5 9 6 -1.30 0.00
 -5 9 8 -1.24 0.00
 -5 9 10 0.19 0.00
 -5 9 12 1.50 0.00
 -5 9 14 1.31 0.00
 -5 9 16 0.00 0.00
 -5 9 18 -0.80 0.00
 -5 9 20 -0.34 0.00
 -5 9 22 0.43 0.00
 -5 9 24 0.31 0.00
 -5 9 26 -0.53 0.00
 -5 9 28 -1.15 0.00
 -5 9 30 -1.52 0.00
 -5 9 32 -2.16 0.00
 5 10 25 -0.07 0.00
 5 10 23 0.72 0.00
 5 10 21 -0.13 0.00
 5 10 19 -1.62 0.00
 5 10 17 -1.78 0.00
 5 10 15 -0.67 0.00
 5 10 13 0.00 0.00
 5 10 11 -0.30 0.00
 5 10 9 -0.54 0.00
 5 10 7 -0.34 0.00
 5 10 5 -0.24 0.00
 5 10 3 -0.22 0.00
 5 10 1 0.31 0.00
 -5 10 1 -0.86 0.00
 -5 10 3 -0.03 0.00
 -5 10 5 1.97 0.00
 -5 10 7 3.04 0.00
 -5 10 9 1.90 0.00
 -5 10 11 -0.08 0.00
 -5 10 13 -0.66 0.00
 -5 10 15 0.52 0.00
 -5 10 17 1.80 0.00
 -5 10 19 1.61 0.00
 -5 10 21 0.19 0.00
 -5 10 23 -1.21 0.00
 -5 10 25 -1.87 0.00
 -5 10 27 -1.86 0.00
 -5 10 29 -1.11 0.00
 -5 10 31 0.45 0.00
 5 11 28 1.77 0.00
 5 11 26 1.61 0.00
 5 11 24 0.25 0.00
 5 11 22 -0.62 0.00
 5 11 20 -0.25 0.00
 5 11 18 0.00 0.00
 5 11 16 -0.88 0.00
 5 11 14 -1.83 0.00
 5 11 12 -1.59 0.00
 5 11 10 -0.58 0.00
 5 11 8 0.26 0.00
 5 11 6 0.90 0.00
 5 11 4 1.32 0.00
 5 11 2 0.67 0.00
 5 11 0 -1.10 0.00
 -5 11 2 2.23 0.00
 -5 11 4 1.04 0.00
 -5 11 6 -1.29 0.00
 -5 11 8 -2.29 0.00
 -5 11 10 -1.49 0.00
 -5 11 12 -0.63 0.00
 -5 11 14 -0.98 0.00
 -5 11 16 -1.80 0.00
 -5 11 18 -1.66 0.00
 -5 11 20 -0.25 0.00
 -5 11 22 1.68 0.00
 -5 11 24 3.48 0.00
 -5 11 26 4.92 0.00
 -5 11 28 5.44 0.00
 -5 11 30 4.40 0.00
 5 12 25 -1.85 0.00
 5 12 23 -1.33 0.00
 5 12 21 -1.24 0.00
 5 12 19 -0.97 0.00
 5 12 17 0.60 0.00
 5 12 15 2.70 0.00
 5 12 13 3.50 0.00
 5 12 11 2.69 0.00
 5 12 9 1.50 0.00
 5 12 7 0.41 0.00
 5 12 5 -0.86 0.00
 5 12 3 -1.58 0.00
 5 12 1 -0.47 0.00
 -5 12 1 -1.84 0.00
 -5 12 3 -2.88 0.00
 -5 12 5 -1.48 0.00
 -5 12 7 0.85 0.00
 -5 12 9 2.20 0.00
 -5 12 11 2.40 0.00
 -5 12 13 2.08 0.00
 -5 12 15 1.12 0.00
 -5 12 17 -0.89 0.00
 -5 12 19 -3.18 0.00
 -5 12 21 -4.26 0.00
 -5 12 23 -3.71 0.00
 -5 12 25 -2.77 0.00
 -5 12 27 -2.61 0.00
 -5 12 29 -3.01 0.00
 5 13 24 2.14 0.00
 5 13 22 2.24 0.00
 5 13 20 2.29 0.00
 5 13 18 1.28 0.00
 5 13 16 -0.52 0.00
 5 13 14 -1.45 0.00
 5 13 12 -0.98 0.00
 5 13 10 -0.64 0.00
 5 13 8 -1.36 0.00
 5 13 6 -1.86 0.00
 5 13 4 -1.00 0.00
 -5 13 12 -3.04 0.00
 -5 13 14 -3.47 0.00
 -5 13 16 -1.90 0.00
 -5 13 18 1.52 0.00
 -5 13 20 4.62 0.00
 -5 13 22 5.24 0.00
 -5 13 24 3.47 0.00
 -5 13 26 1.23 0.00
 -5 13 28 0.09 0.00
 5 14 19 -3.21 0.00
 5 14 17 -3.08 0.00
 5 14 15 -2.61 0.00
 5 14 13 -2.53 0.00
 5 14 11 -1.86 0.00
 5 14 9 0.38 0.00
 4 0 14 0.42 0.00
 4 0 12 -6.89 0.00
 4 0 10 -8.47 0.00
 4 0 8 -6.36 0.00
 4 0 6 -8.68 0.00
 4 0 4 -16.97 0.00
 4 0 2 -24.54 0.00
 4 0 0 -27.68 0.00
 -4 0 2 -29.56 0.00
 -4 0 4 -31.00 0.00
 -4 0 6 -26.64 0.00
 -4 0 8 -14.94 0.00
 -4 0 10 -4.13 0.00
 -4 0 12 -2.04 0.00
 -4 0 14 -5.72 0.00
 -4 0 16 -7.07 0.00
 -4 0 18 -4.15 0.00
 -4 0 20 -1.23 0.00
 -4 0 22 -0.85 0.00
 -4 0 24 -1.80 0.00
 -4 0 26 -2.91 0.00
 -4 0 28 -4.04 0.00
 -4 0 30 -4.44 0.00
 -4 0 32 -3.39 0.00
 -4 0 34 -1.86 0.00
 -4 0 36 -0.99 0.00
 4 1 23 -1.23 0.00
 4 1 21 0.10 0.00
 4 1 19 -1.72 0.00
 4 1 17 -4.42 0.00
 4 1 15 -2.99 0.00
 4 1 13 2.24 0.00
 4 1 11 5.24 0.00
 4 1 9 4.10 0.00
 4 1 7 4.71 0.00
 4 1 5 10.96 0.00
 4 1 3 17.09 0.00
 4 1 1 16.07 0.00
 -4 1 1 10.40 0.00
 -4 1 3 6.74 0.00
 -4 1 5 5.55 0.00
 -4 1 7 1.96 0.00
 -4 1 9 -3.52 0.00
 -4 1 11 -5.05 0.00
 -4 1 13 -1.47 0.00
 -4 1 15 1.57 0.00
 -4 1 17 0.58 0.00
 -4 1 19 -1.44 0.00
 -4 1 21 -1.16 0.00
 -4 1 23 0.37 0.00
 -4 1 25 1.04 0.00
 -4 1 27 1.12 0.00
 -4 1 29 1.37 0.00
 -4 1 31 1.35 0.00
 -4 1 33 1.00 0.00
 -4 1 35 1.22 0.00
 -4 1 37 1.81 0.00
 4 2 24 0.98 0.00
 4 2 22 -0.12 0.00
 4 2 20 -0.42 0.00
 4 2 18 0.95 0.00
 4 2 16 1.49 0.00
 4 2 14 -0.50 0.00
 4 2 12 -1.81 0.00
 4 2 10 1.02 0.00
 4 2 8 5.02 0.00
 4 2 6 4.63 0.00
 4 2 4 1.66 0.00
 4 2 2 4.02 0.00
 4 2 0 13.64 0.00
 -4 2 2 22.70 0.00
 -4 2 4 24.43 0.00
 -4 2 6 21.11 0.00
 -4 2 8 17.97 0.00
 -4 2 10 15.39 0.00
 -4 2 12 11.64 0.00
 -4 2 14 8.28 0.00
 -4 2 16 7.40 0.00
 -4 2 18 7.20 0.00
 -4 2 20 4.93 0.00
 -4 2 22 1.79 0.00
 -4 2 24 0.67 0.00
 -4 2 26 1.38 0.00
 -4 2 28 1.54 0.00
 -4 2 30 0.59 0.00
 -4 2 32 -0.31 0.00
 -4 2 34 -1.00 0.00
 -4 2 36 -2.05 0.00
 4 3 23 -1.47 0.00
 4 3 21 -1.75 0.00
 4 3 19 -2.08 0.00
 4 3 17 -1.96 0.00
 4 3 15 -0.04 0.00
 4 3 13 2.12 0.00
 4 3 11 0.19 0.00
 4 3 9 -6.72 0.00
 4 3 7 -13.42 0.00
 4 3 5 -15.70 0.00
 4 3 3 -16.52 0.00
 4 3 1 -20.77 0.00
 -4 3 1 -26.85 0.00
 -4 3 3 -28.80 0.00
 -4 3 5 -25.25 0.00
 -4 3 7 -20.44 0.00
 -4 3 9 -17.30 0.00
 -4 3 11 -14.81 0.00
 -4 3 13 -12.09 0.00
 -4 3 15 -9.91 0.00
 -4 3 17 -7.88 0.00
 -4 3 19 -4.49 0.00
 -4 3 21 -0.64 0.00
 -4 3 23 0.84 0.00
 -4 3 25 -0.26 0.00
 -4 3 27 -0.97 0.00
 -4 3 29 0.28 0.00
 -4 3 31 1.73 0.00
 -4 3 33 1.62 0.00
 -4 3 35 0.66 0.00
 -4 3 37 0.30 0.00
 4 4 32 -1.32 0.00
 4 4 24 -0.65 0.00
 4 4 22 0.71 0.00
 4 4 20 1.55 0.00
 4 4 18 2.02 0.00
 4 4 16 1.44 0.00
 4 4 14 -0.41 0.00
 4 4 12 -1.11 0.00
 4 4 10 2.19 0.00
 4 4 8 7.92 0.00
 4 4 6 11.23 0.00
 4 4 4 10.61 0.00
 4 4 2 10.00 0.00
 4 4 0 12.58 0.00
 -4 4 2 16.23 0.00
 -4 4 4 17.45 0.00
 -4 4 6 15.93 0.00
 -4 4 8 13.63 0.00
 -4 4 10 11.28 0.00
 -4 4 12 8.76 0.00
 -4 4 14 6.68 0.00
 -4 4 16 5.18 0.00
 -4 4 18 2.98 0.00
 -4 4 20 -0.11 0.00
 -4 4 22 -1.89 0.00
 -4 4 24 -0.98 0.00
 -4 4 26 0.62 0.00
 -4 4 28 0.22 0.00
 -4 4 30 -1.69 0.00
 -4 4 32 -2.56 0.00
 -4 4 34 -1.43 0.00
 -4 4 36 0.36 0.00
 4 5 31 2.05 0.00
 4 5 25 3.23 0.00
 4 5 23 2.55 0.00
 4 5 21 1.77 0.00
 4 5 19 0.65 0.00
 4 5 17 -0.60 0.00
 4 5 15 -0.79 0.00
 4 5 13 0.18 0.00
 4 5 11 0.11 0.00
 4 5 9 -2.50 0.00
 4 5 7 -5.39 0.00
 4 5 5 -5.01 0.00
 4 5 3 -1.52 0.00
 4 5 1 1.37 0.00
 -4 5 1 1.31 0.00
 -4 5 3 -0.52 0.00
 -4 5 5 -1.86 0.00
 -4 5 7 -1.96 0.00
 -4 5 9 -0.90 0.00
 -4 5 11 0.95 0.00
 -4 5 13 2.38 0.00
 -4 5 15 2.19 0.00
 -4 5 17 0.93 0.00
 -4 5 19 0.25 0.00
 -4 5 21 0.37 0.00
 -4 5 23 0.01 0.00
 -4 5 25 -1.04 0.00
 -4 5 27 -1.33 0.00
 -4 5 29 -0.13 0.00
 -4 5 31 1.42 0.00
 -4 5 33 1.84 0.00
 -4 5 35 0.99 0.00
 4 6 30 -2.93 0.00
 4 6 28 -3.02 0.00
 4 6 24 -3.46 0.00
 4 6 22 -3.50 0.00
 4 6 20 -2.73 0.00
 4 6 18 -1.02 0.00
 4 6 16 0.49 0.00
 4 6 14 0.27 0.00
 4 6 12 -1.20 0.00
 4 6 10 -1.58 0.00
 4 6 8 0.07 0.00
 4 6 6 1.52 0.00
 4 6 4 0.19 0.00
 4 6 2 -3.37 0.00
 4 6 0 -6.48 0.00
 -4 6 2 -7.69 0.00
 -4 6 4 -7.66 0.00
 -4 6 6 -7.49 0.00
 -4 6 8 -7.66 0.00
 -4 6 10 -8.40 0.00
 -4 6 12 -9.27 0.00
 -4 6 14 -8.94 0.00
 -4 6 16 -6.53 0.00
 -4 6 18 -3.02 0.00
 -4 6 20 -0.38 0.00
 -4 6 22 0.61 0.00
 -4 6 24 0.70 0.00
 -4 6 26 0.76 0.00
 -4 6 28 0.87 0.00
 -4 6 30 0.77 0.00
 -4 6 32 0.44 0.00
 -4 6 34 0.11 0.00
 4 7 29 0.40 0.00
 4 7 27 -0.48 0.00
 4 7 25 -0.36 0.00
 4 7 23 0.42 0.00
 4 7 21 0.93 0.00
 4 7 19 0.49 0.00
 4 7 17 -0.58 0.00
 4 7 15 -0.97 0.00
 4 7 13 0.14 0.00
 4 7 11 1.84 0.00
 4 7 9 2.42 0.00
 4 7 7 1.73 0.00
 4 7 5 1.33 0.00
 4 7 3 2.23 0.00
 4 7 1 3.72 0.00
 -4 7 1 5.01 0.00
 -4 7 3 6.06 0.00
 -4 7 5 7.26 0.00
 -4 7 7 7.87 0.00
 -4 7 9 7.23 0.00
 -4 7 11 5.95 0.00
 -4 7 13 4.98 0.00
 -4 7 15 4.05 0.00
 -4 7 17 2.32 0.00
 -4 7 19 0.02 0.00
 -4 7 21 -1.57 0.00
 -4 7 23 -1.84 0.00
 -4 7 25 -1.52 0.00
 -4 7 27 -1.45 0.00
 -4 7 29 -1.49 0.00
 -4 7 31 -1.01 0.00
 -4 7 33 -0.07 0.00
 -4 7 35 0.59 0.00
 4 8 28 5.00 0.00
 4 8 26 5.67 0.00
 4 8 24 4.50 0.00
 4 8 22 2.61 0.00
 4 8 20 1.33 0.00
 4 8 18 1.12 0.00
 4 8 16 1.37 0.00
 4 8 14 1.01 0.00
 4 8 12 -0.22 0.00
 4 8 10 -1.43 0.00
 4 8 8 -1.74 0.00
 4 8 6 -1.40 0.00
 4 8 4 -1.22 0.00
 4 8 2 -1.36 0.00
 4 8 0 -1.59 0.00
 -4 8 2 -2.27 0.00
 -4 8 4 -3.69 0.00
 -4 8 6 -4.67 0.00
 -4 8 8 -3.50 0.00
 -4 8 10 -0.53 0.00
 -4 8 12 1.61 0.00
 -4 8 14 1.25 0.00
 -4 8 16 -0.25 0.00
 -4 8 18 -0.47 0.00
 -4 8 20 0.93 0.00
 -4 8 22 2.29 0.00
 -4 8 24 2.50 0.00
 -4 8 26 2.00 0.00
 -4 8 28 1.38 0.00
 -4 8 30 0.50 0.00
 -4 8 32 -0.68 0.00
 -4 8 34 -1.40 0.00
 4 9 27 -5.19 0.00
 4 9 25 -4.49 0.00
 4 9 23 -2.31 0.00
 4 9 21 -0.24 0.00
 4 9 19 0.60 0.00
 4 9 17 0.37 0.00
 4 9 15 0.10 0.00
 4 9 13 0.48 0.00
 4 9 11 1.12 0.00
 4 9 9 1.05 0.00
 4 9 7 0.03 0.00
 4 9 5 -1.09 0.00
 4 9 3 -1.57 0.00
 4 9 1 -1.48 0.00
 -4 9 1 -1.06 0.00
 -4 9 3 0.20 0.00
 -4 9 5 1.74 0.00
 -4 9 7 2.00 0.00
 -4 9 9 0.22 0.00
 -4 9 11 -1.84 0.00
 -4 9 13 -1.68 0.00
 -4 9 15 0.54 0.00
 -4 9 17 1.96 0.00
 -4 9 19 0.82 0.00
 -4 9 21 -1.47 0.00
 -4 9 23 -2.56 0.00
 -4 9 25 -2.07 0.00
 -4 9 27 -1.20 0.00
 -4 9 29 -0.56 0.00
 -4 9 31 0.12 0.00
 -4 9 33 0.75 0.00
 4 10 26 1.67 0.00
 4 10 24 0.15 0.00
 4 10 22 -1.75 0.00
 4 10 20 -2.50 0.00
 4 10 18 -1.72 0.00
 4 10 16 -0.42 0.00
 4 10 14 0.11 0.00
 4 10 12 -0.33 0.00
 4 10 10 -0.66 0.00
 4 10 8 0.03 0.00
 4 10 6 1.32 0.00
 4 10 4 2.12 0.00
 4 10 2 2.17 0.00
 4 10 0 2.07 0.00
 -4 10 2 1.93 0.00
 -4 10 4 1.24 0.00
 -4 10 6 0.11 0.00
 -4 10 8 -0.38 0.00
 -4 10 10 0.15 0.00
 -4 10 12 0.49 0.00
 -4 10 14 -0.37 0.00
 -4 10 16 -1.48 0.00
 -4 10 18 -1.30 0.00
 -4 10 20 -0.03 0.00
 -4 10 22 0.70 0.00
 -4 10 24 0.43 0.00
 -4 10 26 0.29 0.00
 -4 10 28 0.98 0.00
 -4 10 30 1.76 0.00
 -4 10 32 1.74 0.00
 4 11 25 -0.32 0.00
 4 11 23 1.58 0.00
 4 11 21 3.07 0.00
 4 11 19 2.91 0.00
 4 11 17 1.36 0.00
 4 11 15 -0.01 0.00
 4 11 13 -0.06 0.00
 4 11 11 0.70 0.00
 4 11 9 0.90 0.00
 4 11 7 0.21 0.00
 4 11 5 -0.25 0.00
 4 11 3 0.27 0.00
 4 11 1 0.87 0.00
 -4 11 1 0.27 0.00
 -4 11 3 -1.16 0.00
 -4 11 5 -1.82 0.00
 -4 11 7 -0.95 0.00
 -4 11 9 0.50 0.00
 -4 11 11 1.33 0.00
 -4 11 13 1.30 0.00
 -4 11 15 0.63 0.00
 -4 11 17 -0.40 0.00
 -4 11 19 -1.02 0.00
 -4 11 21 -0.18 0.00
 -4 11 23 1.97 0.00
 -4 11 25 3.55 0.00
 -4 11 27 2.88 0.00
 -4 11 29 0.45 0.00
 -4 11 31 -1.85 0.00
 4 12 26 0.01 0.00
 4 12 24 -0.69 0.00
 4 12 22 -1.97 0.00
 4 12 20 -2.87 0.00
 4 12 18 -2.83 0.00
 4 12 16 -2.56 0.00
 4 12 14 -3.01 0.00
 4 12 12 -3.89 0.00
 4 12 10 -3.69 0.00
 4 12 8 -1.76 0.00
 4 12 6 0.38 0.00
 4 12 4 0.57 0.00
 4 12 2 -1.30 0.00
 4 12 0 -3.00 0.00
 -4 12 2 -2.60 0.00
 -4 12 4 -1.01 0.00
 -4 12 6 -0.26 0.00
 -4 12 8 -1.31 0.00
 -4 12 10 -3.09 0.00
 -4 12 12 -4.03 0.00
 -4 12 14 -3.45 0.00
 -4 12 16 -1.72 0.00
 -4 12 18 0.02 0.00
 -4 12 20 0.41 0.00
 -4 12 22 -1.11 0.00
 -4 12 24 -3.38 0.00
 -4 12 26 -4.48 0.00
 -4 12 28 -3.60 0.00
 -4 12 30 -1.62 0.00
 4 13 25 0.28 0.00
 4 13 23 0.38 0.00
 4 13 21 1.23 0.00
 4 13 19 2.29 0.00
 4 13 17 3.25 0.00
 4 13 15 4.27 0.00
 4 13 13 5.05 0.00
 4 13 11 4.52 0.00
 4 13 9 2.07 0.00
 4 13 7 -0.98 0.00
 4 13 5 -2.16 0.00
 4 13 3 -0.40 0.00
 -4 13 5 1.25 0.00
 -4 13 7 0.44 0.00
 -4 13 9 0.99 0.00
 -4 13 11 1.85 0.00
 -4 13 13 2.17 0.00
 -4 13 15 1.99 0.00
 -4 13 17 1.74 0.00
 -4 13 19 1.74 0.00
 -4 13 21 2.10 0.00
 -4 13 23 2.54 0.00
 -4 13 25 2.58 0.00
 -4 13 27 2.08 0.00
 4 14 20 -0.42 0.00
 4 14 18 -1.41 0.00
 4 14 16 -2.20 0.00
 4 14 14 -2.72 0.00
 4 14 12 -2.45 0.00
 4 14 10 -0.95 0.00
 4 14 8 1.12 0.00
 4 15 19 -2.18 0.00
 4 15 17 -2.60 0.00
 4 15 13 -0.07 0.00
 4 15 11 1.23 0.00
 3 1 36 2.45 0.00
 3 1 34 0.65 0.00
 3 1 24 0.43 0.00
 3 1 22 1.62 0.00
 3 1 20 3.80 0.00
 3 1 18 5.80 0.00
 3 1 16 5.24 0.00
 3 1 14 1.05 0.00
 3 1 12 -4.28 0.00
 3 1 10 -6.69 0.00
 3 1 8 -5.67 0.00
 3 1 6 -6.35 0.00
 3 1 4 -14.47 0.00
 3 1 2 -29.57 0.00
 3 1 0 -44.51 0.00
 -3 1 2 51.93 0.00
 -3 1 4 49.57 0.00
 -3 1 6 40.51 0.00
 -3 1 8 29.52 0.00
 -3 1 10 20.52 0.00
 -3 1 12 15.15 0.00
 -3 1 14 12.40 0.00
 -3 1 16 9.82 0.00
 -3 1 18 6.17 0.00
 -3 1 20 2.48 0.00
 -3 1 22 0.47 0.00
 -3 1 24 0.60 0.00
 -3 1 26 1.92 0.00
 -3 1 28 3.18 0.00
 -3 1 30 3.56 0.00
 -3 1 32 2.79 0.00
 -3 1 34 1.23 0.00
 -3 1 36 -0.47 0.00
 3 2 33 -2.59 0.00
 3 2 25 -0.39 0.00
 3 2 23 -0.80 0.00
 3 2 21 -1.91 0.00
 3 2 19 -3.98 0.00
 3 2 17 -5.57 0.00
 3 2 15 -4.07 0.00
 3 2 13 1.00 0.00
 3 2 11 6.46 0.00
 3 2 9 9.38 0.00
 3 2 7 12.33 0.00
 3 2 5 21.50 0.00
 3 2 3 38.10 0.00
 3 2 1 54.49 0.00
 -3 2 1 -61.03 0.00
 -3 2 3 -55.22 0.00
 -3 2 5 -42.62 0.00
 -3 2 7 -30.24 0.00
 -3 2 9 -21.82 0.00
 -3 2 11 -17.66 0.00
 -3 2 13 -15.80 0.00
 -3 2 15 -13.23 0.00
 -3 2 17 -8.41 0.00
 -3 2 19 -2.94 0.00
 -3 2 21 0.31 0.00
 -3 2 23 0.52 0.00
 -3 2 25 -0.63 0.00
 -3 2 27 -1.29 0.00
 -3 2 29 -0.93 0.00
 -3 2 31 0.03 0.00
 -3 2 33 0.87 0.00
 -3 2 35 0.96 0.00
 -3 2 37 0.45 0.00
 3 3 34 4.28 0.00
 3 3 32 3.19 0.00
 3 3 24 0.86 0.00
 3 3 22 0.69 0.00
 3 3 20 0.94 0.00
 3 3 18 2.08 0.00
 3 3 16 2.92 0.00
 3 3 14 1.11 0.00
 3 3 12 -3.49 0.00
 3 3 10 -7.83 0.00
 3 3 8 -9.97 0.00
 3 3 6 -12.79 0.00
 3 3 4 -20.10 0.00
 3 3 2 -30.05 0.00
 3 3 0 -36.07 0.00
 -3 3 2 34.45 0.00
 -3 3 4 28.11 0.00
 -3 3 6 21.58 0.00
 -3 3 8 16.71 0.00
 -3 3 10 13.32 0.00
 -3 3 12 11.11 0.00
 -3 3 14 9.27 0.00
 -3 3 16 6.39 0.00
 -3 3 18 2.54 0.00
 -3 3 20 -0.38 0.00
 -3 3 22 -1.12 0.00
 -3 3 24 -0.67 0.00
 -3 3 26 -0.47 0.00
 -3 3 28 -0.85 0.00
 -3 3 30 -1.51 0.00
 -3 3 32 -2.20 0.00
 -3 3 34 -2.29 0.00
 -3 3 36 -1.10 0.00
 3 4 37 -1.65 0.00
 3 4 33 -3.91 0.00
 3 4 31 -3.01 0.00
 3 4 29 -1.33 0.00
 3 4 25 0.31 0.00
 3 4 23 0.09 0.00
 3 4 21 0.29 0.00
 3 4 19 0.58 0.00
 3 4 17 0.04 0.00
 3 4 15 -0.49 0.00
 3 4 13 1.26 0.00
 3 4 11 5.30 0.00
 3 4 9 8.53 0.00
 3 4 7 8.94 0.00
 3 4 5 8.31 0.00
 3 4 3 9.05 0.00
 3 4 1 10.61 0.00
 -3 4 1 -11.28 0.00
 -3 4 3 -11.21 0.00
 -3 4 5 -11.19 0.00
 -3 4 7 -10.21 0.00
 -3 4 9 -6.98 0.00
 -3 4 11 -2.79 0.00
 -3 4 13 -0.12 0.00
 -3 4 15 0.57 0.00
 -3 4 17 0.57 0.00
 -3 4 19 0.49 0.00
 -3 4 21 0.24 0.00
 -3 4 23 0.20 0.00
 -3 4 25 0.60 0.00
 -3 4 27 0.64 0.00
 -3 4 29 -0.09 0.00
 -3 4 31 -0.36 0.00
 -3 4 33 0.77 0.00
 -3 4 35 2.08 0.00
 3 5 32 3.26 0.00
 3 5 30 1.48 0.00
 3 5 28 -0.87 0.00
 3 5 26 -2.12 0.00
 3 5 24 -1.70 0.00
 3 5 22 -1.13 0.00
 3 5 20 -1.89 0.00
 3 5 18 -2.96 0.00
 3 5 16 -2.35 0.00
 3 5 14 -0.69 0.00
 3 5 12 -0.72 0.00
 3 5 10 -3.16 0.00
 3 5 8 -5.62 0.00
 3 5 6 -6.06 0.00
 3 5 4 -5.03 0.00
 3 5 2 -3.81 0.00
 3 5 0 -2.86 0.00
 -3 5 2 2.67 0.00
 -3 5 4 3.34 0.00
 -3 5 6 3.66 0.00
 -3 5 8 1.64 0.00
 -3 5 10 -2.40 0.00
 -3 5 12 -5.79 0.00
 -3 5 14 -6.72 0.00
 -3 5 16 -5.69 0.00
 -3 5 18 -3.84 0.00
 -3 5 20 -1.99 0.00
 -3 5 22 -1.16 0.00
 -3 5 24 -1.83 0.00
 -3 5 26 -2.36 0.00
 -3 5 28 -0.80 0.00
 -3 5 30 1.93 0.00
 -3 5 32 2.76 0.00
 -3 5 34 0.79 0.00
 3 6 31 -0.42 0.00
 3 6 29 1.44 0.00
 3 6 27 3.21 0.00
 3 6 25 3.39 0.00
 3 6 23 2.04 0.00
 3 6 21 1.17 0.00
 3 6 19 1.86 0.00
 3 6 17 2.36 0.00
 3 6 15 0.77 0.00
 3 6 13 -1.66 0.00
 3 6 11 -2.24 0.00
 3 6 9 -0.82 0.00
 3 6 7 0.24 0.00
 3 6 5 -0.20 0.00
 3 6 3 -0.85 0.00
 3 6 1 -0.27 0.00
 -3 6 1 -1.50 0.00
 -3 6 3 -3.58 0.00
 -3 6 5 -4.54 0.00
 -3 6 7 -3.34 0.00
 -3 6 9 -0.44 0.00
 -3 6 11 2.19 0.00
 -3 6 13 3.16 0.00
 -3 6 15 2.85 0.00
 -3 6 17 1.97 0.00
 -3 6 19 0.67 0.00
 -3 6 21 -0.28 0.00
 -3 6 23 0.44 0.00
 -3 6 25 2.19 0.00
 -3 6 27 2.28 0.00
 -3 6 29 -0.29 0.00
 -3 6 31 -2.87 0.00
 -3 6 33 -2.63 0.00
 -3 6 35 -0.34 0.00
 3 7 30 -2.11 0.00
 3 7 28 -3.39 0.00
 3 7 26 -4.10 0.00
 3 7 24 -3.11 0.00
 3 7 22 -0.93 0.00
 3 7 20 0.34 0.00
 3 7 18 -0.01 0.00
 3 7 16 -0.28 0.00
 3 7 14 0.68 0.00
 3 7 12 1.55 0.00
 3 7 10 0.95 0.00
 3 7 8 0.03 0.00
 3 7 6 0.56 0.00
 3 7 4 1.92 0.00
 3 7 2 1.82 0.00
 3 7 0 -0.56 0.00
 -3 7 2 3.65 0.00
 -3 7 4 5.48 0.00
 -3 7 6 5.19 0.00
 -3 7 8 3.65 0.00
 -3 7 10 2.38 0.00
 -3 7 12 2.00 0.00
 -3 7 14 1.81 0.00
 -3 7 16 1.40 0.00
 -3 7 18 1.56 0.00
 -3 7 20 2.51 0.00
 -3 7 22 2.67 0.00
 -3 7 24 0.86 0.00
 -3 7 26 -1.26 0.00
 -3 7 28 -1.25 0.00
 -3 7 30 0.44 0.00
 -3 7 32 1.29 0.00
 -3 7 34 0.55 0.00
 3 8 29 0.79 0.00
 3 8 27 0.84 0.00
 3 8 25 0.67 0.00
 3 8 23 -0.58 0.00
 3 8 21 -2.19 0.00
 3 8 19 -2.42 0.00
 3 8 17 -1.14 0.00
 3 8 15 0.01 0.00
 3 8 13 0.44 0.00
 3 8 11 1.27 0.00
 3 8 9 2.79 0.00
 3 8 7 3.44 0.00
 3 8 5 2.43 0.00
 3 8 3 1.31 0.00
 3 8 1 1.90 0.00
 -3 8 1 -3.89 0.00
 -3 8 3 -5.27 0.00
 -3 8 5 -5.07 0.00
 -3 8 7 -3.86 0.00
 -3 8 9 -2.77 0.00
 -3 8 11 -2.05 0.00
 -3 8 13 -1.07 0.00
 -3 8 15 0.24 0.00
 -3 8 17 0.67 0.00
 -3 8 19 -0.63 0.00
 -3 8 21 -2.18 0.00
 -3 8 23 -1.66 0.00
 -3 8 25 0.72 0.00
 -3 8 27 2.37 0.00
 -3 8 29 1.98 0.00
 -3 8 31 0.91 0.00
 -3 8 33 0.57 0.00
 3 9 28 2.86 0.00
 3 9 26 2.92 0.00
 3 9 24 2.32 0.00
 3 9 22 2.19 0.00
 3 9 20 2.24 0.00
 3 9 18 1.54 0.00
 3 9 16 0.43 0.00
 3 9 14 -0.16 0.00
 3 9 12 -0.61 0.00
 3 9 10 -1.91 0.00
 3 9 8 -3.46 0.00
 3 9 6 -3.74 0.00
 3 9 4 -2.85 0.00
 3 9 2 -2.56 0.00
 3 9 0 -3.61 0.00
 -3 9 2 4.67 0.00
 -3 9 4 4.35 0.00
 -3 9 6 2.85 0.00
 -3 9 8 1.46 0.00
 -3 9 10 0.78 0.00
 -3 9 12 0.23 0.00
 -3 9 14 -0.66 0.00
 -3 9 16 -1.29 0.00
 -3 9 18 -0.80 0.00
 -3 9 20 0.22 0.00
 -3 9 22 0.12 0.00
 -3 9 24 -1.39 0.00
 -3 9 26 -2.58 0.00
 -3 9 28 -2.22 0.00
 -3 9 30 -1.30 0.00
 -3 9 32 -1.20 0.00
 3 10 27 -2.46 0.00
 3 10 25 -1.04 0.00
 3 10 23 0.76 0.00
 3 10 21 1.37 0.00
 3 10 19 1.05 0.00
 3 10 17 0.69 0.00
 3 10 15 0.24 0.00
 3 10 13 -0.34 0.00
 3 10 11 -0.34 0.00
 3 10 9 0.43 0.00
 3 10 7 0.68 0.00
 3 10 5 -0.36 0.00
 3 10 3 -1.43 0.00
 3 10 1 -0.93 0.00
 -3 10 1 -0.63 0.00
 -3 10 3 -1.53 0.00
 -3 10 5 -0.97 0.00
 -3 10 7 0.02 0.00
 -3 10 9 0.35 0.00
 -3 10 11 0.17 0.00
 -3 10 13 0.19 0.00
 -3 10 15 0.42 0.00
 -3 10 17 0.34 0.00
 -3 10 19 0.14 0.00
 -3 10 21 0.66 0.00
 -3 10 23 1.95 0.00
 -3 10 25 2.63 0.00
 -3 10 27 1.73 0.00
 -3 10 29 0.29 0.00
 -3 10 31 -0.01 0.00
 3 11 26 1.81 0.00
 3 11 24 -0.60 0.00
 3 11 22 -2.38 0.00
 3 11 20 -2.32 0.00
 3 11 18 -1.28 0.00
 3 11 16 -0.14 0.00
 3 11 14 0.99 0.00
 3 11 12 1.74 0.00
 3 11 10 1.57 0.00
 3 11 8 1.12 0.00
 3 11 6 1.71 0.00
 3 11 4 3.23 0.00
 3 11 2 4.07 0.00
 3 11 0 3.56 0.00
 -3 11 2 -2.85 0.00
 -3 11 4 -3.22 0.00
 -3 11 6 -4.03 0.00
 -3 11 8 -4.15 0.00
 -3 11 10 -3.66 0.00
 -3 11 12 -3.47 0.00
 -3 11 14 -3.69 0.00
 -3 11 16 -3.36 0.00
 -3 11 18 -2.01 0.00
 -3 11 20 -0.50 0.00
 -3 11 22 0.20 0.00
 -3 11 24 0.40 0.00
 -3 11 26 0.99 0.00
 -3 11 28 1.67 0.00
 -3 11 30 1.33 0.00
 3 12 27 -5.13 0.00
 3 12 25 -3.56 0.00
 3 12 23 -0.99 0.00
 3 12 21 0.47 0.00
 3 12 19 0.71 0.00
 3 12 17 0.65 0.00
 3 12 15 0.53 0.00
 3 12 13 0.26 0.00
 3 12 11 0.29 0.00
 3 12 9 0.66 0.00
 3 12 7 0.28 0.00
 3 12 5 -1.49 0.00
 3 12 3 -3.44 0.00
 3 12 1 -4.15 0.00
 -3 12 1 4.04 0.00
 -3 12 3 4.59 0.00
 -3 12 5 5.79 0.00
 -3 12 7 6.27 0.00
 -3 12 9 5.53 0.00
 -3 12 11 4.72 0.00
 -3 12 13 4.84 0.00
 -3 12 15 5.21 0.00
 -3 12 17 4.42 0.00
 -3 12 19 2.24 0.00
 -3 12 21 -0.25 0.00
 -3 12 23 -2.25 0.00
 -3 12 25 -3.76 0.00
 -3 12 27 -4.60 0.00
 -3 12 29 -3.96 0.00
 3 13 26 2.86 0.00
 3 13 24 1.48 0.00
 3 13 22 0.51 0.00
 3 13 20 0.20 0.00
 3 13 18 -0.45 0.00
 3 13 16 -1.72 0.00
 3 13 14 -2.85 0.00
 3 13 12 -3.47 0.00
 3 13 10 -3.67 0.00
 3 13 8 -2.94 0.00
 3 13 6 -0.62 0.00
 3 13 4 2.24 0.00
 3 13 0 2.33 0.00
 -3 13 2 -0.93 0.00
 -3 13 4 -0.91 0.00
 -3 13 6 -1.93 0.00
 -3 13 8 -2.55 0.00
 -3 13 10 -2.45 0.00
 -3 13 12 -2.23 0.00
 -3 13 14 -1.89 0.00
 -3 13 16 -0.60 0.00
 -3 13 18 1.81 0.00
 -3 13 20 4.08 0.00
 -3 13 22 4.93 0.00
 -3 13 24 4.54 0.00
 -3 13 26 3.87 0.00
 -3 13 28 3.19 0.00
 3 14 21 0.79 0.00
 3 14 19 1.49 0.00
 3 14 17 2.91 0.00
 3 14 15 3.76 0.00
 3 14 13 3.28 0.00
 3 14 11 2.24 0.00
 3 14 9 1.42 0.00
 3 14 7 0.41 0.00
 -3 14 11 -0.09 0.00
 -3 14 13 0.20 0.00
 -3 14 15 -0.95 0.00
 -3 14 17 -3.90 0.00
 -3 14 19 -7.26 0.00
 -3 14 21 -8.75 0.00
 -3 14 23 -7.40 0.00
 -3 14 25 -4.50 0.00
 3 15 20 -2.17 0.00
 3 15 18 -3.49 0.00
 3 15 16 -3.90 0.00
 3 15 14 -2.66 0.00
 3 15 12 -0.94 0.00
 3 15 10 -0.45 0.00
 2 0 36 2.05 0.00
 2 0 34 3.55 0.00
 2 0 24 1.22 0.00
 2 0 22 -0.25 0.00
 2 0 20 -1.81 0.00
 2 0 18 -3.24 0.00
 2 0 16 -5.05 0.00
 2 0 14 -5.29 0.00
 2 0 12 -1.37 0.00
 2 0 10 3.80 0.00
 2 0 8 4.45 0.00
 2 0 6 4.59 0.00
 2 0 4 19.30 0.00
 -2 0 6 74.13 0.00
 -2 0 8 55.51 0.00
 -2 0 10 42.97 0.00
 -2 0 12 31.44 0.00
 -2 0 14 20.90 0.00
 -2 0 16 13.81 0.00
 -2 0 18 9.15 0.00
 -2 0 20 4.88 0.00
 -2 0 22 1.74 0.00
 -2 0 24 0.97 0.00
 -2 0 26 1.29 0.00
 -2 0 28 1.06 0.00
 -2 0 30 0.43 0.00
 -2 0 32 -0.36 0.00
 -2 0 34 -2.17 0.00
 -2 0 36 -4.77 0.00
 2 1 37 1.21 0.00
 2 1 35 0.69 0.00
 2 1 33 -0.37 0.00
 2 1 25 -1.75 0.00
 2 1 23 -1.12 0.00
 2 1 21 -0.31 0.00
 2 1 19 0.08 0.00
 2 1 17 1.35 0.00
 2 1 15 3.67 0.00
 2 1 13 3.60 0.00
 2 1 11 -0.96 0.00
 2 1 9 -6.12 0.00
 2 1 7 -9.20 0.00
 2 1 5 -18.21 0.00
 2 1 3 -43.49 0.00
 -2 1 5 -68.15 0.00
 -2 1 7 -45.28 0.00
 -2 1 9 -32.91 0.00
 -2 1 11 -25.78 0.00
 -2 1 13 -18.88 0.00
 -2 1 15 -12.88 0.00
 -2 1 17 -8.58 0.00
 -2 1 19 -4.77 0.00
 -2 1 21 -1.65 0.00
 -2 1 23 -0.71 0.00
 -2 1 25 -1.14 0.00
 -2 1 27 -0.57 0.00
 -2 1 29 1.21 0.00
 -2 1 31 2.51 0.00
 -2 1 33 2.91 0.00
 -2 1 35 3.29 0.00
 -2 1 37 3.43 0.00
 2 2 36 -3.56 0.00
 2 2 34 -3.49 0.00
 2 2 32 -2.14 0.00
 2 2 26 1.80 0.00
 2 2 24 2.20 0.00
 2 2 22 2.22 0.00
 2 2 20 2.74 0.00
 2 2 18 2.87 0.00
 2 2 16 0.92 0.00
 2 2 14 -1.36 0.00
 2 2 12 0.47 0.00
 2 2 10 6.44 0.00
 2 2 8 11.28 0.00
 2 2 6 14.25 0.00
 2 2 4 23.41 0.00
 2 2 2 43.11 0.00
 2 2 0 62.30 0.00
 -2 2 2 64.68 0.00
 -2 2 4 48.66 0.00
 -2 2 6 28.55 0.00
 -2 2 8 16.55 0.00
 -2 2 10 12.10 0.00
 -2 2 12 9.49 0.00
 -2 2 14 6.96 0.00
 -2 2 16 5.15 0.00
 -2 2 18 3.30 0.00
 -2 2 20 1.05 0.00
 -2 2 22 0.00 0.00
 -2 2 24 0.51 0.00
 -2 2 26 0.28 0.00
 -2 2 28 -1.90 0.00
 -2 2 30 -3.98 0.00
 -2 2 32 -3.84 0.00
 -2 2 34 -2.09 0.00
 -2 2 36 -0.32 0.00
 2 3 37 1.85 0.00
 2 3 35 3.05 0.00
 2 3 33 2.39 0.00
 2 3 31 0.98 0.00
 2 3 29 -0.30 0.00
 2 3 25 -2.69 0.00
 2 3 23 -3.31 0.00
 2 3 21 -3.64 0.00
 2 3 19 -3.70 0.00
 2 3 17 -2.47 0.00
 2 3 15 -0.31 0.00
 2 3 13 -0.75 0.00
 2 3 11 -5.95 0.00
 2 3 9 -11.34 0.00
 2 3 7 -10.41 0.00
 2 3 5 -5.03 0.00
 2 3 3 -4.50 0.00
 2 3 1 -12.44 0.00
 -2 3 1 -21.09 0.00
 -2 3 3 -21.62 0.00
 -2 3 5 -15.32 0.00
 -2 3 7 -8.94 0.00
 -2 3 9 -5.05 0.00
 -2 3 11 -1.99 0.00
 -2 3 13 0.33 0.00
 -2 3 15 0.46 0.00
 -2 3 17 -0.68 0.00
 -2 3 19 -0.84 0.00
 -2 3 21 -0.14 0.00
 -2 3 23 -0.10 0.00
 -2 3 25 -0.33 0.00
 -2 3 27 0.56 0.00
 -2 3 29 1.84 0.00
 -2 3 31 1.58 0.00
 -2 3 33 -0.10 0.00
 -2 3 35 -1.38 0.00
 2 4 36 -2.06 0.00
 2 4 34 -2.27 0.00
 2 4 32 -1.39 0.00
 2 4 30 -0.49 0.00
 2 4 28 0.26 0.00
 2 4 26 1.32 0.00
 2 4 24 2.56 0.00
 2 4 22 3.54 0.00
 2 4 20 4.12 0.00
 2 4 18 3.69 0.00
 2 4 16 1.60 0.00
 2 4 14 -0.53 0.00
 2 4 12 0.80 0.00
 2 4 10 5.70 0.00
 2 4 8 8.86 0.00
 2 4 6 5.98 0.00
 2 4 4 0.28 0.00
 2 4 2 -1.72 0.00
 2 4 0 0.87 0.00
 -2 4 2 3.27 0.00
 -2 4 4 2.41 0.00
 -2 4 6 0.23 0.00
 -2 4 8 -1.30 0.00
 -2 4 10 -2.90 0.00
 -2 4 12 -4.82 0.00
 -2 4 14 -5.36 0.00
 -2 4 16 -3.96 0.00
 -2 4 18 -2.41 0.00
 -2 4 20 -1.88 0.00
 -2 4 22 -1.52 0.00
 -2 4 24 -0.73 0.00
 -2 4 26 -0.31 0.00
 -2 4 28 -0.42 0.00
 -2 4 30 0.12 0.00
 -2 4 32 1.55 0.00
 -2 4 34 2.35 0.00
 -2 4 36 1.49 0.00
 2 5 33 0.22 0.00
 2 5 31 0.20 0.00
 2 5 29 0.69 0.00
 2 5 27 1.08 0.00
 2 5 25 0.66 0.00
 2 5 23 -0.39 0.00
 2 5 21 -1.57 0.00
 2 5 19 -2.21 0.00
 2 5 17 -1.32 0.00
 2 5 15 1.35 0.00
 2 5 13 3.73 0.00
 2 5 11 3.23 0.00
 2 5 9 0.54 0.00
 2 5 7 -0.69 0.00
 2 5 5 1.07 0.00
 2 5 3 3.07 0.00
 2 5 1 2.67 0.00
 -2 5 1 1.04 0.00
 -2 5 3 0.67 0.00
 -2 5 5 1.46 0.00
 -2 5 7 1.81 0.00
 -2 5 9 1.76 0.00
 -2 5 11 2.37 0.00
 -2 5 13 3.21 0.00
 -2 5 15 3.08 0.00
 -2 5 17 2.19 0.00
 -2 5 19 1.59 0.00
 -2 5 21 1.39 0.00
 -2 5 23 0.98 0.00
 -2 5 25 0.41 0.00
 -2 5 27 -0.02 0.00
 -2 5 29 -0.68 0.00
 -2 5 31 -1.75 0.00
 -2 5 33 -2.33 0.00
 -2 5 35 -1.53 0.00
 2 6 32 1.13 0.00
 2 6 30 0.20 0.00
 2 6 28 -1.40 0.00
 2 6 26 -2.77 0.00
 2 6 24 -3.12 0.00
 2 6 22 -2.47 0.00
 2 6 20 -1.48 0.00
 2 6 18 -1.03 0.00
 2 6 16 -1.90 0.00
 2 6 14 -3.78 0.00
 2 6 12 -5.10 0.00
 2 6 10 -4.94 0.00
 2 6 8 -4.51 0.00
 2 6 6 -5.39 0.00
 2 6 4 -6.85 0.00
 2 6 2 -6.75 0.00
 2 6 0 -4.93 0.00
 -2 6 2 -3.38 0.00
 -2 6 4 -3.17 0.00
 -2 6 6 -3.19 0.00
 -2 6 8 -2.33 0.00
 -2 6 10 -1.24 0.00
 -2 6 12 -0.81 0.00
 -2 6 14 -0.68 0.00
 -2 6 16 -0.17 0.00
 -2 6 18 0.54 0.00
 -2 6 20 0.86 0.00
 -2 6 22 0.72 0.00
 -2 6 24 0.54 0.00
 -2 6 26 0.69 0.00
 -2 6 28 1.31 0.00
 -2 6 30 2.14 0.00
 -2 6 32 2.49 0.00
 -2 6 34 1.90 0.00
 2 7 31 -1.10 0.00
 2 7 29 -0.14 0.00
 2 7 27 1.68 0.00
 2 7 25 3.33 0.00
 2 7 23 3.70 0.00
 2 7 21 2.68 0.00
 2 7 19 1.13 0.00
 2 7 17 0.12 0.00
 2 7 15 0.06 0.00
 2 7 13 0.47 0.00
 2 7 11 0.69 0.00
 2 7 9 0.98 0.00
 2 7 7 2.18 0.00
 2 7 5 4.12 0.00
 2 7 3 5.35 0.00
 2 7 1 5.09 0.00
 -2 7 1 4.61 0.00
 -2 7 3 5.26 0.00
 -2 7 5 6.31 0.00
 -2 7 7 5.89 0.00
 -2 7 9 3.86 0.00
 -2 7 11 2.07 0.00
 -2 7 13 1.81 0.00
 -2 7 15 2.31 0.00
 -2 7 17 2.12 0.00
 -2 7 19 1.10 0.00
 -2 7 21 0.20 0.00
 -2 7 23 -0.01 0.00
 -2 7 25 -0.10 0.00
 -2 7 27 -0.82 0.00
 -2 7 29 -2.09 0.00
 -2 7 31 -3.04 0.00
 -2 7 33 -3.07 0.00
 2 8 30 1.67 0.00
 2 8 28 1.40 0.00
 2 8 26 0.11 0.00
 2 8 24 -0.84 0.00
 2 8 22 -0.43 0.00
 2 8 20 0.78 0.00
 2 8 18 1.46 0.00
 2 8 16 1.03 0.00
 2 8 14 0.27 0.00
 2 8 12 0.26 0.00
 2 8 10 0.97 0.00
 2 8 8 1.21 0.00
 2 8 6 0.18 0.00
 2 8 4 -1.38 0.00
 2 8 2 -2.16 0.00
 2 8 0 -2.26 0.00
 -2 8 2 -3.02 0.00
 -2 8 4 -4.82 0.00
 -2 8 6 -5.98 0.00
 -2 8 8 -5.02 0.00
 -2 8 10 -2.95 0.00
 -2 8 12 -2.01 0.00
 -2 8 14 -2.76 0.00
 -2 8 16 -3.48 0.00
 -2 8 18 -2.75 0.00
 -2 8 20 -1.16 0.00
 -2 8 22 -0.07 0.00
 -2 8 24 0.35 0.00
 -2 8 26 1.04 0.00
 -2 8 28 2.27 0.00
 -2 8 30 3.17 0.00
 -2 8 32 3.05 0.00
 2 9 29 -2.56 0.00
 2 9 27 -3.10 0.00
 2 9 25 -2.74 0.00
 2 9 23 -2.61 0.00
 2 9 21 -3.01 0.00
 2 9 19 -2.88 0.00
 2 9 17 -1.32 0.00
 2 9 15 0.99 0.00
 2 9 13 2.27 0.00
 2 9 11 1.63 0.00
 2 9 9 0.08 0.00
 2 9 7 -0.56 0.00
 2 9 5 0.29 0.00
 2 9 3 1.44 0.00
 2 9 1 1.72 0.00
 -2 9 1 1.51 0.00
 -2 9 3 2.09 0.00
 -2 9 5 3.24 0.00
 -2 9 7 3.42 0.00
 -2 9 9 2.02 0.00
 -2 9 11 0.51 0.00
 -2 9 13 0.49 0.00
 -2 9 15 1.53 0.00
 -2 9 17 1.95 0.00
 -2 9 19 1.20 0.00
 -2 9 21 0.25 0.00
 -2 9 23 -0.28 0.00
 -2 9 25 -0.93 0.00
 -2 9 27 -2.04 0.00
 -2 9 29 -2.79 0.00
 -2 9 31 -2.39 0.00
 2 10 28 1.74 0.00
 2 10 26 1.97 0.00
 2 10 24 1.55 0.00
 2 10 22 1.33 0.00
 2 10 20 1.39 0.00
 2 10 18 0.95 0.00
 2 10 16 -0.43 0.00
 2 10 14 -1.96 0.00
 2 10 12 -2.38 0.00
 2 10 10 -1.46 0.00
 2 10 8 -0.33 0.00
 2 10 6 -0.30 0.00
 2 10 4 -1.32 0.00
 2 10 2 -2.20 0.00
 2 10 0 -2.14 0.00
 -2 10 2 -1.75 0.00
 -2 10 4 -1.68 0.00
 -2 10 6 -1.77 0.00
 -2 10 8 -1.26 0.00
 -2 10 10 -0.49 0.00
 -2 10 12 -0.68 0.00
 -2 10 14 -2.10 0.00
 -2 10 16 -3.41 0.00
 -2 10 18 -3.37 0.00
 -2 10 20 -2.32 0.00
 -2 10 22 -1.19 0.00
 -2 10 24 -0.14 0.00
 -2 10 26 1.04 0.00
 -2 10 28 1.87 0.00
 -2 10 30 1.59 0.00
 2 11 27 1.67 0.00
 2 11 25 2.15 0.00
 2 11 23 2.62 0.00
 2 11 21 2.26 0.00
 2 11 19 1.12 0.00
 2 11 17 0.25 0.00
 2 11 15 0.44 0.00
 2 11 13 1.26 0.00
 2 11 11 1.59 0.00
 2 11 9 1.01 0.00
 2 11 7 0.33 0.00
 2 11 5 0.55 0.00
 2 11 3 1.59 0.00
 2 11 1 2.37 0.00
 -2 11 1 2.31 0.00
 -2 11 3 1.66 0.00
 -2 11 5 1.21 0.00
 -2 11 7 1.10 0.00
 -2 11 9 1.20 0.00
 -2 11 11 1.78 0.00
 -2 11 13 3.07 0.00
 -2 11 15 4.49 0.00
 -2 11 17 5.13 0.00
 -2 11 19 4.81 0.00
 -2 11 21 3.99 0.00
 -2 11 23 2.79 0.00
 -2 11 25 1.01 0.00
 -2 11 27 -0.86 0.00
 -2 11 29 -1.68 0.00
 2 12 28 -0.91 0.00
 2 12 26 -0.64 0.00
 2 12 24 -1.12 0.00
 2 12 22 -1.83 0.00
 2 12 20 -1.84 0.00
 2 12 18 -1.24 0.00
 2 12 16 -0.99 0.00
 2 12 14 -1.53 0.00
 2 12 12 -2.11 0.00
 2 12 10 -1.79 0.00
 2 12 8 -0.84 0.00
 2 12 6 -0.66 0.00
 2 12 4 -1.99 0.00
 2 12 2 -3.80 0.00
 2 12 0 -4.23 0.00
 -2 12 2 -2.69 0.00
 -2 12 4 -0.38 0.00
 -2 12 6 1.02 0.00
 -2 12 8 0.87 0.00
 -2 12 10 -0.19 0.00
 -2 12 12 -1.14 0.00
 -2 12 14 -1.30 0.00
 -2 12 16 -0.71 0.00
 -2 12 18 -0.18 0.00
 -2 12 20 -0.64 0.00
 -2 12 22 -1.92 0.00
 -2 12 24 -2.79 0.00
 -2 12 26 -2.34 0.00
 -2 12 28 -1.05 0.00
 2 13 25 -2.56 0.00
 2 13 23 -1.13 0.00
 2 13 21 0.52 0.00
 2 13 19 1.42 0.00
 2 13 17 1.95 0.00
 2 13 15 2.90 0.00
 2 13 13 4.00 0.00
 2 13 11 4.07 0.00
 2 13 9 2.65 0.00
 2 13 7 0.97 0.00
 2 13 5 0.69 0.00
 2 13 3 1.98 0.00
 -2 13 1 2.52 0.00
 -2 13 3 0.11 0.00
 -2 13 5 -2.40 0.00
 -2 13 7 -3.39 0.00
 -2 13 9 -2.80 0.00
 -2 13 11 -1.91 0.00
 -2 13 13 -2.11 0.00
 -2 13 15 -3.77 0.00
 -2 13 17 -5.85 0.00
 -2 13 19 -6.56 0.00
 -2 13 21 -4.96 0.00
 -2 13 23 -1.81 0.00
 -2 13 25 1.10 0.00
 -2 13 27 2.56 0.00
 2 14 22 -1.38 0.00
 2 14 20 -1.39 0.00
 2 14 18 -0.90 0.00
 2 14 16 -1.21 0.00
 2 14 14 -2.58 0.00
 2 14 12 -3.62 0.00
 2 14 10 -2.89 0.00
 2 14 8 -0.63 0.00
 2 14 6 1.44 0.00
 -2 14 4 1.64 0.00
 -2 14 6 2.83 0.00
 -2 14 8 3.63 0.00
 -2 14 10 4.17 0.00
 -2 14 12 4.82 0.00
 -2 14 14 5.70 0.00
 -2 14 16 6.46 0.00
 -2 14 18 6.39 0.00
 -2 14 20 5.03 0.00
 -2 14 22 2.82 0.00
 -2 14 24 0.71 0.00
 -2 14 26 -0.62 0.00
 2 15 19 0.57 0.00
 2 15 17 0.60 0.00
 2 15 15 1.52 0.00
 2 15 13 2.17 0.00
 2 15 11 1.35 0.00
 2 15 9 -0.60 0.00
 2 15 7 -2.07 0.00
 2 16 6 -2.38 0.00
 2 16 4 -3.88 0.00
 1 1 38 6.03 0.00
 1 1 36 6.90 0.00
 1 1 34 5.68 0.00
 1 1 32 3.06 0.00
 1 1 30 0.37 0.00
 1 1 26 -1.01 0.00
 1 1 24 0.27 0.00
 1 1 22 1.43 0.00
 1 1 20 1.22 0.00
 1 1 18 -1.03 0.00
 1 1 16 -5.05 0.00
 1 1 14 -9.40 0.00
 1 1 12 -12.36 0.00
 1 1 10 -14.52 0.00
 1 1 8 -20.29 0.00
 1 1 6 -34.46 0.00
 1 1 4 -55.50 0.00
 -1 1 6 22.75 0.00
 -1 1 8 7.00 0.00
 -1 1 10 0.27 0.00
 -1 1 12 0.02 0.00
 -1 1 14 1.36 0.00
 -1 1 16 0.71 0.00
 -1 1 18 -1.64 0.00
 -1 1 20 -2.95 0.00
 -1 1 22 -1.75 0.00
 -1 1 24 0.50 0.00
 -1 1 26 1.44 0.00
 -1 1 28 0.47 0.00
 -1 1 30 -1.03 0.00
 -1 1 32 -1.38 0.00
 -1 1 34 -0.29 0.00
 -1 1 36 1.07 0.00
 1 2 37 -5.53 0.00
 1 2 35 -4.53 0.00
 1 2 33 -2.42 0.00
 1 2 31 -0.35 0.00
 1 2 29 0.92 0.00
 1 2 27 1.06 0.00
 1 2 25 0.23 0.00
 1 2 23 -1.00 0.00
 1 2 21 -1.80 0.00
 1 2 19 -1.23 0.00
 1 2 17 1.92 0.00
 1 2 15 8.15 0.00
 1 2 13 15.45 0.00
 1 2 11 20.26 0.00
 1 2 9 22.11 0.00
 1 2 7 25.81 0.00
 1 2 5 36.01 0.00
 1 2 3 49.82 0.00
 -1 2 3 -43.28 0.00
 -1 2 5 -28.73 0.00
 -1 2 7 -16.40 0.00
 -1 2 9 -8.01 0.00
 -1 2 11 -3.81 0.00
 -1 2 13 -2.51 0.00
 -1 2 15 -1.54 0.00
 -1 2 17 0.47 0.00
 -1 2 19 2.19 0.00
 -1 2 21 1.85 0.00
 -1 2 23 0.06 0.00
 -1 2 25 -1.09 0.00
 -1 2 27 -0.75 0.00
 -1 2 29 0.03 0.00
 -1 2 31 -0.01 0.00
 -1 2 33 -1.04 0.00
 -1 2 35 -2.04 0.00
 -1 2 37 -1.77 0.00
 1 3 38 1.87 0.00
 1 3 36 1.53 0.00
 1 3 34 0.85 0.00
 1 3 32 0.35 0.00
 1 3 30 0.01 0.00
 1 3 28 -0.32 0.00
 1 3 26 -0.44 0.00
 1 3 24 -0.17 0.00
 1 3 22 0.23 0.00
 1 3 20 0.52 0.00
 1 3 18 0.23 0.00
 1 3 16 -1.87 0.00
 1 3 14 -6.48 0.00
 1 3 12 -11.57 0.00
 1 3 10 -13.82 0.00
 1 3 8 -13.31 0.00
 1 3 6 -13.88 0.00
 1 3 4 -17.29 0.00
 1 3 2 -19.82 0.00
 1 3 0 -17.37 0.00
 -1 3 2 11.37 0.00
 -1 3 4 6.82 0.00
 -1 3 6 5.10 0.00
 -1 3 8 3.86 0.00
 -1 3 10 1.69 0.00
 -1 3 12 -0.31 0.00
 -1 3 14 -1.26 0.00
 -1 3 16 -1.73 0.00
 -1 3 18 -1.87 0.00
 -1 3 20 -1.08 0.00
 -1 3 22 0.33 0.00
 -1 3 24 1.07 0.00
 -1 3 26 0.80 0.00
 -1 3 28 0.50 0.00
 -1 3 30 0.78 0.00
 -1 3 32 1.19 0.00
 -1 3 34 1.21 0.00
 -1 3 36 0.82 0.00
 1 4 37 0.58 0.00
 1 4 35 0.41 0.00
 1 4 33 -0.18 0.00
 1 4 31 -0.69 0.00
 1 4 29 -0.46 0.00
 1 4 27 0.18 0.00
 1 4 25 0.38 0.00
 1 4 23 0.24 0.00
 1 4 21 0.44 0.00
 1 4 19 0.69 0.00
 1 4 17 0.30 0.00
 1 4 15 -0.12 0.00
 1 4 13 0.53 0.00
 1 4 11 1.72 0.00
 1 4 9 2.25 0.00
 1 4 7 2.78 0.00
 1 4 5 4.65 0.00
 1 4 3 6.30 0.00
 1 4 1 4.51 0.00
 -1 4 1 0.21 0.00
 -1 4 3 3.51 0.00
 -1 4 5 2.89 0.00
 -1 4 7 0.94 0.00
 -1 4 9 0.83 0.00
 -1 4 11 2.16 0.00
 -1 4 13 2.82 0.00
 -1 4 15 2.28 0.00
 -1 4 17 1.20 0.00
 -1 4 19 -0.16 0.00
 -1 4 21 -1.39 0.00
 -1 4 23 -1.63 0.00
 -1 4 25 -1.00 0.00
 -1 4 27 -0.80 0.00
 -1 4 29 -1.39 0.00
 -1 4 31 -1.42 0.00
 -1 4 33 -0.10 0.00
 -1 4 35 1.35 0.00
 1 5 34 -0.84 0.00
 1 5 32 0.17 0.00
 1 5 30 0.68 0.00
 1 5 28 0.38 0.00
 1 5 26 0.28 0.00
 1 5 24 0.98 0.00
 1 5 22 1.44 0.00
 1 5 20 0.91 0.00
 1 5 18 0.66 0.00
 1 5 16 1.99 0.00
 1 5 14 3.88 0.00
 1 5 12 4.51 0.00
 1 5 10 4.00 0.00
 1 5 8 3.60 0.00
 1 5 6 3.40 0.00
 1 5 4 3.04 0.00
 1 5 2 3.29 0.00
 1 5 0 4.49 0.00
 -1 5 2 -4.76 0.00
 -1 5 4 -2.94 0.00
 -1 5 6 -0.55 0.00
 -1 5 8 -0.29 0.00
 -1 5 10 -1.87 0.00
 -1 5 12 -2.76 0.00
 -1 5 14 -1.77 0.00
 -1 5 16 0.23 0.00
 -1 5 18 2.17 0.00
 -1 5 20 3.27 0.00
 -1 5 22 2.75 0.00
 -1 5 24 0.95 0.00
 -1 5 26 0.00 0.00
 -1 5 28 1.10 0.00
 -1 5 30 2.42 0.00
 -1 5 32 1.54 0.00
 -1 5 34 -0.95 0.00
 1 6 33 0.40 0.00
 1 6 31 -0.42 0.00
 1 6 29 -0.65 0.00
 1 6 27 -0.46 0.00
 1 6 25 -1.04 0.00
 1 6 23 -2.32 0.00
 1 6 21 -2.62 0.00
 1 6 19 -1.53 0.00
 1 6 17 -0.77 0.00
 1 6 15 -1.32 0.00
 1 6 13 -1.85 0.00
 1 6 11 -1.22 0.00
 1 6 9 -0.52 0.00
 1 6 7 -1.11 0.00
 1 6 5 -2.44 0.00
 1 6 3 -3.16 0.00
 1 6 1 -2.91 0.00
 -1 6 1 2.03 0.00
 -1 6 3 0.71 0.00
 -1 6 5 -0.15 0.00
 -1 6 7 0.42 0.00
 -1 6 9 1.82 0.00
 -1 6 11 2.33 0.00
 -1 6 13 1.39 0.00
 -1 6 15 -0.04 0.00
 -1 6 17 -1.33 0.00
 -1 6 19 -2.42 0.00
 -1 6 21 -2.49 0.00
 -1 6 23 -0.83 0.00
 -1 6 25 1.04 0.00
 -1 6 27 0.67 0.00
 -1 6 29 -1.63 0.00
 -1 6 31 -2.94 0.00
 -1 6 33 -1.80 0.00
 1 7 32 -0.81 0.00
 1 7 30 -0.64 0.00
 1 7 28 -1.10 0.00
 1 7 26 -1.70 0.00
 1 7 24 -1.21 0.00
 1 7 22 0.00 0.00
 1 7 20 0.41 0.00
 1 7 18 -0.06 0.00
 1 7 16 -0.24 0.00
 1 7 14 -0.28 0.00
 1 7 12 -1.51 0.00
 1 7 10 -3.74 0.00
 1 7 8 -4.84 0.00
 1 7 6 -3.84 0.00
 1 7 4 -2.31 0.00
 1 7 2 -2.14 0.00
 1 7 0 -3.35 0.00
 -1 7 2 4.35 0.00
 -1 7 4 4.07 0.00
 -1 7 6 2.24 0.00
 -1 7 8 0.14 0.00
 -1 7 10 -0.65 0.00
 -1 7 12 -0.12 0.00
 -1 7 14 0.45 0.00
 -1 7 16 0.71 0.00
 -1 7 18 1.57 0.00
 -1 7 20 2.93 0.00
 -1 7 22 3.08 0.00
 -1 7 24 1.60 0.00
 -1 7 26 0.57 0.00
 -1 7 28 1.47 0.00
 -1 7 30 2.87 0.00
 -1 7 32 2.71 0.00
 1 8 31 0.46 0.00
 1 8 29 0.44 0.00
 1 8 27 1.51 0.00
 1 8 25 2.72 0.00
 1 8 23 2.61 0.00
 1 8 21 1.50 0.00
 1 8 19 0.51 0.00
 1 8 17 -0.28 0.00
 1 8 15 -1.10 0.00
 1 8 13 -0.94 0.00
 1 8 11 1.09 0.00
 1 8 9 3.71 0.00
 1 8 7 4.67 0.00
 1 8 5 3.81 0.00
 1 8 3 3.10 0.00
 1 8 1 3.91 0.00
 -1 8 1 -5.35 0.00
 -1 8 3 -5.53 0.00
 -1 8 5 -3.76 0.00
 -1 8 7 -1.26 0.00
 -1 8 9 0.06 0.00
 -1 8 11 -0.27 0.00
 -1 8 13 -0.97 0.00
 -1 8 15 -1.17 0.00
 -1 8 17 -1.58 0.00
 -1 8 19 -2.79 0.00
 -1 8 21 -3.66 0.00
 -1 8 23 -2.98 0.00
 -1 8 25 -1.70 0.00
 -1 8 27 -1.43 0.00
 -1 8 29 -1.81 0.00
 -1 8 31 -1.30 0.00
 1 9 30 1.72 0.00
 1 9 28 2.10 0.00
 1 9 26 0.85 0.00
 1 9 24 -0.45 0.00
 1 9 22 -0.46 0.00
 1 9 20 0.05 0.00
 1 9 18 -0.03 0.00
 1 9 16 -0.42 0.00
 1 9 14 -0.58 0.00
 1 9 12 -0.95 0.00
 1 9 10 -1.81 0.00
 1 9 8 -2.26 0.00
 1 9 6 -1.56 0.00
 1 9 4 -0.59 0.00
 1 9 2 -0.74 0.00
 1 9 0 -1.95 0.00
 -1 9 2 2.77 0.00
 -1 9 4 2.24 0.00
 -1 9 6 0.98 0.00
 -1 9 8 0.42 0.00
 -1 9 10 0.97 0.00
 -1 9 12 1.55 0.00
 -1 9 14 1.09 0.00
 -1 9 16 0.05 0.00
 -1 9 18 -0.48 0.00
 -1 9 20 -0.63 0.00
 -1 9 22 -1.21 0.00
 -1 9 24 -1.81 0.00
 -1 9 26 -1.34 0.00
 -1 9 28 -0.22 0.00
 -1 9 30 -0.13 0.00
 1 10 29 -2.64 0.00
 1 10 27 -2.60 0.00
 1 10 25 -1.07 0.00
 1 10 23 0.00 0.00
 1 10 21 -0.01 0.00
 1 10 19 0.20 0.00
 1 10 17 1.29 0.00
 1 10 15 2.27 0.00
 1 10 13 2.21 0.00
 1 10 11 1.50 0.00
 1 10 9 0.71 0.00
 1 10 7 -0.15 0.00
 1 10 5 -0.94 0.00
 1 10 3 -1.01 0.00
 1 10 1 -0.22 0.00
 -1 10 1 -0.59 0.00
 -1 10 3 -0.62 0.00
 -1 10 5 -0.13 0.00
 -1 10 7 -0.05 0.00
 -1 10 9 -0.63 0.00
 -1 10 11 -0.89 0.00
 -1 10 13 0.09 0.00
 -1 10 15 1.93 0.00
 -1 10 17 3.42 0.00
 -1 10 19 4.21 0.00
 -1 10 21 4.80 0.00
 -1 10 23 4.85 0.00
 -1 10 25 3.30 0.00
 -1 10 27 0.53 0.00
 -1 10 29 -1.17 0.00
 1 11 28 1.19 0.00
 1 11 26 -0.95 0.00
 1 11 24 -3.44 0.00
 1 11 22 -4.06 0.00
 1 11 20 -2.92 0.00
 1 11 18 -1.68 0.00
 1 11 16 -0.95 0.00
 1 11 14 -0.16 0.00
 1 11 12 0.76 0.00
 1 11 10 1.34 0.00
 1 11 8 1.66 0.00
 1 11 6 2.28 0.00
 1 11 4 3.14 0.00
 1 11 2 3.54 0.00
 1 11 0 3.23 0.00
 -1 11 2 -2.59 0.00
 -1 11 4 -2.05 0.00
 -1 11 6 -1.41 0.00
 -1 11 8 -0.72 0.00
 -1 11 10 -0.61 0.00
 -1 11 12 -1.54 0.00
 -1 11 14 -2.80 0.00
 -1 11 16 -3.13 0.00
 -1 11 18 -2.43 0.00
 -1 11 20 -1.95 0.00
 -1 11 22 -2.28 0.00
 -1 11 24 -2.18 0.00
 -1 11 26 -0.57 0.00
 -1 11 28 1.40 0.00
 1 12 29 -0.76 0.00
 1 12 27 1.50 0.00
 1 12 25 4.95 0.00
 1 12 23 6.84 0.00
 1 12 21 5.80 0.00
 1 12 19 3.17 0.00
 1 12 17 0.79 0.00
 1 12 15 -0.82 0.00
 1 12 13 -1.79 0.00
 1 12 11 -1.98 0.00
 1 12 9 -1.60 0.00
 1 12 7 -1.61 0.00
 1 12 5 -2.59 0.00
 1 12 3 -3.92 0.00
 1 12 1 -4.62 0.00
 -1 12 1 4.54 0.00
 -1 12 3 4.01 0.00
 -1 12 5 3.21 0.00
 -1 12 7 2.18 0.00
 -1 12 9 1.47 0.00
 -1 12 11 1.75 0.00
 -1 12 13 2.54 0.00
 -1 12 15 2.17 0.00
 -1 12 17 -0.22 0.00
 -1 12 19 -3.20 0.00
 -1 12 21 -4.44 0.00
 -1 12 23 -3.46 0.00
 -1 12 25 -1.82 0.00
 -1 12 27 -0.74 0.00
 1 13 26 0.33 0.00
 1 13 24 -1.63 0.00
 1 13 22 -2.56 0.00
 1 13 20 -2.69 0.00
 1 13 18 -2.95 0.00
 1 13 16 -3.25 0.00
 1 13 14 -2.85 0.00
 1 13 12 -1.85 0.00
 1 13 10 -1.10 0.00
 1 13 8 -0.93 0.00
 1 13 6 -0.97 0.00
 1 13 4 -1.10 0.00
 1 13 2 -1.45 0.00
 1 13 0 -1.57 0.00
 -1 13 2 0.65 0.00
 -1 13 4 -0.99 0.00
 -1 13 6 -2.15 0.00
 -1 13 8 -1.95 0.00
 -1 13 10 -1.05 0.00
 -1 13 12 -0.62 0.00
 -1 13 14 -0.61 0.00
 -1 13 16 0.14 0.00
 -1 13 18 1.96 0.00
 -1 13 20 3.56 0.00
 -1 13 22 3.61 0.00
 -1 13 24 2.38 0.00
 -1 13 26 0.99 0.00
 1 14 23 -0.17 0.00
 1 14 21 1.73 0.00
 1 14 19 3.95 0.00
 1 14 17 5.83 0.00
 1 14 15 6.25 0.00
 1 14 13 5.08 0.00
 1 14 11 3.52 0.00
 1 14 9 2.62 0.00
 1 14 7 2.40 0.00
 1 14 5 2.62 0.00
 1 14 3 3.41 0.00
 1 14 1 4.52 0.00
 -1 14 1 -4.93 0.00
 -1 14 3 -3.58 0.00
 -1 14 5 -1.11 0.00
 -1 14 7 0.87 0.00
 -1 14 9 1.45 0.00
 -1 14 11 1.16 0.00
 -1 14 13 0.91 0.00
 -1 14 15 0.79 0.00
 -1 14 17 0.40 0.00
 -1 14 19 -0.02 0.00
 -1 14 21 0.13 0.00
 -1 14 23 0.73 0.00
 -1 14 25 0.92 0.00
 1 15 20 -5.31 0.00
 1 15 18 -6.23 0.00
 1 15 16 -6.02 0.00
 1 15 14 -4.55 0.00
 1 15 12 -2.69 0.00
 1 15 10 -1.33 0.00
 1 15 8 -0.30 0.00
 1 15 6 0.86 0.00
 1 15 4 1.75 0.00
 1 15 2 1.50 0.00
 -1 15 12 -1.14 0.00
 -1 15 14 -1.18 0.00
 -1 15 16 -0.63 0.00
 -1 15 18 0.13 0.00
 -1 15 20 0.34 0.00
 -1 15 22 -0.24 0.00
 1 16 13 3.15 0.00
 1 16 11 1.55 0.00
 1 16 9 0.15 0.00
 1 16 7 -1.18 0.00
 1 16 5 -2.32 0.00
 1 16 3 -2.71 0.00
 1 16 1 -2.10 0.00
 -1 16 1 0.90 0.00
 -1 17 8 2.13 0.00
 -1 17 10 2.59 0.00
 -1 17 12 2.81 0.00
 -1 17 14 2.46 0.00
 0 0 38 -5.58 0.00
 0 0 36 -5.81 0.00
 0 0 34 -4.88 0.00
 0 0 32 -3.72 0.00
 0 0 30 -1.79 0.00
 0 0 28 1.51 0.00
 0 0 26 4.16 0.00
 0 0 24 3.35 0.00
 0 0 22 0.19 0.00
 0 0 20 -0.70 0.00
 0 0 18 3.38 0.00
 0 0 16 11.13 0.00
 0 0 14 20.41 0.00
 0 0 12 30.19 0.00
 0 0 10 41.87 0.00
 0 0 8 64.38 0.00
 0 0 6 113.46 0.00
 0 1 37 2.81 0.00
 0 1 35 1.90 0.00
 0 1 33 1.25 0.00
 0 1 31 1.20 0.00
 0 1 29 0.29 0.00
 0 1 27 -2.02 0.00
 0 1 25 -3.56 0.00
 0 1 23 -2.67 0.00
 0 1 21 -1.11 0.00
 0 1 19 -1.75 0.00
 0 1 17 -5.27 0.00
 0 1 15 -11.37 0.00
 0 1 13 -19.97 0.00
 0 1 11 -29.71 0.00
 0 1 9 -40.37 0.00
 0 1 7 -59.94 0.00
 0 1 5 -100.45 0.00
 0 2 38 1.27 0.00
 0 2 36 1.46 0.00
 0 2 34 1.83 0.00
 0 2 32 1.23 0.00
 0 2 30 0.12 0.00
 0 2 28 0.35 0.00
 0 2 26 2.21 0.00
 0 2 24 3.89 0.00
 0 2 22 4.27 0.00
 0 2 20 3.71 0.00
 0 2 18 2.43 0.00
 0 2 16 1.19 0.00
 0 2 14 2.62 0.00
 0 2 12 7.93 0.00
 0 2 10 12.97 0.00
 0 2 8 13.76 0.00
 0 2 6 15.29 0.00
 0 2 4 26.52 0.00
 0 2 2 44.73 0.00
 0 3 39 -2.86 0.00
 0 3 37 -1.50 0.00
 0 3 35 -1.05 0.00
 0 3 33 -1.25 0.00
 0 3 31 -1.04 0.00
 0 3 29 -0.76 0.00
 0 3 27 -1.41 0.00
 0 3 25 -2.79 0.00
 0 3 23 -3.96 0.00
 0 3 21 -4.44 0.00
 0 3 19 -3.42 0.00
 0 3 17 0.14 0.00
 0 3 15 4.81 0.00
 0 3 13 6.71 0.00
 0 3 11 5.16 0.00
 0 3 9 5.02 0.00
 0 3 7 9.56 0.00
 0 3 5 14.28 0.00
 0 3 3 13.38 0.00
 0 3 1 9.41 0.00
 0 4 36 0.02 0.00
 0 4 34 0.85 0.00
 0 4 32 1.75 0.00
 0 4 30 1.52 0.00
 0 4 28 0.72 0.00
 0 4 26 0.39 0.00
 0 4 24 0.73 0.00
 0 4 22 1.51 0.00
 0 4 20 2.09 0.00
 0 4 18 0.93 0.00
 0 4 16 -2.75 0.00
 0 4 14 -6.60 0.00
 0 4 12 -7.39 0.00
 0 4 10 -6.00 0.00
 0 4 8 -6.81 0.00
 0 4 6 -11.06 0.00
 0 4 4 -14.85 0.00
 0 4 2 -15.41 0.00
 0 4 0 -14.90 0.00
 0 5 33 -2.25 0.00
 0 5 31 -2.13 0.00
 0 5 29 -0.52 0.00
 0 5 27 1.26 0.00
 0 5 25 2.16 0.00
 0 5 23 2.16 0.00
 0 5 21 1.63 0.00
 0 5 19 1.15 0.00
 0 5 17 1.50 0.00
 0 5 15 2.52 0.00
 0 5 13 2.71 0.00
 0 5 11 1.53 0.00
 0 5 9 0.93 0.00
 0 5 7 2.66 0.00
 0 5 5 5.10 0.00
 0 5 3 5.55 0.00
 0 5 1 4.50 0.00
 0 6 32 3.09 0.00
 0 6 30 2.35 0.00
 0 6 28 0.84 0.00
 0 6 26 -0.31 0.00
 0 6 24 -0.82 0.00
 0 6 22 -1.20 0.00
 0 6 20 -1.66 0.00
 0 6 18 -1.83 0.00
 0 6 16 -1.19 0.00
 0 6 14 0.50 0.00
 0 6 12 2.63 0.00
 0 6 10 3.63 0.00
 0 6 8 2.56 0.00
 0 6 6 0.96 0.00
 0 6 4 1.49 0.00
 0 6 2 4.11 0.00
 0 6 0 5.65 0.00
 0 7 31 -2.92 0.00
 0 7 29 -2.89 0.00
 0 7 27 -2.30 0.00
 0 7 25 -1.79 0.00
 0 7 23 -1.40 0.00
 0 7 21 -0.58 0.00
 0 7 19 0.81 0.00
 0 7 17 1.88 0.00
 0 7 15 1.54 0.00
 0 7 13 -0.18 0.00
 0 7 11 -1.64 0.00
 0 7 9 -1.19 0.00
 0 7 7 0.61 0.00
 0 7 5 1.25 0.00
 0 7 3 -0.60 0.00
 0 7 1 -2.98 0.00
 0 7 33 -2.16 0.00
 0 8 30 1.63 0.00
 0 8 28 1.38 0.00
 0 8 26 0.31 0.00
 0 8 24 -0.65 0.00
 0 8 22 -1.06 0.00
 0 8 20 -1.42 0.00
 0 8 18 -2.01 0.00
 0 8 16 -2.16 0.00
 0 8 14 -1.26 0.00
 0 8 12 -0.16 0.00
 0 8 10 -0.61 0.00
 0 8 8 -3.08 0.00
 0 8 6 -5.67 0.00
 0 8 4 -6.18 0.00
 0 8 2 -4.78 0.00
 0 8 0 -3.83 0.00
 0 8 32 0.99 0.00
 0 9 29 -2.43 0.00
 0 9 27 -1.69 0.00
 0 9 25 0.01 0.00
 0 9 23 1.38 0.00
 0 9 21 1.99 0.00
 0 9 19 2.34 0.00
 0 9 17 2.55 0.00
 0 9 15 1.95 0.00
 0 9 13 0.54 0.00
 0 9 11 -0.31 0.00
 0 9 9 0.77 0.00
 0 9 7 3.33 0.00
 0 9 5 5.40 0.00
 0 9 3 5.76 0.00
 0 9 1 5.20 0.00
 0 9 31 -1.70 0.00
 0 10 30 2.79 0.00
 0 10 28 3.85 0.00
 0 10 26 3.79 0.00
 0 10 24 3.06 0.00
 0 10 22 2.23 0.00
 0 10 20 0.96 0.00
 0 10 18 -1.09 0.00
 0 10 16 -3.14 0.00
 0 10 14 -3.74 0.00
 0 10 12 -2.65 0.00
 0 10 10 -1.19 0.00
 0 10 8 -0.84 0.00
 0 10 6 -1.73 0.00
 0 10 4 -2.97 0.00
 0 10 2 -3.77 0.00
 0 10 0 -4.01 0.00
 0 11 29 -0.78 0.00
 0 11 27 -2.52 0.00
 0 11 25 -3.98 0.00
 0 11 23 -4.79 0.00
 0 11 21 -4.52 0.00
 0 11 19 -2.63 0.00
 0 11 17 0.52 0.00
 0 11 15 3.31 0.00
 0 11 13 4.10 0.00
 0 11 11 2.83 0.00
 0 11 9 1.02 0.00
 0 11 7 0.35 0.00
 0 11 5 1.36 0.00
 0 11 3 3.25 0.00
 0 11 1 4.68 0.00
 0 12 28 -1.64 0.00
 0 12 26 -1.14 0.00
 0 12 24 -0.64 0.00
 0 12 22 0.21 0.00
 0 12 20 1.33 0.00
 0 12 18 1.92 0.00
 0 12 16 1.46 0.00
 0 12 14 0.44 0.00
 0 12 12 -0.23 0.00
 0 12 10 -0.11 0.00
 0 12 8 0.44 0.00
 0 12 6 0.73 0.00
 0 12 4 0.45 0.00
 0 12 2 -0.14 0.00
 0 12 0 -0.41 0.00
 0 13 27 3.42 0.00
 0 13 25 5.32 0.00
 0 13 23 5.84 0.00
 0 13 21 3.85 0.00
 0 13 19 0.19 0.00
 0 13 17 -2.85 0.00
 0 13 15 -3.67 0.00
 0 13 13 -2.65 0.00
 0 13 11 -1.40 0.00
 0 13 9 -1.08 0.00
 0 13 7 -1.67 0.00
 0 13 5 -2.42 0.00
 0 13 3 -2.75 0.00
 0 13 1 -2.75 0.00
 0 14 22 -3.13 0.00
 0 14 20 -1.00 0.00
 0 14 18 1.36 0.00
 0 14 16 2.19 0.00
 0 14 14 1.46 0.00
 0 14 12 0.58 0.00
 0 14 10 0.60 0.00
 0 14 8 1.10 0.00
 0 14 6 0.92 0.00
 0 14 4 -0.44 0.00
 0 14 2 -2.22 0.00
 0 14 0 -3.02 0.00
 0 14 24 -3.39 0.00
 0 15 21 1.55 0.00
 0 15 19 0.10 0.00
 0 15 17 -1.27 0.00
 0 15 15 -1.85 0.00
 0 15 13 -1.99 0.00
 0 15 11 -2.14 0.00
 0 15 9 -1.96 0.00
 0 15 7 -0.84 0.00
 0 15 5 1.27 0.00
 0 15 3 3.59 0.00
 0 15 1 5.08 0.00
 0 16 14 1.04 0.00
 0 16 12 1.87 0.00
 0 16 10 2.17 0.00
 0 16 8 1.77 0.00
 0 16 6 1.18 0.00
 0 16 4 1.14 0.00
 0 16 2 1.66 0.00
 0 16 0 1.99 0.00
 0 17 13 1.88 0.00
 0 17 11 1.07 0.00
 0 17 9 0.60 0.00
 0 17 7 0.35 0.00
 0 17 5 -0.54 0.00
 -1 1 38 1.34 0.00
 1 1 28 -1.15 0.00
 -1 2 39 0.00 0.00
 -1 3 38 0.01 0.00
 -1 11 30 1.78 0.00
 -1 12 29 0.02 0.00
 -1 15 10 -0.62 0.00
 -1 15 8 0.27 0.00
 -1 15 6 1.31 0.00
 -1 15 4 1.93 0.00
 -1 15 2 1.47 0.00
 1 15 0 0.09 0.00
 -1 16 19 -0.44 0.00
 -1 16 15 -1.86 0.00
 -1 16 13 -2.44 0.00
 -1 16 11 -2.71 0.00
 -1 16 9 -2.57 0.00
 -1 16 7 -2.09 0.00
 -1 16 5 -1.36 0.00
 -1 16 3 -0.36 0.00
 1 16 15 4.62 0.00
 1 16 17 5.18 0.00
 1 16 19 4.56 0.00
 -1 17 6 1.81 0.00
 -1 17 4 1.88 0.00
 1 17 4 -2.47 0.00
 1 17 6 -1.99 0.00
 1 17 8 -1.56 0.00
 1 17 10 -1.17 0.00
 1 17 12 -1.02 0.00
 -2 0 38 -6.08 0.00
 2 0 26 1.65 0.00
 2 0 28 1.68 0.00
 2 0 30 2.57 0.00
 2 0 32 3.73 0.00
 -2 1 39 2.39 0.00
 2 1 27 -1.46 0.00
 2 1 29 -0.99 0.00
 2 1 31 -0.87 0.00
 -2 2 40 2.12 0.00
 -2 2 38 1.10 0.00
 2 2 28 0.68 0.00
 2 2 30 -0.66 0.00
 -2 3 39 -1.20 0.00
 -2 3 37 -1.48 0.00
 2 3 27 -1.55 0.00
 -2 11 31 -1.07 0.00
 -2 12 30 0.00 0.00
 2 13 1 3.17 0.00
 -2 14 2 0.56 0.00
 2 14 0 0.38 0.00
 2 14 2 1.16 0.00
 2 14 4 1.96 0.00
 -2 15 21 -1.12 0.00
 -2 15 19 -3.50 0.00
 -2 15 17 -5.18 0.00
 -2 15 15 -5.46 0.00
 -2 15 13 -4.63 0.00
 -2 15 11 -3.44 0.00
 -2 15 9 -2.53 0.00
 -2 15 7 -2.01 0.00
 -2 15 5 -1.59 0.00
 -2 15 3 -0.95 0.00
 -2 15 1 -0.29 0.00
 2 15 1 -0.22 0.00
 2 15 3 -1.02 0.00
 2 15 5 -2.05 0.00
 -2 16 16 3.83 0.00
 -2 16 14 2.98 0.00
 -2 16 12 1.75 0.00
 -2 16 10 0.95 0.00
 -2 16 8 0.86 0.00
 -2 16 6 1.13 0.00
 -2 16 4 0.94 0.00
 -2 16 2 -0.32 0.00
 2 16 0 -2.35 0.00
 2 16 2 -3.94 0.00
 2 16 8 -0.95 0.00
 2 16 10 -0.77 0.00
 2 16 12 -1.37 0.00
 2 16 14 -1.44 0.00
 2 16 16 -0.61 0.00
 -2 17 13 -0.51 0.00
 -2 17 11 0.60 0.00
 2 17 3 3.80 0.00
 2 17 5 4.23 0.00
 2 17 7 3.14 0.00
 2 17 9 1.67 0.00
 2 17 11 0.86 0.00
 -3 1 40 -2.81 0.00
 -3 1 38 -1.89 0.00
 3 1 26 -0.17 0.00
 3 1 28 -0.82 0.00
 3 1 30 -1.34 0.00
 3 1 32 -0.94 0.00
 -3 2 41 0.83 0.00
 -3 2 39 0.25 0.00
 3 2 27 -0.04 0.00
 3 2 29 0.12 0.00
 3 2 31 -0.63 0.00
 3 2 35 -4.82 0.00
 -3 3 38 0.73 0.00
 3 3 26 0.94 0.00
 3 3 28 1.18 0.00
 3 3 30 1.95 0.00
 3 3 36 4.28 0.00
 3 4 27 0.01 0.00
 3 4 35 -3.39 0.00
 -3 5 36 -1.62 0.00
 3 5 34 3.44 0.00
 -3 11 32 0.03 0.00
 -3 12 31 -1.82 0.00
 3 13 2 3.42 0.00
 -3 14 9 -0.94 0.00
 -3 14 7 -2.11 0.00
 -3 14 5 -3.41 0.00
 -3 14 3 -3.81 0.00
 -3 14 1 -2.34 0.00
 3 14 1 -0.20 0.00
 3 14 3 -1.61 0.00
 3 14 5 -1.01 0.00
 -3 15 20 4.54 0.00
 -3 15 18 2.86 0.00
 -3 15 16 1.24 0.00
 -3 15 14 0.95 0.00
 -3 15 12 1.86 0.00
 -3 15 10 2.87 0.00
 -3 15 8 3.32 0.00
 -3 15 6 3.40 0.00
 -3 15 4 3.24 0.00
 -3 15 2 2.51 0.00
 3 15 0 -1.26 0.00
 3 15 2 -0.45 0.00
 3 15 4 -0.75 0.00
 3 15 6 -1.35 0.00
 3 15 8 -1.08 0.00
 -3 16 17 -2.15 0.00
 -3 16 15 -2.47 0.00
 -3 16 13 -3.20 0.00
 -3 16 11 -4.15 0.00
 -3 16 9 -4.80 0.00
 -3 16 7 -4.70 0.00
 -3 16 5 -3.69 0.00
 -3 16 3 -1.85 0.00
 -3 16 1 0.17 0.00
 3 16 1 -1.03 0.00
 3 16 3 0.23 0.00
 3 16 5 2.79 0.00
 3 16 7 4.23 0.00
 3 16 9 3.17 0.00
 3 16 11 0.91 0.00
 3 16 13 -0.19 0.00
 3 16 15 0.44 0.00
 3 17 4 0.98 0.00
 3 17 6 -1.55 0.00
 3 17 8 -2.90 0.00
 3 17 10 -2.01 0.00
 -4 0 40 1.43 0.00
 -4 0 38 -0.14 0.00
 4 0 16 6.40 0.00
 4 0 18 5.83 0.00
 4 0 20 2.37 0.00
 4 0 22 1.81 0.00
 4 0 24 3.98 0.00
 4 0 26 4.69 0.00
 4 0 28 2.31 0.00
 4 0 30 -1.00 0.00
 4 0 32 -2.78 0.00
 4 0 34 -2.42 0.00
 -4 1 41 -0.09 0.00
 -4 1 39 1.39 0.00
 4 1 25 -2.85 0.00
 4 1 27 -2.06 0.00
 4 1 29 0.28 0.00
 4 1 31 1.98 0.00
 4 1 33 2.19 0.00
 4 1 35 1.30 0.00
 -4 2 40 -2.56 0.00
 -4 2 38 -2.89 0.00
 4 2 26 0.85 0.00
 4 2 28 -0.38 0.00
 4 2 30 -1.38 0.00
 4 2 32 -1.90 0.00
 4 2 34 -2.29 0.00
 4 3 25 -0.53 0.00
 4 3 27 0.77 0.00
 4 3 29 1.42 0.00
 4 3 31 1.59 0.00
 4 3 33 2.16 0.00
 4 3 35 2.84 0.00
 4 4 26 -2.18 0.00
 4 4 28 -2.71 0.00
 4 4 30 -2.04 0.00
 4 4 34 -1.14 0.00
 4 5 27 3.48 0.00
 4 5 29 2.94 0.00
 4 5 33 1.37 0.00
 4 5 35 0.77 0.00
 4 6 26 -3.20 0.00
 -4 11 33 -2.81 0.00
 -4 13 3 3.14 0.00
 -4 13 1 4.11 0.00
 4 13 1 2.62 0.00
 -4 14 22 0.76 0.00
 -4 14 20 2.29 0.00
 -4 14 18 3.37 0.00
 -4 14 16 3.37 0.00
 -4 14 14 2.32 0.00
 -4 14 12 1.02 0.00
 -4 14 10 0.55 0.00
 -4 14 8 1.11 0.00
 -4 14 6 1.61 0.00
 -4 14 4 0.93 0.00
 -4 14 2 -0.60 0.00
 4 14 0 -1.37 0.00
 4 14 2 -0.45 0.00
 4 14 4 1.35 0.00
 4 14 6 2.18 0.00
 -4 15 21 -5.36 0.00
 -4 15 19 -6.01 0.00
 -4 15 17 -5.19 0.00
 -4 15 15 -3.19 0.00
 -4 15 13 -0.93 0.00
 -4 15 11 0.49 0.00
 -4 15 9 0.41 0.00
 -4 15 7 -0.82 0.00
 -4 15 5 -2.16 0.00
 -4 15 3 -2.71 0.00
 -4 15 1 -2.46 0.00
 4 15 1 -1.80 0.00
 4 15 3 -1.31 0.00
 4 15 5 -0.70 0.00
 4 15 7 0.27 0.00
 4 15 9 1.22 0.00
 4 15 15 -1.79 0.00
 -4 16 18 2.10 0.00
 -4 16 16 0.49 0.00
 -4 16 14 -1.13 0.00
 -4 16 12 -2.17 0.00
 -4 16 10 -2.46 0.00
 -4 16 8 -2.13 0.00
 -4 16 6 -1.37 0.00
 -4 16 4 -0.33 0.00
 -4 16 2 0.83 0.00
 4 16 0 1.79 0.00
 4 16 2 2.13 0.00
 4 16 4 1.65 0.00
 4 16 6 0.43 0.00
 4 16 8 -1.09 0.00
 4 16 10 -1.94 0.00
 4 16 12 -1.21 0.00
 4 16 14 0.82 0.00
 4 17 5 -1.52 0.00
 4 17 7 -0.42 0.00
 4 17 9 1.34 0.00
 4 17 11 2.77 0.00
 -5 1 40 2.17 0.00
 -5 1 38 2.02 0.00
 5 1 24 -2.32 0.00
 5 1 26 -3.44 0.00
 5 1 28 -3.35 0.00
 5 1 30 -2.16 0.00
 5 1 32 -0.62 0.00
 5 1 34 0.38 0.00
 -5 2 39 0.16 0.00
 5 2 25 0.44 0.00
 5 2 27 1.39 0.00
 5 2 29 1.27 0.00
 5 2 31 0.51 0.00
 5 2 33 -0.14 0.00
 -5 3 38 -3.62 0.00
 5 3 24 0.54 0.00
 5 3 26 -0.36 0.00
 5 3 28 -0.45 0.00
 5 3 30 0.26 0.00
 5 3 32 1.11 0.00
 5 3 34 1.41 0.00
 5 4 25 2.28 0.00
 5 4 27 1.70 0.00
 5 4 29 0.06 0.00
 5 4 31 -1.76 0.00
 5 4 33 -2.65 0.00
 5 4 35 -2.14 0.00
 5 5 26 -2.94 0.00
 5 5 28 -1.45 0.00
 5 5 30 0.72 0.00
 5 5 32 2.18 0.00
 5 5 34 2.20 0.00
 5 6 25 2.84 0.00
 5 6 27 2.74 0.00
 5 6 31 -0.59 0.00
 -5 9 34 -2.70 0.00
 -5 10 33 2.03 0.00
 -5 11 32 2.20 0.00
 -5 13 10 -1.87 0.00
 -5 13 8 -0.65 0.00
 -5 13 6 0.70 0.00
 -5 13 4 1.68 0.00
 -5 13 2 1.37 0.00
 5 13 0 -0.25 0.00
 5 13 2 0.07 0.00
 -5 14 23 -1.86 0.00
 -5 14 21 -1.02 0.00
 -5 14 19 1.03 0.00
 -5 14 17 2.87 0.00
 -5 14 15 2.84 0.00
 -5 14 13 0.88 0.00
 -5 14 11 -1.41 0.00
 -5 14 9 -2.65 0.00
 -5 14 7 -2.80 0.00
 -5 14 5 -2.19 0.00
 -5 14 3 -0.75 0.00
 -5 14 1 1.07 0.00
 5 14 1 -1.51 0.00
 5 14 3 0.30 0.00
 5 14 5 2.65 0.00
 5 14 7 2.72 0.00
 -5 15 20 0.24 0.00
 -5 15 18 0.38 0.00
 -5 15 16 0.96 0.00
 -5 15 14 2.12 0.00
 -5 15 12 3.34 0.00
 -5 15 10 4.05 0.00
 -5 15 8 4.24 0.00
 -5 15 6 4.01 0.00
 -5 15 4 2.85 0.00
 -5 15 2 0.55 0.00
 5 15 0 1.37 0.00
 5 15 2 0.80 0.00
 5 15 4 -2.11 0.00
 5 15 6 -4.10 0.00
 5 15 8 -2.64 0.00
 5 15 10 1.02 0.00
 5 15 12 3.75 0.00
 5 15 14 4.38 0.00
 -5 16 19 -2.00 0.00
 -5 16 17 -2.47 0.00
 -5 16 15 -2.51 0.00
 -5 16 13 -2.21 0.00
 -5 16 11 -1.89 0.00
 -5 16 9 -2.00 0.00
 -5 16 7 -2.66 0.00
 -5 16 5 -3.10 0.00
 -5 16 3 -2.25 0.00
 -5 16 1 -0.40 0.00
 5 16 1 -0.43 0.00
 5 16 3 1.32 0.00
 5 16 5 4.05 0.00
 5 16 7 4.54 0.00
 5 16 9 1.94 0.00
 5 16 11 -1.14 0.00
 5 17 2 1.11 0.00
 5 17 4 -1.24 0.00
 5 17 6 -3.64 0.00
 5 17 8 -3.56 0.00
 -6 0 40 -1.90 0.00
 6 0 18 3.68 0.00
 6 0 20 0.34 0.00
 6 0 22 0.60 0.00
 6 0 24 0.33 0.00
 6 0 26 -3.18 0.00
 6 0 28 -7.19 0.00
 6 0 30 -7.74 0.00
 6 0 32 -4.65 0.00
 -6 1 41 0.25 0.00
 -6 1 39 1.39 0.00
 6 1 23 -3.32 0.00
 6 1 25 -1.97 0.00
 6 1 27 1.99 0.00
 6 1 29 4.88 0.00
 6 1 31 4.65 0.00
 6 1 33 2.68 0.00
 -6 2 40 -0.52 0.00
 -6 2 38 -0.88 0.00
 6 2 24 4.17 0.00
 6 2 26 1.90 0.00
 6 2 28 -0.89 0.00
 6 2 30 -1.93 0.00
 6 2 32 -1.78 0.00
 6 2 34 -1.84 0.00
 6 3 23 -0.92 0.00
 6 3 25 0.16 0.00
 6 3 27 1.50 0.00
 6 3 29 0.97 0.00
 6 3 31 -0.60 0.00
 6 3 33 -0.92 0.00
 6 4 24 0.08 0.00
 6 4 26 -1.01 0.00
 6 4 28 -0.41 0.00
 6 4 30 1.71 0.00
 6 4 32 2.98 0.00
 6 4 34 2.17 0.00
 6 5 19 -0.09 0.00
 6 5 25 -1.06 0.00
 6 5 27 -0.34 0.00
 6 5 29 -0.84 0.00
 6 5 31 -1.68 0.00
 6 5 33 -1.73 0.00
 6 6 24 0.57 0.00
 6 6 26 0.26 0.00
 6 6 28 0.13 0.00
 6 6 30 0.41 0.00
 -6 7 1 -0.73 0.00
 -6 8 2 -0.55 0.00
 -6 10 34 1.19 0.00
 -6 12 6 -0.65 0.00
 -6 12 4 0.10 0.00
 -6 12 2 -0.16 0.00
 -6 13 25 0.15 0.00
 -6 13 23 -1.41 0.00
 -6 13 21 -3.14 0.00
 -6 13 19 -3.89 0.00
 -6 13 17 -2.87 0.00
 -6 13 15 -0.05 0.00
 -6 13 13 3.35 0.00
 -6 13 11 5.24 0.00
 -6 13 9 4.45 0.00
 -6 13 7 2.15 0.00
 -6 13 5 0.64 0.00
 -6 13 3 0.78 0.00
 -6 13 1 1.28 0.00
 6 13 1 0.69 0.00
 6 13 3 -0.48 0.00
 -6 14 22 3.87 0.00
 -6 14 20 4.02 0.00
 -6 14 18 2.30 0.00
 -6 14 16 -0.50 0.00
 -6 14 14 -3.09 0.00
 -6 14 12 -4.12 0.00
 -6 14 10 -3.09 0.00
 -6 14 8 -0.93 0.00
 -6 14 6 0.64 0.00
 -6 14 4 0.88 0.00
 -6 14 2 0.68 0.00
 6 14 0 1.32 0.00
 6 14 2 2.49 0.00
 6 14 4 3.04 0.00
 6 14 6 2.25 0.00
 6 14 8 0.76 0.00
 6 14 10 -0.26 0.00
 -6 15 21 -1.03 0.00
 -6 15 19 0.78 0.00
 -6 15 17 2.34 0.00
 -6 15 15 2.52 0.00
 -6 15 13 1.06 0.00
 -6 15 11 -1.39 0.00
 -6 15 9 -3.63 0.00
 -6 15 7 -4.66 0.00
 -6 15 5 -4.52 0.00
 -6 15 3 -4.16 0.00
 -6 15 1 -4.39 0.00
 6 15 1 -4.82 0.00
 6 15 3 -4.54 0.00
 6 15 5 -3.01 0.00
 6 15 7 -0.80 0.00
 6 15 9 0.88 0.00
 6 15 11 1.34 0.00
 6 15 13 0.92 0.00
 -6 16 16 -1.13 0.00
 -6 16 14 0.37 0.00
 -6 16 12 2.75 0.00
 -6 16 10 4.79 0.00
 -6 16 8 5.59 0.00
 -6 16 6 5.46 0.00
 -6 16 4 5.67 0.00
 -6 16 2 7.03 0.00
 6 16 0 8.75 0.00
 6 16 2 9.13 0.00
 6 16 4 7.13 0.00
 6 16 6 3.30 0.00
 6 16 8 -0.70 0.00
 6 16 10 -3.17 0.00
 6 17 3 -9.45 0.00
 6 17 5 -7.06 0.00
 6 17 7 -2.97 0.00
 -7 1 42 1.49 0.00
 -7 1 40 1.55 0.00
 -7 1 38 1.31 0.00
 7 1 22 -0.74 0.00
 7 1 24 -1.11 0.00
 7 1 26 -0.06 0.00
 7 1 28 1.37 0.00
 7 1 30 1.77 0.00
 7 1 32 0.71 0.00
 -7 2 39 0.11 0.00
 7 2 23 5.10 0.00
 7 2 25 4.98 0.00
 7 2 27 2.79 0.00
 7 2 29 0.24 0.00
 7 2 31 -0.98 0.00
 7 2 33 -0.65 0.00
 -7 3 38 -4.64 0.00
 7 3 22 -5.52 0.00
 7 3 24 -5.97 0.00
 7 3 26 -4.36 0.00
 7 3 28 -1.63 0.00
 7 3 30 0.55 0.00
 7 3 32 1.32 0.00
 7 3 34 1.04 0.00
 7 4 23 2.68 0.00
 7 4 25 1.89 0.00
 7 4 27 0.60 0.00
 7 4 29 -0.25 0.00
 7 4 31 -0.30 0.00
 7 4 33 -0.03 0.00
 -7 7 4 2.93 0.00
 -7 7 2 3.27 0.00
 -7 8 3 -0.09 0.00
 -7 8 1 -0.11 0.00
 -7 9 4 -0.79 0.00
 -7 9 2 -0.96 0.00
 7 9 0 1.78 0.00
 -7 10 35 -2.08 0.00
 -7 12 13 -0.46 0.00
 -7 12 11 -0.38 0.00
 -7 12 9 -0.21 0.00
 -7 12 7 -1.64 0.00
 -7 12 5 -4.72 0.00
 -7 12 3 -6.96 0.00
 -7 12 1 -6.36 0.00
 -7 13 24 0.96 0.00
 -7 13 22 -0.19 0.00
 -7 13 20 -1.57 0.00
 -7 13 18 -2.65 0.00
 -7 13 16 -2.75 0.00
 -7 13 14 -1.90 0.00
 -7 13 12 -0.94 0.00
 -7 13 10 -0.18 0.00
 -7 13 8 1.30 0.00
 -7 13 6 3.84 0.00
 -7 13 4 5.74 0.00
 -7 13 2 5.12 0.00
 7 13 0 -2.55 0.00
 7 13 2 -0.22 0.00
 7 13 4 1.00 0.00
 -7 14 23 1.16 0.00
 -7 14 21 0.41 0.00
 -7 14 19 0.10 0.00
 -7 14 17 0.63 0.00
 -7 14 15 1.74 0.00
 -7 14 13 2.94 0.00
 -7 14 11 3.55 0.00
 -7 14 9 2.68 0.00
 -7 14 7 0.17 0.00
 -7 14 5 -2.25 0.00
 -7 14 3 -2.42 0.00
 -7 14 1 -0.65 0.00
 7 14 1 -0.38 0.00
 7 14 3 0.65 0.00
 7 14 5 1.85 0.00
 7 14 7 1.10 0.00
 7 14 9 -0.71 0.00
 7 14 11 -1.36 0.00
 -7 15 22 0.45 0.00
 -7 15 20 1.17 0.00
 -7 15 18 1.03 0.00
 -7 15 16 -0.14 0.00
 -7 15 14 -1.89 0.00
 -7 15 12 -3.33 0.00
 -7 15 10 -3.29 0.00
 -7 15 8 -1.26 0.00
 -7 15 6 1.39 0.00
 -7 15 4 2.12 0.00
 -7 15 2 0.13 0.00
 7 15 0 2.08 0.00
 7 15 2 1.39 0.00
 7 15 4 -1.56 0.00
 7 15 6 -3.27 0.00
 7 15 8 -2.11 0.00
 7 15 10 -0.07 0.00
 7 15 12 0.59 0.00
 -7 16 5 -4.44 0.00
 -7 16 3 -3.00 0.00
 -7 16 1 0.64 0.00
 7 16 1 -3.13 0.00
 7 16 3 -2.17 0.00
 7 16 5 0.47 0.00
 7 16 7 1.70 0.00
 -8 0 40 -3.98 0.00
 -8 0 38 -4.80 0.00
 -8 0 36 -3.73 0.00
 -8 0 34 -1.69 0.00
 -8 0 32 0.72 0.00
 -8 0 30 2.95 0.00
 -8 0 28 3.67 0.00
 -8 0 26 2.71 0.00
 -8 0 24 2.11 0.00
 -8 0 22 3.09 0.00
 -8 0 20 3.61 0.00
 8 0 24 1.12 0.00
 8 0 26 -0.60 0.00
 8 0 28 -1.17 0.00
 8 0 32 0.64 0.00
 -8 1 41 1.66 0.00
 -8 1 39 2.91 0.00
 -8 1 37 2.70 0.00
 -8 1 35 1.47 0.00
 -8 1 33 -0.24 0.00
 -8 1 31 -2.45 0.00
 -8 1 29 -4.24 0.00
 -8 1 27 -4.30 0.00
 -8 1 25 -3.29 0.00
 -8 1 23 -3.16 0.00
 -8 1 21 -3.55 0.00
 8 1 31 -0.35 0.00
 -8 2 38 0.21 0.00
 8 2 32 2.14 0.00
 8 3 31 -3.08 0.00
 8 3 33 -1.98 0.00
 8 4 32 1.82 0.00
 -8 5 9 0.99 0.00
 -8 5 7 0.45 0.00
 -8 6 8 3.35 0.00
 -8 6 6 3.60 0.00
 -8 6 4 2.67 0.00
 -8 6 2 0.70 0.00
 -8 7 7 -3.63 0.00
 -8 7 5 -2.88 0.00
 -8 7 3 -1.54 0.00
 -8 8 36 1.12 0.00
 -8 8 6 1.33 0.00
 -8 8 4 1.09 0.00
 -8 8 2 0.92 0.00
 -8 9 35 0.25 0.00
 -8 9 5 0.00 0.00
 -8 9 3 0.18 0.00
 -8 9 1 0.39 0.00
 -8 10 34 -0.44 0.00
 -8 10 2 -2.17 0.00
 8 10 0 -2.95 0.00
 -8 11 9 4.33 0.00
 -8 11 7 2.49 0.00
 -8 11 5 0.61 0.00
 -8 12 26 -1.76 0.00
 -8 12 24 -1.46 0.00
 -8 12 22 -0.26 0.00
 -8 12 20 1.57 0.00
 -8 12 18 3.24 0.00
 -8 12 16 3.20 0.00
 -8 12 14 0.62 0.00
 -8 12 12 -2.99 0.00
 -8 12 10 -4.72 0.00
 -8 12 8 -3.31 0.00
 -8 12 6 -0.37 0.00
 -8 12 4 1.68 0.00
 -8 12 2 2.11 0.00
 -8 13 25 -2.71 0.00
 -8 13 23 -2.42 0.00
 -8 13 21 -1.49 0.00
 -8 13 19 -0.86 0.00
 -8 13 17 -0.71 0.00
 -8 13 15 -0.30 0.00
 -8 13 13 0.65 0.00
 -8 13 11 1.17 0.00
 -8 13 9 0.30 0.00
 -8 13 7 -1.56 0.00
 -8 13 5 -3.19 0.00
 -8 13 3 -3.97 0.00
 -8 13 1 -4.02 0.00
 8 13 1 -3.45 0.00
 8 13 3 -2.15 0.00
 8 13 5 -0.75 0.00
 -8 14 24 2.90 0.00
 -8 14 22 1.09 0.00
 -8 14 20 -1.21 0.00
 -8 14 18 -2.39 0.00
 -8 14 16 -1.99 0.00
 -8 14 14 -0.63 0.00
 -8 14 12 0.96 0.00
 -8 14 10 2.33 0.00
 -8 14 8 3.17 0.00
 -8 14 6 3.39 0.00
 -8 14 4 3.45 0.00
 -8 14 2 3.76 0.00
 8 14 0 3.91 0.00
 8 14 2 2.88 0.00
 8 14 4 0.79 0.00
 8 14 6 -1.03 0.00
 8 14 8 -1.34 0.00
 8 14 10 -0.43 0.00
 8 14 12 0.33 0.00
 8 14 14 0.18 0.00
 -8 15 21 0.14 0.00
 -8 15 19 1.52 0.00
 -8 15 17 2.08 0.00
 -8 15 15 1.32 0.00
 -8 15 13 -0.36 0.00
 -8 15 11 -1.99 0.00
 -8 15 9 -2.66 0.00
 -8 15 7 -2.27 0.00
 -8 15 5 -1.95 0.00
 -8 15 3 -2.92 0.00
 -8 15 1 -4.95 0.00
 8 15 1 -6.23 0.00
 8 15 3 -5.46 0.00
 8 15 5 -2.82 0.00
 8 15 7 0.03 0.00
 8 15 9 1.69 0.00
 -8 16 4 2.19 0.00
 -8 16 2 3.72 0.00
 8 16 0 5.59 0.00
 8 16 2 6.06 0.00
 8 16 4 4.55 0.00
 8 16 6 1.93 0.00
 -9 1 40 -1.40 0.00
 -9 1 38 -2.45 0.00
 -9 1 36 -2.72 0.00
 -9 1 34 -2.05 0.00
 -9 1 32 -1.02 0.00
 -9 1 30 -0.20 0.00
 -9 1 28 0.34 0.00
 -9 1 26 0.60 0.00
 -9 1 24 0.50 0.00
 -9 1 22 0.19 0.00
 -9 1 20 0.11 0.00
 9 1 30 4.39 0.00
 -9 2 39 2.25 0.00
 -9 2 37 2.99 0.00
 -9 2 35 2.42 0.00
 -9 2 33 1.05 0.00
 -9 2 31 -0.25 0.00
 -9 2 29 -1.35 0.00
 -9 2 27 -2.26 0.00
 -9 2 25 -2.41 0.00
 -9 2 23 -1.39 0.00
 -9 2 21 0.18 0.00
 9 2 31 -5.30 0.00
 -9 3 38 -2.12 0.00
 -9 3 10 0.01 0.00
 9 3 30 1.98 0.00
 9 3 32 1.10 0.00
 -9 4 11 0.30 0.00
 -9 4 9 1.16 0.00
 -9 4 7 2.08 0.00
 9 4 29 3.29 0.00
 -9 5 10 -2.62 0.00
 -9 5 8 -2.01 0.00
 -9 5 6 -1.17 0.00
 -9 5 4 -0.53 0.00
 -9 6 11 5.69 0.00
 -9 6 9 4.58 0.00
 -9 6 7 2.18 0.00
 -9 6 5 0.52 0.00
 -9 6 3 0.34 0.00
 -9 7 10 -4.03 0.00
 -9 7 8 -2.28 0.00
 -9 7 6 -0.34 0.00
 -9 7 4 0.04 0.00
 -9 7 2 -0.77 0.00
 -9 8 9 0.16 0.00
 -9 8 7 -0.44 0.00
 -9 8 5 -0.38 0.00
 -9 8 3 0.36 0.00
 -9 8 1 0.64 0.00
 -9 9 36 3.07 0.00
 -9 9 8 1.21 0.00
 -9 9 6 1.29 0.00
 -9 9 4 1.06 0.00
 -9 9 2 0.86 0.00
 9 9 0 -1.44 0.00
 -9 10 9 -1.71 0.00
 -9 10 5 -1.84 0.00
 -9 10 3 -1.35 0.00
 -9 10 1 -0.59 0.00
 9 10 1 0.44 0.00
 -9 11 14 0.03 0.00
 -9 11 12 0.18 0.00
 -9 11 10 0.25 0.00
 -9 11 8 0.68 0.00
 -9 11 6 1.38 0.00
 -9 11 4 1.07 0.00
 9 11 0 3.11 0.00
 9 11 2 4.09 0.00
 -9 12 27 1.01 0.00
 -9 12 25 1.49 0.00
 -9 12 23 0.55 0.00
 -9 12 21 -1.15 0.00
 -9 12 19 -2.10 0.00
 -9 12 17 -1.62 0.00
 -9 12 15 -0.15 0.00
 -9 12 13 1.54 0.00
 -9 12 11 2.56 0.00
 -9 12 9 1.86 0.00
 -9 12 7 -0.45 0.00
 -9 12 5 -2.13 0.00
 -9 12 3 -0.94 0.00
 -9 12 1 2.38 0.00
 9 12 1 -4.89 0.00
 -9 13 26 -2.02 0.00
 -9 13 24 -2.71 0.00
 -9 13 22 -1.42 0.00
 -9 13 20 0.93 0.00
 -9 13 18 2.45 0.00
 -9 13 16 1.99 0.00
 -9 13 14 -0.14 0.00
 -9 13 12 -2.34 0.00
 -9 13 10 -2.53 0.00
 -9 13 8 0.13 0.00
 -9 13 6 3.61 0.00
 -9 13 4 4.56 0.00
 -9 13 2 2.22 0.00
 9 13 0 0.64 0.00
 9 13 2 1.09 0.00
 9 13 4 -0.11 0.00
 9 13 6 -0.75 0.00
 -9 14 25 0.95 0.00
 -9 14 23 1.57 0.00
 -9 14 21 1.05 0.00
 -9 14 19 -0.11 0.00
 -9 14 17 -0.78 0.00
 -9 14 15 -0.27 0.00
 -9 14 13 0.97 0.00
 -9 14 11 1.32 0.00
 -9 14 9 -0.72 0.00
 -9 14 7 -4.34 0.00
 -9 14 5 -6.39 0.00
 -9 14 3 -4.79 0.00
 -9 14 1 -1.37 0.00
 9 14 1 -0.20 0.00
 9 14 3 0.67 0.00
 9 14 5 1.58 0.00
 9 14 7 0.90 0.00
 9 14 9 -0.18 0.00
 9 14 11 -0.32 0.00
 -9 15 14 -0.40 0.00
 -9 15 12 -1.36 0.00
 -9 15 10 -0.97 0.00
 -9 15 8 1.48 0.00
 -9 15 6 4.12 0.00
 -9 15 4 4.08 0.00
 -9 15 2 1.25 0.00
 9 15 0 1.19 0.00
 9 15 2 0.80 0.00
 9 15 4 -1.16 0.00
 9 15 6 -1.96 0.00
 -9 16 1 -0.53 0.00
 9 16 1 0.55 0.00
 9 16 3 2.30 0.00
 9 16 5 3.36 0.00
 -10 0 40 -1.39 0.00
 -10 0 38 -0.29 0.00
 -10 0 36 1.40 0.00
 -10 0 34 2.55 0.00
 -10 0 32 3.20 0.00
 -10 0 30 3.22 0.00
 -10 0 28 1.98 0.00
 -10 0 26 0.37 0.00
 -10 0 24 0.80 0.00
 -10 0 22 3.36 0.00
 -10 0 20 4.79 0.00
 -10 0 18 3.06 0.00
 -10 0 16 0.39 0.00
 -10 0 12 0.48 0.00
 -10 0 10 1.51 0.00
 10 0 28 7.09 0.00
 10 0 30 6.61 0.00
 -10 1 39 0.49 0.00
 -10 1 37 -0.46 0.00
 -10 1 35 -1.21 0.00
 -10 1 33 -1.76 0.00
 -10 1 31 -2.41 0.00
 -10 1 29 -2.26 0.00
 -10 1 27 -0.78 0.00
 -10 1 25 0.24 0.00
 -10 1 23 -1.19 0.00
 -10 1 21 -3.68 0.00
 -10 1 19 -4.10 0.00
 -10 1 11 -1.76 0.00
 -10 1 9 -2.34 0.00
 10 1 29 -5.74 0.00
 10 1 31 -5.00 0.00
 -10 2 38 -1.26 0.00
 -10 2 36 -1.73 0.00
 -10 2 34 -2.05 0.00
 -10 2 32 -1.09 0.00
 -10 2 30 0.73 0.00
 -10 2 28 1.41 0.00
 -10 2 26 0.41 0.00
 -10 2 24 -0.26 0.00
 -10 2 22 0.66 0.00
 -10 2 20 1.67 0.00
 -10 2 12 1.43 0.00
 -10 2 10 0.67 0.00
 -10 2 8 0.84 0.00
 10 2 28 0.43 0.00
 10 2 30 1.59 0.00
 -10 3 37 1.67 0.00
 -10 3 35 2.36 0.00
 -10 3 33 2.20 0.00
 -10 3 31 0.44 0.00
 -10 3 29 -1.42 0.00
 -10 3 27 -1.44 0.00
 -10 3 25 -0.09 0.00
 -10 3 23 0.58 0.00
 -10 3 11 1.15 0.00
 -10 3 9 2.75 0.00
 -10 3 7 2.08 0.00
 10 3 29 3.82 0.00
 -10 4 36 -0.61 0.00
 -10 4 24 -1.82 0.00
 -10 4 12 0.71 0.00
 -10 4 10 -1.89 0.00
 -10 4 8 -3.29 0.00
 -10 4 6 -2.28 0.00
 -10 4 4 -0.06 0.00
 -10 5 37 0.98 0.00
 -10 5 11 -1.92 0.00
 -10 5 9 0.10 0.00
 -10 5 7 0.71 0.00
 -10 5 5 0.20 0.00
 -10 5 3 -0.16 0.00
 -10 6 12 2.00 0.00
 -10 6 10 0.77 0.00
 -10 6 8 0.25 0.00
 -10 6 6 0.24 0.00
 -10 6 4 -0.21 0.00
 -10 6 2 -1.21 0.00
 -10 7 37 -1.88 0.00
 -10 7 11 0.74 0.00
 -10 7 9 1.29 0.00
 -10 7 7 0.45 0.00
 -10 7 5 -0.07 0.00
 -10 7 3 0.75 0.00
 -10 8 36 -1.20 0.00
 -10 8 14 2.88 0.00
 -10 8 10 -0.44 0.00
 -10 8 8 -0.51 0.00
 -10 8 6 0.10 0.00
 -10 8 4 -0.15 0.00
 -10 8 2 -1.28 0.00
 -10 9 13 -0.76 0.00
 -10 9 11 0.10 0.00
 -10 9 9 0.79 0.00
 -10 9 7 1.05 0.00
 -10 9 5 1.56 0.00
 -10 9 3 2.30 0.00
 -10 9 1 2.32 0.00
 -10 10 12 -1.52 0.00
 -10 10 10 -1.98 0.00
 -10 10 8 -1.84 0.00
 -10 10 6 -1.69 0.00
 -10 10 4 -1.79 0.00
 -10 10 2 -1.35 0.00
 10 10 0 0.17 0.00
 -10 11 29 0.12 0.00
 -10 11 27 0.94 0.00
 -10 11 25 0.87 0.00
 -10 11 23 0.58 0.00
 -10 11 21 0.42 0.00
 -10 11 19 0.14 0.00
 -10 11 17 -0.11 0.00
 -10 11 15 0.43 0.00
 -10 11 13 1.73 0.00
 -10 11 11 2.55 0.00
 -10 11 9 2.04 0.00
 -10 11 7 0.93 0.00
 -10 11 5 0.36 0.00
 -10 11 3 0.17 0.00
 -10 11 1 -0.59 0.00
 10 11 1 -2.01 0.00
 -10 12 28 -2.73 0.00
 -10 12 26 -1.57 0.00
 -10 12 24 -0.06 0.00
 -10 12 22 1.04 0.00
 -10 12 20 1.63 0.00
 -10 12 18 1.59 0.00
 -10 12 16 0.39 0.00
 -10 12 14 -1.83 0.00
 -10 12 12 -3.52 0.00
 -10 12 10 -3.24 0.00
 -10 12 8 -1.47 0.00
 -10 12 6 -0.08 0.00
 -10 12 4 -0.17 0.00
 -10 12 2 -1.23 0.00
 10 12 0 -2.23 0.00
 10 12 2 -2.47 0.00
 10 12 4 -1.75 0.00
 10 12 6 -0.29 0.00
 10 12 8 0.96 0.00
 10 12 10 0.91 0.00
 10 12 12 -0.21 0.00
 -10 13 27 1.56 0.00
 -10 13 25 1.24 0.00
 -10 13 23 0.80 0.00
 -10 13 21 -0.08 0.00
 -10 13 19 -1.26 0.00
 -10 13 17 -1.59 0.00
 -10 13 15 -0.16 0.00
 -10 13 13 2.10 0.00
 -10 13 11 3.16 0.00
 -10 13 9 2.21 0.00
 -10 13 7 0.54 0.00
 -10 13 5 -0.08 0.00
 -10 13 3 0.97 0.00
 -10 13 1 3.03 0.00
 10 13 1 4.97 0.00
 10 13 3 5.42 0.00
 10 13 5 3.58 0.00
 10 13 7 0.10 0.00
 10 13 9 -2.80 0.00
 -10 14 22 -0.60 0.00
 -10 14 20 -0.15 0.00
 -10 14 18 0.71 0.00
 -10 14 16 0.94 0.00
 -10 14 14 0.22 0.00
 -10 14 12 -0.48 0.00
 -10 14 10 -0.30 0.00
 -10 14 8 0.44 0.00
 -10 14 6 0.80 0.00
 -10 14 4 0.40 0.00
 -10 14 2 -0.54 0.00
 10 14 0 -1.80 0.00
 10 14 2 -2.86 0.00
 10 14 4 -2.96 0.00
 10 14 6 -1.62 0.00
 10 14 8 0.41 0.00
 -10 15 9 -3.28 0.00
 -10 15 7 -3.03 0.00
 -10 15 5 -1.84 0.00
 -10 15 3 -0.44 0.00
 -10 15 1 0.84 0.00
 10 15 1 2.15 0.00
 10 15 3 3.27 0.00
 10 15 5 3.58 0.00
 10 16 2 -3.36 0.00
 10 16 4 -3.76 0.00
 -11 1 36 1.16 0.00
 -11 1 34 2.33 0.00
 -11 1 32 2.35 0.00
 -11 1 30 1.34 0.00
 -11 1 28 0.30 0.00
 -11 1 26 0.09 0.00
 -11 1 24 0.90 0.00
 -11 1 22 2.24 0.00
 -11 1 20 3.33 0.00
 -11 1 18 3.60 0.00
 -11 1 16 3.16 0.00
 -11 1 12 2.19 0.00
 -11 1 10 1.75 0.00
 -11 1 8 1.27 0.00
 -11 1 6 1.19 0.00
 -11 1 4 1.68 0.00
 11 1 28 -1.63 0.00
 11 1 30 -1.39 0.00
 -11 2 37 -0.86 0.00
 -11 2 35 -1.70 0.00
 -11 2 33 -2.20 0.00
 -11 2 31 -1.89 0.00
 -11 2 29 -1.19 0.00
 -11 2 27 -0.70 0.00
 -11 2 25 -0.68 0.00
 -11 2 23 -1.26 0.00
 -11 2 21 -2.43 0.00
 -11 2 19 -3.75 0.00
 -11 2 13 -5.02 0.00
 -11 2 11 -4.30 0.00
 -11 2 9 -2.94 0.00
 -11 2 7 -2.01 0.00
 -11 2 5 -2.60 0.00
 11 2 27 2.42 0.00
 11 2 29 2.94 0.00
 -11 3 36 -2.80 0.00
 -11 3 34 -3.43 0.00
 -11 3 32 -3.59 0.00
 -11 3 30 -2.99 0.00
 -11 3 28 -1.59 0.00
 -11 3 26 -0.28 0.00
 -11 3 24 0.08 0.00
 -11 3 22 -0.20 0.00
 -11 3 12 3.64 0.00
 -11 3 10 2.76 0.00
 -11 3 8 1.30 0.00
 -11 3 6 1.13 0.00
 -11 3 4 3.02 0.00
 -11 4 37 5.46 0.00
 -11 4 35 5.76 0.00
 -11 4 33 5.87 0.00
 -11 4 31 5.97 0.00
 -11 4 29 5.34 0.00
 -11 4 27 3.94 0.00
 -11 4 25 2.75 0.00
 -11 4 23 2.20 0.00
 -11 4 13 -0.91 0.00
 -11 4 11 -0.53 0.00
 -11 4 9 0.23 0.00
 -11 4 7 0.64 0.00
 -11 4 5 -0.24 0.00
 -11 4 3 -2.11 0.00
 -11 5 36 -5.80 0.00
 -11 5 34 -3.03 0.00
 -11 5 32 -0.96 0.00
 -11 5 30 -0.51 0.00
 -11 5 28 -1.31 0.00
 -11 5 26 -2.81 0.00
 -11 5 24 -4.21 0.00
 -11 5 22 -4.16 0.00
 -11 5 12 -0.66 0.00
 -11 5 10 -1.27 0.00
 -11 5 8 -0.89 0.00
 -11 5 6 0.12 0.00
 -11 5 4 1.38 0.00
 -11 6 37 2.05 0.00
 -11 6 35 0.41 0.00
 -11 6 25 1.23 0.00
 -11 6 23 1.79 0.00
 -11 6 21 1.32 0.00
 -11 6 19 -0.01 0.00
 -11 6 13 1.78 0.00
 -11 6 11 2.31 0.00
 -11 6 9 1.29 0.00
 -11 6 7 -0.27 0.00
 -11 6 5 -1.25 0.00
 -11 6 3 -1.70 0.00
 -11 7 38 4.11 0.00
 -11 7 22 5.06 0.00
 -11 7 20 4.92 0.00
 -11 7 18 3.40 0.00
 -11 7 16 0.81 0.00
 -11 7 12 -3.42 0.00
 -11 7 10 -2.93 0.00
 -11 7 8 -1.35 0.00
 -11 7 6 -0.45 0.00
 -11 7 4 -0.84 0.00
 -11 7 2 -1.25 0.00
 -11 8 19 -3.60 0.00
 -11 8 17 -2.48 0.00
 -11 8 15 -1.00 0.00
 -11 8 13 0.50 0.00
 -11 8 11 1.31 0.00
 -11 8 9 1.03 0.00
 -11 8 7 0.38 0.00
 -11 8 5 0.54 0.00
 -11 8 3 1.43 0.00
 -11 8 1 1.62 0.00
 -11 9 18 -0.82 0.00
 -11 9 16 0.32 0.00
 -11 9 14 1.85 0.00
 -11 9 12 2.76 0.00
 -11 9 10 2.73 0.00
 -11 9 8 2.13 0.00
 -11 9 6 1.08 0.00
 -11 9 4 -0.28 0.00
 -11 9 2 -1.12 0.00
 11 9 0 0.69 0.00
 -11 10 17 2.32 0.00
 -11 10 15 0.30 0.00
 -11 10 13 -2.41 0.00
 -11 10 11 -3.89 0.00
 -11 10 9 -3.41 0.00
 -11 10 7 -1.60 0.00
 -11 10 5 0.49 0.00
 -11 10 3 1.69 0.00
 -11 10 1 1.12 0.00
 11 10 1 0.56 0.00
 -11 11 30 1.71 0.00
 -11 11 28 0.23 0.00
 -11 11 26 -1.14 0.00
 -11 11 24 -1.30 0.00
 -11 11 22 -0.85 0.00
 -11 11 20 -1.09 0.00
 -11 11 18 -1.84 0.00
 -11 11 16 -1.70 0.00
 -11 11 14 -0.18 0.00
 -11 11 12 1.49 0.00
 -11 11 10 1.98 0.00
 -11 11 8 1.10 0.00
 -11 11 6 -0.48 0.00
 -11 11 4 -1.52 0.00
 -11 11 2 -0.53 0.00
 11 11 0 -2.82 0.00
 11 11 2 -6.18 0.00
 -11 12 29 -1.19 0.00
 -11 12 27 -0.64 0.00
 -11 12 25 -0.92 0.00
 -11 12 23 -2.35 0.00
 -11 12 21 -3.43 0.00
 -11 12 19 -2.71 0.00
 -11 12 17 -0.67 0.00
 -11 12 15 0.97 0.00
 -11 12 13 1.29 0.00
 -11 12 11 0.65 0.00
 -11 12 9 -0.04 0.00
 -11 12 7 0.16 0.00
 -11 12 5 1.34 0.00
 -11 12 3 1.83 0.00
 -11 12 1 -0.62 0.00
 11 12 1 5.61 0.00
 11 12 3 9.44 0.00
 11 12 5 8.93 0.00
 11 12 7 5.06 0.00
 11 12 9 1.18 0.00
 11 12 11 -1.11 0.00
 11 12 13 -2.58 0.00
 11 12 15 -3.92 0.00
 11 12 17 -4.83 0.00
 -11 13 26 0.95 0.00
 -11 13 24 2.74 0.00
 -11 13 22 5.13 0.00
 -11 13 20 6.25 0.00
 -11 13 18 4.88 0.00
 -11 13 16 1.73 0.00
 -11 13 14 -1.26 0.00
 -11 13 12 -2.42 0.00
 -11 13 10 -1.39 0.00
 -11 13 8 0.37 0.00
 -11 13 6 0.55 0.00
 -11 13 4 -1.40 0.00
 -11 13 2 -2.91 0.00
 11 13 0 1.21 0.00
 11 13 2 -2.87 0.00
 11 13 4 -5.43 0.00
 11 13 6 -4.45 0.00
 11 13 8 -1.68 0.00
 11 13 10 0.45 0.00
 11 13 12 1.64 0.00
 -11 14 17 -4.34 0.00
 -11 14 15 -1.68 0.00
 -11 14 13 1.36 0.00
 -11 14 11 2.56 0.00
 -11 14 9 1.23 0.00
 -11 14 7 -0.68 0.00
 -11 14 5 -0.50 0.00
 -11 14 3 1.67 0.00
 -11 14 1 2.68 0.00
 11 14 1 -0.48 0.00
 11 14 3 2.99 0.00
 11 14 5 4.54 0.00
 -11 15 6 0.16 0.00
 -11 15 4 -0.31 0.00
 -11 15 2 -1.06 0.00
 11 15 0 -0.21 0.00
 11 15 2 -3.23 0.00
 11 15 4 -5.30 0.00
 -12 0 38 -2.07 0.00
 -12 0 36 -3.43 0.00
 -12 0 34 -3.17 0.00
 -12 0 32 -1.02 0.00
 -12 0 30 0.87 0.00
 -12 0 28 0.13 0.00
 -12 0 26 -2.38 0.00
 -12 0 24 -3.56 0.00
 -12 0 22 -2.60 0.00
 -12 0 20 -1.76 0.00
 -12 0 18 -2.31 0.00
 -12 0 16 -2.66 0.00
 -12 0 14 -1.42 0.00
 -12 0 12 0.51 0.00
 -12 0 10 1.98 0.00
 -12 0 8 3.23 0.00
 -12 0 6 3.99 0.00
 -12 0 4 2.81 0.00
 12 0 26 0.05 0.00
 12 0 28 0.55 0.00
 -12 1 37 2.39 0.00
 -12 1 35 2.15 0.00
 -12 1 33 0.72 0.00
 -12 1 31 -1.01 0.00
 -12 1 29 -0.82 0.00
 -12 1 27 1.65 0.00
 -12 1 25 3.66 0.00
 -12 1 23 2.95 0.00
 -12 1 21 1.03 0.00
 -12 1 19 0.63 0.00
 -12 1 17 1.60 0.00
 -12 1 15 1.73 0.00
 -12 1 13 0.34 0.00
 -12 1 11 -1.49 0.00
 -12 1 9 -3.23 0.00
 -12 1 7 -4.79 0.00
 -12 1 5 -4.78 0.00
 12 1 25 -0.21 0.00
 12 1 27 0.25 0.00
 12 1 29 0.35 0.00
 -12 2 36 2.22 0.00
 -12 2 34 3.56 0.00
 -12 2 32 4.82 0.00
 -12 2 30 4.57 0.00
 -12 2 28 1.57 0.00
 -12 2 26 -2.35 0.00
 -12 2 24 -3.63 0.00
 -12 2 22 -1.47 0.00
 -12 2 20 1.24 0.00
 -12 2 18 2.05 0.00
 -12 2 16 1.58 0.00
 -12 2 14 1.48 0.00
 -12 2 12 2.08 0.00
 -12 2 10 3.18 0.00
 -12 2 8 4.87 0.00
 -12 2 6 6.21 0.00
 -12 2 4 5.07 0.00
 12 2 26 -2.06 0.00
 12 2 28 -2.24 0.00
 -12 3 37 -5.87 0.00
 -12 3 35 -6.06 0.00
 -12 3 33 -7.03 0.00
 -12 3 31 -8.54 0.00
 -12 3 29 -8.06 0.00
 -12 3 27 -4.30 0.00
 -12 3 25 0.34 0.00
 -12 3 23 2.34 0.00
 -12 3 21 1.15 0.00
 -12 3 19 -1.07 0.00
 -12 3 17 -2.60 0.00
 -12 3 13 -3.08 0.00
 -12 3 11 -2.47 0.00
 -12 3 9 -2.41 0.00
 -12 3 7 -3.60 0.00
 -12 3 5 -4.85 0.00
 -12 3 3 -4.11 0.00
 -12 4 38 6.11 0.00
 -12 4 36 4.66 0.00
 -12 4 34 3.55 0.00
 -12 4 32 4.50 0.00
 -12 4 30 6.20 0.00
 -12 4 28 5.75 0.00
 -12 4 26 2.45 0.00
 -12 4 24 -1.30 0.00
 -12 4 22 -2.92 0.00
 -12 4 14 1.79 0.00
 -12 4 12 1.11 0.00
 -12 4 10 -0.03 0.00
 -12 4 8 -0.22 0.00
 -12 4 6 1.04 0.00
 -12 4 4 2.48 0.00
 -12 5 37 0.47 0.00
 -12 5 35 1.05 0.00
 -12 5 33 -0.05 0.00
 -12 5 31 -2.05 0.00
 -12 5 29 -2.60 0.00
 -12 5 27 -0.36 0.00
 -12 5 25 3.33 0.00
 -12 5 23 5.66 0.00
 -12 5 21 5.06 0.00
 -12 5 13 -1.63 0.00
 -12 5 11 -0.31 0.00
 -12 5 9 0.53 0.00
 -12 5 7 0.26 0.00
 -12 5 5 -0.58 0.00
 -12 5 3 -1.05 0.00
 -12 6 38 -6.64 0.00
 -12 6 36 -6.67 0.00
 -12 6 34 -3.62 0.00
 -12 6 32 0.63 0.00
 -12 6 30 3.02 0.00
 -12 6 28 1.69 0.00
 -12 6 26 -2.55 0.00
 -12 6 24 -6.83 0.00
 -12 6 22 -8.39 0.00
 -12 6 20 -6.45 0.00
 -12 6 18 -2.63 0.00
 -12 6 12 0.61 0.00
 -12 6 10 0.29 0.00
 -12 6 8 0.90 0.00
 -12 6 6 1.58 0.00
 -12 6 4 1.48 0.00
 -12 6 2 0.84 0.00
 -12 7 37 5.11 0.00
 -12 7 35 3.40 0.00
 -12 7 33 1.19 0.00
 -12 7 31 0.33 0.00
 -12 7 29 1.21 0.00
 -12 7 27 2.82 0.00
 -12 7 25 4.01 0.00
 -12 7 23 4.30 0.00
 -12 7 21 3.61 0.00
 -12 7 19 2.27 0.00
 -12 7 17 1.24 0.00
 -12 7 15 1.38 0.00
 -12 7 13 2.11 0.00
 -12 7 11 1.88 0.00
 -12 7 9 0.25 0.00
 -12 7 7 -1.31 0.00
 -12 7 5 -1.25 0.00
 -12 7 3 0.10 0.00
 -12 8 34 0.11 0.00
 -12 8 32 -1.23 0.00
 -12 8 30 -3.47 0.00
 -12 8 28 -4.42 0.00
 -12 8 26 -2.99 0.00
 -12 8 24 -0.30 0.00
 -12 8 22 1.81 0.00
 -12 8 20 2.59 0.00
 -12 8 18 2.06 0.00
 -12 8 16 0.26 0.00
 -12 8 14 -2.25 0.00
 -12 8 12 -3.86 0.00
 -12 8 10 -3.37 0.00
 -12 8 8 -1.70 0.00
 -12 8 6 -0.95 0.00
 -12 8 4 -1.81 0.00
 -12 8 2 -2.89 0.00
 -12 9 33 -0.10 0.00
 -12 9 29 1.67 0.00
 -12 9 27 1.20 0.00
 -12 9 25 -0.05 0.00
 -12 9 23 -0.85 0.00
 -12 9 21 -0.91 0.00
 -12 9 19 -0.84 0.00
 -12 9 17 -0.61 0.00
 -12 9 15 0.54 0.00
 -12 9 13 2.41 0.00
 -12 9 11 3.60 0.00
 -12 9 9 3.36 0.00
 -12 9 7 2.57 0.00
 -12 9 5 2.26 0.00
 -12 9 3 2.14 0.00
 -12 9 1 1.28 0.00
 -12 10 32 -0.83 0.00
 -12 10 30 -2.35 0.00
 -12 10 28 -2.69 0.00
 -12 10 26 -1.72 0.00
 -12 10 24 -0.72 0.00
 -12 10 22 -0.58 0.00
 -12 10 20 -0.81 0.00
 -12 10 18 -0.67 0.00
 -12 10 16 -0.45 0.00
 -12 10 14 -0.71 0.00
 -12 10 12 -1.18 0.00
 -12 10 10 -1.26 0.00
 -12 10 8 -1.09 0.00
 -12 10 6 -1.12 0.00
 -12 10 4 -1.08 0.00
 -12 10 2 -0.31 0.00
 12 10 0 1.04 0.00
 -12 11 31 3.04 0.00
 -12 11 29 4.58 0.00
 -12 11 27 4.33 0.00
 -12 11 25 3.00 0.00
 -12 11 23 1.92 0.00
 -12 11 21 1.51 0.00
 -12 11 19 1.30 0.00
 -12 11 17 1.02 0.00
 -12 11 15 0.83 0.00
 -12 11 13 0.63 0.00
 -12 11 11 0.18 0.00
 -12 11 9 -0.30 0.00
 -12 11 7 -0.40 0.00
 -12 11 5 -0.34 0.00
 -12 11 3 -0.79 0.00
 -12 11 1 -1.65 0.00
 12 11 1 -1.97 0.00
 12 11 3 -1.25 0.00
 -12 12 28 -3.46 0.00
 -12 12 26 -3.54 0.00
 -12 12 24 -3.50 0.00
 -12 12 22 -3.41 0.00
 -12 12 20 -3.08 0.00
 -12 12 18 -2.69 0.00
 -12 12 16 -2.62 0.00
 -12 12 14 -2.72 0.00
 -12 12 12 -2.44 0.00
 -12 12 10 -1.79 0.00
 -12 12 8 -1.42 0.00
 -12 12 6 -1.45 0.00
 -12 12 4 -1.07 0.00
 -12 12 2 0.23 0.00
 12 12 0 1.79 0.00
 12 12 2 2.72 0.00
 12 12 4 2.92 0.00
 12 12 6 2.83 0.00
 12 12 8 2.44 0.00
 12 12 10 1.51 0.00
 12 12 12 0.52 0.00
 12 12 14 0.23 0.00
 12 12 16 0.33 0.00
 -12 13 21 0.71 0.00
 -12 13 19 0.92 0.00
 -12 13 17 2.10 0.00
 -12 13 15 3.68 0.00
 -12 13 13 4.28 0.00
 -12 13 11 3.43 0.00
 -12 13 9 2.43 0.00
 -12 13 7 2.75 0.00
 -12 13 5 4.12 0.00
 -12 13 3 4.95 0.00
 -12 13 1 4.25 0.00
 12 13 1 2.37 0.00
 12 13 3 0.19 0.00
 12 13 5 -1.69 0.00
 12 13 7 -2.60 0.00
 12 13 9 -1.84 0.00
 12 13 11 0.29 0.00
 -12 14 10 -1.01 0.00
 -12 14 8 0.13 0.00
 -12 14 6 -1.01 0.00
 -12 14 4 -3.75 0.00
 -12 14 2 -6.13 0.00
 12 14 0 -6.81 0.00
 12 14 2 -5.76 0.00
 12 14 4 -3.50 0.00
 -12 15 3 2.38 0.00
 -12 15 1 4.03 0.00
 12 15 1 4.05 0.00
 12 15 3 2.65 0.00
 -13 1 38 -3.66 0.00
 -13 1 36 -4.77 0.00
 -13 1 34 -4.80 0.00
 -13 1 32 -4.13 0.00
 -13 1 30 -3.25 0.00
 -13 1 28 -2.30 0.00
 -13 1 26 -1.24 0.00
 -13 1 24 -0.11 0.00
 -13 1 22 0.74 0.00
 -13 1 20 0.85 0.00
 -13 1 18 0.18 0.00
 -13 1 16 -0.61 0.00
 -13 1 14 -0.82 0.00
 -13 1 12 -0.62 0.00
 -13 1 10 -0.75 0.00
 -13 1 8 -1.37 0.00
 -13 1 6 -1.63 0.00
 -13 1 4 -0.65 0.00
 13 1 24 -1.16 0.00
 13 1 26 -2.88 0.00
 13 1 28 -3.01 0.00
 -13 2 37 5.30 0.00
 -13 2 35 4.80 0.00
 -13 2 33 4.07 0.00
 -13 2 31 4.01 0.00
 -13 2 29 4.25 0.00
 -13 2 27 3.79 0.00
 -13 2 25 2.06 0.00
 -13 2 23 -0.38 0.00
 -13 2 21 -2.06 0.00
 -13 2 19 -1.78 0.00
 -13 2 17 -0.07 0.00
 -13 2 15 1.17 0.00
 -13 2 13 0.69 0.00
 -13 2 11 -0.70 0.00
 -13 2 9 -1.37 0.00
 -13 2 7 -0.95 0.00
 -13 2 5 -0.38 0.00
 -13 2 3 -0.44 0.00
 13 2 25 5.18 0.00
 -13 3 38 -1.54 0.00
 -13 3 36 -0.45 0.00
 -13 3 34 0.51 0.00
 -13 3 32 0.22 0.00
 -13 3 30 -1.17 0.00
 -13 3 28 -2.55 0.00
 -13 3 26 -2.86 0.00
 -13 3 24 -1.66 0.00
 -13 3 22 0.43 0.00
 -13 3 20 1.97 0.00
 -13 3 18 1.92 0.00
 -13 3 16 1.04 0.00
 -13 3 14 1.10 0.00
 -13 3 12 2.67 0.00
 -13 3 10 4.45 0.00
 -13 3 8 4.94 0.00
 -13 3 6 3.94 0.00
 -13 3 4 2.13 0.00
 13 3 24 -4.38 0.00
 -13 4 37 -3.94 0.00
 -13 4 35 -3.79 0.00
 -13 4 33 -3.03 0.00
 -13 4 31 -2.25 0.00
 -13 4 29 -1.89 0.00
 -13 4 27 -1.59 0.00
 -13 4 25 -0.99 0.00
 -13 4 23 -0.51 0.00
 -13 4 21 -0.66 0.00
 -13 4 19 -1.11 0.00
 -13 4 17 -1.27 0.00
 -13 4 15 -1.40 0.00
 -13 4 13 -2.20 0.00
 -13 4 11 -3.57 0.00
 -13 4 9 -4.58 0.00
 -13 4 7 -4.68 0.00
 -13 4 5 -4.00 0.00
 -13 4 3 -2.81 0.00
 -13 5 38 5.86 0.00
 -13 5 36 5.55 0.00
 -13 5 34 3.69 0.00
 -13 5 32 1.48 0.00
 -13 5 30 0.38 0.00
 -13 5 28 0.49 0.00
 -13 5 26 0.68 0.00
 -13 5 24 0.40 0.00
 -13 5 22 0.40 0.00
 -13 5 20 1.19 0.00
 -13 5 14 1.63 0.00
 -13 5 12 1.46 0.00
 -13 5 10 1.97 0.00
 -13 5 8 2.77 0.00
 -13 5 6 3.47 0.00
 -13 5 4 3.90 0.00
 -13 6 37 -1.28 0.00
 -13 6 35 -0.43 0.00
 -13 6 33 0.69 0.00
 -13 6 31 1.25 0.00
 -13 6 29 1.14 0.00
 -13 6 27 1.37 0.00
 -13 6 25 2.56 0.00
 -13 6 23 3.61 0.00
 -13 6 21 2.82 0.00
 -13 6 19 0.28 0.00
 -13 6 17 -2.06 0.00
 -13 6 13 -1.82 0.00
 -13 6 11 -1.22 0.00
 -13 6 9 -1.60 0.00
 -13 6 7 -2.41 0.00
 -13 6 5 -2.88 0.00
 -13 6 3 -2.92 0.00
 -13 7 34 -3.62 0.00
 -13 7 32 -2.49 0.00
 -13 7 30 -0.76 0.00
 -13 7 28 0.15 0.00
 -13 7 26 -0.95 0.00
 -13 7 24 -3.49 0.00
 -13 7 22 -5.29 0.00
 -13 7 20 -4.77 0.00
 -13 7 18 -2.58 0.00
 -13 7 16 -0.77 0.00
 -13 7 14 -0.41 0.00
 -13 7 12 -0.62 0.00
 -13 7 10 -0.13 0.00
 -13 7 8 0.88 0.00
 -13 7 6 1.17 0.00
 -13 7 4 0.38 0.00
 -13 7 2 -0.37 0.00
 -13 8 33 -0.07 0.00
 -13 8 31 0.69 0.00
 -13 8 29 1.54 0.00
 -13 8 27 2.13 0.00
 -13 8 25 2.37 0.00
 -13 8 23 2.31 0.00
 -13 8 21 2.01 0.00
 -13 8 19 1.67 0.00
 -13 8 17 1.66 0.00
 -13 8 15 2.12 0.00
 -13 8 13 2.42 0.00
 -13 8 11 1.71 0.00
 -13 8 9 0.24 0.00
 -13 8 7 -0.38 0.00
 -13 8 5 0.92 0.00
 -13 8 3 3.03 0.00
 -13 8 1 3.84 0.00
 -13 9 34 4.38 0.00
 -13 9 32 3.88 0.00
 -13 9 30 1.74 0.00
 -13 9 28 -0.94 0.00
 -13 9 26 -2.67 0.00
 -13 9 24 -2.88 0.00
 -13 9 22 -2.31 0.00
 -13 9 20 -1.88 0.00
 -13 9 18 -1.80 0.00
 -13 9 16 -1.77 0.00
 -13 9 14 -1.58 0.00
 -13 9 12 -1.05 0.00
 -13 9 10 -0.26 0.00
 -13 9 8 0.06 0.00
 -13 9 6 -0.97 0.00
 -13 9 4 -2.87 0.00
 -13 9 2 -3.84 0.00
 13 9 0 3.06 0.00
 -13 10 33 -4.66 0.00
 -13 10 31 -5.31 0.00
 -13 10 29 -3.64 0.00
 -13 10 27 -0.62 0.00
 -13 10 25 2.02 0.00
 -13 10 23 3.60 0.00
 -13 10 21 4.59 0.00
 -13 10 19 5.06 0.00
 -13 10 17 4.41 0.00
 -13 10 15 2.52 0.00
 -13 10 13 0.37 0.00
 -13 10 11 -0.90 0.00
 -13 10 9 -0.77 0.00
 -13 10 7 0.64 0.00
 -13 10 5 2.32 0.00
 -13 10 3 2.49 0.00
 -13 10 1 0.39 0.00
 13 10 1 2.13 0.00
 -13 11 28 0.65 0.00
 -13 11 26 -0.37 0.00
 -13 11 24 -0.37 0.00
 -13 11 22 -0.48 0.00
 -13 11 20 -1.76 0.00
 -13 11 18 -3.28 0.00
 -13 11 16 -3.14 0.00
 -13 11 14 -0.85 0.00
 -13 11 12 2.05 0.00
 -13 11 10 3.59 0.00
 -13 11 8 2.86 0.00
 -13 11 6 0.76 0.00
 -13 11 4 -0.34 0.00
 -13 11 2 1.41 0.00
 13 11 0 -4.86 0.00
 13 11 2 -6.14 0.00
 -13 12 23 -2.23 0.00
 -13 12 21 -2.06 0.00
 -13 12 19 0.03 0.00
 -13 12 17 2.02 0.00
 -13 12 15 1.86 0.00
 -13 12 13 -0.38 0.00
 -13 12 11 -2.88 0.00
 -13 12 9 -3.81 0.00
 -13 12 7 -2.76 0.00
 -13 12 5 -1.42 0.00
 -13 12 3 -2.38 0.00
 -13 12 1 -6.04 0.00
 13 12 1 9.08 0.00
 13 12 3 7.65 0.00
 13 12 5 2.26 0.00
 13 12 7 -2.47 0.00
 13 12 9 -3.04 0.00
 13 12 11 -0.56 0.00
 13 12 13 1.57 0.00
 13 12 15 1.63 0.00
 -13 13 16 -2.16 0.00
 -13 13 14 -1.41 0.00
 -13 13 12 0.25 0.00
 -13 13 10 1.31 0.00
 -13 13 8 0.61 0.00
 -13 13 6 -1.47 0.00
 -13 13 4 -2.52 0.00
 -13 13 2 -0.12 0.00
 13 13 0 -4.77 0.00
 13 13 2 -8.12 0.00
 13 13 4 -6.94 0.00
 13 13 6 -2.92 0.00
 -13 14 9 -0.61 0.00
 -13 14 7 1.39 0.00
 -13 14 5 4.71 0.00
 -13 14 3 6.53 0.00
 -13 14 1 4.71 0.00
 13 14 1 -0.59 0.00
 13 14 3 2.12 0.00
 13 15 0 4.07 0.00
 13 15 2 2.13 0.00
 -14 0 40 -1.98 0.00
 -14 0 38 -3.07 0.00
 -14 0 36 -2.90 0.00
 -14 0 34 -0.80 0.00
 -14 0 32 2.29 0.00
 -14 0 30 3.64 0.00
 -14 0 28 1.61 0.00
 -14 0 26 -1.98 0.00
 -14 0 24 -4.18 0.00
 -14 0 22 -4.48 0.00
 -14 0 20 -4.26 0.00
 -14 0 18 -3.77 0.00
 -14 0 16 -2.21 0.00
 -14 0 14 -0.17 0.00
 -14 0 12 0.58 0.00
 -14 0 10 -0.19 0.00
 -14 0 8 -1.00 0.00
 -14 0 6 -1.36 0.00
 -14 0 4 -2.32 0.00
 14 0 22 4.23 0.00
 14 0 24 3.37 0.00
 14 0 26 0.93 0.00
 -14 1 39 2.15 0.00
 -14 1 37 2.85 0.00
 -14 1 35 2.36 0.00
 -14 1 33 0.01 0.00
 -14 1 31 -2.57 0.00
 -14 1 29 -2.71 0.00
 -14 1 27 -0.20 0.00
 -14 1 25 2.38 0.00
 -14 1 23 3.13 0.00
 -14 1 21 2.82 0.00
 -14 1 19 2.55 0.00
 -14 1 17 1.85 0.00
 -14 1 15 0.31 0.00
 -14 1 13 -0.74 0.00
 -14 1 11 -0.05 0.00
 -14 1 9 1.49 0.00
 -14 1 7 2.34 0.00
 -14 1 5 2.62 0.00
 -14 1 3 3.06 0.00
 14 1 23 -2.39 0.00
 14 1 25 -0.64 0.00
 -14 2 38 -2.32 0.00
 -14 2 36 -2.90 0.00
 -14 2 34 -1.65 0.00
 -14 2 32 1.24 0.00
 -14 2 30 3.27 0.00
 -14 2 28 2.61 0.00
 -14 2 26 0.66 0.00
 -14 2 24 0.03 0.00
 -14 2 22 0.92 0.00
 -14 2 20 1.47 0.00
 -14 2 18 0.99 0.00
 -14 2 16 0.57 0.00
 -14 2 14 0.69 0.00
 -14 2 12 0.33 0.00
 -14 2 10 -1.03 0.00
 -14 2 8 -2.52 0.00
 -14 2 6 -3.28 0.00
 -14 2 4 -3.41 0.00
 14 2 22 0.75 0.00
 14 2 24 -0.26 0.00
 -14 3 39 2.20 0.00
 -14 3 37 2.55 0.00
 -14 3 35 1.28 0.00
 -14 3 33 -1.75 0.00
 -14 3 31 -4.35 0.00
 -14 3 29 -3.92 0.00
 -14 3 27 -0.97 0.00
 -14 3 25 1.08 0.00
 -14 3 23 0.10 0.00
 -14 3 21 -2.28 0.00
 -14 3 19 -3.30 0.00
 -14 3 17 -2.55 0.00
 -14 3 15 -1.63 0.00
 -14 3 13 -1.44 0.00
 -14 3 11 -1.39 0.00
 -14 3 9 -0.72 0.00
 -14 3 7 0.69 0.00
 -14 3 5 2.58 0.00
 -14 3 3 4.37 0.00
 14 3 23 -0.36 0.00
 -14 4 38 -2.17 0.00
 -14 4 36 -2.17 0.00
 -14 4 34 0.03 0.00
 -14 4 32 3.43 0.00
 -14 4 30 4.89 0.00
 -14 4 28 2.56 0.00
 -14 4 26 -1.63 0.00
 -14 4 24 -4.01 0.00
 -14 4 22 -3.21 0.00
 -14 4 20 -1.05 0.00
 -14 4 18 0.40 0.00
 -14 4 16 1.01 0.00
 -14 4 14 1.80 0.00
 -14 4 12 2.94 0.00
 -14 4 10 3.49 0.00
 -14 4 8 2.51 0.00
 -14 4 6 -0.10 0.00
 -14 4 4 -3.48 0.00
 14 4 22 1.56 0.00
 -14 5 37 0.24 0.00
 -14 5 35 0.37 0.00
 -14 5 33 -1.26 0.00
 -14 5 31 -3.27 0.00
 -14 5 29 -3.31 0.00
 -14 5 27 -0.78 0.00
 -14 5 25 2.44 0.00
 -14 5 23 4.06 0.00
 -14 5 21 3.65 0.00
 -14 5 19 2.40 0.00
 -14 5 17 1.30 0.00
 -14 5 15 0.22 0.00
 -14 5 13 -1.15 0.00
 -14 5 11 -2.30 0.00
 -14 5 9 -2.24 0.00
 -14 5 7 -0.66 0.00
 -14 5 5 1.63 0.00
 -14 5 3 3.30 0.00
 -14 6 36 3.71 0.00
 -14 6 34 4.08 0.00
 -14 6 32 3.60 0.00
 -14 6 30 1.90 0.00
 -14 6 28 -0.75 0.00
 -14 6 26 -3.26 0.00
 -14 6 24 -4.38 0.00
 -14 6 22 -3.68 0.00
 -14 6 20 -1.90 0.00
 -14 6 18 -0.25 0.00
 -14 6 16 0.67 0.00
 -14 6 14 1.13 0.00
 -14 6 12 1.52 0.00
 -14 6 10 1.59 0.00
 -14 6 8 0.89 0.00
 -14 6 6 -0.23 0.00
 -14 6 4 -0.75 0.00
 -14 6 2 -0.12 0.00
 -14 7 35 -1.60 0.00
 -14 7 33 -1.33 0.00
 -14 7 31 -0.37 0.00
 -14 7 29 0.82 0.00
 -14 7 27 1.94 0.00
 -14 7 25 2.98 0.00
 -14 7 23 3.73 0.00
 -14 7 21 3.56 0.00
 -14 7 19 2.28 0.00
 -14 7 17 0.54 0.00
 -14 7 15 -0.78 0.00
 -14 7 13 -1.45 0.00
 -14 7 11 -1.59 0.00
 -14 7 9 -1.16 0.00
 -14 7 7 -0.27 0.00
 -14 7 5 0.37 0.00
 -14 7 3 0.04 0.00
 -14 7 1 -1.05 0.00
 -14 8 34 -4.56 0.00
 -14 8 32 -5.53 0.00
 -14 8 30 -4.83 0.00
 -14 8 28 -2.19 0.00
 -14 8 26 0.85 0.00
 -14 8 24 2.25 0.00
 -14 8 22 1.57 0.00
 -14 8 20 0.13 0.00
 -14 8 18 -0.75 0.00
 -14 8 16 -0.90 0.00
 -14 8 14 -0.64 0.00
 -14 8 12 -0.17 0.00
 -14 8 10 0.18 0.00
 -14 8 8 -0.09 0.00
 -14 8 6 -0.89 0.00
 -14 8 4 -1.35 0.00
 -14 8 2 -0.77 0.00
 14 8 0 0.53 0.00
 -14 9 33 5.65 0.00
 -14 9 31 7.77 0.00
 -14 9 29 6.68 0.00
 -14 9 27 2.09 0.00
 -14 9 25 -3.43 0.00
 -14 9 23 -6.85 0.00
 -14 9 21 -7.22 0.00
 -14 9 19 -5.61 0.00
 -14 9 17 -3.47 0.00
 -14 9 15 -1.82 0.00
 -14 9 13 -1.23 0.00
 -14 9 11 -1.56 0.00
 -14 9 9 -1.84 0.00
 -14 9 7 -1.26 0.00
 -14 9 5 -0.12 0.00
 -14 9 3 0.49 0.00
 -14 9 1 0.03 0.00
 14 9 1 -1.03 0.00
 -14 10 30 -3.88 0.00
 -14 10 28 -2.28 0.00
 -14 10 26 0.98 0.00
 -14 10 24 3.77 0.00
 -14 10 22 4.91 0.00
 -14 10 20 4.89 0.00
 -14 10 18 4.71 0.00
 -14 10 16 4.78 0.00
 -14 10 14 5.01 0.00
 -14 10 12 5.10 0.00
 -14 10 10 4.57 0.00
 -14 10 8 3.16 0.00
 -14 10 6 1.42 0.00
 -14 10 4 0.41 0.00
 -14 10 2 0.58 0.00
 14 10 0 1.39 0.00
 14 10 2 2.27 0.00
 -14 11 25 -0.15 0.00
 -14 11 23 0.39 0.00
 -14 11 21 0.68 0.00
 -14 11 19 -0.04 0.00
 -14 11 17 -1.83 0.00
 -14 11 15 -4.04 0.00
 -14 11 13 -5.75 0.00
 -14 11 11 -6.03 0.00
 -14 11 9 -4.54 0.00
 -14 11 7 -2.15 0.00
 -14 11 5 -0.49 0.00
 -14 11 3 -0.41 0.00
 -14 11 1 -1.32 0.00
 14 11 1 -2.33 0.00
 14 11 3 -3.17 0.00
 -14 12 20 -1.72 0.00
 -14 12 18 -1.69 0.00
 -14 12 16 -1.17 0.00
 -14 12 14 0.19 0.00
 -14 12 12 1.87 0.00
 -14 12 10 2.65 0.00
 -14 12 8 2.06 0.00
 -14 12 6 1.23 0.00
 -14 12 4 1.56 0.00
 -14 12 2 2.80 0.00
 14 12 0 3.64 0.00
 14 12 2 3.03 0.00
 14 12 4 1.80 0.00
 14 12 6 0.92 0.00
 14 12 8 0.35 0.00
 14 12 10 -0.45 0.00
 14 12 12 -1.28 0.00
 -14 13 11 4.01 0.00
 -14 13 9 3.35 0.00
 -14 13 7 3.18 0.00
 -14 13 5 1.94 0.00
 -14 13 3 -1.13 0.00
 -14 13 1 -4.52 0.00
 14 13 1 -5.89 0.00
 14 13 3 -4.57 0.00
 -14 14 6 -5.89 0.00
 -14 14 4 -5.14 0.00
 -14 14 2 -1.74 0.00
 14 14 0 2.42 0.00
 14 14 2 4.93 0.00
 -15 1 38 -6.09 0.00
 -15 1 36 -5.12 0.00
 -15 1 34 -2.87 0.00
 -15 1 32 -0.92 0.00
 -15 1 30 -0.37 0.00
 -15 1 28 -1.24 0.00
 -15 1 26 -2.70 0.00
 -15 1 24 -3.87 0.00
 -15 1 22 -4.38 0.00
 -15 1 20 -4.27 0.00
 -15 1 18 -3.55 0.00
 -15 1 16 -2.16 0.00
 -15 1 14 -0.49 0.00
 -15 1 12 0.52 0.00
 -15 1 10 0.29 0.00
 -15 1 8 -0.56 0.00
 -15 1 6 -0.79 0.00
 -15 1 4 0.06 0.00
 15 1 20 2.12 0.00
 15 1 22 0.62 0.00
 15 1 24 -1.01 0.00
 -15 2 39 4.40 0.00
 -15 2 37 3.73 0.00
 -15 2 35 2.17 0.00
 -15 2 33 0.85 0.00
 -15 2 31 0.48 0.00
 -15 2 29 0.99 0.00
 -15 2 27 1.85 0.00
 -15 2 25 2.61 0.00
 -15 2 23 3.22 0.00
 -15 2 21 3.90 0.00
 -15 2 19 4.43 0.00
 -15 2 17 4.01 0.00
 -15 2 15 2.20 0.00
 -15 2 13 0.05 0.00
 -15 2 11 -0.62 0.00
 -15 2 9 0.63 0.00
 -15 2 7 2.05 0.00
 -15 2 5 1.58 0.00
 -15 2 3 -0.87 0.00
 15 2 21 -2.52 0.00
 15 2 23 -0.27 0.00
 -15 3 38 1.91 0.00
 -15 3 36 3.54 0.00
 -15 3 34 4.12 0.00
 -15 3 32 3.28 0.00
 -15 3 30 1.77 0.00
 -15 3 28 0.78 0.00
 -15 3 26 1.01 0.00
 -15 3 24 2.14 0.00
 -15 3 22 2.87 0.00
 -15 3 20 2.02 0.00
 -15 3 18 -0.09 0.00
 -15 3 16 -1.59 0.00
 -15 3 14 -1.15 0.00
 -15 3 12 0.29 0.00
 -15 3 10 0.69 0.00
 -15 3 8 -0.45 0.00
 -15 3 6 -1.46 0.00
 -15 3 4 -0.59 0.00
 15 3 20 3.20 0.00
 -15 4 37 -5.64 0.00
 -15 4 35 -7.43 0.00
 -15 4 33 -7.42 0.00
 -15 4 31 -5.55 0.00
 -15 4 29 -2.88 0.00
 -15 4 27 -0.97 0.00
 -15 4 25 -1.11 0.00
 -15 4 23 -3.18 0.00
 -15 4 21 -5.26 0.00
 -15 4 19 -5.14 0.00
 -15 4 17 -2.76 0.00
 -15 4 15 -0.40 0.00
 -15 4 13 -0.09 0.00
 -15 4 11 -1.41 0.00
 -15 4 9 -2.29 0.00
 -15 4 7 -1.57 0.00
 -15 4 5 -0.01 0.00
 -15 4 3 0.89 0.00
 -15 5 36 0.56 0.00
 -15 5 34 0.70 0.00
 -15 5 32 1.05 0.00
 -15 5 30 1.16 0.00
 -15 5 28 0.58 0.00
 -15 5 26 -0.24 0.00
 -15 5 24 0.01 0.00
 -15 5 22 1.84 0.00
 -15 5 20 3.75 0.00
 -15 5 18 3.65 0.00
 -15 5 16 1.48 0.00
 -15 5 14 -0.50 0.00
 -15 5 12 -0.33 0.00
 -15 5 10 1.45 0.00
 -15 5 8 2.52 0.00
 -15 5 6 1.38 0.00
 -15 5 4 -1.18 0.00
 -15 5 2 -3.18 0.00
 -15 6 35 5.57 0.00
 -15 6 33 5.64 0.00
 -15 6 31 4.34 0.00
 -15 6 29 2.88 0.00
 -15 6 27 2.28 0.00
 -15 6 25 2.01 0.00
 -15 6 23 0.61 0.00
 -15 6 21 -2.11 0.00
 -15 6 19 -4.19 0.00
 -15 6 17 -3.63 0.00
 -15 6 15 -0.88 0.00
 -15 6 13 1.42 0.00
 -15 6 11 1.40 0.00
 -15 6 9 -0.02 0.00
 -15 6 7 -0.49 0.00
 -15 6 5 0.85 0.00
 -15 6 3 2.54 0.00
 -15 6 1 2.73 0.00
 -15 7 34 -2.59 0.00
 -15 7 32 -2.13 0.00
 -15 7 30 -2.14 0.00
 -15 7 28 -3.24 0.00
 -15 7 26 -4.92 0.00
 -15 7 24 -5.44 0.00
 -15 7 22 -3.45 0.00
 -15 7 20 0.31 0.00
 -15 7 18 3.24 0.00
 -15 7 16 3.37 0.00
 -15 7 14 1.41 0.00
 -15 7 12 -0.19 0.00
 -15 7 10 -0.16 0.00
 -15 7 8 0.42 0.00
 -15 7 6 -0.06 0.00
 -15 7 4 -1.34 0.00
 -15 7 2 -1.81 0.00
 -15 8 31 -1.43 0.00
 -15 8 29 -1.06 0.00
 -15 8 27 1.16 0.00
 -15 8 25 4.43 0.00
 -15 8 23 6.88 0.00
 -15 8 21 6.90 0.00
 -15 8 19 4.58 0.00
 -15 8 17 1.70 0.00
 -15 8 15 0.02 0.00
 -15 8 13 -0.33 0.00
 -15 8 11 -0.35 0.00
 -15 8 9 -0.40 0.00
 -15 8 7 0.17 0.00
 -15 8 5 1.45 0.00
 -15 8 3 2.25 0.00
 -15 8 1 1.79 0.00
 -15 9 30 0.27 0.00
 -15 9 28 -0.39 0.00
 -15 9 26 -1.73 0.00
 -15 9 24 -3.52 0.00
 -15 9 22 -5.27 0.00
 -15 9 20 -6.20 0.00
 -15 9 18 -5.83 0.00
 -15 9 16 -4.47 0.00
 -15 9 14 -2.86 0.00
 -15 9 12 -1.41 0.00
 -15 9 10 -0.38 0.00
 -15 9 8 -0.34 0.00
 -15 9 6 -1.34 0.00
 -15 9 4 -2.12 0.00
 -15 9 2 -1.43 0.00
 15 9 0 -0.05 0.00
 -15 10 25 1.48 0.00
 -15 10 23 0.83 0.00
 -15 10 21 1.56 0.00
 -15 10 19 3.15 0.00
 -15 10 17 3.98 0.00
 -15 10 15 3.11 0.00
 -15 10 13 0.90 0.00
 -15 10 11 -1.31 0.00
 -15 10 9 -2.03 0.00
 -15 10 7 -0.79 0.00
 -15 10 5 0.91 0.00
 -15 10 3 0.82 0.00
 -15 10 1 -1.14 0.00
 15 10 1 2.37 0.00
 15 10 3 0.82 0.00
 -15 11 22 1.33 0.00
 -15 11 20 -0.22 0.00
 -15 11 18 -1.14 0.00
 -15 11 16 0.35 0.00
 -15 11 14 3.90 0.00
 -15 11 12 7.24 0.00
 -15 11 10 7.88 0.00
 -15 11 8 4.91 0.00
 -15 11 6 0.13 0.00
 -15 11 4 -2.89 0.00
 -15 11 2 -2.12 0.00
 15 11 0 -0.50 0.00
 15 11 2 -1.38 0.00
 15 11 4 0.44 0.00
 -15 12 15 -6.33 0.00
 -15 12 13 -11.39 0.00
 -15 12 11 -14.19 0.00
 -15 12 9 -12.58 0.00
 -15 12 7 -6.96 0.00
 -15 12 5 -0.57 0.00
 -15 12 3 2.87 0.00
 -15 12 1 2.62 0.00
 15 12 1 -1.28 0.00
 15 12 3 -1.17 0.00
 15 12 5 -1.63 0.00
 -15 13 8 9.45 0.00
 -15 13 6 5.22 0.00
 -15 13 4 1.27 0.00
 -15 13 2 -0.57 0.00
 15 13 0 1.06 0.00
 15 13 2 2.07 0.00
 -15 14 1 -0.24 0.00
 15 14 1 0.50 0.00
 -16 0 38 -0.49 0.00
 -16 0 36 -1.44 0.00
 -16 0 34 -1.41 0.00
 -16 0 32 -0.36 0.00
 -16 0 30 0.32 0.00
 -16 0 28 0.11 0.00
 -16 0 26 0.10 0.00
 -16 0 24 0.92 0.00
 -16 0 22 1.45 0.00
 -16 0 20 0.70 0.00
 -16 0 18 -0.52 0.00
 -16 0 16 -1.16 0.00
 -16 0 14 -1.66 0.00
 -16 0 12 -2.66 0.00
 -16 0 10 -3.21 0.00
 -16 0 8 -2.23 0.00
 -16 0 6 -0.81 0.00
 -16 0 4 -0.86 0.00
 -16 0 2 -1.85 0.00
 16 0 18 2.55 0.00
 16 0 20 7.31 0.00
 16 0 22 7.69 0.00
 -16 1 37 4.20 0.00
 -16 1 35 3.80 0.00
 -16 1 33 1.16 0.00
 -16 1 31 -1.53 0.00
 -16 1 29 -2.06 0.00
 -16 1 27 -0.89 0.00
 -16 1 25 -0.09 0.00
 -16 1 23 -0.31 0.00
 -16 1 21 -0.47 0.00
 -16 1 19 -0.02 0.00
 -16 1 17 0.40 0.00
 -16 1 15 0.75 0.00
 -16 1 13 1.84 0.00
 -16 1 11 3.36 0.00
 -16 1 9 3.65 0.00
 -16 1 7 2.29 0.00
 -16 1 5 1.11 0.00
 -16 1 3 1.48 0.00
 16 1 19 -4.08 0.00
 16 1 21 -6.72 0.00
 -16 2 36 -7.05 0.00
 -16 2 34 -3.43 0.00
 -16 2 32 1.81 0.00
 -16 2 30 4.67 0.00
 -16 2 28 3.48 0.00
 -16 2 26 0.32 0.00
 -16 2 24 -1.87 0.00
 -16 2 22 -2.35 0.00
 -16 2 20 -1.94 0.00
 -16 2 18 -1.09 0.00
 -16 2 16 -0.09 0.00
 -16 2 14 -0.11 0.00
 -16 2 12 -1.99 0.00
 -16 2 10 -4.50 0.00
 -16 2 8 -5.44 0.00
 -16 2 6 -4.40 0.00
 -16 2 4 -3.04 0.00
 -16 2 2 -2.68 0.00
 16 2 18 0.30 0.00
 16 2 20 2.47 0.00
 -16 3 35 4.50 0.00
 -16 3 33 0.68 0.00
 -16 3 31 -3.25 0.00
 -16 3 29 -4.35 0.00
 -16 3 27 -2.51 0.00
 -16 3 25 0.10 0.00
 -16 3 23 1.89 0.00
 -16 3 21 2.87 0.00
 -16 3 19 3.15 0.00
 -16 3 17 2.19 0.00
 -16 3 15 0.40 0.00
 -16 3 13 -0.30 0.00
 -16 3 11 1.41 0.00
 -16 3 9 4.38 0.00
 -16 3 7 6.12 0.00
 -16 3 5 5.52 0.00
 -16 3 3 3.50 0.00
 16 3 19 -0.01 0.00
 -16 4 34 1.08 0.00
 -16 4 32 3.05 0.00
 -16 4 30 3.57 0.00
 -16 4 28 2.03 0.00
 -16 4 26 -0.06 0.00
 -16 4 24 -1.18 0.00
 -16 4 22 -1.58 0.00
 -16 4 20 -2.21 0.00
 -16 4 18 -2.68 0.00
 -16 4 16 -1.68 0.00
 -16 4 14 0.65 0.00
 -16 4 12 2.17 0.00
 -16 4 10 1.12 0.00
 -16 4 8 -1.71 0.00
 -16 4 6 -3.86 0.00
 -16 4 4 -3.70 0.00
 -16 4 2 -1.68 0.00
 16 4 18 -1.86 0.00
 -16 5 35 -4.71 0.00
 -16 5 33 -5.96 0.00
 -16 5 31 -5.32 0.00
 -16 5 29 -2.34 0.00
 -16 5 27 1.44 0.00
 -16 5 25 3.72 0.00
 -16 5 23 3.76 0.00
 -16 5 21 2.95 0.00
 -16 5 19 2.64 0.00
 -16 5 17 2.42 0.00
 -16 5 15 1.01 0.00
 -16 5 13 -1.49 0.00
 -16 5 11 -3.19 0.00
 -16 5 9 -2.63 0.00
 -16 5 7 -0.49 0.00
 -16 5 5 1.31 0.00
 -16 5 3 1.66 0.00
 -16 5 1 0.96 0.00
 -16 6 32 1.73 0.00
 -16 6 30 0.38 0.00
 -16 6 28 -1.36 0.00
 -16 6 26 -2.40 0.00
 -16 6 24 -1.98 0.00
 -16 6 22 -0.70 0.00
 -16 6 20 -0.03 0.00
 -16 6 18 -0.67 0.00
 -16 6 16 -1.72 0.00
 -16 6 14 -1.76 0.00
 -16 6 12 -0.67 0.00
 -16 6 10 0.29 0.00
 -16 6 8 0.24 0.00
 -16 6 6 -0.44 0.00
 -16 6 4 -0.92 0.00
 -16 6 2 -1.05 0.00
 -16 7 31 3.91 0.00
 -16 7 29 4.31 0.00
 -16 7 27 3.24 0.00
 -16 7 25 0.75 0.00
 -16 7 23 -2.40 0.00
 -16 7 21 -4.80 0.00
 -16 7 19 -5.04 0.00
 -16 7 17 -2.90 0.00
 -16 7 15 0.21 0.00
 -16 7 13 2.44 0.00
 -16 7 11 3.08 0.00
 -16 7 9 2.71 0.00
 -16 7 7 1.95 0.00
 -16 7 5 1.02 0.00
 -16 7 3 0.15 0.00
 -16 7 1 -0.34 0.00
 -16 8 28 -0.88 0.00
 -16 8 26 1.23 0.00
 -16 8 24 2.92 0.00
 -16 8 22 3.90 0.00
 -16 8 20 4.23 0.00
 -16 8 18 3.72 0.00
 -16 8 16 2.26 0.00
 -16 8 14 0.41 0.00
 -16 8 12 -1.01 0.00
 -16 8 10 -1.54 0.00
 -16 8 8 -1.16 0.00
 -16 8 6 -0.15 0.00
 -16 8 4 0.90 0.00
 -16 8 2 1.28 0.00
 16 8 0 0.92 0.00
 -16 9 27 -6.24 0.00
 -16 9 25 -6.69 0.00
 -16 9 23 -4.27 0.00
 -16 9 21 -1.20 0.00
 -16 9 19 0.24 0.00
 -16 9 17 -0.27 0.00
 -16 9 15 -1.39 0.00
 -16 9 13 -1.72 0.00
 -16 9 11 -1.00 0.00
 -16 9 9 -0.09 0.00
 -16 9 7 -0.06 0.00
 -16 9 5 -0.94 0.00
 -16 9 3 -1.60 0.00
 -16 9 1 -1.14 0.00
 16 9 1 -0.17 0.00
 -16 10 22 0.63 0.00
 -16 10 20 -1.56 0.00
 -16 10 18 -1.64 0.00
 -16 10 16 -0.26 0.00
 -16 10 14 0.89 0.00
 -16 10 12 0.69 0.00
 -16 10 10 -0.32 0.00
 -16 10 8 -0.47 0.00
 -16 10 6 1.26 0.00
 -16 10 4 3.85 0.00
 -16 10 2 5.15 0.00
 16 10 0 4.27 0.00
 16 10 2 2.69 0.00
 -16 11 17 1.21 0.00
 -16 11 15 0.00 0.00
 -16 11 13 -0.40 0.00
 -16 11 11 0.58 0.00
 -16 11 9 1.79 0.00
 -16 11 7 1.14 0.00
 -16 11 5 -2.06 0.00
 -16 11 3 -5.90 0.00
 -16 11 1 -7.58 0.00
 16 11 1 -6.29 0.00
 16 11 3 -3.46 0.00
 16 11 5 -1.03 0.00
 16 11 9 1.16 0.00
 16 11 11 1.37 0.00
 -16 12 12 3.27 0.00
 -16 12 10 1.14 0.00
 -16 12 8 -1.85 0.00
 -16 12 6 -2.77 0.00
 -16 12 4 -0.53 0.00
 -16 12 2 2.92 0.00
 16 12 0 4.87 0.00
 16 12 2 4.17 0.00
 -16 13 5 1.52 0.00
 -16 13 3 0.33 0.00
 -16 13 1 -1.78 0.00
 -17 1 36 1.88 0.00
 -17 1 34 1.10 0.00
 -17 1 32 -0.70 0.00
 -17 1 30 -2.52 0.00
 -17 1 28 -3.34 0.00
 -17 1 26 -2.80 0.00
 -17 1 24 -1.57 0.00
 -17 1 22 -0.74 0.00
 -17 1 20 -0.83 0.00
 -17 1 18 -1.26 0.00
 -17 1 16 -0.98 0.00
 -17 1 14 0.23 0.00
 -17 1 12 1.56 0.00
 -17 1 10 2.05 0.00
 -17 1 8 1.56 0.00
 -17 1 6 0.71 0.00
 -17 1 4 0.09 0.00
 -17 1 2 -0.05 0.00
 17 1 16 -0.16 0.00
 17 1 18 -1.00 0.00
 17 1 20 -1.84 0.00
 -17 2 35 -1.06 0.00
 -17 2 33 -0.94 0.00
 -17 2 31 0.43 0.00
 -17 2 29 2.40 0.00
 -17 2 27 3.60 0.00
 -17 2 25 3.16 0.00
 -17 2 23 1.65 0.00
 -17 2 21 0.62 0.00
 -17 2 19 0.91 0.00
 -17 2 17 1.76 0.00
 -17 2 15 1.89 0.00
 -17 2 13 1.05 0.00
 -17 2 11 0.09 0.00
 -17 2 9 -0.41 0.00
 -17 2 7 -0.67 0.00
 -17 2 5 -1.02 0.00
 -17 2 3 -1.33 0.00
 17 2 17 -0.02 0.00
 17 2 19 0.71 0.00
 -17 3 34 2.14 0.00
 -17 3 32 2.59 0.00
 -17 3 30 1.40 0.00
 -17 3 28 -0.60 0.00
 -17 3 26 -1.74 0.00
 -17 3 24 -1.14 0.00
 -17 3 22 0.27 0.00
 -17 3 20 0.63 0.00
 -17 3 18 -0.73 0.00
 -17 3 16 -2.68 0.00
 -17 3 14 -3.87 0.00
 -17 3 12 -4.10 0.00
 -17 3 10 -3.83 0.00
 -17 3 8 -3.05 0.00
 -17 3 6 -1.42 0.00
 -17 3 4 0.68 0.00
 -17 3 2 2.12 0.00
 17 3 16 0.07 0.00
 17 3 18 1.04 0.00
 -17 4 33 -0.23 0.00
 -17 4 31 -0.10 0.00
 -17 4 29 0.16 0.00
 -17 4 27 0.00 0.00
 -17 4 25 -1.17 0.00
 -17 4 23 -2.88 0.00
 -17 4 21 -3.40 0.00
 -17 4 19 -1.45 0.00
 -17 4 17 2.13 0.00
 -17 4 15 5.03 0.00
 -17 4 13 5.84 0.00
 -17 4 11 5.14 0.00
 -17 4 9 4.14 0.00
 -17 4 7 3.06 0.00
 -17 4 5 1.36 0.00
 -17 4 3 -0.99 0.00
 -17 4 1 -2.93 0.00
 17 4 17 -0.90 0.00
 -17 5 32 -0.55 0.00
 -17 5 30 -0.69 0.00
 -17 5 28 -1.13 0.00
 -17 5 26 -1.16 0.00
 -17 5 24 -0.09 0.00
 -17 5 22 1.30 0.00
 -17 5 20 1.12 0.00
 -17 5 18 -1.45 0.00
 -17 5 16 -4.67 0.00
 -17 5 14 -5.84 0.00
 -17 5 12 -4.16 0.00
 -17 5 10 -1.51 0.00
 -17 5 8 -0.15 0.00
 -17 5 6 -0.31 0.00
 -17 5 4 -0.40 0.00
 -17 5 2 0.78 0.00
 -17 6 31 -2.71 0.00
 -17 6 29 -1.93 0.00
 -17 6 27 0.15 0.00
 -17 6 25 1.89 0.00
 -17 6 23 1.99 0.00
 -17 6 21 1.09 0.00
 -17 6 19 1.16 0.00
 -17 6 17 2.94 0.00
 -17 6 15 4.66 0.00
 -17 6 13 4.03 0.00
 -17 6 11 1.09 0.00
 -17 6 9 -1.64 0.00
 -17 6 7 -1.95 0.00
 -17 6 5 -0.35 0.00
 -17 6 3 0.93 0.00
 -17 6 1 0.69 0.00
 -17 7 28 0.58 0.00
 -17 7 26 -0.77 0.00
 -17 7 24 -0.42 0.00
 -17 7 22 2.02 0.00
 -17 7 20 4.65 0.00
 -17 7 18 4.89 0.00
 -17 7 16 2.29 0.00
 -17 7 14 -0.83 0.00
 -17 7 12 -1.88 0.00
 -17 7 10 -0.88 0.00
 -17 7 8 -0.04 0.00
 -17 7 6 -0.70 0.00
 -17 7 4 -1.89 0.00
 -17 7 2 -2.10 0.00
 17 7 0 1.32 0.00
 -17 8 25 3.47 0.00
 -17 8 23 -0.79 0.00
 -17 8 21 -6.66 0.00
 -17 8 19 -10.61 0.00
 -17 8 17 -10.03 0.00
 -17 8 15 -5.64 0.00
 -17 8 13 -0.90 0.00
 -17 8 11 1.41 0.00
 -17 8 9 1.58 0.00
 -17 8 7 1.44 0.00
 -17 8 5 1.52 0.00
 -17 8 3 0.94 0.00
 -17 8 1 -0.39 0.00
 17 8 1 1.32 0.00
 -17 9 22 1.79 0.00
 -17 9 20 5.17 0.00
 -17 9 18 6.89 0.00
 -17 9 16 6.08 0.00
 -17 9 14 3.78 0.00
 -17 9 12 1.93 0.00
 -17 9 10 1.16 0.00
 -17 9 8 0.50 0.00
 -17 9 6 -0.49 0.00
 -17 9 4 -0.81 0.00
 -17 9 2 0.15 0.00
 17 9 0 -1.17 0.00
 17 9 2 -0.76 0.00
 -17 10 17 -0.99 0.00
 -17 10 15 -2.21 0.00
 -17 10 13 -3.16 0.00
 -17 10 11 -3.23 0.00
 -17 10 9 -1.72 0.00
 -17 10 7 1.18 0.00
 -17 10 5 3.63 0.00
 -17 10 3 3.80 0.00
 -17 10 1 2.17 0.00
 17 10 1 -0.93 0.00
 17 10 3 -0.97 0.00
 -17 11 14 0.14 0.00
 -17 11 12 1.16 0.00
 -17 11 10 0.75 0.00
 -17 11 8 -1.28 0.00
 -17 11 6 -3.56 0.00
 -17 11 4 -3.99 0.00
 -17 11 2 -2.14 0.00
 17 11 0 -0.14 0.00
 17 11 2 -0.89 0.00
 -17 12 7 1.80 0.00
 -17 12 5 2.67 0.00
 -17 12 3 1.39 0.00
 -17 12 1 -0.67 0.00
 -18 0 32 3.47 0.00
 -18 0 30 3.12 0.00
 -18 0 28 1.34 0.00
 -18 0 26 0.08 0.00
 -18 0 24 0.05 0.00
 -18 0 22 0.43 0.00
 -18 0 20 0.75 0.00
 -18 0 18 1.32 0.00
 -18 0 16 1.63 0.00
 -18 0 14 0.50 0.00
 -18 0 12 -1.73 0.00
 -18 0 10 -2.77 0.00
 -18 0 8 -1.61 0.00
 -18 0 6 -0.21 0.00
 -18 0 4 -0.61 0.00
 -18 0 2 -1.96 0.00
 18 0 14 -5.65 0.00
 -18 1 33 -3.09 0.00
 -18 1 31 -3.20 0.00
 -18 1 29 -1.51 0.00
 -18 1 27 0.21 0.00
 -18 1 25 0.54 0.00
 -18 1 23 -0.04 0.00
 -18 1 21 -0.55 0.00
 -18 1 19 -1.15 0.00
 -18 1 17 -2.13 0.00
 -18 1 15 -2.47 0.00
 -18 1 13 -1.09 0.00
 -18 1 11 0.98 0.00
 -18 1 9 1.75 0.00
 -18 1 7 1.28 0.00
 -18 1 5 1.45 0.00
 -18 1 3 2.72 0.00
 -18 1 1 3.41 0.00
 18 1 15 4.99 0.00
 18 1 17 3.33 0.00
 -18 2 32 2.83 0.00
 -18 2 30 1.98 0.00
 -18 2 28 0.09 0.00
 -18 2 26 -1.02 0.00
 -18 2 24 -0.88 0.00
 -18 2 22 -0.49 0.00
 -18 2 20 -0.32 0.00
 -18 2 18 0.32 0.00
 -18 2 16 1.54 0.00
 -18 2 14 2.06 0.00
 -18 2 12 1.08 0.00
 -18 2 10 -0.39 0.00
 -18 2 8 -1.16 0.00
 -18 2 6 -1.70 0.00
 -18 2 4 -2.91 0.00
 -18 2 2 -4.11 0.00
 18 2 14 -4.18 0.00
 18 2 16 -3.45 0.00
 18 2 18 -0.71 0.00
 -18 3 31 -5.57 0.00
 -18 3 29 -4.09 0.00
 -18 3 27 -1.00 0.00
 -18 3 25 1.54 0.00
 -18 3 23 2.86 0.00
 -18 3 21 3.51 0.00
 -18 3 19 3.52 0.00
 -18 3 17 2.41 0.00
 -18 3 15 0.66 0.00
 -18 3 13 -0.31 0.00
 -18 3 11 -0.03 0.00
 -18 3 9 0.61 0.00
 -18 3 7 0.89 0.00
 -18 3 5 1.33 0.00
 -18 3 3 2.39 0.00
 -18 3 1 3.45 0.00
 18 3 15 2.72 0.00
 -18 4 30 6.03 0.00
 -18 4 28 3.37 0.00
 -18 4 26 0.26 0.00
 -18 4 24 -1.78 0.00
 -18 4 22 -2.97 0.00
 -18 4 20 -3.92 0.00
 -18 4 18 -4.17 0.00
 -18 4 16 -3.00 0.00
 -18 4 14 -1.01 0.00
 -18 4 12 0.30 0.00
 -18 4 10 0.40 0.00
 -18 4 8 0.13 0.00
 -18 4 6 0.15 0.00
 -18 4 4 0.07 0.00
 -18 4 2 -0.71 0.00
 18 4 14 0.89 0.00
 -18 5 29 1.67 0.00
 -18 5 27 2.78 0.00
 -18 5 25 2.25 0.00
 -18 5 23 0.97 0.00
 -18 5 21 0.80 0.00
 -18 5 19 2.25 0.00
 -18 5 17 3.56 0.00
 -18 5 15 2.84 0.00
 -18 5 13 0.33 0.00
 -18 5 11 -2.09 0.00
 -18 5 9 -3.16 0.00
 -18 5 7 -3.06 0.00
 -18 5 5 -2.39 0.00
 -18 5 3 -1.29 0.00
 -18 5 1 0.09 0.00
 18 5 13 -4.51 0.00
 -18 6 28 -5.48 0.00
 -18 6 26 -5.38 0.00
 -18 6 24 -3.78 0.00
 -18 6 22 -2.57 0.00
 -18 6 20 -3.48 0.00
 -18 6 18 -5.88 0.00
 -18 6 16 -7.01 0.00
 -18 6 14 -4.79 0.00
 -18 6 12 -0.06 0.00
 -18 6 10 4.43 0.00
 -18 6 8 6.58 0.00
 -18 6 6 5.99 0.00
 -18 6 4 3.44 0.00
 -18 6 2 0.22 0.00
 18 6 0 -2.18 0.00
 -18 7 25 0.48 0.00
 -18 7 23 1.13 0.00
 -18 7 21 3.31 0.00
 -18 7 19 6.78 0.00
 -18 7 17 9.62 0.00
 -18 7 15 9.41 0.00
 -18 7 13 5.50 0.00
 -18 7 11 -0.26 0.00
 -18 7 9 -5.08 0.00
 -18 7 7 -7.06 0.00
 -18 7 5 -5.70 0.00
 -18 7 3 -1.79 0.00
 -18 7 1 2.69 0.00
 18 7 1 5.52 0.00
 -18 8 22 1.33 0.00
 -18 8 20 -0.85 0.00
 -18 8 18 -3.50 0.00
 -18 8 16 -5.58 0.00
 -18 8 14 -5.94 0.00
 -18 8 12 -4.20 0.00
 -18 8 10 -0.96 0.00
 -18 8 8 2.48 0.00
 -18 8 6 4.47 0.00
 -18 8 4 3.60 0.00
 -18 8 2 0.15 0.00
 18 8 0 -3.49 0.00
 18 8 2 -4.82 0.00
 -18 9 17 -0.30 0.00
 -18 9 15 1.77 0.00
 -18 9 13 3.68 0.00
 -18 9 11 3.57 0.00
 -18 9 9 0.38 0.00
 -18 9 7 -4.79 0.00
 -18 9 5 -8.76 0.00
 -18 9 3 -8.72 0.00
 -18 9 1 -4.95 0.00
 18 9 1 -0.84 0.00
 18 9 3 0.97 0.00
 -18 10 14 1.03 0.00
 -18 10 12 0.87 0.00
 -18 10 10 2.48 0.00
 -18 10 8 6.82 0.00
 -18 10 6 12.12 0.00
 -18 10 4 14.64 0.00
 -18 10 2 11.97 0.00
 18 10 0 5.57 0.00
 18 10 2 -0.34 0.00
 18 10 4 -3.02 0.00
 18 10 8 -1.39 0.00
 -18 11 9 -4.65 0.00
 -18 11 7 -6.99 0.00
 -18 11 5 -9.51 0.00
 -18 11 3 -9.54 0.00
 -18 11 1 -6.02 0.00
 -18 12 2 3.10 0.00
 -19 1 30 0.66 0.00
 -19 1 28 0.59 0.00
 -19 1 26 1.05 0.00
 -19 1 24 1.61 0.00
 -19 1 22 1.48 0.00
 -19 1 20 0.45 0.00
 -19 1 18 -0.67 0.00
 -19 1 16 -0.86 0.00
 -19 1 14 0.02 0.00
 -19 1 12 1.20 0.00
 -19 1 10 1.88 0.00
 -19 1 8 1.92 0.00
 -19 1 6 1.64 0.00
 -19 1 4 1.30 0.00
 -19 1 2 1.00 0.00
 19 1 0 -0.54 0.00
 19 1 12 1.33 0.00
 19 1 14 -0.19 0.00
 -19 2 29 3.09 0.00
 -19 2 27 2.18 0.00
 -19 2 25 -0.74 0.00
 -19 2 23 -3.71 0.00
 -19 2 21 -4.63 0.00
 -19 2 19 -3.40 0.00
 -19 2 17 -1.85 0.00
 -19 2 15 -1.58 0.00
 -19 2 13 -2.37 0.00
 -19 2 11 -2.93 0.00
 -19 2 9 -2.64 0.00
 -19 2 7 -1.98 0.00
 -19 2 5 -1.60 0.00
 -19 2 3 -1.71 0.00
 -19 2 1 -2.04 0.00
 19 2 11 -0.63 0.00
 19 2 13 1.54 0.00
 19 2 15 2.10 0.00
 -19 3 28 -4.14 0.00
 -19 3 26 -1.17 0.00
 -19 3 24 3.51 0.00
 -19 3 22 7.00 0.00
 -19 3 20 7.08 0.00
 -19 3 18 4.34 0.00
 -19 3 16 1.34 0.00
 -19 3 14 0.00 0.00
 -19 3 12 0.15 0.00
 -19 3 10 0.72 0.00
 -19 3 8 1.19 0.00
 -19 3 6 1.66 0.00
 -19 3 4 2.27 0.00
 -19 3 2 2.95 0.00
 19 3 0 -3.58 0.00
 19 3 12 -1.76 0.00
 19 3 14 -1.99 0.00
 -19 4 27 -2.12 0.00
 -19 4 25 -2.90 0.00
 -19 4 23 -4.31 0.00
 -19 4 21 -4.63 0.00
 -19 4 19 -2.73 0.00
 -19 4 17 0.38 0.00
 -19 4 15 2.53 0.00
 -19 4 13 2.64 0.00
 -19 4 11 1.34 0.00
 -19 4 9 -0.20 0.00
 -19 4 7 -1.41 0.00
 -19 4 5 -2.23 0.00
 -19 4 3 -2.70 0.00
 -19 4 1 -2.83 0.00
 19 4 11 1.36 0.00
 -19 5 26 3.35 0.00
 -19 5 24 2.49 0.00
 -19 5 22 2.18 0.00
 -19 5 20 1.22 0.00
 -19 5 18 -0.81 0.00
 -19 5 16 -2.58 0.00
 -19 5 14 -2.49 0.00
 -19 5 12 -0.56 0.00
 -19 5 10 1.62 0.00
 -19 5 8 2.71 0.00
 -19 5 6 2.70 0.00
 -19 5 4 2.31 0.00
 -19 5 2 1.92 0.00
 19 5 0 -1.25 0.00
 -19 6 23 0.41 0.00
 -19 6 21 -1.71 0.00
 -19 6 19 -1.90 0.00
 -19 6 17 -0.15 0.00
 -19 6 15 1.12 0.00
 -19 6 13 -0.17 0.00
 -19 6 11 -3.29 0.00
 -19 6 9 -5.49 0.00
 -19 6 7 -5.07 0.00
 -19 6 5 -2.75 0.00
 -19 6 3 -0.34 0.00
 -19 6 1 1.24 0.00
 19 6 1 -1.97 0.00
 -19 7 22 1.44 0.00
 -19 7 20 3.77 0.00
 -19 7 18 2.53 0.00
 -19 7 16 -0.48 0.00
 -19 7 14 -1.27 0.00
 -19 7 12 1.93 0.00
 -19 7 10 6.63 0.00
 -19 7 8 8.79 0.00
 -19 7 6 6.96 0.00
 -19 7 4 2.97 0.00
 -19 7 2 -0.78 0.00
 19 7 0 3.28 0.00
 19 7 2 4.70 0.00
 -19 8 17 -1.83 0.00
 -19 8 15 0.85 0.00
 -19 8 13 -0.47 0.00
 -19 8 11 -5.01 0.00
 -19 8 9 -8.62 0.00
 -19 8 7 -8.22 0.00
 -19 8 5 -4.63 0.00
 -19 8 3 -0.70 0.00
 -19 8 1 2.05 0.00
 19 8 1 -3.92 0.00
 19 8 3 -4.89 0.00
 19 8 7 -2.40 0.00
 -19 9 14 -0.56 0.00
 -19 9 12 -0.16 0.00
 -19 9 10 1.01 0.00
 -19 9 8 0.32 0.00
 -19 9 6 -2.28 0.00
 -19 9 4 -4.36 0.00
 -19 9 2 -4.22 0.00
 19 9 0 2.63 0.00
 19 9 2 1.16 0.00
 19 9 4 0.14 0.00
 19 9 6 -0.94 0.00
 -19 10 11 6.47 0.00
 -19 10 9 7.08 0.00
 -19 10 7 7.58 0.00
 -19 10 5 7.05 0.00
 -19 10 3 4.65 0.00
 -19 10 1 1.34 0.00
 -19 11 4 -0.51 0.00
 -19 11 2 1.36 0.00
 -20 0 26 -7.60 0.00
 -20 0 24 -5.68 0.00
 -20 0 22 -3.18 0.00
 -20 0 20 -0.20 0.00
 -20 0 18 2.83 0.00
 -20 0 16 4.09 0.00
 -20 0 14 2.31 0.00
 -20 0 12 -0.69 0.00
 -20 0 10 -1.59 0.00
 -20 0 8 0.09 0.00
 -20 0 6 1.60 0.00
 -20 0 4 1.20 0.00
 -20 0 2 0.25 0.00
 20 0 0 0.37 0.00
 -20 1 27 3.59 0.00
 -20 1 25 3.44 0.00
 -20 1 23 3.01 0.00
 -20 1 21 2.26 0.00
 -20 1 19 0.49 0.00
 -20 1 17 -1.61 0.00
 -20 1 15 -2.04 0.00
 -20 1 13 -0.35 0.00
 -20 1 11 1.19 0.00
 -20 1 9 0.65 0.00
 -20 1 7 -0.76 0.00
 -20 1 5 -0.71 0.00
 -20 1 3 0.58 0.00
 -20 1 1 1.14 0.00
 20 1 1 0.63 0.00
 20 1 9 -2.35 0.00
 20 1 11 -2.39 0.00
 -20 2 26 1.04 0.00
 -20 2 24 -0.68 0.00
 -20 2 22 -2.93 0.00
 -20 2 20 -4.17 0.00
 -20 2 18 -2.92 0.00
 -20 2 16 -0.07 0.00
 -20 2 14 1.97 0.00
 -20 2 12 2.18 0.00
 -20 2 10 1.56 0.00
 -20 2 8 0.85 0.00
 -20 2 6 -0.51 0.00
 -20 2 4 -2.42 0.00
 -20 2 2 -3.36 0.00
 20 2 0 -2.63 0.00
 20 2 8 -1.12 0.00
 20 2 10 0.23 0.00
 20 2 12 0.56 0.00
 20 2 14 0.24 0.00
 -20 3 25 -0.25 0.00
 -20 3 23 -0.02 0.00
 -20 3 21 1.49 0.00
 -20 3 19 2.55 0.00
 -20 3 17 1.42 0.00
 -20 3 15 -1.25 0.00
 -20 3 13 -3.23 0.00
 -20 3 11 -3.20 0.00
 -20 3 9 -1.55 0.00
 -20 3 7 0.83 0.00
 -20 3 5 3.08 0.00
 -20 3 3 3.95 0.00
 -20 3 1 2.72 0.00
 20 3 1 0.59 0.00
 20 3 9 -0.92 0.00
 20 3 11 -1.84 0.00
 -20 4 24 2.62 0.00
 -20 4 22 4.02 0.00
 -20 4 20 2.86 0.00
 -20 4 18 0.89 0.00
 -20 4 16 0.11 0.00
 -20 4 14 0.58 0.00
 -20 4 12 0.95 0.00
 -20 4 10 0.39 0.00
 -20 4 8 -0.89 0.00
 -20 4 6 -2.33 0.00
 -20 4 4 -3.23 0.00
 -20 4 2 -2.77 0.00
 20 4 0 -0.91 0.00
 20 4 8 2.81 0.00
 20 4 10 3.10 0.00
 -20 5 21 -4.84 0.00
 -20 5 19 -2.58 0.00
 -20 5 17 -0.65 0.00
 -20 5 15 -0.44 0.00
 -20 5 13 -1.32 0.00
 -20 5 11 -1.85 0.00
 -20 5 9 -1.44 0.00
 -20 5 7 -0.47 0.00
 -20 5 5 0.56 0.00
 -20 5 3 1.17 0.00
 -20 5 1 0.81 0.00
 20 5 1 -0.48 0.00
 20 5 7 -2.57 0.00
 -20 6 20 1.01 0.00
 -20 6 18 -0.10 0.00
 -20 6 16 0.55 0.00
 -20 6 14 2.76 0.00
 -20 6 12 4.77 0.00
 -20 6 10 5.12 0.00
 -20 6 8 3.86 0.00
 -20 6 6 1.86 0.00
 -20 6 4 -0.11 0.00
 -20 6 2 -1.29 0.00
 20 6 0 -1.00 0.00
 20 6 2 0.47 0.00
 -20 7 17 1.17 0.00
 -20 7 15 -0.40 0.00
 -20 7 13 -2.44 0.00
 -20 7 11 -3.95 0.00
 -20 7 9 -4.24 0.00
 -20 7 7 -3.06 0.00
 -20 7 5 -0.37 0.00
 -20 7 3 3.15 0.00
 -20 7 1 5.65 0.00
 20 7 1 5.46 0.00
 20 7 3 2.95 0.00
 20 7 5 0.29 0.00
 -20 8 14 -1.87 0.00
 -20 8 12 0.76 0.00
 -20 8 10 4.63 0.00
 -20 8 8 8.13 0.00
 -20 8 6 8.93 0.00
 -20 8 4 5.59 0.00
 -20 8 2 -0.54 0.00
 20 8 0 -5.78 0.00
 20 8 2 -7.29 0.00
 20 8 4 -5.48 0.00
 -20 9 9 -15.03 0.00
 -20 9 7 -19.01 0.00
 -20 9 5 -17.86 0.00
 -20 9 3 -11.25 0.00
 -20 9 1 -2.43 0.00
 -20 10 6 15.67 0.00
 -20 10 4 12.31 0.00
 -20 10 2 6.19 0.00
 -21 1 22 -0.04 0.00
 -21 1 20 0.99 0.00
 -21 1 18 1.10 0.00
 -21 1 16 0.74 0.00
 -21 1 14 0.28 0.00
 -21 1 12 0.06 0.00
 -21 1 10 0.47 0.00
 -21 1 8 1.53 0.00
 -21 1 6 2.56 0.00
 -21 1 4 2.67 0.00
 -21 1 2 1.66 0.00
 21 1 0 -0.11 0.00
 21 1 2 1.30 0.00
 21 1 4 2.26 0.00
 21 1 6 2.38 0.00
 -21 2 23 -1.59 0.00
 -21 2 21 -2.25 0.00
 -21 2 19 -1.91 0.00
 -21 2 17 -1.32 0.00
 -21 2 15 -0.92 0.00
 -21 2 13 -0.64 0.00
 -21 2 11 -0.71 0.00
 -21 2 9 -1.60 0.00
 -21 2 7 -3.05 0.00
 -21 2 5 -3.86 0.00
 -21 2 3 -3.13 0.00
 -21 2 1 -1.25 0.00
 21 2 1 -0.80 0.00
 21 2 3 -2.49 0.00
 21 2 5 -3.55 0.00
 21 2 7 -3.39 0.00
 21 2 9 -1.91 0.00
 -21 3 22 1.43 0.00
 -21 3 20 -0.29 0.00
 -21 3 18 -1.02 0.00
 -21 3 16 0.19 0.00
 -21 3 14 2.42 0.00
 -21 3 12 3.94 0.00
 -21 3 10 4.10 0.00
 -21 3 8 3.58 0.00
 -21 3 6 3.06 0.00
 -21 3 4 2.60 0.00
 -21 3 2 2.23 0.00
 21 3 0 -2.06 0.00
 21 3 2 -1.56 0.00
 21 3 4 -0.36 0.00
 21 3 6 0.98 0.00
 21 3 8 1.32 0.00
 21 3 10 0.54 0.00
 -21 4 19 1.99 0.00
 -21 4 17 2.54 0.00
 -21 4 15 0.65 0.00
 -21 4 13 -2.03 0.00
 -21 4 11 -3.16 0.00
 -21 4 9 -2.11 0.00
 -21 4 7 -0.12 0.00
 -21 4 5 1.15 0.00
 -21 4 3 0.79 0.00
 -21 4 1 -1.05 0.00
 21 4 1 3.20 0.00
 21 4 3 4.23 0.00
 21 4 5 3.71 0.00
 21 4 7 2.66 0.00
 -21 5 18 -0.90 0.00
 -21 5 16 -2.43 0.00
 -21 5 14 -1.64 0.00
 -21 5 12 0.08 0.00
 -21 5 10 0.52 0.00
 -21 5 8 -0.98 0.00
 -21 5 6 -3.29 0.00
 -21 5 4 -4.70 0.00
 -21 5 2 -4.32 0.00
 21 5 0 2.59 0.00
 21 5 2 0.45 0.00
 -21 6 15 0.07 0.00
 -21 6 13 -2.59 0.00
 -21 6 11 -5.58 0.00
 -21 6 9 -5.96 0.00
 -21 6 7 -3.32 0.00
 -21 6 5 0.29 0.00
 -21 6 3 2.71 0.00
 -21 6 1 3.36 0.00
 21 6 1 -2.98 0.00
 21 6 3 -2.41 0.00
 -21 7 12 11.41 0.00
 -21 7 10 13.99 0.00
 -21 7 8 11.62 0.00
 -21 7 6 5.99 0.00
 -21 7 4 0.82 0.00
 -21 7 2 -1.69 0.00
 21 7 0 2.04 0.00
 21 7 2 1.81 0.00
 21 7 4 1.59 0.00
 -21 8 9 -8.79 0.00
 -21 8 7 -4.01 0.00
 -21 8 5 1.41 0.00
 -21 8 3 4.36 0.00
 -21 9 4 -2.78 0.00
 -22 0 18 -2.42 0.00
 -22 0 16 -1.89 0.00
 -22 0 14 -2.91 0.00
 -22 0 12 -3.92 0.00
 -22 0 10 -3.26 0.00
 -22 0 8 -2.08 0.00
 -22 0 6 -2.44 0.00
 -22 0 4 -3.59 0.00
 -22 0 2 -2.97 0.00
 22 0 0 -0.37 0.00
 -22 1 19 3.44 0.00
 -22 1 17 2.22 0.00
 -22 1 15 2.07 0.00
 -22 1 13 2.83 0.00
 -22 1 11 2.67 0.00
 -22 1 9 1.34 0.00
 -22 1 7 0.87 0.00
 -22 1 5 2.08 0.00
 -22 1 3 2.91 0.00
 -22 1 1 1.59 0.00
 -22 2 18 0.13 0.00
 -22 2 16 0.21 0.00
 -22 2 14 -1.17 0.00
 -22 2 12 -2.44 0.00
 -22 2 10 -1.94 0.00
 -22 2 8 -0.55 0.00
 -22 2 6 -0.37 0.00
 -22 2 4 -1.56 0.00
 -22 2 2 -2.37 0.00
 22 2 0 -2.05 0.00
 22 2 4 -1.59 0.00
 22 2 6 -0.21 0.00
 -22 3 17 -3.83 0.00
 -22 3 15 -2.85 0.00
 -22 3 13 -0.86 0.00
 -22 3 11 0.32 0.00
 -22 3 9 -0.22 0.00
 -22 3 7 -1.12 0.00
 -22 3 5 -0.63 0.00
 -22 3 3 1.19 0.00
 -22 3 1 3.11 0.00
 22 3 1 4.58 0.00
 22 3 3 5.24 0.00
 22 3 5 4.32 0.00
 22 3 7 1.55 0.00
 -22 4 14 3.99 0.00
 -22 4 12 3.38 0.00
 -22 4 10 2.66 0.00
 -22 4 8 2.32 0.00
 -22 4 6 1.88 0.00
 -22 4 4 0.94 0.00
 -22 4 2 -0.13 0.00
 22 4 0 -0.97 0.00
 22 4 4 -1.76 0.00
 -22 5 13 -1.20 0.00
 -22 5 11 0.44 0.00
 -22 5 9 2.05 0.00
 -22 5 7 2.73 0.00
 -22 5 5 2.46 0.00
 -22 5 3 1.53 0.00
 -22 5 1 0.14 0.00
 22 5 1 -1.29 0.00
 -22 6 10 -7.86 0.00
 -22 6 8 -8.83 0.00
 -22 6 6 -7.92 0.00
 -22 6 4 -6.12 0.00
 -22 6 2 -4.22 0.00
 22 6 0 -2.20 0.00
 22 6 2 -0.49 0.00
 -22 7 7 5.19 0.00
 -22 7 5 3.91 0.00
 -22 7 3 3.09 0.00
 -22 8 4 0.92 0.00
 -23 1 14 1.70 0.00
 -23 1 12 1.81 0.00
 -23 1 10 1.06 0.00
 -23 1 8 -0.03 0.00
 -23 1 6 -1.13 0.00
 -23 1 4 -1.94 0.00
 -23 1 2 -1.96 0.00
 -23 2 15 0.40 0.00
 -23 2 13 -1.32 0.00
 -23 2 11 -1.55 0.00
 -23 2 9 -0.79 0.00
 -23 2 7 0.27 0.00
 -23 2 5 1.17 0.00
 -23 2 3 1.19 0.00
 -23 2 1 -0.17 0.00
 -23 3 12 -1.05 0.00
 -23 3 10 -2.14 0.00
 -23 3 8 -2.55 0.00
 -23 3 6 -2.17 0.00
 -23 3 4 -1.43 0.00
 -23 3 2 -0.32 0.00
 -23 4 9 2.20 0.00
 -23 4 7 2.32 0.00
 -23 4 5 1.98 0.00
 -23 4 3 1.82 0.00
 -23 4 1 1.78 0.00
 -23 5 6 -0.71 0.00
 -23 5 4 -1.96 0.00
 -23 5 2 -2.45 0.00
 23 5 0 2.28 0.00
 -23 6 3 3.09 0.00
 -24 0 8 -3.95 0.00
 -24 0 6 -3.38 0.00
 -24 0 4 -3.32 0.00
 -24 1 9 3.53 0.00
 -24 1 7 3.06 0.00
 -24 1 5 3.99 0.00
 -24 1 3 4.01 0.00
 -24 2 8 1.47 0.00
 -24 2 6 -0.80 0.00
 -24 2 4 -3.38 0.00
 -24 3 9 -4.36 0.00
 -24 3 7 -3.17 0.00
 -24 3 5 -0.31 0.00
 -24 3 3 1.63 0.00
 -24 4 8 1.53 0.00
 -24 4 6 1.26 0.00
 2 0 0 93.60 0.00
 1 1 0 -78.85 0.00
 23 1 0 1.14 0.00
 0 2 0 54.00 0.00
 23 3 0 -1.20 0.00
 10 16 0 -2.25 0.00
 1 17 0 -2.76 0.00
 3 17 0 1.05 0.00
 5 17 0 1.20 0.00
 7 17 0 -1.38 0.00
 -2 1 1 -99.90 0.00
 0 1 1 -202.33 0.00
 2 1 1 -78.48 0.00
 22 1 1 -0.62 0.00
 -1 2 1 -55.31 0.00
 1 2 1 58.24 0.00
 23 2 1 2.02 0.00
 -21 8 1 4.36 0.00
 20 9 1 3.99 0.00
 19 10 1 1.19 0.00
 18 11 1 -0.89 0.00
 17 12 1 1.36 0.00
 -6 17 1 -6.46 0.00
 -4 17 1 -0.11 0.00
 -2 17 1 0.37 0.00
 0 17 1 -3.79 0.00
 2 17 1 2.01 0.00
 4 17 1 -1.14 0.00
 6 17 1 -9.09 0.00
 -2 0 2 109.80 0.00
 0 0 2 274.34 0.00
 2 0 2 54.84 0.00
 22 0 2 1.74 0.00
 -1 1 2 67.38 0.00
 1 1 2 -73.88 0.00
 23 1 2 0.14 0.00
 22 2 2 -1.80 0.00
 22 4 2 -1.53 0.00
 -13 15 2 -4.97 0.00
 -10 16 2 -0.88 0.00
 -7 17 2 3.77 0.00
 -5 17 2 0.40 0.00
 -3 17 2 1.84 0.00
 -1 17 2 2.35 0.00
 1 17 2 -2.83 0.00
 3 17 2 2.26 0.00
 7 17 2 -0.21 0.00
 -2 1 3 -93.18 0.00
 0 1 3 -157.83 0.00
 22 1 3 -1.56 0.00
 -15 14 3 0.69 0.00
 -11 16 3 0.31 0.00
 -9 16 3 -1.63 0.00
 -6 17 3 -3.65 0.00
 -4 17 3 0.57 0.00
 -2 17 3 -0.02 0.00
 0 17 3 -2.27 0.00
 4 17 3 -1.68 0.00
 -2 0 4 97.67 0.00
 0 0 4 192.93 0.00
 22 0 4 2.23 0.00
 -1 1 4 45.32 0.00
 21 5 4 -1.10 0.00
 17 11 4 -0.58 0.00
 16 12 4 2.22 0.00
 15 13 4 3.43 0.00
 -13 15 4 -3.46 0.00
 -10 16 4 0.50 0.00
 -7 17 4 5.18 0.00
 -5 17 4 1.59 0.00
 -3 17 4 4.35 0.00
 22 1 5 -1.77 0.00
 21 6 5 -1.61 0.00
 14 13 5 -1.88 0.00
 -15 14 5 0.53 0.00
 13 14 5 2.00 0.00
 -12 15 5 -0.06 0.00
 -11 16 5 -0.61 0.00
 -9 16 5 -1.69 0.00
 -6 17 5 -2.30 0.00
 -4 17 5 0.79 0.00
 -2 17 5 0.69 0.00
 22 0 6 2.45 0.00
 21 5 6 -1.98 0.00
 -21 9 6 -1.56 0.00
 -19 11 6 -2.59 0.00
 17 11 6 -0.66 0.00
 -18 12 6 0.42 0.00
 16 12 6 0.58 0.00
 12 14 6 -1.00 0.00
 -13 15 6 -0.71 0.00
 11 15 6 -4.74 0.00
 -10 16 6 1.79 0.00
 -8 16 6 2.11 0.00
 -7 17 6 4.30 0.00
 -5 17 6 1.20 0.00
 -3 17 6 5.54 0.00
 20 7 7 -0.80 0.00
 15 12 7 -0.89 0.00
 -16 13 7 0.08 0.00
 14 13 7 0.36 0.00
 -15 14 7 -0.94 0.00
 11 14 7 3.68 0.00
 -12 15 7 -1.64 0.00
 10 15 7 2.75 0.00
 -11 16 7 -0.73 0.00
 -9 16 7 0.26 0.00
 -7 16 7 -2.88 0.00
 -6 17 7 -2.48 0.00
 -4 17 7 0.79 0.00
 -2 17 7 1.44 0.00
 20 0 8 3.96 0.00
 21 1 8 1.43 0.00
 -23 5 8 0.99 0.00
 20 6 8 1.65 0.00
 -21 9 8 0.46 0.00
 -20 10 8 14.95 0.00
 -19 11 8 -3.77 0.00
 -18 12 8 -0.75 0.00
 13 13 8 -0.02 0.00
 -14 14 8 -4.79 0.00
 12 14 8 0.63 0.00
 -13 15 8 0.97 0.00
 -11 15 8 -0.94 0.00
 9 15 8 -1.26 0.00
 -10 16 8 2.57 0.00
 -8 16 8 2.87 0.00
 8 16 8 -0.35 0.00
 -7 17 8 2.12 0.00
 -5 17 8 -0.11 0.00
 -3 17 8 5.43 0.00
 20 5 9 -2.31 0.00
 -23 6 9 -3.84 0.00
 -22 7 9 6.07 0.00
 -17 12 9 -0.23 0.00
 15 12 9 0.78 0.00
 -16 13 9 -3.12 0.00
 -15 14 9 -2.33 0.00
 11 14 9 2.28 0.00
 -12 15 9 -1.27 0.00
 10 15 9 1.29 0.00
 -9 16 9 2.51 0.00
 -7 16 9 -0.43 0.00
 7 16 9 0.96 0.00
 -6 17 9 -2.84 0.00
 -4 17 9 0.98 0.00
 -2 17 9 1.41 0.00
 -24 0 10 -6.62 0.00
 20 0 10 4.98 0.00
 -24 2 10 1.44 0.00
 -23 5 10 2.59 0.00
 19 7 10 -0.90 0.00
 -21 9 10 1.43 0.00
 -20 10 10 11.37 0.00
 -19 11 10 -4.14 0.00
 -18 12 10 -0.31 0.00
 -15 13 10 11.34 0.00
 13 13 10 0.26 0.00
 -14 14 10 -4.07 0.00
 10 14 10 1.57 0.00
 -13 15 10 0.87 0.00
 -11 15 10 -2.25 0.00
 9 15 10 -0.75 0.00
 -10 16 10 2.40 0.00
 -8 16 10 2.93 0.00
 -5 17 10 -1.03 0.00
 -3 17 10 4.71 0.00
 -24 1 11 5.42 0.00
 -24 3 11 -3.24 0.00
 -23 4 11 1.08 0.00
 -23 6 11 -5.62 0.00
 19 6 11 1.82 0.00
 -22 7 11 5.64 0.00
 -21 8 11 -9.79 0.00
 -20 9 11 -8.74 0.00
 -18 11 11 -3.83 0.00
 -17 12 11 -1.59 0.00
 -16 13 11 -5.32 0.00
 -15 14 11 -2.57 0.00
 -13 14 11 -0.56 0.00
 11 14 11 1.32 0.00
 -12 15 11 0.34 0.00
 -10 15 11 -2.41 0.00
 8 15 11 2.02 0.00
 -9 16 11 3.00 0.00
 -7 16 11 0.75 0.00
 -6 17 11 -2.27 0.00
 -4 17 11 1.38 0.00
 -24 0 12 -9.47 0.00
 20 0 12 3.15 0.00
 -24 2 12 0.14 0.00
 -23 5 12 3.23 0.00
 19 5 12 -0.55 0.00
 -22 6 12 -5.15 0.00
 -21 9 12 0.55 0.00
 -20 10 12 7.06 0.00
 -19 11 12 -3.94 0.00
 -18 12 12 0.82 0.00
 -15 13 12 9.98 0.00
 -14 14 12 -4.67 0.00
 -12 14 12 -2.81 0.00
 10 14 12 1.13 0.00
 -11 15 12 -1.93 0.00
 -10 16 12 1.38 0.00
 -8 16 12 1.62 0.00
 6 16 12 -3.45 0.00
 -5 17 12 -0.92 0.00
 -3 17 12 4.10 0.00
 -24 1 13 6.13 0.00
 -24 3 13 -1.42 0.00
 -23 4 13 -0.32 0.00
 19 4 13 0.94 0.00
 -23 6 13 -4.94 0.00
 -22 7 13 4.01 0.00
 18 7 13 0.26 0.00
 -21 8 13 -7.17 0.00
 -20 9 13 -3.04 0.00
 -19 10 13 5.20 0.00
 -18 11 13 -3.62 0.00
 -17 12 13 -1.44 0.00
 -16 13 13 -4.71 0.00
 -14 13 13 5.18 0.00
 12 13 13 2.20 0.00
 -13 14 13 0.45 0.00
 9 14 13 -0.16 0.00
 -12 15 13 1.16 0.00
 -10 15 13 -1.02 0.00
 8 15 13 1.80 0.00
 -9 16 13 1.70 0.00
 -7 16 13 0.42 0.00
 5 16 13 -2.08 0.00
 -24 0 14 -9.52 0.00
 -24 2 14 -0.28 0.00
 -23 3 14 -0.45 0.00
 -23 5 14 2.28 0.00
 -22 6 14 -2.11 0.00
 18 6 14 3.06 0.00
 -21 7 14 6.31 0.00
 -21 9 14 -0.68 0.00
 -20 10 14 3.56 0.00
 -19 11 14 -3.07 0.00
 -16 12 14 2.86 0.00
 -15 13 14 6.50 0.00
 -14 14 14 -5.27 0.00
 -12 14 14 -2.93 0.00
 -11 15 14 -0.04 0.00
 7 15 14 0.12 0.00
 -8 16 14 -0.28 0.00
 -24 1 15 4.34 0.00
 -24 3 15 -0.42 0.00
 -23 4 15 -0.67 0.00
 -22 5 15 -1.83 0.00
 18 5 15 -2.69 0.00
 -23 6 15 -2.43 0.00
 -22 7 15 1.96 0.00
 -21 8 15 -4.07 0.00
 -20 9 15 0.41 0.00
 -19 10 15 2.46 0.00
 -18 11 15 -2.57 0.00
 -17 12 15 -0.24 0.00
 -16 13 15 -2.19 0.00
 -14 13 15 5.49 0.00
 -13 14 15 1.12 0.00
 9 14 15 -0.58 0.00
 -12 15 15 0.15 0.00
 -10 15 15 0.21 0.00
 6 15 15 0.55 0.00
 -7 16 15 -0.36 0.00
 -24 0 16 -6.82 0.00
 18 0 16 -5.51 0.00
 -23 1 16 0.55 0.00
 -24 2 16 0.40 0.00
 -23 3 16 -1.19 0.00
 -22 4 16 3.78 0.00
 18 4 16 -0.46 0.00
 -23 5 16 0.39 0.00
 17 5 16 2.26 0.00
 -22 6 16 0.09 0.00
 -21 7 16 2.84 0.00
 -20 8 16 -2.76 0.00
 -19 9 16 1.58 0.00
 -18 10 16 1.16 0.00
 -17 11 16 -1.39 0.00
 -16 12 16 0.80 0.00
 -15 13 16 2.88 0.00
 -14 14 16 -4.35 0.00
 -12 14 16 -0.96 0.00
 -11 15 16 1.80 0.00
 -9 15 16 0.16 0.00
 5 15 16 3.98 0.00
 -8 16 16 -1.47 0.00
 0 16 16 -0.04 0.00
 -24 1 17 1.81 0.00
 -23 2 17 2.88 0.00
 18 3 17 1.54 0.00
 -23 4 17 0.15 0.00
 -22 5 17 -1.66 0.00
 -21 6 17 -0.20 0.00
 -22 7 17 0.03 0.00
 -21 8 17 -2.93 0.00
 -20 9 17 1.35 0.00
 -19 10 17 -0.98 0.00
 -18 11 17 -0.50 0.00
 -17 12 17 1.04 0.00
 -15 12 17 -2.01 0.00
 -14 13 17 4.17 0.00
 -13 14 17 0.84 0.00
 -10 15 17 1.02 0.00
 -7 16 17 -0.72 0.00
 -1 16 17 -1.15 0.00
 -24 0 18 -3.92 0.00
 -23 1 18 -0.90 0.00
 -24 2 18 0.82 0.00
 -23 3 18 -2.50 0.00
 -22 4 18 3.07 0.00
 -23 5 18 -0.78 0.00
 -22 6 18 1.42 0.00
 16 6 18 -1.41 0.00
 -21 7 18 2.70 0.00
 -20 8 18 -2.36 0.00
 -19 9 18 4.95 0.00
 -18 10 18 0.46 0.00
 -17 11 18 -2.43 0.00
 -16 12 18 -0.92 0.00
 -15 13 18 0.71 0.00
 -13 13 18 -1.30 0.00
 -12 14 18 1.30 0.00
 -9 15 18 -0.39 0.00
 -2 16 18 3.44 0.00
 -24 1 19 0.66 0.00
 -23 2 19 4.33 0.00
 -22 3 19 -3.44 0.00
 -23 4 19 0.99 0.00
 -22 5 19 -1.79 0.00
 16 5 19 2.84 0.00
 -21 6 19 -2.88 0.00
 -20 7 19 1.80 0.00
 -21 8 19 -3.13 0.00
 -19 8 19 -5.33 0.00
 -20 9 19 0.58 0.00
 -18 9 19 -1.25 0.00
 -19 10 19 -3.22 0.00
 -17 10 19 -0.07 0.00
 -18 11 19 1.41 0.00
 -16 11 19 1.95 0.00
 -15 12 19 -0.29 0.00
 -14 13 19 2.16 0.00
 -13 14 19 -0.13 0.00
 -11 14 19 -4.91 0.00
 -10 15 19 1.23 0.00
 -22 0 20 -3.34 0.00
 -23 1 20 -1.59 0.00
 -22 2 20 -0.86 0.00
 -23 3 20 -2.91 0.00
 -22 4 20 2.87 0.00
 16 4 20 -1.01 0.00
 -21 5 20 1.83 0.00
 15 5 20 -1.15 0.00
 -22 6 20 2.26 0.00
 -21 7 20 3.91 0.00
 -20 8 20 -1.63 0.00
 -19 9 20 6.80 0.00
 -18 10 20 -0.56 0.00
 -17 11 20 -2.25 0.00
 -16 12 20 -1.23 0.00
 -13 13 20 0.40 0.00
 -12 14 20 2.08 0.00
 -9 15 20 -1.43 0.00
 -22 1 21 3.89 0.00
 -23 2 21 3.75 0.00
 -22 3 21 -2.61 0.00
 16 3 21 -0.88 0.00
 -23 4 21 0.98 0.00
 -21 4 21 -0.20 0.00
 15 4 21 -1.50 0.00
 -22 5 21 -2.59 0.00
 -21 6 21 -5.09 0.00
 -20 7 21 1.87 0.00
 -19 8 21 -6.17 0.00
 -20 9 21 -0.68 0.00
 -18 9 21 -1.09 0.00
 -19 10 21 -3.31 0.00
 -17 10 21 -0.01 0.00
 -16 11 21 1.48 0.00
 -15 12 21 -0.69 0.00
 -14 13 21 0.75 0.00
 -11 14 21 -3.32 0.00
 -22 0 22 -2.67 0.00
 -23 1 22 -1.24 0.00
 -22 2 22 -1.44 0.00
 -23 3 22 -2.16 0.00
 15 3 22 1.24 0.00
 -22 4 22 3.32 0.00
 -21 5 22 3.31 0.00
 -22 6 22 2.55 0.00
 -20 6 22 2.46 0.00
 14 6 22 -2.08 0.00
 -21 7 22 3.78 0.00
 -20 8 22 -1.25 0.00
 -19 9 22 5.89 0.00
 -18 10 22 -0.94 0.00
 -17 11 22 -0.95 0.00
 -14 12 22 -1.62 0.00
 -13 13 22 1.36 0.00
 -5 15 22 0.06 0.00
 -3 15 22 4.83 0.00
 -22 1 23 2.66 0.00
 -23 2 23 1.95 0.00
 -22 3 23 -1.86 0.00
 -21 4 23 -1.81 0.00
 -22 5 23 -3.15 0.00
 -20 5 23 -5.44 0.00
 14 5 23 0.30 0.00
 -21 6 23 -4.80 0.00
 -20 7 23 1.85 0.00
 -19 8 23 -3.86 0.00
 -18 9 23 -0.62 0.00
 -17 10 23 -0.69 0.00
 -16 11 23 0.14 0.00
 -15 12 23 -1.27 0.00
 -12 13 23 0.99 0.00
 -22 0 24 -0.67 0.00
 -23 1 24 -0.58 0.00
 -21 1 24 -1.98 0.00
 -22 2 24 -1.48 0.00
 -21 3 24 2.55 0.00
 -22 4 24 3.42 0.00
 14 4 24 -0.03 0.00
 -21 5 24 2.47 0.00
 13 5 24 3.48 0.00
 -20 6 24 3.02 0.00
 -19 7 24 -2.48 0.00
 -20 8 24 -1.15 0.00
 -18 8 24 2.56 0.00
 -19 9 24 3.26 0.00
 -17 9 24 -1.43 0.00
 -18 10 24 -0.48 0.00
 -16 10 24 3.59 0.00
 -15 11 24 1.59 0.00
 -14 12 24 -1.39 0.00
 -6 14 24 2.00 0.00
 -4 14 24 -0.42 0.00
 -22 1 25 1.03 0.00
 -21 2 25 0.07 0.00
 -22 3 25 -0.90 0.00
 -21 4 25 -1.78 0.00
 13 4 25 -0.52 0.00
 -20 5 25 -4.03 0.00
 12 5 25 -0.43 0.00
 -21 6 25 -2.81 0.00
 -19 6 25 2.21 0.00
 -20 7 25 1.66 0.00
 -19 8 25 -0.59 0.00
 -18 9 25 -0.39 0.00
 10 9 25 -2.17 0.00
 -17 10 25 -1.24 0.00
 -16 11 25 -0.98 0.00
 -13 12 25 -0.71 0.00
 -7 14 25 1.55 0.00
 -5 14 25 -1.52 0.00
 -22 0 26 0.52 0.00
 -21 1 26 -3.92 0.00
 -22 2 26 -1.67 0.00
 -21 3 26 2.61 0.00
 13 3 26 -4.17 0.00
 -20 4 26 -0.48 0.00
 12 4 26 -4.24 0.00
 -21 5 26 0.60 0.00
 -20 6 26 2.74 0.00
 -19 7 26 -4.73 0.00
 -18 8 26 2.71 0.00
 -17 9 26 -3.14 0.00
 9 9 26 7.35 0.00
 -16 10 26 4.98 0.00
 -15 11 26 0.54 0.00
 -7 13 26 1.71 0.00
 -22 1 27 0.52 0.00
 -21 2 27 1.62 0.00
 -20 3 27 0.35 0.00
 12 3 27 5.15 0.00
 -21 4 27 -0.93 0.00
 11 4 27 2.10 0.00
 -20 5 27 -2.16 0.00
 -19 6 27 2.02 0.00
 11 6 27 -5.60 0.00
 -18 7 27 0.56 0.00
 -17 8 27 4.40 0.00
 8 9 27 0.22 0.00
 -15 10 27 2.32 0.00
 5 10 27 -1.10 0.00
 -14 11 27 -0.24 0.00
 4 11 27 -1.18 0.00
 -8 13 27 -2.06 0.00
 -6 13 27 0.62 0.00
 -22 0 28 -0.18 0.00
 -20 0 28 -7.81 0.00
 -21 1 28 -4.56 0.00
 -20 2 28 2.23 0.00
 -21 3 28 2.26 0.00
 11 3 28 -2.91 0.00
 -20 4 28 -2.66 0.00
 10 4 28 -6.08 0.00
 -19 5 28 4.73 0.00
 11 5 28 1.57 0.00
 -20 6 28 2.21 0.00
 10 6 28 1.04 0.00
 -19 7 28 -4.00 0.00
 -18 8 28 1.97 0.00
 -17 9 28 -3.08 0.00
 7 9 28 1.68 0.00
 -16 10 28 3.73 0.00
 4 10 28 1.63 0.00
 3 11 28 2.45 0.00
 -8 12 28 -1.09 0.00
 -7 13 28 1.77 0.00
 -20 1 29 2.65 0.00
 -21 2 29 1.97 0.00
 -20 3 29 0.12 0.00
 -19 4 29 -2.22 0.00
 -20 5 29 -1.27 0.00
 10 5 29 1.74 0.00
 -19 6 29 0.41 0.00
 9 6 29 -0.87 0.00
 -18 7 29 0.63 0.00
 -17 8 29 2.78 0.00
 5 8 29 -0.48 0.00
 -16 9 29 -3.13 0.00
 4 9 29 -3.90 0.00
 6 9 29 1.19 0.00
 -15 10 29 2.05 0.00
 3 10 29 -2.08 0.00
 5 10 29 -1.02 0.00
 2 11 29 1.60 0.00
 -9 12 29 0.09 0.00
 -20 0 30 -5.50 0.00
 -21 1 30 -3.46 0.00
 -20 2 30 3.37 0.00
 -19 3 30 -4.32 0.00
 -20 4 30 -2.38 0.00
 -19 5 30 5.19 0.00
 9 5 30 -3.77 0.00
 -18 6 30 -3.92 0.00
 8 6 30 -1.35 0.00
 -17 7 30 1.91 0.00
 5 7 30 0.85 0.00
 -16 8 30 -2.45 0.00
 4 8 30 2.83 0.00
 3 9 30 1.75 0.00
 5 9 30 -0.01 0.00
 2 10 30 0.68 0.00
 4 10 30 0.39 0.00
 1 11 30 1.24 0.00
 -8 12 30 0.10 0.00
 -20 1 31 0.58 0.00
 -19 2 31 1.87 0.00
 -20 3 31 -1.29 0.00
 -19 4 31 -2.02 0.00
 9 4 31 3.13 0.00
 -18 5 31 -0.07 0.00
 8 5 31 0.04 0.00
 4 7 31 1.59 0.00
 3 8 31 0.93 0.00
 5 8 31 -1.61 0.00
 2 9 31 -0.95 0.00
 4 9 31 -1.89 0.00
 -1 10 31 -0.50 0.00
 1 10 31 -1.01 0.00
 -10 11 31 -1.33 0.00
 0 11 31 0.47 0.00
 -20 0 32 -1.83 0.00
 -19 1 32 0.97 0.00
 9 1 32 3.08 0.00
 -20 2 32 4.03 0.00
 -19 3 32 -2.79 0.00
 -18 4 32 6.20 0.00
 7 5 32 -0.57 0.00
 -18 6 32 -1.91 0.00
 4 6 32 -2.69 0.00
 6 6 32 0.81 0.00
 -17 7 32 2.05 0.00
 3 7 32 -1.09 0.00
 5 7 32 1.76 0.00
 2 8 32 0.86 0.00
 4 8 32 0.79 0.00
 -1 9 32 -1.22 0.00
 1 9 32 0.34 0.00
 3 9 32 0.83 0.00
 -2 10 32 0.53 0.00
 0 10 32 1.23 0.00
 8 1 33 -0.89 0.00
 -19 2 33 0.01 0.00
 -18 3 33 -4.14 0.00
 -18 5 33 -1.04 0.00
 -17 6 33 -1.97 0.00
 3 6 33 -1.31 0.00
 5 6 33 -1.30 0.00
 -16 7 33 2.55 0.00
 2 7 33 -1.20 0.00
 4 7 33 2.00 0.00
 -15 8 33 -0.52 0.00
 -1 8 33 -0.03 0.00
 1 8 33 0.59 0.00
 3 8 33 0.72 0.00
 -2 9 33 -1.31 0.00
 0 9 33 -0.52 0.00
 -3 10 33 0.68 0.00
 -1 10 33 0.98 0.00
 -18 0 34 1.67 0.00
 6 0 34 -0.89 0.00
 -19 1 34 1.07 0.00
 7 1 34 -0.80 0.00
 -18 2 34 1.91 0.00
 -18 4 34 3.81 0.00
 -17 5 34 -0.58 0.00
 -16 6 34 2.25 0.00
 0 6 34 2.41 0.00
 2 6 34 1.35 0.00
 4 6 34 -1.98 0.00
 -1 7 34 1.33 0.00
 1 7 34 -0.62 0.00
 3 7 34 -0.39 0.00
 -2 8 34 2.22 0.00
 0 8 34 0.45 0.00
 2 8 34 0.01 0.00
 -3 9 34 -1.49 0.00
 -1 9 34 -1.66 0.00
 -18 1 35 -1.30 0.00
 6 1 35 1.06 0.00
 5 2 35 -0.17 0.00
 -17 4 35 -0.18 0.00
 0 5 35 -1.01 0.00
 2 5 35 0.38 0.00
 -1 6 35 0.04 0.00
 1 6 35 0.88 0.00
 3 6 35 -1.11 0.00
 -2 7 35 -2.40 0.00
 0 7 35 -1.14 0.00
 2 7 35 -1.14 0.00
 -5 8 35 0.94 0.00
 -3 8 35 0.44 0.00
 -1 8 35 0.50 0.00
 -6 9 35 -1.99 0.00
 -4 9 35 0.76 0.00
 4 0 36 -0.82 0.00
 4 2 36 -2.21 0.00
 -16 4 36 -0.43 0.00
 -1 5 36 -2.37 0.00
 1 5 36 -1.42 0.00
 -4 6 36 -0.06 0.00
 -2 6 36 0.77 0.00
 0 6 36 0.99 0.00
 -7 7 36 -4.91 0.00
 -5 7 36 -0.33 0.00
 -3 7 36 -0.18 0.00
 -1 7 36 0.35 0.00
 -6 8 36 0.09 0.00
 -4 8 36 -1.11 0.00
 -2 8 36 1.35 0.00
 3 2 37 -5.59 0.00
 -3 4 37 1.87 0.00
 -1 4 37 1.52 0.00
 -8 5 37 1.92 0.00
 -6 5 37 3.19 0.00
 -4 5 37 -0.25 0.00
 -2 5 37 0.07 0.00
 0 5 37 0.00 0.00
 -9 6 37 1.76 0.00
 -7 6 37 2.45 0.00
 -5 6 37 2.09 0.00
 -3 6 37 1.29 0.00
 -1 6 37 0.58 0.00
 -8 7 37 -2.50 0.00
 -6 7 37 3.32 0.00
 -4 7 37 0.59 0.00
 -2 7 37 -1.57 0.00
 2 0 38 0.66 0.00
 -11 1 38 -0.29 0.00
 -12 2 38 0.81 0.00
 -11 3 38 -1.58 0.00
 -10 4 38 -1.19 0.00
 -8 4 38 -5.79 0.00
 -6 4 38 -1.16 0.00
 -4 4 38 1.34 0.00
 -2 4 38 0.00 0.00
 0 4 38 0.58 0.00
 -11 5 38 -6.92 0.00
 -9 5 38 -5.28 0.00
 -7 5 38 -1.55 0.00
 -5 5 38 -2.97 0.00
 -3 5 38 -2.28 0.00
 -1 5 38 -1.62 0.00
 -10 6 38 2.76 0.00
 -8 6 38 1.56 0.00
 -6 6 38 -3.64 0.00
 -4 6 38 -0.09 0.00
 -12 1 39 1.89 0.00
 0 1 39 2.70 0.00
 -13 2 39 4.35 0.00
 -11 2 39 -0.46 0.00
 -12 3 39 -4.87 0.00
 -10 3 39 1.38 0.00
 -8 3 39 2.10 0.00
 -6 3 39 0.64 0.00
 -4 3 39 0.64 0.00
 -11 4 39 4.19 0.00
 -9 4 39 4.79 0.00
 -7 4 39 3.23 0.00
 -5 4 39 3.40 0.00
 -3 4 39 0.48 0.00
 -10 5 39 0.70 0.00
 -8 5 39 1.37 0.00
 -6 5 39 2.17 0.00
 -4 5 39 -1.05 0.00
 -12 0 40 -0.30 0.00
 -2 0 40 -4.91 0.00
 -11 1 40 -1.02 0.00
 -10 2 40 -1.06 0.00
 -8 2 40 0.47 0.00
 -9 3 40 -1.14 0.00
 -7 3 40 -3.28 0.00
 -5 3 40 -1.84 0.00
 -8 4 40 -3.83 0.00
 -6 4 40 -0.12 0.00
 0 0 0 0.00 0.00
# SQUEEZE RESULTS (Version = 100616)
# Note: Data are Listed for all Voids in the P1 Unit Cell
# i.e. Centre of Gravity, Solvent Accessible Volume,
# Recovered number of Electrons in the Void and
# Details about the Squeezed Material
;
_platon_squeeze_void_probe_radius 1.20
_olex2_submission_special_instructions 'No special instructions were received'
_oxdiff_exptl_absorpt_empirical_details
;
Empirical correction (ABSPACK) includes:
- Absorption correction using spherical harmonics
- Frame scaling
;
_oxdiff_exptl_absorpt_empirical_full_max 1.638
_oxdiff_exptl_absorpt_empirical_full_min 0.622
loop_
_space_group_symop_operation_xyz
'x, y, z'
'-x+1/2, y, -z'
'x+1/2, y+1/2, z+1/2'
'-x+1, y+1/2, -z+1/2'
'-x, -y, -z'
'x-1/2, -y, z'
'-x+1/2, -y+1/2, -z+1/2'
'x, -y+1/2, z+1/2'
loop_
_atom_site_label
_atom_site_type_symbol
_atom_site_fract_x
_atom_site_fract_y
_atom_site_fract_z
_atom_site_U_iso_or_equiv
_atom_site_adp_type
_atom_site_occupancy
_atom_site_site_symmetry_order
_atom_site_calc_flag
_atom_site_refinement_flags_posn
Zn1 Zn 0.61686(3) 0.62884(4) 0.72752(2) 0.03384(19) Uani 1 1 d .
Cl1 Cl 0.51784(8) 0.57403(10) 0.74750(4) 0.0482(4) Uani 1 1 d .
N1 N 0.4707(3) 0.8289(3) 0.73026(15) 0.0466(11) Uani 1 1 d .
N2 N 0.5769(2) 0.6600(3) 0.65914(12) 0.0341(10) Uani 1 1 d .
N3 N 0.6884(2) 0.5324(3) 0.71454(12) 0.0366(10) Uani 1 1 d .
N4 N 0.6961(2) 0.6632(3) 0.78840(12) 0.0349(10) Uani 1 1 d .
C1 C 0.5099(3) 0.8324(3) 0.77205(16) 0.0363(12) Uani 1 1 d .
H1 H 0.4909 0.8423 0.7959 0.044 Uiso 1 1 calc R
C2 C 0.5854(3) 0.8187(3) 0.77488(16) 0.0369(12) Uani 1 1 d .
C3 C 0.5888(3) 0.8065(3) 0.73133(15) 0.0335(11) Uani 1 1 d .
H3 H 0.6247 0.8496 0.7235 0.040 Uiso 1 1 calc R
C4 C 0.5163(3) 0.8138(3) 0.70276(16) 0.0370(12) Uani 1 1 d .
C5 C 0.4908(3) 0.7986(4) 0.65580(16) 0.0400(13) Uani 1 1 d .
C6 C 0.5275(3) 0.7324(4) 0.63644(15) 0.0368(12) Uani 1 1 d .
C7 C 0.5175(3) 0.7208(4) 0.58947(16) 0.0461(14) Uani 1 1 d .
H7 H 0.4890 0.7606 0.5669 0.055 Uiso 1 1 calc R
C8 C 0.5564(3) 0.6430(4) 0.58413(16) 0.0462(14) Uani 1 1 d .
H8 H 0.5599 0.6190 0.5572 0.055 Uiso 1 1 calc R
C9 C 0.5918(3) 0.6029(4) 0.62708(15) 0.0352(12) Uani 1 1 d .
C10 C 0.6348(3) 0.5166(4) 0.63427(15) 0.0387(12) Uani 1 1 d .
C11 C 0.6785(3) 0.4830(4) 0.67523(16) 0.0411(13) Uani 1 1 d .
C12 C 0.7221(3) 0.3950(4) 0.68404(17) 0.0506(15) Uani 1 1 d .
H12 H 0.7239 0.3474 0.6634 0.061 Uiso 1 1 calc R
C13 C 0.7595(3) 0.3942(4) 0.72723(16) 0.0465(14) Uani 1 1 d .
H13 H 0.7920 0.3458 0.7420 0.056 Uiso 1 1 calc R
C14 C 0.7407(3) 0.4811(4) 0.74691(15) 0.0363(12) Uani 1 1 d .
C15 C 0.7707(3) 0.5119(4) 0.79032(15) 0.0352(12) Uani 1 1 d .
C16 C 0.7535(3) 0.6014(4) 0.80772(14) 0.0344(11) Uani 1 1 d .
C17 C 0.7967(3) 0.6402(4) 0.85050(16) 0.0427(13) Uani 1 1 d .
H17 H 0.8392 0.6126 0.8697 0.051 Uiso 1 1 calc R
C18 C 0.7640(3) 0.7227(4) 0.85712(16) 0.0443(14) Uani 1 1 d .
H18 H 0.7800 0.7637 0.8816 0.053 Uiso 1 1 calc R
C19 C 0.6989(3) 0.7369(4) 0.81927(15) 0.0379(12) Uani 1 1 d .
C20 C 0.6442(3) 0.8059(4) 0.81592(16) 0.0396(12) Uani 1 1 d .
C21 C 0.3900(4) 0.8262(7) 0.7175(3) 0.102(3) Uani 1 1 d .
H21A H 0.3738 0.8187 0.7436 0.153 Uiso 1 1 calc GR
H21B H 0.3724 0.7722 0.6979 0.153 Uiso 1 1 calc GR
H21C H 0.3704 0.8858 0.7027 0.153 Uiso 1 1 calc GR
C22 C 0.4266(3) 0.8545(4) 0.62831(16) 0.0419(13) Uani 1 1 d .
C23 C 0.4188(4) 0.9525(4) 0.6375(2) 0.0599(17) Uani 1 1 d .
H23 H 0.4540 0.9812 0.6613 0.072 Uiso 1 1 calc R
C24 C 0.3611(4) 1.0078(5) 0.6128(3) 0.082(2) Uani 1 1 d .
H24 H 0.3576 1.0732 0.6196 0.098 Uiso 1 1 calc R
C25 C 0.3084(4) 0.9661(6) 0.5778(3) 0.079(2) Uani 1 1 d .
H25 H 0.2697 1.0035 0.5602 0.094 Uiso 1 1 calc R
C26 C 0.3132(4) 0.8686(6) 0.5689(2) 0.073(2) Uani 1 1 d .
H26 H 0.2770 0.8402 0.5454 0.088 Uiso 1 1 calc R
C27 C 0.3709(3) 0.8125(4) 0.59427(18) 0.0549(16) Uani 1 1 d .
H27 H 0.3725 0.7462 0.5885 0.066 Uiso 1 1 calc R
C28 C 0.6343(3) 0.4573(4) 0.59407(15) 0.0401(13) Uani 1 1 d .
C29 C 0.5707(3) 0.4122(4) 0.56906(17) 0.0492(14) Uani 1 1 d .
H29 H 0.5266 0.4200 0.5765 0.059 Uiso 1 1 calc R
C30 C 0.5714(4) 0.3551(4) 0.53274(18) 0.0581(17) Uani 1 1 d .
H30 H 0.5281 0.3241 0.5162 0.070 Uiso 1 1 calc R
C31 C 0.6363(4) 0.3448(5) 0.52142(18) 0.0619(18) Uani 1 1 d .
H31 H 0.6371 0.3067 0.4971 0.074 Uiso 1 1 calc R
C32 C 0.6980(4) 0.3892(5) 0.5452(2) 0.074(2) Uani 1 1 d .
H32 H 0.7418 0.3818 0.5374 0.089 Uiso 1 1 calc R
C33 C 0.6980(4) 0.4462(5) 0.58145(18) 0.0623(18) Uani 1 1 d .
H33 H 0.7416 0.4773 0.5974 0.075 Uiso 1 1 calc R
C34 C 0.8270(3) 0.4480(4) 0.82063(15) 0.0385(12) Uani 1 1 d .
C35 C 0.8945(3) 0.4284(4) 0.8131(2) 0.0558(16) Uani 1 1 d .
H35 H 0.9060 0.4586 0.7895 0.067 Uiso 1 1 calc R
C36 C 0.9457(4) 0.3647(5) 0.8400(2) 0.0696(19) Uani 1 1 d .
H36 H 0.9905 0.3511 0.8341 0.084 Uiso 1 1 calc R
C37 C 0.9287(4) 0.3218(5) 0.8756(2) 0.077(2) Uani 1 1 d .
H37 H 0.9633 0.2812 0.8946 0.092 Uiso 1 1 calc R
C38 C 0.8615(4) 0.3385(5) 0.8831(2) 0.074(2) Uani 1 1 d .
H38 H 0.8496 0.3073 0.9064 0.088 Uiso 1 1 calc R
C39 C 0.8118(4) 0.4014(5) 0.85599(18) 0.0595(17) Uani 1 1 d .
H39 H 0.7665 0.4131 0.8615 0.071 Uiso 1 1 calc R
C40 C 0.6383(3) 0.8652(4) 0.85426(18) 0.0462(14) Uani 1 1 d .
C41 C 0.6522(4) 0.8264(5) 0.89716(18) 0.0612(17) Uani 1 1 d .
H41 H 0.6683 0.7623 0.9027 0.073 Uiso 1 1 calc R
C42 C 0.6420(4) 0.8833(7) 0.9312(2) 0.083(2) Uani 1 1 d .
H42 H 0.6520 0.8575 0.9597 0.100 Uiso 1 1 calc R
C43 C 0.6171(4) 0.9779(7) 0.9232(3) 0.088(3) Uani 1 1 d .
H43 H 0.6102 1.0158 0.9462 0.106 Uiso 1 1 calc R
C44 C 0.6024(4) 1.0162(6) 0.8811(3) 0.082(2) Uani 1 1 d .
H44 H 0.5851 1.0797 0.8755 0.098 Uiso 1 1 calc R
C45 C 0.6134(3) 0.9601(4) 0.8474(2) 0.0589(17) Uani 1 1 d .
H45 H 0.6039 0.9869 0.8191 0.071 Uiso 1 1 calc R
loop_
_atom_site_aniso_label
_atom_site_aniso_U_11
_atom_site_aniso_U_22
_atom_site_aniso_U_33
_atom_site_aniso_U_23
_atom_site_aniso_U_13
_atom_site_aniso_U_12
Zn1 0.0334(3) 0.0372(3) 0.0324(3) 0.0000(2) 0.0120(2) 0.0023(3)
Cl1 0.0497(9) 0.0480(8) 0.0543(8) -0.0006(6) 0.0270(7) -0.0127(7)
N1 0.036(3) 0.043(3) 0.063(3) -0.009(2) 0.019(2) -0.005(2)
N2 0.032(2) 0.037(2) 0.034(2) 0.0015(17) 0.0107(19) 0.0001(19)
N3 0.034(2) 0.044(2) 0.034(2) -0.0008(18) 0.0138(19) 0.008(2)
N4 0.034(2) 0.036(2) 0.034(2) 0.0007(18) 0.0076(19) 0.0024(19)
C1 0.039(3) 0.035(3) 0.034(3) -0.009(2) 0.009(2) 0.001(2)
C2 0.039(3) 0.028(3) 0.042(3) -0.004(2) 0.009(2) 0.001(2)
C3 0.033(3) 0.027(3) 0.041(3) 0.004(2) 0.012(2) -0.004(2)
C4 0.040(3) 0.029(3) 0.041(3) 0.003(2) 0.010(2) 0.002(2)
C5 0.044(3) 0.035(3) 0.038(3) -0.002(2) 0.006(3) -0.002(2)
C6 0.037(3) 0.037(3) 0.036(3) 0.006(2) 0.010(2) 0.001(2)
C7 0.052(4) 0.051(3) 0.035(3) 0.017(2) 0.012(3) 0.011(3)
C8 0.053(4) 0.055(4) 0.032(3) 0.003(2) 0.015(3) 0.007(3)
C9 0.036(3) 0.040(3) 0.031(3) 0.002(2) 0.013(2) 0.000(2)
C10 0.041(3) 0.044(3) 0.035(3) -0.001(2) 0.016(2) 0.007(3)
C11 0.033(3) 0.055(3) 0.035(3) -0.001(2) 0.009(2) 0.014(3)
C12 0.056(4) 0.053(3) 0.042(3) -0.004(3) 0.014(3) 0.019(3)
C13 0.050(3) 0.051(3) 0.039(3) 0.002(2) 0.014(3) 0.024(3)
C14 0.036(3) 0.040(3) 0.037(3) 0.007(2) 0.018(2) 0.010(2)
C15 0.031(3) 0.043(3) 0.035(3) 0.005(2) 0.016(2) 0.003(2)
C16 0.033(3) 0.042(3) 0.028(2) -0.001(2) 0.010(2) -0.001(2)
C17 0.035(3) 0.050(3) 0.041(3) 0.002(2) 0.008(2) 0.002(3)
C18 0.045(3) 0.045(3) 0.040(3) -0.005(2) 0.008(3) -0.006(3)
C19 0.040(3) 0.037(3) 0.033(3) -0.002(2) 0.006(2) -0.005(2)
C20 0.042(3) 0.033(3) 0.043(3) -0.003(2) 0.011(3) -0.004(2)
C21 0.079(6) 0.135(8) 0.091(6) -0.013(5) 0.024(5) 0.001(5)
C22 0.041(3) 0.043(3) 0.041(3) 0.002(2) 0.010(3) 0.004(3)
C23 0.063(4) 0.046(4) 0.063(4) 0.008(3) 0.007(3) 0.003(3)
C24 0.075(5) 0.064(5) 0.104(6) 0.024(4) 0.024(5) 0.029(4)
C25 0.063(5) 0.092(6) 0.081(5) 0.037(4) 0.022(4) 0.036(4)
C26 0.054(4) 0.117(7) 0.043(4) 0.004(4) 0.005(3) 0.019(4)
C27 0.054(4) 0.059(4) 0.047(3) 0.001(3) 0.009(3) 0.010(3)
C28 0.043(3) 0.048(3) 0.032(3) 0.000(2) 0.016(2) 0.006(3)
C29 0.043(3) 0.065(4) 0.042(3) -0.002(3) 0.016(3) 0.002(3)
C30 0.067(4) 0.058(4) 0.038(3) -0.006(3) -0.003(3) -0.001(3)
C31 0.085(5) 0.067(4) 0.038(3) -0.012(3) 0.025(4) 0.014(4)
C32 0.075(5) 0.111(6) 0.048(4) -0.017(4) 0.035(4) 0.010(4)
C33 0.048(4) 0.098(5) 0.045(3) -0.023(3) 0.020(3) -0.007(4)
C34 0.037(3) 0.044(3) 0.033(3) 0.002(2) 0.007(2) 0.007(2)
C35 0.042(3) 0.061(4) 0.065(4) 0.024(3) 0.016(3) 0.015(3)
C36 0.043(4) 0.072(5) 0.091(5) 0.023(4) 0.015(4) 0.018(3)
C37 0.060(5) 0.074(5) 0.082(5) 0.030(4) -0.001(4) 0.013(4)
C38 0.084(6) 0.085(5) 0.056(4) 0.033(4) 0.026(4) 0.012(4)
C39 0.064(4) 0.072(4) 0.048(3) 0.016(3) 0.023(3) 0.020(3)
C40 0.042(3) 0.044(3) 0.051(3) -0.014(3) 0.010(3) -0.003(3)
C41 0.070(5) 0.069(4) 0.046(3) -0.015(3) 0.019(3) -0.003(4)
C42 0.078(5) 0.121(7) 0.061(4) -0.042(4) 0.035(4) -0.020(5)
C43 0.052(5) 0.114(7) 0.102(6) -0.073(6) 0.028(4) -0.013(4)
C44 0.048(4) 0.081(5) 0.105(6) -0.053(5) 0.003(4) 0.006(4)
C45 0.052(4) 0.057(4) 0.058(4) -0.022(3) -0.001(3) 0.006(3)
loop_
_atom_type_symbol
_atom_type_description
_atom_type_scat_dispersion_real
_atom_type_scat_dispersion_imag
_atom_type_scat_source
C C 0.0033 0.0016 'International Tables Vol C Tables 4.2.6.8 and 6.1.1.4'
H H 0.0000 0.0000 'International Tables Vol C Tables 4.2.6.8 and 6.1.1.4'
Cl Cl 0.1484 0.1585 'International Tables Vol C Tables 4.2.6.8 and 6.1.1.4'
N N 0.0061 0.0033 'International Tables Vol C Tables 4.2.6.8 and 6.1.1.4'
Zn Zn 0.2839 1.4301 'International Tables Vol C Tables 4.2.6.8 and 6.1.1.4'
loop_
_geom_angle_atom_site_label_1
_geom_angle_atom_site_label_2
_geom_angle_atom_site_label_3
_geom_angle
Cl1 Zn1 C3 96.31(12)
N2 Zn1 Cl1 105.98(12)
N2 Zn1 N4 146.07(16)
N2 Zn1 C3 80.42(15)
N3 Zn1 Cl1 119.33(13)
N3 Zn1 N2 89.24(15)
N3 Zn1 N4 89.76(16)
N3 Zn1 C3 144.36(17)
N4 Zn1 Cl1 103.99(12)
N4 Zn1 C3 80.84(15)
C1 N1 C4 111.2(5)
C1 N1 C21 120.9(5)
C4 N1 C21 127.2(5)
C6 N2 Zn1 130.5(3)
C9 N2 Zn1 123.2(3)
C9 N2 C6 106.1(4)
C11 N3 Zn1 125.7(3)
C11 N3 C14 107.0(4)
C14 N3 Zn1 124.0(3)
C16 N4 Zn1 121.4(3)
C16 N4 C19 106.0(4)
C19 N4 Zn1 132.1(3)
N1 C1 H1 125.7
N1 C1 C2 108.6(5)
C2 C1 H1 125.7
C1 C2 C20 124.5(5)
C3 C2 C1 106.7(4)
C3 C2 C20 128.2(5)
Zn1 C3 H3 114.0
C2 C3 Zn1 103.5(3)
C2 C3 H3 114.0
C4 C3 Zn1 102.5(3)
C4 C3 C2 107.8(5)
C4 C3 H3 114.0
N1 C4 C3 105.6(4)
N1 C4 C5 125.4(5)
C3 C4 C5 128.6(5)
C4 C5 C22 120.0(5)
C6 C5 C4 119.4(4)
C6 C5 C22 120.6(4)
N2 C6 C7 108.2(4)
C5 C6 N2 125.5(4)
C5 C6 C7 126.2(4)
C6 C7 H7 126.1
C8 C7 C6 107.8(4)
C8 C7 H7 126.1
C7 C8 H8 126.0
C7 C8 C9 108.1(5)
C9 C8 H8 126.0
N2 C9 C8 109.7(4)
N2 C9 C10 126.3(4)
C10 C9 C8 124.0(4)
C9 C10 C28 117.2(4)
C11 C10 C9 125.6(4)
C11 C10 C28 117.2(4)
N3 C11 C10 124.0(5)
N3 C11 C12 108.7(4)
C10 C11 C12 127.3(5)
C11 C12 H12 126.2
C13 C12 C11 107.6(5)
C13 C12 H12 126.2
C12 C13 H13 126.0
C12 C13 C14 108.1(5)
C14 C13 H13 126.0
N3 C14 C13 108.4(4)
C15 C14 N3 124.6(4)
C15 C14 C13 126.9(4)
C14 C15 C16 125.0(4)
C14 C15 C34 117.4(4)
C16 C15 C34 117.6(4)
N4 C16 C15 127.2(4)
N4 C16 C17 109.7(4)
C15 C16 C17 123.1(4)
C16 C17 H17 126.3
C18 C17 C16 107.4(5)
C18 C17 H17 126.3
C17 C18 H18 126.2
C17 C18 C19 107.5(4)
C19 C18 H18 126.2
N4 C19 C18 109.1(4)
C20 C19 N4 124.7(4)
C20 C19 C18 125.8(5)
C2 C20 C40 116.1(5)
C19 C20 C2 120.7(4)
C19 C20 C40 123.0(5)
N1 C21 H21A 109.5
N1 C21 H21B 109.5
N1 C21 H21C 109.5
H21A C21 H21B 109.5
H21A C21 H21C 109.5
H21B C21 H21C 109.5
C23 C22 C5 119.9(5)
C27 C22 C5 122.6(5)
C27 C22 C23 117.4(5)
C22 C23 H23 118.9
C24 C23 C22 122.3(6)
C24 C23 H23 118.9
C23 C24 H24 120.3
C23 C24 C25 119.4(7)
C25 C24 H24 120.3
C24 C25 H25 120.2
C24 C25 C26 119.7(6)
C26 C25 H25 120.2
C25 C26 H26 119.6
C25 C26 C27 120.8(6)
C27 C26 H26 119.6
C22 C27 H27 119.9
C26 C27 C22 120.3(6)
C26 C27 H27 119.9
C29 C28 C10 121.2(5)
C29 C28 C33 118.0(5)
C33 C28 C10 120.8(5)
C28 C29 H29 119.6
C28 C29 C30 120.8(6)
C30 C29 H29 119.6
C29 C30 H30 120.2
C31 C30 C29 119.6(6)
C31 C30 H30 120.2
C30 C31 H31 120.0
C32 C31 C30 119.9(5)
C32 C31 H31 120.0
C31 C32 H32 119.5
C31 C32 C33 121.0(6)
C33 C32 H32 119.5
C28 C33 C32 120.7(6)
C28 C33 H33 119.7
C32 C33 H33 119.7
C35 C34 C15 121.4(5)
C35 C34 C39 117.6(5)
C39 C34 C15 120.9(5)
C34 C35 H35 119.2
C34 C35 C36 121.6(6)
C36 C35 H35 119.2
C35 C36 H36 120.7
C37 C36 C35 118.6(6)
C37 C36 H36 120.7
C36 C37 H37 119.6
C38 C37 C36 120.7(6)
C38 C37 H37 119.6
C37 C38 H38 120.3
C37 C38 C39 119.5(6)
C39 C38 H38 120.3
C34 C39 H39 119.0
C38 C39 C34 121.9(6)
C38 C39 H39 119.0
C41 C40 C20 122.3(5)
C45 C40 C20 119.5(5)
C45 C40 C41 118.1(5)
C40 C41 H41 120.0
C42 C41 C40 120.0(7)
C42 C41 H41 120.0
C41 C42 H42 119.8
C43 C42 C41 120.5(7)
C43 C42 H42 119.8
C42 C43 H43 120.1
C44 C43 C42 119.8(7)
C44 C43 H43 120.1
C43 C44 H44 120.1
C43 C44 C45 119.8(7)
C45 C44 H44 120.1
C40 C45 H45 119.1
C44 C45 C40 121.9(7)
C44 C45 H45 119.1
loop_
_geom_bond_atom_site_label_1
_geom_bond_atom_site_label_2
_geom_bond_distance
Zn1 Cl1 2.2575(15)
Zn1 N2 2.105(4)
Zn1 N3 2.011(4)
Zn1 N4 2.107(4)
Zn1 C3 2.506(5)
N1 C1 1.306(6)
N1 C4 1.398(7)
N1 C21 1.450(9)
N2 C6 1.404(6)
N2 C9 1.369(6)
N3 C11 1.374(6)
N3 C14 1.383(6)
N4 C16 1.367(6)
N4 C19 1.392(6)
C1 H1 0.9300
C1 C2 1.407(7)
C2 C3 1.400(6)
C2 C20 1.444(7)
C3 H3 0.9800
C3 C4 1.398(7)
C4 C5 1.429(7)
C5 C6 1.383(7)
C5 C22 1.477(7)
C6 C7 1.443(6)
C7 H7 0.9300
C7 C8 1.331(7)
C8 H8 0.9300
C8 C9 1.430(7)
C9 C10 1.414(7)
C10 C11 1.389(6)
C10 C28 1.502(7)
C11 C12 1.440(7)
C12 H12 0.9300
C12 C13 1.335(7)
C13 H13 0.9300
C13 C14 1.434(7)
C14 C15 1.383(6)
C15 C16 1.419(7)
C15 C34 1.487(7)
C16 C17 1.455(7)
C17 H17 0.9300
C17 C18 1.333(7)
C18 H18 0.9300
C18 C19 1.448(7)
C19 C20 1.378(7)
C20 C40 1.487(7)
C21 H21A 0.9600
C21 H21B 0.9600
C21 H21C 0.9600
C22 C23 1.392(7)
C22 C27 1.385(7)
C23 H23 0.9300
C23 C24 1.364(8)
C24 H24 0.9300
C24 C25 1.372(10)
C25 H25 0.9300
C25 C26 1.375(10)
C26 H26 0.9300
C26 C27 1.379(8)
C27 H27 0.9300
C28 C29 1.371(7)
C28 C33 1.373(7)
C29 H29 0.9300
C29 C30 1.389(7)
C30 H30 0.9300
C30 C31 1.372(9)
C31 H31 0.9300
C31 C32 1.330(9)
C32 H32 0.9300
C32 C33 1.382(8)
C33 H33 0.9300
C34 C35 1.382(7)
C34 C39 1.383(7)
C35 H35 0.9300
C35 C36 1.388(8)
C36 H36 0.9300
C36 C37 1.383(9)
C37 H37 0.9300
C37 C38 1.368(9)
C38 H38 0.9300
C38 C39 1.371(8)
C39 H39 0.9300
C40 C41 1.403(8)
C40 C45 1.378(8)
C41 H41 0.9300
C41 C42 1.384(8)
C42 H42 0.9300
C42 C43 1.379(11)
C43 H43 0.9300
C43 C44 1.375(10)
C44 H44 0.9300
C44 C45 1.376(9)
C45 H45 0.9300
loop_
_platon_squeeze_void_nr
_platon_squeeze_void_average_x
_platon_squeeze_void_average_y
_platon_squeeze_void_average_z
_platon_squeeze_void_volume
_platon_squeeze_void_count_electrons
_platon_squeeze_void_content
1 0.535 0.000 0.500 564 138 ' '
2 0.212 0.500 0.000 564 138 ' '
loop_
_platon_missing_refln_index_h
_platon_missing_refln_index_k
_platon_missing_refln_index_l
_platon_missing_refln_theta
2 0 0 2.269
1 1 0 1.867
0 2 0 2.967
-2 1 1 2.629
0 1 1 1.630
2 1 1 2.950
-1 2 1 3.179
1 2 1 3.317
-2 0 2 2.278
0 0 2 1.354
2 0 2 2.962
-1 1 2 2.103
1 1 2 2.493
-2 1 3 2.965
0 1 3 2.515
-2 0 4 2.983
0 0 4 2.708
-1 1 4 3.005
