#------------------------------------------------------------------------------
#$Date: 2019-10-02 03:25:32 +0300 (Wed, 02 Oct 2019) $
#$Revision: 218983 $
#$URL: file:///home/coder/svn-repositories/cod/cif/1/55/23/1552365.cif $
#------------------------------------------------------------------------------
#
# This file is available in the Crystallography Open Database (COD),
# http://www.crystallography.net/
#
# All data on this site have been placed in the public domain by the
# contributors.
#
data_1552365
loop_
_publ_author_name
'Li, Shuai'
'Mei, Hong-Min'
'Yao, Shi-Lin'
'Chen, Zhiyao'
'Lu, Yu-Lin'
'Zhang, Li'
'Su, Cheng-Yong'
_publ_section_title
;
 Well-Distributed Pt-Nanoparticles within Confined Coordination
 Interspaces of Self-Sensitized Porphyrin Metal-Organic Frameworks:
 Synergistic Effect Boosting Highly Efficient Photocatalytic Hydrogen
 Evolution Reaction
;
_journal_name_full               'Chemical Science'
_journal_paper_doi               10.1039/C9SC01866B
_journal_year                    2019
_chemical_formula_moiety         'C52 H36 N4 O8 Pd'
_chemical_formula_sum            'C52 H36 N4 O8 Pd'
_chemical_formula_weight         951.25
_space_group_crystal_system      orthorhombic
_space_group_IT_number           61
_space_group_name_Hall           '-P 2ac 2ab'
_space_group_name_H-M_alt        'P b c a'
_symmetry_space_group_name_Hall  '-P 2ac 2ab'
_symmetry_space_group_name_H-M   'P b c a'
_atom_sites_solution_hydrogens   geom
_audit_block_doi                 10.5517/ccdc.csd.cc22gvdt
_audit_creation_date             2019-05-30
_audit_creation_method
;
Olex2 1.2
(compiled 2018.05.29 svn.r3508 for OlexSys, GUI svn.r5506)
;
_audit_update_record
;
2019-06-05 deposited with the CCDC.    2019-09-30 downloaded from the CCDC.
;
_cell_angle_alpha                90
_cell_angle_beta                 90
_cell_angle_gamma                90
_cell_formula_units_Z            4
_cell_length_a                   33.5643(16)
_cell_length_b                   21.7048(9)
_cell_length_c                   6.9605(3)
_cell_measurement_reflns_used    2842
_cell_measurement_temperature    150.00(10)
_cell_measurement_theta_max      72.6240
_cell_measurement_theta_min      4.0600
_cell_volume                     5070.8(4)
_computing_cell_refinement       'CrysAlisPro 1.171.39.46 (Rigaku OD, 2018)'
_computing_data_collection       'CrysAlisPro 1.171.39.46 (Rigaku OD, 2018)'
_computing_data_reduction        'CrysAlisPro 1.171.39.46 (Rigaku OD, 2018)'
_computing_molecular_graphics    'Olex2 (Dolomanov et al., 2009)'
_computing_publication_material  'Olex2 (Dolomanov et al., 2009)'
_computing_structure_refinement  'ShelXL (Sheldrick, 2015)'
_computing_structure_solution    'SHELXT 2014/5 (Sheldrick, 2014)'
_diffrn_ambient_environment      N~2~
_diffrn_ambient_temperature      150.00(10)
_diffrn_detector                 'CCD plate'
_diffrn_detector_area_resol_mean 10.6525
_diffrn_detector_type            Atlas
_diffrn_measured_fraction_theta_full 0.987
_diffrn_measured_fraction_theta_max 0.957
_diffrn_measurement_details
;
List of Runs (angles in degrees, time in seconds):

  # Type    Start    End  Width  t~exp~   \w     \q     \k     \f   Frames
#--------------------------------------------------------------------------
  1  \w    -64.00 -18.00   1.00   14.00    --  -39.83  19.00  90.00   46
  2  \w   -112.00 -15.00   1.00   14.00    --  -39.83 -38.00 -90.00   97
  3  \w     52.00 174.00   1.00   60.00    --  104.53  15.00 -30.00  122
  4  \w    117.00 178.00   1.00   60.00    --  104.53 125.00-180.00   61
  5  \w     22.00  64.00   1.00   60.00    --  104.53 -94.00   0.00   42
;
_diffrn_measurement_device       'four-circle diffractometer'
_diffrn_measurement_device_type  'SuperNova, Dual, Cu at home/near, Atlas'
_diffrn_measurement_method       '\w scans'
_diffrn_orient_matrix_type
'CrysAlisPro convention (1999,Acta A55,543-557)'
_diffrn_orient_matrix_UB_11      0.0431663000
_diffrn_orient_matrix_UB_12      0.0088420000
_diffrn_orient_matrix_UB_13      0.0703101000
_diffrn_orient_matrix_UB_21      -0.0063511000
_diffrn_orient_matrix_UB_22      0.0702718000
_diffrn_orient_matrix_UB_23      0.0045227000
_diffrn_orient_matrix_UB_31      -0.0143186000
_diffrn_orient_matrix_UB_32      -0.0044522000
_diffrn_orient_matrix_UB_33      0.2097660000
_diffrn_radiation_monochromator  mirror
_diffrn_radiation_probe          x-ray
_diffrn_radiation_type           CuK\a
_diffrn_radiation_wavelength     1.54184
_diffrn_reflns_av_R_equivalents  0.0356
_diffrn_reflns_av_unetI/netI     0.0462
_diffrn_reflns_Laue_measured_fraction_full 0.987
_diffrn_reflns_Laue_measured_fraction_max 0.957
_diffrn_reflns_limit_h_max       37
_diffrn_reflns_limit_h_min       -40
_diffrn_reflns_limit_k_max       26
_diffrn_reflns_limit_k_min       -16
_diffrn_reflns_limit_l_max       8
_diffrn_reflns_limit_l_min       -5
_diffrn_reflns_number            9844
_diffrn_reflns_point_group_measured_fraction_full 0.987
_diffrn_reflns_point_group_measured_fraction_max 0.957
_diffrn_reflns_theta_full        67.684
_diffrn_reflns_theta_max         72.827
_diffrn_reflns_theta_min         4.074
_diffrn_source                   'micro-focus sealed X-ray tube'
_diffrn_source_type              'SuperNova (Cu) X-ray Source'
_exptl_absorpt_coefficient_mu    3.394
_exptl_absorpt_correction_T_max  1.00000
_exptl_absorpt_correction_T_min  0.49114
_exptl_absorpt_correction_type   multi-scan
_exptl_absorpt_process_details
;
CrysAlisPro 1.171.39.46 (Rigaku Oxford Diffraction, 2018)
Empirical absorption correction using spherical harmonics,
 implemented in SCALE3 ABSPACK scaling algorithm.
;
_exptl_crystal_colour            red
_exptl_crystal_density_diffrn    1.246
_exptl_crystal_description       needle
_exptl_crystal_F_000             1944
_exptl_crystal_size_max          0.3
_exptl_crystal_size_mid          0.3
_exptl_crystal_size_min          0.3
_refine_diff_density_max         1.458
_refine_diff_density_min         -1.531
_refine_diff_density_rms         0.120
_refine_ls_extinction_method     none
_refine_ls_goodness_of_fit_ref   1.081
_refine_ls_hydrogen_treatment    constr
_refine_ls_matrix_type           full
_refine_ls_number_parameters     297
_refine_ls_number_reflns         4842
_refine_ls_number_restraints     0
_refine_ls_restrained_S_all      1.081
_refine_ls_R_factor_all          0.0932
_refine_ls_R_factor_gt           0.0720
_refine_ls_shift/su_max          0.000
_refine_ls_shift/su_mean         0.000
_refine_ls_structure_factor_coef Fsqd
_refine_ls_weighting_details
'w=1/[\s^2^(Fo^2^)+(0.0281P)^2^+37.9311P] where P=(Fo^2^+2Fc^2^)/3'
_refine_ls_weighting_scheme      calc
_refine_ls_wR_factor_gt          0.1524
_refine_ls_wR_factor_ref         0.1663
_reflns_Friedel_coverage         0.000
_reflns_number_gt                3682
_reflns_number_total             4842
_reflns_threshold_expression     'I > 2\s(I)'
_cod_data_source_file            c9sc01866b2.cif
_cod_data_source_block           pd-tmcpp
_cod_database_code               1552365
_shelx_shelxl_version_number     2016/4
_chemical_oxdiff_usercomment     C4A-C5-MGCL2
_shelx_space_group_comment
;
The symmetry employed for this shelxl refinement is uniquely defined
by the following loop, which should always be used as a source of
symmetry information in preference to the above space-group names.
They are only intended as comments.
;
_shelx_estimated_absorpt_t_max   0.429
_shelx_estimated_absorpt_t_min   0.429
_reflns_odcompleteness_completeness 99.02
_reflns_odcompleteness_iscentric 1
_reflns_odcompleteness_theta     66.49
_olex2_refinement_description
;
1. Fixed Uiso
 At 1.2 times of:
  All C(H) groups
 At 1.5 times of:
  All C(H,H,H) groups
2.a Aromatic/amide H refined with riding coordinates:
 C23(H23), C24(H24), C14(H14), C15(H15), C7(H7), C6(H6), C21(H21), C1(H1),
 C20(H20), C2(H2), C9(H9), C10(H10)
2.b Idealised Me refined as rotating group:
 C26(H26A,H26B,H26C), C12(H12A,H12B,H12C)
;
_shelx_res_file
;
TITL exp_3251_a.res in Pbca
 pd-tmcpp.res created by SHELXL-2016/4 at 17:34:36 on 30-May-2019
REM Old TITL exp_3251 in Pbcm
REM SHELXT solution in Pbca
REM R1 0.184, Rweak 0.224, Alpha 0.051, Orientation as input
REM Formula found by SHELXT: C52 O8 N8 Pd
CELL 1.54184 33.5643 21.7048 6.9605 90 90 90
ZERR 4 0.0016 0.0009 0.0003 0 0 0
LATT 1
SYMM 0.5-X,-Y,0.5+Z
SYMM -X,0.5+Y,0.5-Z
SYMM 0.5+X,0.5-Y,-Z
SFAC C H N O Pd
UNIT 208 144 16 32 4

L.S. 4 0 0
PLAN  20
SIZE 0.3 0.3 0.3
BOND $H
list 4
ABIN
fmap 2 53
acta
REM <olex2.extras>
REM <HklSrc "%.\\Pd-TMCPP.hkl">
REM </olex2.extras>

WGHT    0.028100   37.931099
FVAR       0.22882
PD1   5    0.500000    0.500000    0.000000    10.50000    0.03961    0.02028 =
         0.03145   -0.00305    0.00446   -0.00328
O3    4    0.268965    0.237267   -0.285526    11.00000    0.03673    0.04116 =
         0.04744   -0.00526   -0.01088   -0.00422
O4    4    0.307300    0.158846   -0.185671    11.00000    0.03933    0.03280 =
         0.05596   -0.00469   -0.00317   -0.00591
N2    3    0.448269    0.476364    0.131917    11.00000    0.03769    0.01827 =
         0.03657   -0.00348    0.00105   -0.00243
N1    3    0.508184    0.566612    0.199773    11.00000    0.04460    0.02452 =
         0.02621   -0.00431    0.00251   -0.00604
O1    4    0.339317    0.710917    0.994715    11.00000    0.06259    0.04370 =
         0.05589   -0.01138    0.01214    0.01091
O2    4    0.340692    0.617788    1.130150    11.00000    0.08255    0.04385 =
         0.04803   -0.00040    0.03368    0.00938
C16   1    0.422232    0.430703    0.074402    11.00000    0.03407    0.02132 =
         0.03313   -0.00092    0.00323   -0.00496
C17   1    0.426835    0.393358   -0.085019    11.00000    0.04177    0.02018 =
         0.04092   -0.00034   -0.00238   -0.00041
C19   1    0.394628    0.346616   -0.124125    11.00000    0.03833    0.02417 =
         0.02894   -0.00387    0.00199   -0.00100
C23   1    0.371642    0.241231   -0.126608    11.00000    0.03920    0.01886 =
         0.03017    0.00011    0.00161    0.00009
AFIX  43
H23   2    0.376631    0.199498   -0.108219    11.00000   -1.20000
AFIX   0
C24   1    0.401490    0.284048   -0.097220    11.00000    0.03529    0.01969 =
         0.03436    0.00166    0.00161   -0.00029
AFIX  43
H24   2    0.426601    0.270781   -0.058780    11.00000   -1.20000
AFIX   0
C4    1    0.447362    0.553355    0.389569    11.00000    0.04169    0.02780 =
         0.03151    0.00386    0.00323    0.00167
C3    1    0.484205    0.580047    0.350929    11.00000    0.04385    0.02366 =
         0.03898   -0.00387    0.00587   -0.00114
C8    1    0.376060    0.630576    0.843149    11.00000    0.03865    0.03458 =
         0.02970   -0.00399    0.00147   -0.00377
C13   1    0.431182    0.503996    0.287949    11.00000    0.04051    0.02024 =
         0.02635    0.00409    0.01011   -0.00159
C18   1    0.458689    0.395249   -0.212965    11.00000    0.04382    0.01609 =
         0.03442   -0.00193    0.00567    0.00081
C5    1    0.423485    0.579789    0.551702    11.00000    0.04289    0.02483 =
         0.02836   -0.00414    0.00593   -0.00809
C14   1    0.393729    0.475752    0.329097    11.00000    0.04862    0.02023 =
         0.03535    0.00006    0.00930   -0.00336
AFIX  43
H14   2    0.376144    0.486809    0.426424    11.00000   -1.20000
AFIX   0
C15   1    0.388671    0.430190    0.200732    11.00000    0.04055    0.02827 =
         0.03755    0.00116    0.00356   -0.00640
AFIX  43
H15   2    0.367194    0.403178    0.195104    11.00000   -1.20000
AFIX   0
C7    1    0.385621    0.665267    0.683483    11.00000    0.04944    0.02019 =
         0.05007   -0.00040    0.00468    0.00328
AFIX  43
H7    2    0.376519    0.705601    0.673146    11.00000   -1.20000
AFIX   0
C25   1    0.302738    0.213137   -0.216045    11.00000    0.03807    0.03689 =
         0.02733   -0.00008   -0.00225   -0.00413
C6    1    0.408643    0.640199    0.539344    11.00000    0.05825    0.02640 =
         0.03384   -0.00193    0.01192   -0.00326
AFIX  43
H6    2    0.414487    0.663801    0.431450    11.00000   -1.20000
AFIX   0
C11   1    0.350506    0.658092    0.994790    11.00000    0.04354    0.04219 =
         0.03927   -0.00751    0.00071    0.00161
C21   1    0.326873    0.322973   -0.214431    11.00000    0.03283    0.03726 =
         0.03547    0.00134   -0.00180    0.00414
AFIX  43
H21   2    0.301900    0.336042   -0.255541    11.00000   -1.20000
AFIX   0
C1    1    0.537808    0.640528    0.386217    11.00000    0.05262    0.02650 =
         0.04544   -0.01713    0.00456   -0.00901
AFIX  43
H1    2    0.556349    0.668693    0.432529    11.00000   -1.20000
AFIX   0
C20   1    0.356727    0.365345   -0.183905    11.00000    0.05074    0.02170 =
         0.04359   -0.00207   -0.00716    0.00730
AFIX  43
H20   2    0.351627    0.406999   -0.203295    11.00000   -1.20000
AFIX   0
C22   1    0.333982    0.261114   -0.184061    11.00000    0.03562    0.02614 =
         0.02724   -0.00232    0.00498   -0.00342
C2    1    0.502926    0.625890    0.468913    11.00000    0.05357    0.03834 =
         0.03814   -0.01328    0.01314   -0.00546
AFIX  43
H2    2    0.492758    0.642437    0.581986    11.00000   -1.20000
AFIX   0
C9    1    0.390493    0.570188    0.858019    11.00000    0.05248    0.02993 =
         0.03427   -0.00238    0.00418    0.00055
AFIX  43
H9    2    0.384479    0.546438    0.965377    11.00000   -1.20000
AFIX   0
C10   1    0.413739    0.546097    0.712113    11.00000    0.05032    0.02569 =
         0.03649   -0.00728    0.00615    0.00373
AFIX  43
H10   2    0.423052    0.505891    0.722904    11.00000   -1.20000
AFIX   0
C26   1    0.237536    0.192671   -0.324011    11.00000    0.03601    0.05987 =
         0.06200   -0.00647   -0.01202   -0.00333
AFIX 137
H26A  2    0.246471    0.163903   -0.419502    11.00000   -1.50000
H26B  2    0.214277    0.213766   -0.370012    11.00000   -1.50000
H26C  2    0.231145    0.170951   -0.207886    11.00000   -1.50000
AFIX   0
C12   1    0.314789    0.641014    1.279416    11.00000    0.07528    0.08362 =
         0.05464   -0.00658    0.02999    0.01137
AFIX 137
H12A  2    0.289404    0.651545    1.225011    11.00000   -1.50000
H12B  2    0.326526    0.676984    1.336318    11.00000   -1.50000
H12C  2    0.311233    0.609939    1.376050    11.00000   -1.50000
AFIX   0
HKLF 4




REM  exp_3251_a.res in Pbca
REM R1 =  0.0720 for    3682 Fo > 4sig(Fo)  and  0.0932 for all    4842 data
REM    297 parameters refined using      0 restraints

END

WGHT      0.0280     37.9406

REM Highest difference peak  1.458,  deepest hole -1.531,  1-sigma level  0.120
Q1    1   0.4807  0.4994 -0.1663  11.00000  0.05    1.46
Q2    1   0.4811  0.5016  0.1650  11.00000  0.05    1.40
Q3    1   0.5203  0.4779 -0.0029  11.00000  0.05    1.01
Q4    1   0.4791  0.4778 -0.0034  11.00000  0.05    0.94
Q5    1   0.4564  0.5003 -0.0921  11.00000  0.05    0.77
Q6    1   0.4994  0.5014 -0.1034  11.00000  0.05    0.72
Q7    1   0.4582  0.4978  0.2680  11.00000  0.05    0.66
Q8    1   0.4369  0.5027  0.1839  11.00000  0.05    0.65
Q9    1   0.4571  0.4876  0.0924  11.00000  0.05    0.64
Q10   1   0.4361  0.4998  0.8301  11.00000  0.05    0.59
Q11   1   0.4600  0.5146  0.7360  11.00000  0.05    0.57
Q12   1   0.4596  0.4872  0.7411  11.00000  0.05    0.49
Q13   1   0.5000  0.5129  0.5037  11.00000  0.05    0.44
Q14   1   0.4640  0.4673  0.2373  11.00000  0.05    0.43
Q15   1   0.4199  0.4410  0.4202  11.00000  0.05    0.41
Q16   1   0.3976  0.5028  0.6804  11.00000  0.05    0.39
Q17   1   0.4769  0.4559  0.2803  11.00000  0.05    0.38
Q18   1   0.5006  0.5768  0.2001  11.00000  0.05    0.38
Q19   1   0.5029  0.4868  0.2866  11.00000  0.05    0.36
Q20   1   0.3997  0.4788  0.5010  11.00000  0.05    0.36
;
_shelx_res_checksum              93893
_shelx_fab_file
;
0 0 2 49.0012 -3.7991
0 0 4 2.4513 -3.4097
0 0 6 4.3757 -2.7625
0 2 0 96.0390 -4.9483
0 2 1 -2.5319 0.1453
0 2 2 18.9680 -5.3890
0 2 3 -5.6785 0.0171
0 2 4 -1.7984 -4.7140
0 2 5 -1.6390 -0.0351
0 2 6 1.2050 -3.6608
0 2 7 -0.0195 -0.1069
0 4 0 118.9670 -6.3614
0 4 1 -2.6657 0.0855
0 4 2 22.4243 -6.7452
0 4 3 -8.2573 -0.0794
0 4 4 1.8476 -5.8318
0 4 5 -1.8178 -0.1516
0 4 6 1.7856 -4.4868
0 4 7 2.2688 -0.1380
0 4 8 2.2915 -3.1463
0 6 0 46.1321 -6.5648
0 6 1 -2.7536 -0.1366
0 6 2 9.3914 -6.1001
0 6 3 -8.9848 -0.1346
0 6 4 -2.3012 -5.1056
0 6 5 2.4160 -0.1771
0 6 6 2.8570 -4.0764
0 6 7 -1.0511 -0.2000
0 6 8 -1.4584 -2.9176
0 8 0 2.9782 -6.2754
0 8 1 -2.2303 -0.2130
0 8 2 -10.7681 -5.9067
0 8 3 -3.9340 -0.1849
0 8 4 -3.6056 -5.1936
0 8 5 1.3532 -0.0296
0 8 6 -0.6378 -4.0757
0 8 7 0.0644 -0.1988
0 8 8 1.2493 -2.6132
0 10 0 8.5925 -6.0626
0 10 1 -1.3381 -0.1970
0 10 2 0.8047 -6.0057
0 10 3 -1.5288 -0.0396
0 10 4 -3.8853 -5.1539
0 10 5 0.4458 -0.1231
0 10 6 0.1390 -3.8914
0 10 7 -1.1164 -0.0530
0 12 0 -14.2795 -5.9567
0 12 1 -2.3776 0.0125
0 12 2 -7.0828 -5.5365
0 12 3 -0.7769 -0.1639
0 12 4 2.0619 -4.7957
0 12 5 0.5604 -0.1369
0 12 6 -2.7914 -3.7231
0 12 7 0.2004 -0.0428
0 14 0 -5.3115 -5.7146
0 14 1 2.9877 -0.1373
0 14 2 -2.3863 -5.3867
0 14 3 1.8169 -0.2219
0 14 4 0.3595 -4.5814
0 14 5 0.6497 -0.2067
0 14 6 -2.7992 -3.5796
0 14 7 1.7531 -0.1742
0 16 0 -8.6379 -5.3416
0 16 1 2.1717 -0.0836
0 16 2 -1.4321 -4.9088
0 16 3 2.7904 -0.3471
0 16 4 -0.5957 -4.2974
0 16 5 4.6469 -0.2279
0 16 6 -0.0753 -2.9732
0 18 0 -2.7486 -5.0296
0 18 1 0.9596 -0.1466
0 18 2 -2.6605 -4.7747
0 18 3 -1.5903 -0.2770
0 18 4 0.6979 -4.3050
0 18 5 2.6269 -0.1349
0 18 6 -0.4467 -2.6994
0 20 0 5.1487 -4.6280
0 20 1 3.9004 -0.0173
0 20 2 3.1517 -4.5752
0 20 3 -1.2604 -0.1708
0 20 4 0.2644 -3.6202
0 20 5 0.8483 -0.1068
0 22 0 4.0641 -4.4453
0 22 1 -0.0579 -0.0185
0 22 2 -2.0277 -4.3232
0 22 3 -5.2234 -0.0668
0 22 4 -0.8757 -3.0455
0 24 0 -1.1085 -3.8361
0 24 1 -1.4443 -0.0051
0 24 2 3.2076 -3.6189
0 24 3 7.9891 -0.0795
0 26 0 -4.6042 -3.0588
0 26 1 -0.4868 -0.1039
0 26 2 6.4250 -2.8180
1 0 2 24.6472 -0.1996
1 0 4 -0.0260 0.1587
1 0 6 -10.0777 -0.1374
1 1 1 6.0133 -5.0963
1 1 2 -1.4387 0.3046
1 1 3 -2.5349 -5.2481
1 1 4 -1.7021 -0.0926
1 1 5 -0.6882 -4.2255
1 1 6 -0.7192 0.0053
1 1 7 0.9467 -3.1135
1 2 1 -13.5115 -1.2440
1 2 2 24.5416 -0.0870
1 2 3 -10.4244 -2.0171
1 2 4 0.5076 0.0920
1 2 5 -4.2244 -1.5177
1 2 6 -7.2274 0.2127
1 2 7 -0.5889 -1.1014
1 3 1 -22.1514 -5.0178
1 3 2 -0.3628 0.0893
1 3 3 -5.2334 -4.3946
1 3 4 1.7895 -0.2334
1 3 5 -2.8052 -3.5014
1 3 6 -0.1160 -0.0645
1 3 7 0.0677 -2.5590
1 3 8 1.7294 -0.2618
1 4 1 -11.8625 -1.4130
1 4 2 16.2256 -0.1174
1 4 3 -14.5584 -1.9289
1 4 4 0.3930 0.3449
1 4 5 -6.8320 -1.5107
1 4 6 -3.1525 0.5051
1 4 7 0.2846 -1.0181
1 4 8 2.0225 0.7814
1 5 1 30.6095 -6.5117
1 5 2 0.1297 -0.0800
1 5 3 1.9803 -6.1969
1 5 4 0.4615 -0.2005
1 5 5 0.3144 -5.0207
1 5 6 2.7092 -0.1474
1 5 7 -1.0768 -3.5129
1 5 8 0.3053 -0.2081
1 6 1 -18.2198 0.4167
1 6 2 10.3184 -0.2945
1 6 3 -16.8580 0.5639
1 6 4 3.0974 0.0547
1 6 5 -5.8285 0.4229
1 6 6 1.1447 -0.1456
1 6 7 1.9314 0.5020
1 6 8 2.2522 -0.0597
1 7 1 -17.9090 -6.4489
1 7 2 1.5990 -0.1779
1 7 3 0.8662 -5.9107
1 7 4 2.6518 -0.2548
1 7 5 0.2464 -4.7513
1 7 6 2.0837 -0.1929
1 7 7 -0.5608 -3.5472
1 7 8 1.6421 -0.1599
1 8 1 -2.5659 0.8451
1 8 2 4.3071 0.5235
1 8 3 -10.6506 1.3014
1 8 4 3.0089 -0.4344
1 8 5 -3.8267 1.2113
1 8 6 2.8485 -0.3704
1 8 7 1.6989 0.4649
1 8 8 0.9554 -0.4870
1 9 1 14.5830 -6.2319
1 9 2 -0.2914 -0.0696
1 9 3 1.0167 -5.7830
1 9 4 2.2416 -0.1933
1 9 5 0.5070 -4.6531
1 9 6 1.4367 -0.2034
1 9 7 1.3547 -3.5812
1 9 8 0.2466 -0.0632
1 10 1 1.2616 0.3431
1 10 2 -1.7531 0.3556
1 10 3 -3.9859 0.5818
1 10 4 1.0227 -0.0232
1 10 5 -0.0744 0.5397
1 10 6 0.9150 0.1263
1 10 7 -0.8336 0.5100
1 11 1 3.3029 -6.2654
1 11 2 -0.3666 -0.0616
1 11 3 2.9335 -5.9533
1 11 4 -1.5019 -0.1374
1 11 5 1.7352 -5.0282
1 11 6 -2.5964 -0.2770
1 11 7 0.3097 -3.7383
1 12 1 3.1772 -0.7681
1 12 2 -0.9583 -0.6521
1 12 3 1.7367 -0.8834
1 12 4 0.4721 0.5885
1 12 5 -0.8701 -1.1218
1 12 6 -1.8299 0.5521
1 12 7 -3.0124 -0.7689
1 13 1 1.6951 -5.8604
1 13 2 -1.0211 -0.1578
1 13 3 0.8199 -5.4006
1 13 4 2.0390 -0.2086
1 13 5 -0.0502 -4.4181
1 13 6 1.3690 -0.2386
1 13 7 0.6526 -2.9721
1 14 1 3.5058 -0.0028
1 14 2 -0.8577 -0.4150
1 14 3 6.2420 -0.5073
1 14 4 3.4551 0.2334
1 14 5 -1.1994 -0.5256
1 14 6 -4.1126 0.2105
1 14 7 -1.6002 0.0331
1 15 1 4.2434 -5.5403
1 15 2 3.3799 -0.2773
1 15 3 1.7913 -5.2759
1 15 4 -2.1703 -0.2653
1 15 5 0.2028 -4.0552
1 15 6 -2.0996 -0.0778
1 15 7 -0.3026 -2.5781
1 16 1 2.8987 0.0479
1 16 2 -2.9952 0.4652
1 16 3 6.8019 0.0000
1 16 4 9.7558 -0.3510
1 16 5 1.1775 0.3843
1 16 6 -5.5100 -0.4036
1 17 1 -2.0342 -5.2396
1 17 2 0.5554 -0.2186
1 17 3 -1.2208 -4.7914
1 17 4 3.9164 -0.2134
1 17 5 0.9831 -4.2101
1 17 6 2.1091 -0.1569
1 18 1 4.4826 -0.0770
1 18 2 1.5712 0.3114
1 18 3 6.2667 -0.0599
1 18 4 6.4061 -0.2643
1 18 5 3.6514 0.3275
1 18 6 -4.4479 0.1977
1 19 1 0.5113 -5.0333
1 19 2 -0.8612 -0.2114
1 19 3 3.7469 -4.4651
1 19 4 -2.6097 -0.0930
1 19 5 0.5678 -3.2304
1 19 6 -4.4160 -0.1171
1 20 1 3.3660 -0.0420
1 20 2 19.4756 -0.3126
1 20 3 2.3688 1.0326
1 20 4 4.2656 0.2667
1 20 5 3.1560 0.6419
1 21 1 1.8265 -4.6052
1 21 2 2.9540 -0.1398
1 21 3 -3.7362 -4.6467
1 21 4 -0.2795 -0.1417
1 21 5 -1.1738 -2.9699
1 22 1 1.7722 0.2241
1 22 2 35.6308 -0.2032
1 22 3 0.9997 -0.5782
1 22 4 -0.0763 0.5383
1 23 1 -0.1553 -3.6664
1 23 2 -3.7741 -0.0353
1 23 3 -4.0299 -3.6685
1 24 1 1.8018 0.5288
1 24 2 48.8571 -0.0526
1 24 3 -0.0145 -0.0907
1 25 1 -1.0488 -3.7267
1 25 2 4.6670 -0.0910
1 26 1 0.0451 -1.2213
1 26 2 29.9477 0.2125
2 0 2 -17.1474 -2.7212
2 0 6 0.9711 -1.6433
2 1 1 10.2671 0.3287
2 1 2 -1.2112 1.4279
2 1 3 7.3440 0.2209
2 1 4 -0.0635 0.7566
2 1 5 1.3286 -0.3807
2 1 6 0.6610 0.6384
2 1 7 -2.0482 -0.1488
2 2 0 -159.7592 0.9842
2 2 1 1.0566 0.3857
2 2 2 -34.7363 3.0433
2 2 3 2.8405 0.0682
2 2 4 -1.9464 2.6570
2 2 5 -0.7184 -0.0927
2 2 6 -2.8743 2.0767
2 2 7 -3.2241 -0.1812
2 3 0 26.2537 0.0861
2 3 1 9.4712 -1.0918
2 3 2 14.1654 -2.1891
2 3 3 8.2869 0.2602
2 3 4 1.5030 -1.7785
2 3 5 0.0212 0.1051
2 3 6 1.6529 -1.4247
2 3 7 1.8211 0.3046
2 3 8 -0.0468 -0.6105
2 4 0 -66.1171 3.7487
2 4 1 3.5552 0.2822
2 4 2 -10.7603 4.4762
2 4 3 6.9943 -0.0094
2 4 4 0.8808 3.6808
2 4 5 -0.9609 -0.0640
2 4 6 -2.7284 2.8211
2 4 7 -1.4004 -0.1133
2 4 8 -0.7444 1.6203
2 5 0 20.2759 -0.3858
2 5 1 5.8867 -0.4754
2 5 2 12.1374 -1.7467
2 5 3 3.7265 -0.2624
2 5 4 4.6517 -1.4710
2 5 5 0.7483 0.2709
2 5 6 3.0300 -1.2147
2 5 7 1.4194 0.0127
2 5 8 -1.8841 -0.6140
2 6 0 -48.8744 3.6499
2 6 1 6.1509 0.2534
2 6 2 0.5620 3.5412
2 6 3 8.6120 0.0742
2 6 4 0.7014 2.9166
2 6 5 1.1950 -0.0433
2 6 6 -1.1974 2.2676
2 6 7 -0.3248 0.0536
2 6 8 -1.8718 1.9525
2 7 0 14.7279 0.2222
2 7 1 6.7647 0.7571
2 7 2 9.6726 1.2754
2 7 3 5.1650 -0.1858
2 7 4 2.7538 1.2246
2 7 5 -1.4450 -0.3884
2 7 6 1.1960 1.1346
2 7 7 3.5685 -0.3112
2 7 8 1.5036 0.6027
2 8 0 -21.8751 2.6907
2 8 1 3.8471 -0.0142
2 8 2 -3.9957 2.2449
2 8 3 6.1461 0.0433
2 8 4 4.3316 1.5718
2 8 5 -0.8081 0.0403
2 8 6 -0.8623 1.2279
2 8 7 1.6584 0.2861
2 8 8 1.2558 0.4709
2 9 0 15.4271 -0.1329
2 9 1 0.9055 0.8126
2 9 2 9.6550 0.8876
2 9 3 1.2711 0.0597
2 9 4 4.3925 0.9964
2 9 5 0.1841 -0.4682
2 9 6 1.1513 0.6293
2 9 7 1.0256 -0.3002
2 9 8 -0.2233 -0.0228
2 10 0 12.3991 2.9382
2 10 1 2.3043 -0.0826
2 10 2 9.8196 2.4681
2 10 3 1.9330 0.0682
2 10 4 1.5166 1.9424
2 10 5 -1.5146 0.0686
2 10 6 1.9744 1.3427
2 10 7 -1.1903 0.1403
2 11 0 1.5433 -0.2097
2 11 1 1.2000 -0.5952
2 11 2 1.0721 -0.1976
2 11 3 -2.1738 0.0691
2 11 4 3.6346 -0.3450
2 11 5 1.8822 0.3483
2 11 6 -0.6928 -0.3570
2 11 7 0.6018 0.2906
2 12 0 0.8598 2.8913
2 12 1 -0.2223 0.0561
2 12 2 1.5113 2.4690
2 12 3 -2.0419 0.0957
2 12 4 0.1347 1.9883
2 12 5 -1.2019 0.0097
2 12 6 0.8422 1.6044
2 12 7 -2.3017 0.0250
2 13 0 0.2578 0.0138
2 13 1 2.1253 -1.1741
2 13 2 1.9974 -0.3638
2 13 3 -2.9566 -0.1806
2 13 4 2.2519 -0.5135
2 13 5 2.4470 0.5078
2 13 6 -0.3839 -0.4519
2 13 7 -0.1869 0.2087
2 14 0 11.6728 2.8335
2 14 1 2.1400 0.0525
2 14 2 3.5775 2.4174
2 14 3 -0.3134 0.0470
2 14 4 -3.0223 1.7874
2 14 5 -1.5327 0.2238
2 14 6 0.9337 1.5689
2 14 7 -0.1331 -0.2112
2 15 0 -1.8113 0.1489
2 15 1 -1.0219 -0.0643
2 15 2 -1.8271 -0.4667
2 15 3 -3.6069 0.0584
2 15 4 0.3900 -0.3415
2 15 5 2.9046 -0.3622
2 15 6 2.0949 -0.3844
2 15 7 -0.1437 -0.3652
2 16 0 4.5555 2.5997
2 16 1 -1.6537 0.2240
2 16 2 1.4265 2.3453
2 16 3 0.1148 0.0855
2 16 4 0.1450 2.0887
2 16 5 -1.5109 -0.0573
2 16 6 1.2728 2.2269
2 17 0 -2.5280 0.0514
2 17 1 2.7321 0.8521
2 17 2 -2.7494 0.2752
2 17 3 -6.1689 -0.0968
2 17 4 0.5320 0.3773
2 17 5 -3.9558 -0.3711
2 17 6 1.3523 0.6801
2 18 0 -0.0171 2.2867
2 18 1 -4.0508 -0.1193
2 18 2 -1.3259 1.8373
2 18 3 1.5186 0.0886
2 18 4 1.9851 1.9164
2 18 5 -2.1150 0.1643
2 18 6 -0.4861 0.3501
2 19 0 0.1204 -0.1932
2 19 1 7.7344 0.3486
2 19 2 -1.6281 0.1329
2 19 3 -6.7226 -0.1630
2 19 4 -0.3938 0.6175
2 19 5 -4.1191 0.1326
2 19 6 0.4559 0.0915
2 20 0 -1.9947 2.2322
2 20 1 -1.4212 -0.1409
2 20 2 2.5840 2.0631
2 20 3 2.1210 -0.0510
2 20 4 0.2773 1.7890
2 20 5 -2.6714 0.3338
2 21 0 -2.6324 -0.0312
2 21 1 7.2516 -0.7606
2 21 2 -0.1107 0.6245
2 21 3 -9.5537 0.1475
2 21 4 -1.1753 -0.0423
2 21 5 -3.2955 -0.0022
2 22 0 -2.1917 2.3925
2 22 1 -1.0679 -0.3351
2 22 2 -3.0622 2.5109
2 22 3 -2.8606 0.2849
2 22 4 -3.3683 0.0656
2 23 0 -2.6734 0.2874
2 23 1 1.2780 -0.4066
2 23 2 2.2519 0.0586
2 23 3 0.3868 -0.1892
2 24 0 0.3175 2.6074
2 24 1 0.8334 0.2091
2 24 2 -2.5263 1.6416
2 24 3 1.4979 -0.0131
2 25 0 0.9979 0.2311
2 25 1 0.7881 -0.0547
2 25 2 0.1581 -0.8274
2 26 0 -1.3121 0.3854
2 26 1 2.4774 0.0716
2 26 2 -0.7310 1.4459
3 0 2 -27.1496 -0.1792
3 0 6 5.0120 -0.2300
3 1 1 10.6861 -4.1679
3 1 2 0.2822 -0.0662
3 1 3 10.4632 -4.7356
3 1 4 -2.3357 0.2676
3 1 5 5.6617 -3.7625
3 1 6 -1.4337 0.0679
3 1 7 -0.5794 -2.8075
3 2 1 -1.6079 -0.3050
3 2 2 -17.9643 0.1425
3 2 3 4.9585 -0.5477
3 2 4 -0.4572 -0.0554
3 2 5 3.2781 -0.4017
3 2 6 6.8418 -0.0597
3 2 7 0.5709 -0.3609
3 3 1 -18.5451 5.5981
3 3 2 -0.9913 0.0366
3 3 3 4.6294 5.7409
3 3 4 -2.9944 -0.0888
3 3 5 2.0159 4.7712
3 3 6 -4.1650 -0.1287
3 3 7 -0.3272 3.5465
3 3 8 -2.4308 -0.2157
3 4 1 22.3912 -1.6128
3 4 2 -16.8422 0.0532
3 4 3 15.4223 -2.3054
3 4 4 -1.8701 0.1315
3 4 5 5.6634 -1.8731
3 4 6 3.5382 0.1862
3 4 7 -0.8178 -1.2132
3 4 8 -4.8126 0.2816
3 5 1 17.4601 4.0612
3 5 2 1.4491 0.3039
3 5 3 2.8117 3.8128
3 5 4 -3.3439 0.0623
3 5 5 1.8629 2.9371
3 5 6 -3.1670 -0.1609
3 5 7 0.1985 2.4826
3 5 8 -2.4638 0.1431
3 6 1 -4.6375 0.1679
3 6 2 -8.2940 -0.2123
3 6 3 10.0970 0.1188
3 6 4 -2.1473 -0.0871
3 6 5 5.7632 -0.0048
3 6 6 -0.2823 -0.2213
3 6 7 -1.9219 0.1491
3 6 8 1.5234 -0.1644
3 7 1 -30.1183 3.0982
3 7 2 2.6077 0.0842
3 7 3 -3.9593 2.8354
3 7 4 -1.5333 0.0268
3 7 5 -1.5717 2.1989
3 7 6 -2.6047 0.1088
3 7 7 0.8428 1.3662
3 7 8 -1.2531 0.1688
3 8 1 7.0982 0.6727
3 8 2 -0.8935 0.4948
3 8 3 9.8494 1.0115
3 8 4 -3.6462 -0.4099
3 8 5 -0.0577 0.9351
3 8 6 -2.5750 -0.3963
3 8 7 -1.5976 0.4285
3 8 8 -2.3870 -0.5361
3 9 1 -5.4014 2.8427
3 9 2 -0.4847 -0.0709
3 9 3 -6.6797 2.4349
3 9 4 -0.9416 0.1582
3 9 5 -0.6685 2.0397
3 9 6 -0.7815 0.3293
3 9 7 0.5855 1.4456
3 9 8 -0.2595 0.0375
3 10 1 -5.8730 0.3052
3 10 2 -1.1443 0.3038
3 10 3 3.5433 0.5403
3 10 4 -2.2944 -0.0767
3 10 5 0.3965 0.5004
3 10 6 -2.3512 0.0039
3 10 7 0.5631 0.4802
3 11 1 -13.4879 2.8842
3 11 2 0.8448 -0.1128
3 11 3 -3.5572 2.3316
3 11 4 -4.1738 0.1887
3 11 5 -2.0725 1.6829
3 11 6 -2.1220 0.1130
3 11 7 -2.3870 1.6660
3 12 1 -4.6403 -0.6206
3 12 2 4.5053 -0.5353
3 12 3 -1.2416 -0.7175
3 12 4 -0.4798 0.4022
3 12 5 -0.8441 -0.8248
3 12 6 1.5436 0.5496
3 12 7 1.4487 -0.4928
3 13 1 -8.2770 3.2849
3 13 2 -1.9127 0.1270
3 13 3 -5.2008 3.0350
3 13 4 0.0163 0.1213
3 13 5 -2.5265 2.4177
3 13 6 2.0549 -0.0692
3 13 7 -1.6483 2.1102
3 14 1 -1.3595 0.0031
3 14 2 4.4859 -0.3670
3 14 3 -2.3772 -0.3004
3 14 4 -3.8072 0.1338
3 14 5 -0.3054 -0.3411
3 14 6 4.6262 0.0137
3 14 7 2.3842 -0.3586
3 15 1 -2.4493 2.8733
3 15 2 0.9791 0.1816
3 15 3 -2.9945 2.2801
3 15 4 -1.9081 0.0037
3 15 5 -1.8660 2.2941
3 15 6 0.6555 0.1765
3 15 7 -1.3981 0.2983
3 16 1 -4.7306 0.1703
3 16 2 4.1427 0.5960
3 16 3 -6.3084 0.0569
3 16 4 -1.3687 -0.4025
3 16 5 -0.6644 0.3367
3 16 6 3.6894 -0.6265
3 17 1 -3.8936 2.5395
3 17 2 -2.0845 0.2173
3 17 3 -3.5660 2.4217
3 17 4 3.3976 -0.0682
3 17 5 -0.3167 1.6337
3 17 6 3.9785 0.0371
3 18 1 -1.1889 -0.1995
3 18 2 4.1013 0.5068
3 18 3 -3.4806 0.0494
3 18 4 -10.4007 -0.1721
3 18 5 -2.6159 0.2377
3 18 6 4.0430 -0.2315
3 19 1 0.8816 2.4183
3 19 2 -2.6646 -0.0652
3 19 3 1.9340 2.4056
3 19 4 0.3951 0.1758
3 19 5 0.1231 2.4380
3 19 6 0.0316 0.2231
3 20 1 -1.5352 0.0640
3 20 2 -3.0252 -0.1471
3 20 3 -3.3466 0.8200
3 20 4 -3.4192 0.3003
3 20 5 -4.3354 0.3239
3 21 1 0.1681 2.5703
3 21 2 -1.4691 -0.1600
3 21 3 1.5879 1.7107
3 21 4 -0.9013 0.3140
3 21 5 -0.3055 -0.0955
3 22 1 -1.8470 0.3094
3 22 2 -30.6414 -0.1102
3 22 3 0.7789 -0.1973
3 22 4 0.7098 0.0324
3 23 1 -0.2799 2.9195
3 23 2 -0.4585 0.2435
3 23 3 1.4549 2.1798
3 24 1 -0.5458 0.1176
3 24 2 -23.9671 -0.1174
3 24 3 1.1971 -0.6658
3 25 1 -1.6513 -0.4304
3 25 2 3.2897 0.2191
3 26 1 -0.3406 -0.8532
3 26 2 -27.5819 0.0667
4 0 0 139.8514 2.4439
4 0 2 20.7652 -5.5382
4 0 4 -1.5194 -4.7299
4 0 6 2.1805 -3.6333
4 1 0 -34.4931 -0.4284
4 1 1 -18.0366 -0.2656
4 1 2 -15.4057 1.0769
4 1 3 -13.0795 0.2640
4 1 4 -2.8582 1.2095
4 1 5 -1.7645 -0.1907
4 1 6 -1.1961 0.8646
4 1 7 0.2385 0.0906
4 2 0 64.5266 -0.1890
4 2 1 -2.7948 0.4259
4 2 2 5.2203 -1.3305
4 2 3 -3.2021 -0.0170
4 2 4 -5.4223 -1.2099
4 2 5 -0.1628 -0.1290
4 2 6 -0.7552 -0.6752
4 2 7 1.9495 -0.0601
4 3 0 -16.1351 0.1014
4 3 1 -14.2543 -0.7407
4 3 2 -10.7559 -1.2293
4 3 3 -7.5158 0.2189
4 3 4 -3.1922 -0.8535
4 3 5 -1.3858 0.3189
4 3 6 -3.3509 -0.6375
4 3 7 1.1326 0.3704
4 4 0 87.7951 0.4263
4 4 1 -8.4526 0.1571
4 4 2 7.8787 1.7825
4 4 3 -6.0913 -0.1153
4 4 4 0.5671 1.6718
4 4 5 0.2035 -0.1270
4 4 6 0.9817 1.3097
4 4 7 1.8175 -0.1097
4 4 8 -0.2153 0.7385
4 5 0 -40.4976 0.1354
4 5 1 -13.2339 -0.4916
4 5 2 -21.7779 -1.0021
4 5 3 -9.0644 -0.0263
4 5 4 -3.4105 -1.0548
4 5 5 3.2493 0.3128
4 5 6 -3.1781 -0.7641
4 5 7 -4.1166 0.1886
4 5 8 -2.3730 -0.2680
4 6 0 30.6447 0.7005
4 6 1 -5.6174 0.1350
4 6 2 2.1920 1.7518
4 6 3 -3.7861 -0.0142
4 6 4 -2.7142 1.8006
4 6 5 1.9662 0.0170
4 6 6 0.3228 1.3492
4 6 7 2.5841 -0.0510
4 6 8 -0.3344 1.1790
4 7 0 -37.7214 0.4694
4 7 1 -3.8140 0.4782
4 7 2 -20.7674 1.1569
4 7 3 -3.0444 -0.0456
4 7 4 -7.6968 1.0456
4 7 5 1.1811 -0.2949
4 7 6 -3.6304 0.8095
4 7 7 -2.8500 -0.2645
4 7 8 1.2828 0.1617
4 8 0 4.1607 0.2334
4 8 1 -8.0216 -0.2549
4 8 2 -9.0359 0.0041
4 8 3 -5.0522 0.0309
4 8 4 -1.0306 -0.0211
4 8 5 1.7681 0.1750
4 8 6 0.9364 0.0467
4 8 7 1.8058 0.1584
4 8 8 0.6620 -1.3343
4 9 0 -12.6732 -0.1304
4 9 1 -7.3286 0.5572
4 9 2 -7.1453 0.6774
4 9 3 -1.1698 0.1355
4 9 4 -5.1397 0.9056
4 9 5 0.3132 -0.3534
4 9 6 -0.0140 0.5737
4 9 7 -4.0593 -0.3436
4 9 8 -2.4995 0.2512
4 10 0 3.7578 0.6837
4 10 1 -4.8253 -0.2219
4 10 2 0.8069 0.4639
4 10 3 -2.4308 0.0726
4 10 4 -0.0378 0.4255
4 10 5 -0.0758 0.2378
4 10 6 0.6296 0.2945
4 10 7 1.2120 -0.0716
4 11 0 -10.6881 -0.3052
4 11 1 -1.4955 -0.6985
4 11 2 -9.3596 -0.4410
4 11 3 0.6446 0.2191
4 11 4 -5.2445 -0.5070
4 11 5 -3.7584 0.4264
4 11 6 -0.0102 -0.2121
4 11 7 0.3113 0.3587
4 12 0 -8.1959 0.5248
4 12 1 -4.1650 -0.0155
4 12 2 -3.2729 0.4445
4 12 3 -3.6769 0.1498
4 12 4 2.4411 0.5313
4 12 5 -1.1109 -0.0613
4 12 6 -1.0065 0.4508
4 12 7 0.7935 -0.0611
4 13 0 1.8292 0.1194
4 13 1 3.5338 -1.2006
4 13 2 1.0116 -0.2345
4 13 3 5.8643 -0.0525
4 13 4 -2.4084 -0.5694
4 13 5 -3.1666 0.5501
4 13 6 -1.3871 -0.6419
4 13 7 1.4522 0.3657
4 14 0 -1.1187 0.5118
4 14 1 -1.0081 0.1631
4 14 2 -0.6024 0.7991
4 14 3 0.7526 -0.0619
4 14 4 0.3378 0.6315
4 14 5 1.8703 -0.0253
4 14 6 -0.0342 0.0859
4 14 7 1.6967 -0.2158
4 15 0 2.0240 0.1699
4 15 1 -2.8056 -0.1515
4 15 2 1.0547 -0.2013
4 15 3 5.7181 0.0658
4 15 4 -1.2989 -0.1923
4 15 5 1.0301 -0.3778
4 15 6 -0.7272 -0.3169
4 15 7 0.6277 -0.0184
4 16 0 -6.1681 0.4848
4 16 1 1.0726 0.3636
4 16 2 -0.3429 0.8410
4 16 3 -1.1476 0.0389
4 16 4 1.7201 0.9731
4 16 5 0.7994 -0.4122
4 16 6 0.2283 0.9531
4 17 0 1.7859 0.0746
4 17 1 -3.4818 0.6029
4 17 2 3.5001 0.1423
4 17 3 8.0114 -0.0834
4 17 4 1.0114 0.2622
4 17 5 0.9073 -0.3565
4 17 6 -3.2250 0.6825
4 18 0 -1.1080 0.3585
4 18 1 2.5570 -0.0190
4 18 2 0.5049 0.4125
4 18 3 1.2260 0.0678
4 18 4 -0.5275 0.5682
4 18 5 3.0844 0.0554
4 18 6 0.5338 -0.8884
4 19 0 5.7743 -0.1836
4 19 1 -7.8482 0.1441
4 19 2 2.7559 -0.0238
4 19 3 7.9973 -0.1534
4 19 4 1.1019 0.4032
4 19 5 6.1030 0.4476
4 19 6 -1.1239 0.1517
4 20 0 2.8887 0.3964
4 20 1 1.0537 -0.0439
4 20 2 1.7856 0.8886
4 20 3 -3.5733 -0.1654
4 20 4 1.1137 0.4318
4 20 5 0.0496 0.4505
4 21 0 1.6908 -0.1111
4 21 1 -8.9651 -0.6920
4 21 2 -0.1326 0.4061
4 21 3 7.4583 0.1913
4 21 4 -1.8667 -0.0245
4 21 5 5.9485 0.3184
4 22 0 1.8639 0.3005
4 22 1 0.5257 -0.3520
4 22 2 -0.7031 0.6585
4 22 3 -0.7569 0.2431
4 22 4 -1.3888 -1.1665
4 23 0 0.8763 0.0287
4 23 1 -7.7105 -0.2980
4 23 2 -1.0559 0.0615
4 23 3 11.6733 -0.1504
4 24 0 1.3112 0.5421
4 24 1 0.6727 0.2948
4 24 2 0.5438 -1.7502
4 24 3 3.2846 -0.0649
4 25 0 2.2035 0.0718
4 25 1 5.8073 -0.1861
4 25 2 -2.4343 -1.0344
4 26 0 -1.5537 -1.6247
4 26 1 -0.5476 0.2931
5 0 2 14.4259 -0.0892
5 0 4 1.6726 -0.0538
5 0 6 -6.1783 -0.1190
5 1 1 1.0012 -7.6678
5 1 2 0.8739 0.1680
5 1 3 -12.7383 -8.1234
5 1 4 0.5008 0.0505
5 1 5 -6.4065 -6.6332
5 1 6 1.6674 0.1300
5 1 7 0.9619 -4.9521
5 2 1 -10.5089 0.0228
5 2 2 19.9869 0.1169
5 2 3 -7.0976 0.2489
5 2 4 1.2469 -0.0291
5 2 5 -3.1998 0.2521
5 2 6 -2.9119 0.1040
5 2 7 -0.4520 0.1311
5 3 1 -10.6479 2.2277
5 3 2 -5.6401 0.0433
5 3 3 -8.3567 2.5305
5 3 4 0.9798 -0.2497
5 3 5 -5.5253 2.2061
5 3 6 1.9863 -0.1756
5 3 7 -1.0411 1.6146
5 4 1 18.5989 -1.1566
5 4 2 10.3585 -0.1858
5 4 3 -2.0018 -1.6419
5 4 4 1.2399 0.1866
5 4 5 -4.1566 -1.3008
5 4 6 -1.6688 0.2841
5 4 7 0.2652 -0.7762
5 4 8 -0.8255 0.3315
5 5 1 25.5090 0.7090
5 5 2 -3.3666 0.0141
5 5 3 -0.7537 1.2601
5 5 4 2.4032 0.0231
5 5 5 -1.2136 0.9605
5 5 6 4.0523 -0.0699
5 5 7 -1.4831 0.7931
5 5 8 2.2539 0.1071
5 6 1 -12.8667 0.2659
5 6 2 6.2852 -0.3011
5 6 3 -10.5830 0.2619
5 6 4 3.0473 -0.0699
5 6 5 -1.7296 0.1900
5 6 6 0.6767 -0.0445
5 6 7 2.9287 -0.0473
5 6 8 3.2426 -0.1142
5 7 1 3.0831 0.7132
5 7 2 -2.0055 -0.1312
5 7 3 4.6369 0.9991
5 7 4 2.1102 0.0100
5 7 5 -0.8341 0.9091
5 7 6 3.0626 0.2540
5 7 7 -0.4034 0.1323
5 7 8 1.0757 0.1704
5 8 1 14.6403 0.4032
5 8 2 1.9998 0.4677
5 8 3 -2.8789 0.8231
5 8 4 3.4176 -0.3502
5 8 5 -0.3730 0.8578
5 8 6 1.0596 -0.3686
5 8 7 2.4061 0.4011
5 8 8 -2.2373 -0.7137
5 9 1 23.6509 0.4433
5 9 2 -6.6458 -0.0545
5 9 3 6.0695 0.4318
5 9 4 0.6432 0.1896
5 9 5 4.3232 0.5178
5 9 6 1.5895 0.3070
5 9 7 1.5823 0.2389
5 9 8 0.7634 0.0016
5 10 1 5.2281 0.3901
5 10 2 -7.6066 0.3641
5 10 3 -3.2224 0.5100
5 10 4 -0.0287 -0.0952
5 10 5 3.2024 0.3715
5 10 6 0.2110 -0.1590
5 10 7 0.2933 0.4289
5 11 1 12.3796 0.0889
5 11 2 -1.0071 -0.0425
5 11 3 9.5421 -0.1949
5 11 4 -1.3458 0.2609
5 11 5 1.2971 -0.3683
5 11 6 -0.7427 -0.0241
5 11 7 0.7560 0.1566
5 12 1 4.6345 -0.1991
5 12 2 -2.6519 -0.3627
5 12 3 -2.3184 -0.5015
5 12 4 -0.2716 0.3344
5 12 5 1.1555 -0.6801
5 12 6 0.5297 0.4158
5 12 7 -2.3071 -0.1894
5 13 1 11.1672 0.7111
5 13 2 -3.9705 0.1741
5 13 3 4.2127 1.0639
5 13 4 1.9687 -0.0265
5 13 5 2.5997 0.9281
5 13 6 0.0872 -0.2684
5 13 7 2.3187 0.7197
5 14 1 3.6164 -0.2492
5 14 2 -4.4610 -0.4676
5 14 3 3.0104 -0.3542
5 14 4 -1.6549 0.1432
5 14 5 0.6932 -0.4321
5 14 6 0.0690 -0.2509
5 14 7 -1.1643 -0.7967
5 15 1 5.0321 0.6281
5 15 2 1.6361 0.1911
5 15 3 5.3429 0.6897
5 15 4 -0.6980 -0.2363
5 15 5 1.5131 1.1346
5 15 6 -1.1485 0.0191
5 15 7 0.4532 0.0883
5 16 1 -1.9038 -0.0174
5 16 2 -10.0053 0.3502
5 16 3 0.8044 -0.1151
5 16 4 6.3821 -0.5487
5 16 5 1.9176 0.2515
5 16 6 -6.5383 -0.4734
5 17 1 -0.4030 0.4782
5 17 2 1.0466 0.1375
5 17 3 4.1833 1.1345
5 17 4 -1.8434 -0.1305
5 17 5 1.5435 0.2741
5 17 6 -1.6189 -0.1339
5 18 1 2.4963 -0.2057
5 18 2 -12.7338 0.2892
5 18 3 3.0608 0.0967
5 18 4 -1.9024 -0.2523
5 18 5 2.9233 0.3328
5 18 6 -3.6045 0.0657
5 19 1 0.8496 0.4076
5 19 2 2.7284 -0.1145
5 19 3 1.3962 1.0092
5 19 4 -0.4101 0.1967
5 19 5 0.5785 0.8019
5 19 6 -2.7590 0.0634
5 20 1 -2.1312 0.4141
5 20 2 -3.0034 -0.2983
5 20 3 0.0015 0.4172
5 20 4 1.9454 0.3674
5 20 5 1.1127 0.0657
5 21 1 -1.5303 0.5116
5 21 2 -1.6520 -0.3397
5 21 3 -0.7307 -0.0963
5 21 4 -1.2591 0.3006
5 21 5 -0.6531 -1.4572
5 22 1 -1.2953 0.2801
5 22 2 -0.5131 -0.0547
5 22 3 0.1386 0.2692
5 22 4 4.2392 -0.1411
5 23 1 0.8556 1.0436
5 23 2 2.0419 0.3413
5 23 3 -5.9686 -0.7175
5 23 4 2.1897 -0.1572
5 24 1 0.0161 -0.2595
5 24 2 20.3339 -0.1346
5 24 3 -0.7936 -0.7500
5 25 1 -2.1056 -2.2436
5 25 2 -3.5101 0.1356
5 26 1 0.0880 -0.1185
6 0 0 -34.1998 -0.2990
6 0 2 5.2416 -6.0489
6 0 4 9.1854 -4.9504
6 0 6 3.7432 -3.8963
6 1 0 -14.1952 0.1446
6 1 1 18.9999 -0.0098
6 1 2 -3.7238 0.8876
6 1 3 10.1752 0.2250
6 1 4 -1.7504 0.6342
6 1 5 1.0960 -0.2787
6 1 6 0.7176 0.5398
6 1 7 -1.9823 -0.0766
6 2 0 -76.5827 -1.4262
6 2 1 6.4591 0.7959
6 2 2 1.8053 -2.5983
6 2 3 0.8211 -0.0367
6 2 4 5.0277 -2.2390
6 2 5 -1.5819 -0.1671
6 2 6 0.4075 -1.6414
6 2 7 -0.2920 -0.2170
6 3 0 54.0564 0.0570
6 3 1 18.1228 -0.1168
6 3 2 23.5818 -0.6571
6 3 3 10.3327 0.0287
6 3 4 4.3655 -0.6040
6 3 5 -1.4099 0.1625
6 3 6 2.3667 -0.5168
6 3 7 1.9381 0.0421
6 4 0 -23.9129 -0.9071
6 4 1 4.7866 0.6216
6 4 2 4.8903 -0.1909
6 4 3 0.7487 -0.2397
6 4 4 5.3786 0.0221
6 4 5 -1.4373 -0.2292
6 4 6 1.3346 -0.0819
6 4 7 -3.7687 -0.4289
6 5 0 38.9761 -0.0890
6 5 1 9.2653 -0.2240
6 5 2 19.8280 -1.0786
6 5 3 4.0479 -0.1054
6 5 4 5.2275 -0.9774
6 5 5 -0.2648 0.2098
6 5 6 3.9145 -0.8063
6 5 7 2.4442 0.1647
6 6 0 -25.0896 -1.5815
6 6 1 14.2169 0.0943
6 6 2 5.6312 -0.6339
6 6 3 6.0967 -0.0957
6 6 4 0.0981 -0.2376
6 6 5 -1.6426 -0.0291
6 6 6 -0.8310 -0.2632
6 6 7 -1.3953 -0.0755
6 6 8 1.4578 0.2186
6 7 0 31.3756 0.1785
6 7 1 10.3394 0.6314
6 7 2 13.3578 0.4720
6 7 3 3.2091 -0.1673
6 7 4 4.2684 0.4873
6 7 5 -3.2225 -0.1452
6 7 6 2.6738 0.3079
6 7 7 4.0662 -0.2761
6 7 8 5.1760 -0.1140
6 8 0 -4.5022 -2.3379
6 8 1 7.0050 -0.5115
6 8 2 -0.5170 -2.4966
6 8 3 1.7190 0.0095
6 8 4 -0.0091 -2.2003
6 8 5 -0.6395 0.0723
6 8 6 1.1337 -1.6238
6 8 7 -3.1412 0.3793
6 8 8 0.3142 -1.5640
6 9 0 30.0424 -0.0383
6 9 1 -0.7999 0.9242
6 9 2 16.8611 0.9407
6 9 3 -0.2230 0.0522
6 9 4 6.6051 0.8706
6 9 5 -0.8915 -0.3111
6 9 6 1.6605 0.7619
6 9 7 -0.6706 -0.2389
6 9 8 0.2472 0.8584
6 10 0 2.4210 -1.5263
6 10 1 7.0116 -0.3697
6 10 2 2.5631 -1.5756
6 10 3 3.1983 -0.0005
6 10 4 -2.0276 -1.2861
6 10 5 -0.9193 0.1092
6 10 6 -0.4226 -1.0587
6 10 7 -1.3196 0.0653
6 11 0 6.5027 -0.1367
6 11 1 1.2081 -0.0934
6 11 2 1.8720 0.0010
6 11 3 -5.9616 0.2110
6 11 4 1.7179 -0.2408
6 11 5 -1.4140 0.2018
6 11 6 0.1943 0.0986
6 11 7 -0.0528 0.4706
6 12 0 0.2557 -1.4231
6 12 1 4.6135 -0.1546
6 12 2 -1.4468 -1.7923
6 12 3 2.6850 0.0633
6 12 4 -2.7653 -1.3231
6 12 5 0.2846 -0.0558
6 12 6 -2.0244 -0.9989
6 12 7 -1.5323 -0.1038
6 13 0 2.2313 0.1873
6 13 1 1.7766 -0.5545
6 13 2 4.7749 -0.2410
6 13 3 -1.8900 -0.1337
6 13 4 2.5354 -0.3077
6 13 5 4.2243 0.3205
6 13 6 -0.1042 -0.5864
6 13 7 -0.5612 0.2970
6 14 0 3.4112 -1.5471
6 14 1 1.3044 0.2189
6 14 2 -1.0317 -1.2101
6 14 3 4.1693 -0.1477
6 14 4 -4.5669 -1.1123
6 14 5 2.2219 -0.0771
6 14 6 -0.3036 -0.8346
6 14 7 -0.4129 -0.2287
6 15 0 -4.9322 0.0026
6 15 1 -5.0452 0.3188
6 15 2 -1.6746 -0.5332
6 15 3 -4.2616 -0.0950
6 15 4 -0.5799 -0.1609
6 15 5 1.4075 -0.2290
6 15 6 3.9618 -0.0867
6 15 7 -0.0904 -0.2463
6 16 0 -1.6806 -1.3900
6 16 1 0.7835 0.4365
6 16 2 -1.6166 -0.8159
6 16 3 -1.1333 -0.0631
6 16 4 -0.8178 -0.4802
6 16 5 -2.5077 -0.2759
6 16 6 -1.2515 0.4950
6 17 0 -3.9946 -0.0663
6 17 1 2.5416 0.8241
6 17 2 -2.8060 -0.1204
6 17 3 0.1169 0.0660
6 17 4 -1.3945 0.0535
6 17 5 -4.2757 -0.3125
6 17 6 1.1929 0.4726
6 18 0 0.9783 -1.5170
6 18 1 -1.6001 -0.0145
6 18 2 -1.4375 -1.4954
6 18 3 1.9630 -0.0983
6 18 4 -2.7004 -0.7550
6 18 5 0.8794 0.1861
6 18 6 -0.0657 -1.6064
6 19 0 -0.7654 -0.0802
6 19 1 4.8354 0.3373
6 19 2 -3.4082 0.3209
6 19 3 -11.9475 0.2160
6 19 4 0.6850 0.1793
6 19 5 -4.2834 0.2125
6 20 0 0.2989 -1.2684
6 20 1 -2.7705 -0.2213
6 20 2 -1.0289 -0.9160
6 20 3 -0.9510 -0.1166
6 20 4 1.0789 -0.5217
6 20 5 -1.2108 0.2726
6 21 0 -5.1037 0.0320
6 21 1 9.2088 -0.2493
6 21 2 -0.0084 0.3177
6 21 3 -7.3048 0.3386
6 21 4 -2.1709 0.0858
6 21 5 -3.3751 0.0567
6 22 0 -0.8383 -1.0540
6 22 1 0.7052 -0.4308
6 22 2 0.6925 -0.4671
6 22 3 1.0669 0.4198
6 22 4 -0.9768 -2.1950
6 23 0 -2.3183 0.1316
6 23 1 0.7521 -0.0749
6 23 2 2.0897 0.1023
6 23 3 -1.3808 -0.2827
6 23 4 2.0765 -0.0205
6 24 0 -1.2761 -0.3659
6 24 1 1.4618 0.3243
6 24 2 -0.1363 -2.1836
6 24 3 -0.9004 0.0495
6 25 0 2.2541 -0.0849
6 25 1 -0.8763 0.0468
6 25 2 -0.1226 -0.8237
6 26 0 -3.0788 -2.2995
6 26 1 -1.8266 0.6153
7 0 2 -17.1868 -0.4696
7 0 4 -1.2115 0.1447
7 0 6 0.4105 -0.2738
7 1 1 1.8499 -7.7753
7 1 2 5.6572 -0.0140
7 1 3 11.3178 -8.2275
7 1 4 -0.2863 0.1661
7 1 5 6.9962 -6.6797
7 1 6 0.0395 0.2300
7 1 7 1.8587 -4.9910
7 2 1 -19.2370 0.6993
7 2 2 -9.1275 -0.0102
7 2 3 -2.2364 0.8732
7 2 4 -1.7131 0.1783
7 2 5 1.3804 0.7843
7 2 6 1.5268 -0.0330
7 2 7 -0.3675 0.5789
7 3 1 -9.6704 1.8474
7 3 2 4.1439 0.2203
7 3 3 9.3385 1.8321
7 3 4 -1.1224 -0.3533
7 3 5 4.8919 1.6741
7 3 6 -2.6847 -0.3816
7 3 7 -0.0076 1.4101
7 4 1 6.9947 -0.9361
7 4 2 -8.6765 -0.1186
7 4 3 6.1654 -1.3429
7 4 4 0.7698 0.1773
7 4 5 1.8577 -0.9583
7 4 6 1.1796 0.2786
7 4 7 -1.1931 -0.5508
7 5 1 -3.0640 -1.3394
7 5 2 7.9720 0.1905
7 5 3 0.9546 -0.8146
7 5 4 0.5068 -0.2051
7 5 5 2.0919 -0.8167
7 5 6 -1.5764 -0.3240
7 5 7 0.2572 -0.4148
7 6 1 -28.3368 -0.0194
7 6 2 -2.2450 -0.1477
7 6 3 -3.9527 -0.1986
7 6 4 -0.0087 -0.0423
7 6 5 0.9428 -0.1919
7 6 6 0.9530 0.1452
7 6 7 -1.3878 -0.4014
7 7 1 -21.6679 -2.1020
7 7 2 11.0945 -0.0563
7 7 3 -3.4410 -1.8964
7 7 4 2.6546 -0.1155
7 7 5 -2.2210 -1.6380
7 7 6 -1.6457 0.0419
7 7 7 -0.3561 -1.4340
7 8 1 -4.3560 0.2251
7 8 2 3.5718 0.2332
7 8 3 3.4695 0.6850
7 8 4 0.2047 -0.1454
7 8 5 -1.2920 0.6177
7 8 6 -1.8118 -0.2769
7 8 7 -2.9665 0.5009
7 9 1 -11.5192 -2.0979
7 9 2 3.1009 -0.1239
7 9 3 -9.0400 -2.0116
7 9 4 0.6295 0.0006
7 9 5 0.0547 -1.6290
7 9 6 -0.7402 0.1008
7 9 7 0.2297 -1.1853
7 10 1 -11.5963 0.2248
7 10 2 4.1271 0.1014
7 10 3 0.7516 0.4294
7 10 4 -0.8671 0.1056
7 10 5 -2.2555 0.2396
7 10 6 -2.0160 -0.0940
7 10 7 -1.7666 0.4465
7 11 1 -15.6179 -2.1392
7 11 2 9.2598 -0.2624
7 11 3 -4.2569 -2.3540
7 11 4 1.4943 0.1111
7 11 5 -4.4304 -2.0955
7 11 6 0.1970 -0.1287
7 11 7 -1.9455 -1.1809
7 12 1 -4.7430 -0.0814
7 12 2 8.0372 -0.3396
7 12 3 -0.1786 -0.3259
7 12 4 3.2551 0.3359
7 12 5 -2.6782 -0.2880
7 12 6 -0.8429 0.5704
7 12 7 1.2719 -0.0483
7 13 1 -5.0139 -1.6033
7 13 2 1.0676 -0.0346
7 13 3 -7.6864 -1.2858
7 13 4 2.7277 -0.1339
7 13 5 -0.9925 -1.0516
7 13 6 -1.0163 -0.2714
7 13 7 -0.5572 -1.3474
7 14 1 -0.0687 -0.1936
7 14 2 4.9265 -0.3494
7 14 3 3.7288 -0.2898
7 14 4 3.3731 0.1048
7 14 5 -1.2225 -0.1771
7 14 6 4.5754 0.0810
7 14 7 1.6552 -0.8423
7 15 1 -5.0548 -1.7494
7 15 2 3.8585 0.1086
7 15 3 -4.9723 -1.8216
7 15 4 2.0482 -0.2262
7 15 5 -2.7655 -1.1282
7 15 6 0.3232 0.0913
7 16 1 -1.4294 0.1112
7 16 2 8.1593 0.2564
7 16 3 -1.6692 -0.0558
7 16 4 6.8980 -0.4168
7 16 5 -1.5459 0.2126
7 16 6 -0.4011 0.0461
7 17 1 -0.7282 -1.6297
7 17 2 -1.9342 0.0045
7 17 3 -3.0711 -1.2265
7 17 4 -0.7051 -0.0896
7 17 5 -0.6061 -0.9546
7 17 6 1.2083 0.1343
7 18 1 6.1887 -0.2106
7 18 2 12.2953 0.1873
7 18 3 -0.0478 0.0884
7 18 4 -1.0939 0.1186
7 18 5 -1.1208 0.1622
7 18 6 5.9960 0.0968
7 19 1 2.0782 -1.5043
7 19 2 -1.0051 -0.1559
7 19 3 -3.5464 -0.9602
7 19 4 3.2752 0.0900
7 19 5 0.3146 -0.1027
7 20 1 2.5697 0.4626
7 20 2 14.0057 -0.3718
7 20 3 -0.0156 0.1284
7 20 4 -2.7593 0.5641
7 20 5 -1.3434 -0.3440
7 21 1 1.2307 -1.2406
7 21 2 -4.1851 -0.3839
7 21 3 2.5200 -1.1673
7 21 4 -0.8488 0.3300
7 21 5 -0.6342 -1.7176
7 22 1 3.9051 0.0995
7 22 2 2.2766 -0.0111
7 22 3 0.1592 0.4981
7 22 4 2.4703 -0.3331
7 23 1 2.7209 -0.3311
7 23 2 5.7590 0.5259
7 23 3 -1.8919 -1.7036
7 23 4 -0.9403 -0.2111
7 24 1 0.7339 -0.5816
7 24 2 4.7523 -0.1113
7 24 3 1.0744 -0.8715
7 25 1 -0.9472 -3.2352
7 25 2 0.8172 0.0047
7 26 1 0.9492 0.0505
8 0 0 25.8543 -0.3591
8 0 2 -18.6717 -5.3430
8 0 4 -11.0069 -4.4767
8 0 6 -1.6213 -3.4281
8 1 0 -40.2352 0.0798
8 1 1 -17.0574 -0.1147
8 1 2 -14.3349 0.5088
8 1 3 -9.7436 0.0486
8 1 4 -3.6486 0.5726
8 1 5 -0.4280 -0.2416
8 1 6 -0.9880 0.3437
8 1 7 0.3869 -0.1925
8 2 0 -1.4210 -0.4234
8 2 1 -0.9943 0.6629
8 2 2 -12.4331 -0.6387
8 2 3 -0.1089 0.0188
8 2 4 -8.9087 -0.6216
8 2 5 0.1183 -0.1771
8 2 6 -3.6202 -0.3539
8 2 7 1.3403 -0.2481
8 3 0 -13.5773 -0.1031
8 3 1 -11.9017 0.0564
8 3 2 -6.1138 -0.0004
8 3 3 -5.0162 -0.0581
8 3 4 0.4806 -0.1170
8 3 5 0.3187 0.0700
8 3 6 -2.1060 0.0158
8 3 7 0.0821 0.0322
8 4 0 18.6223 0.8527
8 4 1 -13.7089 0.9255
8 4 2 -9.9608 2.4226
8 4 3 -2.9268 -0.1190
8 4 4 -5.7706 2.0900
8 4 5 2.5319 -0.2538
8 4 6 -1.6592 1.5476
8 4 7 -0.5132 -0.4381
8 5 0 -43.9429 -0.0132
8 5 1 -10.4986 -0.1843
8 5 2 -13.7221 -0.7140
8 5 3 -2.7838 -0.0684
8 5 4 -3.6202 -0.7367
8 5 5 3.8082 0.0222
8 5 6 -1.7510 -0.4589
8 5 7 -0.9887 0.3079
8 6 0 -3.1089 0.8664
8 6 1 -6.2541 0.1654
8 6 2 -4.9126 1.9799
8 6 3 1.6656 0.0102
8 6 4 -2.7387 1.6316
8 6 5 1.8514 -0.0452
8 6 6 -2.5553 1.1359
8 6 7 3.3475 0.1086
8 7 0 -37.4723 0.0663
8 7 1 -0.4769 0.3714
8 7 2 -16.5788 -0.2894
8 7 3 0.1207 -0.1912
8 7 4 -3.5414 -0.2031
8 7 5 2.2311 -0.2062
8 7 6 -1.1753 -0.3490
8 7 7 -0.4316 -0.2777
8 8 0 4.0660 0.1984
8 8 1 -11.3622 -0.3398
8 8 2 -1.8089 -0.6497
8 8 3 -2.2535 0.0763
8 8 4 2.3849 -1.0314
8 8 5 2.4107 0.0624
8 8 6 0.7292 -0.6830
8 8 7 0.2408 0.4630
8 9 0 -17.8545 -0.1807
8 9 1 -3.8089 0.5948
8 9 2 -2.3342 0.4350
8 9 3 2.7790 -0.0815
8 9 4 0.3782 0.5578
8 9 5 2.4306 -0.2448
8 9 6 -1.5655 0.5255
8 9 7 -1.3606 -0.3165
8 10 0 -3.3254 0.5582
8 10 1 -4.0099 -0.1175
8 10 2 3.5605 0.0970
8 10 3 -3.8158 0.0075
8 10 4 3.6291 -0.1216
8 10 5 -0.6864 0.0681
8 10 6 1.3664 -0.1434
8 10 7 2.3213 -0.0426
8 11 0 -11.7515 -0.2258
8 11 1 2.5656 -0.2342
8 11 2 -8.3586 -0.0778
8 11 3 2.0600 0.1252
8 11 4 -3.1539 -0.2106
8 11 5 -1.8744 0.2594
8 11 6 -1.2128 0.1007
8 11 7 1.8448 0.1468
8 12 0 2.1452 0.5072
8 12 1 -3.2064 -0.1617
8 12 2 4.0636 -0.1420
8 12 3 -3.2694 -0.0166
8 12 4 5.4723 -0.2039
8 12 5 -0.1830 0.0727
8 12 6 0.9974 -0.3160
8 12 7 0.2957 -0.2137
8 13 0 -0.1506 0.1739
8 13 1 3.0078 -0.5485
8 13 2 -0.4460 0.0052
8 13 3 4.4675 -0.0953
8 13 4 2.3750 -0.0741
8 13 5 3.7963 0.1608
8 13 6 -2.4812 -0.4445
8 13 7 1.3796 0.1091
8 14 0 3.3171 0.3251
8 14 1 -3.5976 0.1473
8 14 2 2.1733 0.0560
8 14 3 -1.6591 -0.0902
8 14 4 3.3504 -0.1252
8 14 5 -0.7217 -0.1054
8 14 6 2.0617 0.1310
8 14 7 -0.7806 -0.0703
8 15 0 0.0461 0.0025
8 15 1 0.4127 0.2599
8 15 2 -1.1963 -0.1430
8 15 3 -3.2599 -0.1494
8 15 4 1.3294 0.1141
8 15 5 0.3088 -0.2169
8 15 6 0.5806 0.1337
8 16 0 0.1212 0.5023
8 16 1 3.6858 0.3426
8 16 2 1.9782 0.2706
8 16 3 -0.9047 0.1139
8 16 4 4.9120 0.5272
8 16 5 -2.1492 -0.2002
8 16 6 -0.0666 1.3526
8 17 0 3.7273 -0.0760
8 17 1 4.5885 0.5976
8 17 2 1.3374 -0.1171
8 17 3 5.3475 -0.0019
8 17 4 0.3471 0.0650
8 17 5 -0.4889 -0.3800
8 17 6 -2.4400 0.1360
8 18 0 0.9759 0.1225
8 18 1 0.5354 -0.0241
8 18 2 2.1687 -0.0404
8 18 3 -0.4520 -0.0789
8 18 4 2.6791 0.1274
8 18 5 0.4036 0.2910
8 18 6 1.5705 -0.5149
8 19 0 5.4515 0.1423
8 19 1 -2.0745 0.1008
8 19 2 1.2982 0.5021
8 19 3 -4.2625 0.0833
8 19 4 2.4421 -0.0475
8 19 5 1.2200 0.0721
8 20 0 -2.0439 0.4101
8 20 1 -1.3319 -0.3653
8 20 2 0.5878 0.8417
8 20 3 0.9826 -0.1677
8 20 4 2.9410 0.5097
8 20 5 -1.4430 0.2495
8 21 0 0.1181 0.0651
8 21 1 0.0389 -0.1563
8 21 2 1.6844 0.0954
8 21 3 8.4813 -0.0891
8 21 4 -2.7568 0.1194
8 21 5 0.6549 0.1971
8 22 0 0.7543 0.6622
8 22 1 -0.6791 -0.5636
8 22 2 -0.2300 0.6552
8 22 3 -0.2038 0.3122
8 22 4 -2.0282 -1.9762
8 23 0 -0.4728 0.0881
8 23 1 -2.8380 -0.2451
8 23 2 -0.3222 -0.0051
8 23 3 3.7983 -0.3324
8 24 0 1.8274 0.9538
8 24 1 0.7333 0.1506
8 24 2 -2.7767 -2.2171
8 24 3 0.4832 0.0617
8 25 0 0.1543 -0.4427
8 25 1 2.3715 0.0689
8 25 2 -1.2853 -0.7797
8 26 0 1.3400 -0.4731
8 26 1 -0.2054 0.5613
9 0 2 5.7606 0.0233
9 0 4 1.3062 -0.2943
9 0 6 -0.8433 -0.1104
9 1 1 3.9699 -7.0406
9 1 2 -0.5243 -0.0870
9 1 3 -10.1252 -7.7359
9 1 4 -0.6217 0.1896
9 1 5 -4.8038 -6.1966
9 1 6 0.8912 0.1470
9 1 7 -1.0824 -4.6084
9 2 1 1.0067 0.6982
9 2 2 8.8102 0.1811
9 2 3 -1.4672 1.1032
9 2 4 -0.7159 -0.0020
9 2 5 -0.2007 0.8544
9 2 6 -0.9221 -0.0875
9 2 7 -1.8832 0.7552
9 3 1 7.3068 3.3545
9 3 2 -10.1407 0.3194
9 3 3 -4.3262 3.2732
9 3 4 -0.8985 -0.2695
9 3 5 -3.5186 2.8209
9 3 6 0.9464 -0.4268
9 3 7 -1.3176 2.3083
9 4 1 33.0062 -0.0144
9 4 2 2.4387 -0.1188
9 4 3 7.2130 -0.1299
9 4 4 -1.0990 0.0870
9 4 5 -0.4576 -0.2355
9 4 6 0.5353 0.1290
9 4 7 -0.1605 -0.0574
9 5 1 9.3058 1.1373
9 5 2 -12.2351 0.2024
9 5 3 -4.2856 1.5503
9 5 4 -0.9980 -0.1269
9 5 5 -1.9179 1.1230
9 5 6 1.9003 -0.1955
9 5 7 0.7591 0.8825
9 6 1 5.8091 -0.0530
9 6 2 0.9721 -0.0998
9 6 3 -1.4176 -0.4888
9 6 4 -1.9050 -0.0108
9 6 5 0.2613 -0.4998
9 6 6 1.4400 0.0383
9 6 7 3.3361 -0.6244
9 7 1 8.5586 0.8468
9 7 2 -6.3074 -0.1143
9 7 3 3.8725 0.7991
9 7 4 0.1928 0.0489
9 7 5 0.4812 0.5452
9 7 6 -0.8017 0.2562
9 7 7 0.7310 0.3633
9 8 1 21.4617 -0.1492
9 8 2 -6.9144 0.2154
9 8 3 5.5902 -0.0255
9 8 4 -2.1827 -0.1358
9 8 5 1.3735 0.1626
9 8 6 -0.7010 -0.3255
9 8 7 3.3215 0.2204
9 9 1 11.7544 0.5002
9 9 2 -11.8435 -0.0741
9 9 3 2.6398 0.0973
9 9 4 -6.0731 0.1138
9 9 5 4.1594 0.0145
9 9 6 -0.2733 0.2302
9 9 7 1.8098 0.2141
9 10 1 8.4089 -0.0214
9 10 2 -8.0327 0.1728
9 10 3 0.4779 0.0742
9 10 4 -4.1050 0.0348
9 10 5 0.9792 0.0387
9 10 6 1.0257 0.0453
9 10 7 -0.0742 0.3193
9 11 1 2.5475 0.1328
9 11 2 -3.2673 -0.1801
9 11 3 7.4355 -0.4310
9 11 4 -3.0849 0.2132
9 11 5 0.4628 -0.5810
9 11 6 2.5918 -0.0760
9 11 7 -0.0344 0.1003
9 12 1 4.7054 0.1278
9 12 2 -5.9861 -0.2167
9 12 3 -2.7375 -0.0043
9 12 4 -4.7943 0.2286
9 12 5 0.1827 -0.0066
9 12 6 -1.7826 0.4809
9 12 7 0.1626 -0.1277
9 13 1 6.3563 0.6526
9 13 2 -7.9075 0.0483
9 13 3 2.5074 0.5847
9 13 4 -2.0184 -0.0864
9 13 5 3.7601 0.5735
9 13 6 0.1601 -0.1382
9 13 7 0.1371 0.1342
9 14 1 0.1179 -0.1796
9 14 2 -3.7716 -0.1924
9 14 3 1.0864 -0.1067
9 14 4 -5.9942 0.0442
9 14 5 1.8151 -0.0868
9 14 6 2.7439 -0.0465
9 14 7 -2.0895 -0.5549
9 15 1 -1.5854 0.3820
9 15 2 2.4328 0.2469
9 15 3 2.3870 0.0937
9 15 4 -1.1317 -0.1844
9 15 5 -0.6341 0.3731
9 15 6 -0.5524 0.0123
9 16 1 -4.5952 -0.0621
9 16 2 -3.3143 0.1676
9 16 3 -2.8674 0.1288
9 16 4 -6.2644 -0.2817
9 16 5 1.4022 0.0888
9 16 6 -6.5628 -0.1472
9 17 1 0.9524 0.5132
9 17 2 0.6393 0.1084
9 17 3 3.1829 0.3749
9 17 4 -4.2496 -0.0389
9 17 5 1.5210 0.4268
9 17 6 -0.3347 -0.0006
9 18 1 -2.6877 -0.0859
9 18 2 -8.7489 0.3237
9 18 3 -0.7943 0.1335
9 18 4 -4.2723 0.1689
9 18 5 0.6786 0.0410
9 18 6 -0.5222 -0.3099
9 19 1 -2.4862 0.6344
9 19 2 3.7248 -0.1927
9 19 3 0.0600 0.6285
9 19 4 0.3313 0.0443
9 19 5 0.9169 -0.3658
9 20 1 -7.1533 0.4805
9 20 2 -8.5691 0.0519
9 20 3 0.5336 -0.0539
9 20 4 -3.8351 0.3488
9 20 5 -1.4986 -0.4133
9 21 1 -2.2099 0.6635
9 21 2 -0.1767 -0.4019
9 21 3 3.2405 0.2281
9 21 4 1.1895 0.3162
9 21 5 -2.0607 -1.4447
9 22 1 -3.6043 -0.1348
9 22 2 -6.0365 0.0555
9 22 3 -0.6672 0.1209
9 22 4 4.5745 -0.2741
9 23 1 -0.1403 0.7688
9 23 2 1.5909 0.4735
9 23 3 -2.4615 -1.8985
9 24 1 -2.6937 -0.6892
9 24 2 -0.1166 -0.2486
9 24 3 1.1269 -0.7470
9 25 1 -1.7348 -2.1694
9 25 2 -4.4638 -0.0938
9 26 1 0.3370 0.2333
10 0 0 24.6569 0.6674
10 0 2 15.4349 -5.1088
10 0 4 8.7996 -4.4760
10 0 6 3.3500 -3.4497
10 1 0 -13.0590 0.0200
10 1 1 10.1641 -0.2759
10 1 2 -5.3429 0.0363
10 1 3 6.9793 -0.1089
10 1 4 -2.9193 0.1922
10 1 5 -0.2178 -0.0998
10 1 6 -0.0545 0.2730
10 1 7 -1.2063 -0.2260
10 2 0 14.4301 0.4703
10 2 1 7.1429 0.4794
10 2 2 21.4070 -0.8229
10 2 3 1.3473 -0.0671
10 2 4 11.5751 -0.7691
10 2 5 -1.7063 -0.1212
10 2 6 2.2197 -0.5254
10 2 7 1.5452 -0.0836
10 3 0 37.6300 -0.1726
10 3 1 8.8966 -0.1098
10 3 2 8.9011 0.4084
10 3 3 5.0610 0.0757
10 3 4 1.7750 0.3423
10 3 5 -1.5008 0.1841
10 3 6 -0.8882 0.3100
10 3 7 -0.4915 0.1877
10 4 0 18.5496 0.8955
10 4 1 2.3471 1.2085
10 4 2 10.3863 1.8757
10 4 3 -1.2666 -0.1924
10 4 4 5.5678 1.7633
10 4 5 -0.1394 -0.3199
10 4 6 2.6132 1.3958
10 4 7 -0.5440 -0.6092
10 5 0 23.0234 0.0928
10 5 1 3.1266 -0.5592
10 5 2 6.4166 0.2197
10 5 3 2.3612 0.1106
10 5 4 -1.9910 0.2781
10 5 5 -1.5507 0.1576
10 5 6 0.3083 0.1186
10 5 7 -0.0080 0.3740
10 6 0 0.0838 0.6732
10 6 1 12.2532 -0.0985
10 6 2 3.6957 2.1321
10 6 3 2.7265 0.0358
10 6 4 1.7187 1.9376
10 6 5 -3.1694 -0.0158
10 6 6 0.7517 1.4554
10 6 7 0.5474 0.0339
10 7 0 23.7879 0.2394
10 7 1 2.2323 -0.1402
10 7 2 -1.3711 -0.1651
10 7 3 -0.3707 0.0069
10 7 4 -1.4445 -0.1807
10 7 5 -2.0563 -0.0774
10 7 6 1.0524 -0.3370
10 7 7 0.2170 -0.3096
10 8 0 9.0585 0.4070
10 8 1 3.3532 -0.7032
10 8 2 -0.2324 0.2926
10 8 3 0.0296 0.1505
10 8 4 -1.0345 -0.1127
10 8 5 -2.7897 0.3441
10 8 6 0.0980 0.1052
10 8 7 -3.5235 0.3997
10 9 0 18.2543 0.0496
10 9 1 -4.7397 0.1976
10 9 2 7.0060 0.1737
10 9 3 -3.4033 0.0815
10 9 4 0.4957 0.2312
10 9 5 -1.0716 -0.1783
10 9 6 0.2439 0.3905
10 9 7 -0.7351 -0.2889
10 10 0 -5.9723 1.1701
10 10 1 5.6592 -0.0719
10 10 2 -4.9352 1.0086
10 10 3 -0.3882 0.1076
10 10 4 -5.9305 0.8243
10 10 5 -2.4789 0.1662
10 10 6 -1.2822 0.6099
10 10 7 0.7508 -0.1717
10 11 0 7.9878 -0.2167
10 11 1 0.1291 -0.4247
10 11 2 -1.1070 -0.2171
10 11 3 -3.2322 0.2489
10 11 4 -4.9434 -0.3214
10 11 5 -4.3571 0.1848
10 11 6 1.6585 -0.1845
10 11 7 -0.5372 0.1546
10 12 0 -1.1502 0.9994
10 12 1 -0.2802 0.0118
10 12 2 -4.1108 0.5090
10 12 3 4.3247 0.0279
10 12 4 -3.9221 0.4171
10 12 5 3.2150 -0.0182
10 12 6 -2.4861 0.0062
10 12 7 0.8739 -0.2362
10 13 0 3.6951 0.0733
10 13 1 -2.8107 -0.7232
10 13 2 3.0151 -0.0727
10 13 3 0.4104 -0.0162
10 13 4 -0.7489 -0.1074
10 13 5 -1.4109 0.0497
10 13 6 -0.1195 -0.4265
10 13 7 -0.5333 0.3699
10 14 0 -3.7682 0.5883
10 14 1 -2.4454 0.2217
10 14 2 -4.3021 0.7487
10 14 3 2.5921 -0.0364
10 14 4 -5.5987 0.5193
10 14 5 0.2931 -0.2994
10 14 6 -1.6624 0.4026
10 15 0 -1.6592 0.0816
10 15 1 -2.1232 -0.1044
10 15 2 0.9709 0.0572
10 15 3 -1.5752 -0.3227
10 15 4 -1.9694 0.2054
10 15 5 -2.0685 0.0506
10 15 6 2.2845 0.3294
10 16 0 -3.3068 0.8088
10 16 1 2.4673 0.3689
10 16 2 -1.7599 1.2135
10 16 3 0.7790 0.0671
10 16 4 -5.6929 1.2750
10 16 5 0.4675 -0.2465
10 16 6 -1.4902 0.5626
10 17 0 -1.7300 -0.0634
10 17 1 -3.0199 0.1202
10 17 2 0.0900 -0.0277
10 17 3 6.0838 -0.1437
10 17 4 -1.5559 0.0171
10 17 5 -0.2331 -0.0383
10 17 6 -1.2767 -0.1014
10 18 0 0.4617 0.5400
10 18 1 -3.4911 0.0901
10 18 2 -1.0599 0.7358
10 18 3 -4.9344 -0.1677
10 18 4 -3.3878 0.3783
10 18 5 1.1237 0.3438
10 18 6 0.8115 -0.9919
10 19 0 -0.5561 0.0503
10 19 1 -6.2646 -0.3156
10 19 2 -0.3465 0.4390
10 19 3 -7.0639 0.2859
10 19 4 1.7363 -0.1248
10 19 5 3.3807 0.0543
10 20 0 -0.6620 0.7574
10 20 1 0.7629 -0.3493
10 20 2 -0.3036 0.9002
10 20 3 3.3930 -0.0274
10 20 4 -0.4609 0.8752
10 20 5 1.4409 0.2112
10 21 0 -1.1031 -0.1342
10 21 1 0.1000 -0.3045
10 21 2 -0.4646 -0.3538
10 21 3 0.5641 0.0113
10 21 4 -1.5020 -0.1263
10 22 0 3.2935 0.6669
10 22 1 2.7024 -0.4891
10 22 2 1.7167 0.5354
10 22 3 -1.4794 0.4067
10 22 4 -1.1872 -1.4944
10 23 0 0.7132 0.1215
10 23 1 -0.9154 -0.4132
10 23 2 -0.6298 -0.2480
10 23 3 -3.3181 -0.1807
10 24 0 -1.9959 -0.3456
10 24 1 1.4122 0.3278
10 24 2 0.7169 -1.7799
10 24 3 1.5828 -0.2440
10 25 0 1.7263 -0.4735
10 25 1 -1.4045 0.2147
10 25 2 0.2742 -0.2464
10 26 0 -2.8147 -0.6684
11 0 2 -5.8859 -0.1292
11 0 4 -1.4425 -0.1685
11 0 6 1.6359 -0.1824
11 1 1 -10.7528 -6.5726
11 1 2 6.1111 -0.1451
11 1 3 4.2865 -7.3689
11 1 4 -0.4330 0.1459
11 1 5 2.3053 -5.9655
11 1 6 -1.0061 0.4265
11 1 7 0.0901 -4.3654
11 2 1 -19.2419 -0.1025
11 2 2 -1.6370 -0.0199
11 2 3 -4.1064 0.0249
11 2 4 0.2385 0.0255
11 2 5 -0.7742 0.0813
11 2 6 0.1996 -0.1214
11 2 7 0.8163 0.2470
11 3 1 -2.9020 3.1985
11 3 2 9.3629 0.3677
11 3 3 7.1363 3.4527
11 3 4 -0.8278 -0.3375
11 3 5 2.5452 2.9938
11 3 6 -0.7447 -0.2750
11 3 7 -0.2987 2.0760
11 4 1 -8.5677 0.0331
11 4 2 -2.4110 -0.0285
11 4 3 -0.0879 0.2033
11 4 4 2.0714 -0.0084
11 4 5 -1.4587 0.2935
11 4 6 0.1557 0.1674
11 4 7 1.2636 0.0604
11 5 1 -10.0252 0.6917
11 5 2 8.6224 0.2295
11 5 3 -0.7450 1.1199
11 5 4 -0.5875 -0.1646
11 5 5 0.9487 1.0099
11 5 6 0.8088 -0.1847
11 5 7 -1.1522 0.3786
11 6 1 -27.1221 0.1112
11 6 2 6.2020 -0.0212
11 6 3 -8.5835 0.0566
11 6 4 4.1350 -0.0902
11 6 5 -0.3455 0.0513
11 6 6 -0.4922 0.1816
11 6 7 -0.0852 -0.2595
11 7 1 -2.0313 0.8631
11 7 2 11.4272 -0.2018
11 7 3 2.2872 1.0475
11 7 4 2.1991 0.2625
11 7 5 -0.5384 0.8129
11 7 6 -1.3257 0.3371
11 7 7 -2.0329 0.4818
11 8 1 -11.4020 0.2826
11 8 2 2.8699 0.1781
11 8 3 -1.6440 0.3033
11 8 4 2.3139 -0.1644
11 8 5 0.4209 0.1831
11 8 6 -0.8674 -0.3117
11 8 7 -1.4076 0.2344
11 9 1 1.2096 1.0332
11 9 2 5.1779 -0.0849
11 9 3 -3.6948 0.8630
11 9 4 -0.9730 0.2973
11 9 5 -0.8767 0.7548
11 9 6 -0.7606 0.3547
11 9 7 -0.8768 0.6798
11 10 1 -9.9999 -0.0836
11 10 2 10.6551 0.1946
11 10 3 -2.2140 -0.0756
11 10 4 4.1381 0.0421
11 10 5 1.2830 -0.2557
11 10 6 2.9478 -0.1974
11 10 7 -3.4428 0.0966
11 11 1 -1.2205 0.7152
11 11 2 6.7300 -0.0308
11 11 3 -0.5990 0.5422
11 11 4 3.9740 0.1440
11 11 5 -3.4696 0.5078
11 11 6 0.4000 -0.1381
11 11 7 0.3693 0.4591
11 12 1 -2.1777 -0.0078
11 12 2 4.6590 -0.0782
11 12 3 -1.0512 -0.1663
11 12 4 4.2108 0.1352
11 12 5 -0.6764 -0.0812
11 12 6 -1.9907 -0.0757
11 12 7 2.6832 -0.4069
11 13 1 6.5884 1.1527
11 13 2 -0.8370 0.1564
11 13 3 -1.3405 1.1582
11 13 4 3.7154 -0.1815
11 13 5 0.7363 1.1647
11 13 6 -0.6506 -0.1384
11 13 7 0.0128 0.2136
11 14 1 1.1047 -0.0805
11 14 2 1.8047 0.0123
11 14 3 2.5331 -0.0748
11 14 4 7.3625 -0.3095
11 14 5 -0.1397 0.0132
11 14 6 4.3278 -0.1106
11 15 1 -0.3994 0.8169
11 15 2 2.1446 0.2416
11 15 3 -0.7692 0.9328
11 15 4 1.7018 -0.1557
11 15 5 -3.0605 0.5031
11 15 6 -0.9305 -0.0606
11 16 1 2.2290 -0.0291
11 16 2 0.5935 0.0031
11 16 3 0.4740 0.2318
11 16 4 4.7743 -0.3723
11 16 5 0.2412 0.1745
11 16 6 -1.1510 -0.0917
11 17 1 4.0415 1.0657
11 17 2 -6.3526 0.1338
11 17 3 1.2428 1.3578
11 17 4 -0.6302 0.0009
11 17 5 0.8725 1.3101
11 17 6 2.0108 0.0210
11 18 1 5.1322 -0.0585
11 18 2 -0.2696 0.0501
11 18 3 1.8553 -0.1251
11 18 4 7.1305 0.2133
11 18 5 0.9195 -0.1454
11 19 1 -0.0036 0.9322
11 19 2 -5.3190 -0.2442
11 19 3 -0.4298 1.3629
11 19 4 0.2536 0.1738
11 19 5 1.0462 0.6014
11 20 1 5.0556 0.2569
11 20 2 1.5448 0.1249
11 20 3 0.8713 -0.1720
11 20 4 -1.3065 0.0975
11 20 5 1.0110 -0.3589
11 21 1 1.5858 0.8510
11 21 2 -2.8555 -0.1653
11 21 3 1.3370 0.5596
11 21 4 2.6234 0.3985
11 22 1 3.6366 -0.0510
11 22 2 -0.6299 -0.1829
11 22 3 -2.9452 -0.0236
11 22 4 1.5292 -0.2493
11 23 1 1.3494 0.6598
11 23 2 1.6463 0.3919
11 23 3 -2.8377 -1.2958
11 24 1 0.0865 -0.5255
11 24 2 -0.1196 -0.1035
11 25 1 -1.8155 -0.8566
11 25 2 1.0560 -0.2112
12 0 0 -34.7803 -0.2197
12 0 2 -23.7720 -5.3674
12 0 4 -10.8053 -4.7094
12 0 6 -1.7945 -3.6635
12 1 0 -18.5745 0.2186
12 1 1 -5.4863 -0.1453
12 1 2 -4.4277 -0.1668
12 1 3 -6.6076 -0.2948
12 1 4 -1.2946 -0.0275
12 1 5 0.1417 -0.1359
12 1 6 1.3225 -0.1456
12 1 7 0.9742 -0.4301
12 2 0 -26.9032 -0.3084
12 2 1 0.2966 0.0409
12 2 2 -10.9974 -1.4215
12 2 3 0.8151 -0.0976
12 2 4 -5.3980 -1.0449
12 2 5 -0.6251 -0.0429
12 2 6 -1.4935 -0.9055
12 2 7 -0.4151 0.0316
12 3 0 -3.9588 -0.0659
12 3 1 -4.1337 0.2613
12 3 2 2.5200 0.0379
12 3 3 -4.9284 0.0893
12 3 4 4.9676 -0.0382
12 3 5 2.4766 0.0309
12 3 6 0.1405 -0.0310
12 3 7 2.0255 0.0625
12 4 0 -15.8253 -0.2435
12 4 1 -7.9976 1.2833
12 4 2 -10.5515 0.5653
12 4 3 -3.7398 -0.2476
12 4 4 -6.3267 0.8237
12 4 5 3.0588 -0.2018
12 4 6 -1.1755 0.5827
12 4 7 -1.0262 -0.6850
12 5 0 -19.7533 0.0213
12 5 1 -1.8189 -0.1759
12 5 2 5.0441 0.2123
12 5 3 -1.3935 0.0590
12 5 4 3.1362 0.2852
12 5 5 2.0001 0.1328
12 5 6 2.6057 0.2275
12 5 7 -0.0456 0.2159
12 6 0 -15.7827 -0.6310
12 6 1 -3.0866 0.0383
12 6 2 -5.1557 0.0919
12 6 3 0.6363 -0.0076
12 6 4 -1.8054 0.2795
12 6 5 2.8199 -0.0751
12 6 6 -0.6810 0.1471
12 6 7 2.1330 0.1046
12 7 0 -12.7641 0.0105
12 7 1 2.4300 -0.0571
12 7 2 -0.3244 -0.0224
12 7 3 0.1276 -0.0253
12 7 4 4.9645 -0.1556
12 7 5 0.7744 0.0460
12 7 6 2.1918 -0.2538
12 7 7 -0.8771 -0.1044
12 8 0 5.2449 -1.2772
12 8 1 -6.5942 -0.8070
12 8 2 3.1965 -1.6927
12 8 3 -0.1202 0.0702
12 8 4 4.0095 -1.5784
12 8 5 2.8115 0.2484
12 8 6 0.8305 -1.0176
12 8 7 -0.0564 0.5523
12 9 0 -10.3577 0.1229
12 9 1 1.5291 0.3095
12 9 2 6.2949 0.2717
12 9 3 -0.5946 0.0703
12 9 4 6.3909 0.2495
12 9 5 0.7305 -0.0664
12 9 6 -0.4583 0.3414
12 9 7 -0.3978 -0.0546
12 10 0 -2.2886 -0.6213
12 10 1 2.6526 -0.1701
12 10 2 1.9211 -0.3992
12 10 3 -2.2680 0.0081
12 10 4 2.3346 0.0556
12 10 5 0.5071 -0.0022
12 10 6 2.4594 -0.0029
12 10 7 2.0031 -0.0690
12 11 0 -6.2641 -0.0501
12 11 1 4.8695 0.0453
12 11 2 -0.6707 0.0578
12 11 3 3.0922 0.1932
12 11 4 1.9389 -0.0222
12 11 5 3.6042 0.0782
12 11 6 0.2198 -0.0275
12 11 7 -1.4077 0.1237
12 12 0 6.6583 -0.6638
12 12 1 -2.3772 0.0048
12 12 2 5.8027 -0.5347
12 12 3 -1.9354 -0.0696
12 12 4 5.4682 -0.2875
12 12 5 1.8941 -0.0339
12 12 6 2.7782 -0.4707
12 12 7 0.4579 -0.1444
12 13 0 -2.9272 0.0753
12 13 1 -2.0611 -0.1068
12 13 2 0.8952 -0.0847
12 13 3 2.1307 -0.0397
12 13 4 3.0665 -0.0089
12 13 5 3.8314 -0.0101
12 13 6 -1.9626 -0.0498
12 14 0 3.0936 -0.6406
12 14 1 1.0927 0.1327
12 14 2 1.7355 -0.5860
12 14 3 -1.4557 -0.0236
12 14 4 4.2762 -0.4399
12 14 5 -2.1404 -0.0856
12 14 6 1.3917 0.2080
12 15 0 -1.7491 -0.0140
12 15 1 3.5067 0.2639
12 15 2 -1.1973 -0.0632
12 15 3 -1.6437 -0.2533
12 15 4 0.9040 0.2445
12 15 5 4.4251 0.0535
12 15 6 2.1344 0.2899
12 16 0 1.8679 -0.4309
12 16 1 5.7608 0.3299
12 16 2 0.9436 -0.2629
12 16 3 1.9435 0.1082
12 16 4 2.6770 0.1690
12 16 5 0.1613 -0.1163
12 16 6 0.9193 0.2858
12 17 0 -1.7263 -0.1230
12 17 1 1.7897 0.2510
12 17 2 -1.8129 -0.1743
12 17 3 3.6039 0.1482
12 17 4 0.2928 -0.2562
12 17 5 -1.3012 0.0329
12 17 6 -0.0538 -0.3896
12 18 0 1.7329 -0.8731
12 18 1 -1.8842 0.1345
12 18 2 0.6649 -0.1880
12 18 3 -2.6210 -0.1346
12 18 4 3.8268 -0.3302
12 18 5 -0.6628 0.2171
12 19 0 0.2585 0.0605
12 19 1 3.4389 -0.1585
12 19 2 -0.0352 0.2348
12 19 3 0.8877 0.6094
12 19 4 -0.3965 -0.2370
12 19 5 -1.7046 -0.1687
12 20 0 -3.8665 -0.6000
12 20 1 -0.9763 -0.3005
12 20 2 -0.4746 0.2649
12 20 3 3.5488 0.0326
12 20 4 0.8976 0.6117
12 20 5 -0.8828 0.0345
12 21 0 -0.1760 0.0465
12 21 1 5.2565 -0.0505
12 21 2 -0.7373 -0.2323
12 21 3 5.3385 -0.0848
12 21 4 -2.4242 -0.2771
12 22 0 1.6451 -0.0233
12 22 1 -1.5296 -0.2939
12 22 2 -0.5703 -0.3981
12 22 3 -3.3982 0.4042
12 22 4 -2.4260 -1.1062
12 23 0 -1.9969 0.0676
12 23 1 0.0494 -0.1365
12 23 2 -0.2457 -0.2301
12 23 3 0.2061 -0.2932
12 24 0 -0.5036 -0.8578
12 24 1 -0.7799 0.5023
12 24 2 -2.0477 -2.0837
12 25 0 -1.3745 -0.4476
12 25 1 -0.9223 0.2961
13 0 2 0.8865 -0.1606
13 0 4 -0.1693 -0.2017
13 0 6 -2.1495 -0.2093
13 1 1 8.5598 -6.5766
13 1 2 -2.1111 -0.4039
13 1 3 -3.1603 -7.5571
13 1 4 1.2161 0.2943
13 1 5 -0.3719 -6.1164
13 1 6 -0.7855 0.1393
13 1 7 1.9695 -4.3881
13 2 1 5.5359 -0.1428
13 2 2 1.6270 -0.0625
13 2 3 -0.1748 -0.1014
13 2 4 0.5659 -0.0046
13 2 5 0.4112 -0.1436
13 2 6 -0.8058 -0.0542
13 2 7 -4.1406 0.1093
13 3 1 14.0889 2.4423
13 3 2 -8.3562 0.2494
13 3 3 0.9761 2.8591
13 3 4 1.3130 -0.2129
13 3 5 -1.6134 2.3009
13 3 6 0.0290 -0.3410
13 3 7 2.7318 1.4857
13 4 1 19.7330 0.2151
13 4 2 -4.4553 0.0896
13 4 3 5.5226 0.1592
13 4 4 -1.4856 0.0893
13 4 5 0.5876 0.0335
13 4 6 1.1075 0.1566
13 4 7 -3.6100 -0.0045
13 5 1 -2.8528 -0.7333
13 5 2 -10.9139 0.3072
13 5 3 -5.5040 -0.3249
13 5 4 3.0612 -0.2373
13 5 5 -1.9922 -0.2627
13 5 6 -0.1931 -0.2441
13 5 7 0.6199 -0.1971
13 6 1 12.3785 -0.1982
13 6 2 0.5101 -0.1346
13 6 3 1.4531 -0.1781
13 6 4 -1.0355 0.0619
13 6 5 1.4112 -0.1509
13 6 6 -0.6328 0.1626
13 6 7 0.1385 -0.1636
13 7 1 -0.2103 -1.1343
13 7 2 -6.6968 -0.1463
13 7 3 1.6212 -0.9856
13 7 4 2.6468 0.0470
13 7 5 -1.4498 -0.9075
13 7 6 -1.4773 0.1984
13 7 7 1.3505 -0.3709
13 8 1 13.4276 -0.0091
13 8 2 -9.2398 -0.0572
13 8 3 4.2973 -0.0054
13 8 4 -4.6173 -0.0487
13 8 5 -0.9518 -0.0109
13 8 6 -1.5346 -0.2549
13 8 7 2.4377 0.1133
13 9 1 -5.9271 -1.0302
13 9 2 -4.3464 -0.2021
13 9 3 -1.4407 -1.1859
13 9 4 -0.7006 0.0543
13 9 5 0.6441 -0.9669
13 9 6 0.1322 0.1369
13 9 7 0.0793 -0.7000
13 10 1 5.0275 -0.1685
13 10 2 -3.0030 0.0666
13 10 3 0.5113 0.0123
13 10 4 -1.0909 0.0612
13 10 5 -0.5549 0.0130
13 10 6 -0.0447 -0.0544
13 10 7 -2.4431 0.1757
13 11 1 -11.1058 -1.1952
13 11 2 -4.2005 -0.0831
13 11 3 0.2170 -0.9698
13 11 4 -0.5268 -0.0356
13 11 5 -0.5257 -0.8923
13 11 6 0.6925 -0.3053
13 11 7 0.9082 -1.3182
13 12 1 0.9753 0.1344
13 12 2 -6.6176 -0.0814
13 12 3 0.7117 0.0435
13 12 4 -3.1592 0.1475
13 12 5 -3.0055 0.2587
13 12 6 -4.0341 0.1569
13 13 1 -4.3854 -0.5968
13 13 2 -2.0337 0.0205
13 13 3 -0.4889 -0.3045
13 13 4 0.4418 -0.1286
13 13 5 1.8433 -0.0938
13 13 6 0.9601 -0.0026
13 14 1 -1.1384 0.0295
13 14 2 0.5470 -0.0507
13 14 3 -0.5837 -0.0203
13 14 4 -2.0816 -0.2391
13 14 5 -0.9042 0.0567
13 14 6 0.5679 0.3938
13 15 1 -9.1462 -1.1552
13 15 2 6.3175 0.0369
13 15 3 -3.0048 -0.9164
13 15 4 -0.7490 0.0043
13 15 5 -0.8839 -0.6486
13 15 6 -2.7866 0.0320
13 16 1 -2.2788 0.0416
13 16 2 2.3256 -0.1812
13 16 3 -1.7068 0.2205
13 16 4 -6.2020 -0.0277
13 16 5 0.7774 0.1642
13 16 6 -1.0043 -0.0028
13 17 1 -1.5010 -0.8088
13 17 2 5.1135 0.0693
13 17 3 -1.1998 -0.5385
13 17 4 0.1800 -0.0155
13 17 5 1.0727 0.2982
13 17 6 -0.0707 -0.0034
13 18 1 -3.6835 0.2040
13 18 2 0.8050 -0.0542
13 18 3 -0.9496 -0.0521
13 18 4 -0.1514 0.3516
13 18 5 -2.0727 -0.3257
13 19 1 -2.7247 -0.4671
13 19 2 5.0587 -0.2433
13 19 3 -0.9675 -0.0123
13 19 4 -2.3646 0.1481
13 19 5 -0.5876 -0.6751
13 20 1 -1.9640 0.1719
13 20 2 5.6628 0.3686
13 20 3 0.2912 -0.0460
13 20 4 -2.1289 -0.2256
13 20 5 -3.3126 -0.0448
13 21 1 0.1174 -0.1922
13 21 2 2.7618 0.0894
13 21 3 0.4280 -0.2834
13 21 4 1.6755 0.1618
13 22 1 -1.0742 -0.2416
13 22 2 4.7600 -0.4950
13 22 3 0.7150 -0.4306
13 22 4 0.7431 -0.0267
13 23 1 1.6249 -1.5900
13 23 2 1.3631 0.2692
13 23 3 -1.0196 -0.9546
13 24 1 -0.1637 -0.5465
13 24 2 4.3827 -0.1533
13 25 1 -0.0709 -1.6287
14 0 0 17.6529 -0.8354
14 0 2 5.9962 -5.1094
14 0 4 2.3094 -4.4045
14 0 6 0.0327 -3.4620
14 1 0 -3.2790 0.0358
14 1 1 4.1172 0.0059
14 1 2 -2.5940 -0.1832
14 1 3 5.1829 -0.4941
14 1 4 -4.5391 -0.1953
14 1 5 -2.6800 -0.1762
14 1 6 0.2831 -0.0231
14 1 7 -1.6883 -0.3882
14 2 0 21.8486 -0.2487
14 2 1 2.1448 0.0143
14 2 2 13.1928 -0.7243
14 2 3 2.8757 -0.0518
14 2 4 5.7428 -0.5966
14 2 5 -2.1568 -0.0265
14 2 6 1.2647 -0.6801
14 2 7 1.1401 -0.0394
14 3 0 9.3216 -0.1193
14 3 1 2.3473 0.5367
14 3 2 -5.1352 0.0303
14 3 3 2.2608 0.0293
14 3 4 -2.8665 -0.2213
14 3 5 -1.6035 -0.0185
14 3 6 -5.1575 -0.1140
14 3 7 -0.2734 0.1970
14 4 0 15.4195 0.1442
14 4 1 1.4428 1.1573
14 4 2 5.0329 1.6032
14 4 3 -0.4212 -0.1680
14 4 4 1.9907 1.4353
14 4 5 -1.9255 -0.2783
14 4 6 0.7577 1.2117
14 4 7 -1.0173 -0.5775
14 5 0 3.8023 0.0176
14 5 1 0.4176 0.2098
14 5 2 -4.6746 0.2494
14 5 3 2.7427 0.0107
14 5 4 -8.7148 0.1075
14 5 5 -2.7250 -0.0276
14 5 6 -2.3204 0.1699
14 5 7 -1.6877 0.1105
14 6 0 -0.0411 -0.0286
14 6 1 5.0354 0.1050
14 6 2 0.5218 0.7219
14 6 3 2.9554 0.1073
14 6 4 -0.7522 0.6127
14 6 5 -2.4678 -0.1634
14 6 6 -0.5235 0.5883
14 6 7 -0.9100 0.2373
14 7 0 7.6981 -0.0741
14 7 1 -0.4778 0.0056
14 7 2 -10.6779 -0.1920
14 7 3 0.9370 -0.1689
14 7 4 -7.6554 -0.3214
14 7 5 -0.1681 -0.0849
14 7 6 -1.5649 -0.2776
14 7 7 1.4713 -0.0449
14 8 0 5.4720 -0.6083
14 8 1 0.0549 -0.7668
14 8 2 3.6032 -1.5718
14 8 3 1.0971 0.0839
14 8 4 -0.5273 -1.6504
14 8 5 -3.2348 0.3027
14 8 6 -1.2114 -1.2684
14 8 7 -3.6159 0.4963
14 9 0 3.3242 0.0746
14 9 1 -3.8277 0.3093
14 9 2 -4.8079 -0.3734
14 9 3 -1.8693 -0.1183
14 9 4 -6.1892 -0.1467
14 9 5 -1.1146 -0.0736
14 9 6 -2.9008 -0.0329
14 9 7 4.7700 -0.2074
14 10 0 -8.4545 0.0893
14 10 1 5.0934 -0.0064
14 10 2 -4.3779 -0.4028
14 10 3 1.0440 -0.1004
14 10 4 -4.6948 -0.2024
14 10 5 -1.1257 0.0376
14 10 6 -2.1601 -0.4279
14 10 7 -2.1572 -0.2247
14 11 0 3.4207 -0.1975
14 11 1 -1.5955 0.1947
14 11 2 -4.4428 -0.2286
14 11 3 -0.2782 0.1046
14 11 4 -4.6042 -0.0721
14 11 5 0.1575 0.0212
14 11 6 -0.2543 -0.1399
14 12 0 -1.0064 -0.2905
14 12 1 -4.0915 0.2517
14 12 2 0.7390 -0.5588
14 12 3 1.6143 -0.1077
14 12 4 -2.2078 -0.6675
14 12 5 0.8818 -0.1113
14 12 6 -1.7400 -0.5277
14 13 0 3.7625 -0.0942
14 13 1 -3.8412 -0.0317
14 13 2 -0.4236 0.0471
14 13 3 -1.2207 0.0001
14 13 4 -1.9159 0.0507
14 13 5 -8.6469 0.0538
14 13 6 -2.4985 0.2045
14 14 0 -2.0401 -0.3834
14 14 1 -0.3628 0.0148
14 14 2 -2.2132 -0.5669
14 14 3 3.3684 -0.0027
14 14 4 -2.0641 -0.3910
14 14 5 -0.1258 -0.1195
14 14 6 -2.2643 0.4045
14 15 0 4.8850 0.0607
14 15 1 4.6738 0.2829
14 15 2 -0.2909 0.3536
14 15 3 -3.9392 -0.2632
14 15 4 0.1736 0.4184
14 15 5 -3.0142 -0.1077
14 15 6 1.2931 0.2448
14 16 0 -1.8499 -0.1783
14 16 1 -0.1686 0.1074
14 16 2 -0.4509 -0.3773
14 16 3 0.3028 0.0486
14 16 4 -2.2533 0.0108
14 16 5 -0.7157 -0.0200
14 16 6 -0.8471 -0.2773
14 17 0 1.6857 0.1302
14 17 1 -3.5342 0.4112
14 17 2 1.4466 0.2457
14 17 3 -3.8857 0.0217
14 17 4 1.6693 -0.0402
14 17 5 -2.2477 -0.0732
14 18 0 1.4522 -0.3435
14 18 1 -3.4210 -0.0045
14 18 2 1.6559 -0.5614
14 18 3 -2.7574 -0.1094
14 18 4 0.0765 -0.6180
14 18 5 -1.2909 0.2890
14 19 0 1.8911 0.0442
14 19 1 -3.5365 0.1295
14 19 2 2.6090 0.0810
14 19 3 -5.3516 0.3438
14 19 4 0.9321 -0.0042
14 19 5 1.7646 -0.2471
14 20 0 -1.1566 0.1553
14 20 1 0.9074 -0.3800
14 20 2 0.2374 0.1182
14 20 3 2.6381 0.1230
14 20 4 0.4534 -0.4457
14 21 0 2.2370 0.1091
14 21 1 -0.7252 -0.0051
14 21 2 0.3777 -0.3096
14 21 3 -3.5989 -0.2234
14 21 4 0.5883 -0.3793
14 22 0 4.0654 0.3084
14 22 1 1.4597 -0.2303
14 22 2 0.9387 -0.4527
14 22 3 1.9707 0.1741
14 22 4 -0.0456 -1.2963
14 23 0 0.6519 -0.1818
14 23 1 -1.9425 -0.0391
14 23 2 1.3565 -0.3973
14 23 3 -3.0372 -0.1712
14 24 0 -1.2207 -1.4982
14 24 1 0.8255 0.3940
14 24 2 -0.7537 -0.9020
14 25 0 -1.1993 -0.0449
14 25 1 1.2380 0.3242
15 0 2 0.5770 -0.1191
15 0 4 -0.3869 -0.2141
15 0 6 -0.9734 -0.1628
15 1 1 -14.1443 -6.3887
15 1 2 4.2985 -0.1211
15 1 3 -1.0199 -7.3162
15 1 4 0.2171 -0.0006
15 1 5 -0.8054 -5.8977
15 1 6 0.6787 0.2098
15 1 7 -5.1942 -3.9972
15 2 1 -5.8064 0.0158
15 2 2 2.2831 -0.1924
15 2 3 -1.7716 0.1159
15 2 4 -0.0825 -0.1346
15 2 5 0.5791 0.0063
15 2 6 0.8588 0.0388
15 2 7 3.3920 0.1292
15 3 1 -2.2051 2.8235
15 3 2 8.1161 0.2993
15 3 3 3.5768 3.0839
15 3 4 -2.7446 -0.4064
15 3 5 0.5039 2.4696
15 3 6 2.4852 -0.3264
15 3 7 -0.8647 1.7119
15 4 1 -7.8565 0.4190
15 4 2 0.1979 0.1341
15 4 3 0.0581 0.3650
15 4 4 1.0090 0.0967
15 4 5 -0.3139 0.2461
15 4 6 -0.1649 0.0724
15 4 7 3.3361 0.2896
15 5 1 -5.3492 0.1732
15 5 2 7.9188 0.2773
15 5 3 -2.7696 0.4297
15 5 4 -1.9346 -0.2406
15 5 5 3.3543 0.3732
15 5 6 2.9045 -0.3299
15 5 7 -1.7526 0.3744
15 6 1 -8.6982 0.0805
15 6 2 6.1337 -0.0440
15 6 3 -1.7067 0.0748
15 6 4 1.8734 0.1336
15 6 5 0.0481 0.0656
15 6 6 -0.9237 0.0581
15 6 7 2.1797 0.0683
15 7 1 7.9861 -0.3943
15 7 2 6.5987 -0.1468
15 7 3 3.7229 -0.4547
15 7 4 -3.4573 0.2097
15 7 5 2.3191 -0.6385
15 7 6 3.3744 0.2113
15 7 7 0.8812 -0.1496
15 8 1 -6.8449 0.1008
15 8 2 -0.2119 -0.1034
15 8 3 0.6818 -0.1728
15 8 4 -0.6017 0.0042
15 8 5 -1.1250 -0.2762
15 8 6 2.7757 -0.0904
15 8 7 1.0919 -0.1291
15 9 1 9.7122 -0.3665
15 9 2 7.8733 -0.3015
15 9 3 0.2430 -0.6735
15 9 4 -1.1761 0.2286
15 9 5 2.5450 -0.7680
15 9 6 0.7589 0.2055
15 9 7 -1.2241 -0.1354
15 10 1 -2.3976 -0.4824
15 10 2 4.5522 0.0608
15 10 3 -1.2290 -0.5128
15 10 4 2.6044 0.1055
15 10 5 2.6458 -0.2352
15 10 6 2.6277 0.0733
15 10 7 -1.5707 -0.2441
15 11 1 8.9617 -0.6437
15 11 2 1.4366 -0.0347
15 11 3 1.1374 -0.7295
15 11 4 -2.7722 -0.0515
15 11 5 0.8424 -0.5499
15 11 6 -0.6065 -0.1789
15 12 1 1.4733 -0.2176
15 12 2 0.1262 -0.0087
15 12 3 1.3480 -0.1621
15 12 4 -0.0093 0.1696
15 12 5 0.3564 0.1356
15 12 6 1.1737 0.1401
15 13 1 14.1209 0.0846
15 13 2 1.3360 0.0997
15 13 3 2.3019 -0.1322
15 13 4 -0.2832 -0.2268
15 13 5 0.3057 0.1179
15 13 6 1.9710 0.0181
15 14 1 2.3869 0.1027
15 14 2 1.9331 -0.1113
15 14 3 -1.7714 0.3264
15 14 4 0.2088 -0.2081
15 14 5 1.4291 -0.0036
15 14 6 -0.5371 0.3965
15 15 1 5.2150 -0.4678
15 15 2 -1.7464 0.0993
15 15 3 0.7721 -0.7682
15 15 4 -1.8023 -0.0666
15 15 5 0.1606 -0.8283
15 15 6 0.0456 -0.0131
15 16 1 1.4676 0.2642
15 16 2 -0.0397 -0.1257
15 16 3 1.8102 0.4713
15 16 4 -0.4665 0.0690
15 16 5 2.8804 0.3100
15 16 6 1.1647 -0.1612
15 17 1 6.4681 -0.3634
15 17 2 -5.8818 0.0540
15 17 3 1.8988 -0.2378
15 17 4 0.1172 -0.0677
15 17 5 -0.0084 -0.6100
15 18 1 0.3154 0.1484
15 18 2 -5.0210 0.1377
15 18 3 1.1973 -0.0926
15 18 4 2.6092 0.4586
15 18 5 0.5920 -0.3393
15 19 1 1.0846 -0.1436
15 19 2 -5.1327 -0.2824
15 19 3 0.2872 -0.4021
15 19 4 -1.2394 0.2409
15 19 5 -0.1487 -1.0793
15 20 1 1.5340 -0.0833
15 20 2 -2.1650 0.4727
15 20 3 -1.2910 -0.2068
15 20 4 -0.6500 -0.1236
15 21 1 -0.1604 0.3933
15 21 2 -2.4833 0.0356
15 21 3 -0.6460 -1.4399
15 21 4 3.2656 0.0672
15 22 1 -0.4527 -0.4273
15 22 2 -5.7927 -0.5615
15 22 3 -3.1427 -0.5337
15 23 1 -0.5355 -1.1926
15 23 2 2.9003 -0.0265
15 23 3 -0.6240 -0.8256
15 24 1 -2.3628 -0.3044
15 24 2 -4.0802 0.0979
16 0 0 -8.8917 -0.0885
16 0 2 -6.0843 -4.6243
16 0 4 -2.3227 -3.9990
16 0 6 -1.7384 -3.1859
16 1 0 -1.3748 -0.1179
16 1 1 -4.3560 -0.3339
16 1 2 2.6478 -0.1976
16 1 3 -1.3723 -0.4498
16 1 4 -1.7587 0.0284
16 1 5 3.4977 -0.1981
16 1 6 3.9305 -0.0372
16 1 7 0.7818 -0.3238
16 2 0 -3.5164 0.2510
16 2 1 -0.6650 0.2244
16 2 2 0.1049 -0.5913
16 2 3 2.0835 -0.0674
16 2 4 0.8248 -0.5033
16 2 5 3.1807 -0.0578
16 2 6 -0.2015 -0.5470
16 2 7 -0.2648 -0.1208
16 3 0 -1.1200 -0.0327
16 3 1 -3.0327 0.0133
16 3 2 2.4455 0.0964
16 3 3 -2.6681 0.0576
16 3 4 8.2293 0.2045
16 3 5 4.6420 0.1251
16 3 6 1.7079 0.1090
16 3 7 2.7465 0.3838
16 4 0 0.6318 0.8060
16 4 1 -1.8679 1.1083
16 4 2 -1.3187 2.2221
16 4 3 -3.1558 -0.1544
16 4 4 -0.6399 1.8070
16 4 5 2.9026 -0.2605
16 4 6 0.2494 1.5053
16 4 7 -1.0510 -0.6883
16 5 0 -2.8178 0.0647
16 5 1 -2.5275 -0.0317
16 5 2 10.3340 0.3513
16 5 3 1.2567 0.1298
16 5 4 6.8578 0.3351
16 5 5 1.2484 0.1079
16 5 6 4.1774 0.3517
16 5 7 0.1380 -0.0565
16 6 0 -4.7041 0.6990
16 6 1 -0.7123 0.1749
16 6 2 -3.4852 1.6628
16 6 3 -2.1546 0.1608
16 6 4 0.2831 1.2872
16 6 5 3.5967 -0.0555
16 6 6 -0.1243 1.0114
16 6 7 3.1538 0.0080
16 7 0 1.0589 -0.0653
16 7 1 2.1995 -0.5220
16 7 2 8.4916 0.1545
16 7 3 0.2206 0.0135
16 7 4 10.4045 -0.0364
16 7 5 -0.5750 0.0363
16 7 6 3.7132 -0.0930
16 7 7 -1.9574 -0.0861
16 8 0 6.1948 0.1335
16 8 1 -4.5622 -0.8657
16 8 2 1.9936 -0.5607
16 8 3 -0.9493 0.1987
16 8 4 3.1649 -0.8878
16 8 5 -0.4719 0.3369
16 8 6 1.2329 -0.6528
16 8 7 3.8350 0.3418
16 9 0 -3.1463 0.1232
16 9 1 2.4085 -0.2664
16 9 2 7.0601 -0.1934
16 9 3 0.1522 0.0836
16 9 4 7.0347 -0.2202
16 9 5 -3.0252 -0.0933
16 9 6 1.1495 -0.2125
16 9 7 -2.3590 -0.1990
16 10 0 -1.2705 0.9730
16 10 1 1.1313 -0.1603
16 10 2 -5.0663 0.9466
16 10 3 -1.4948 -0.0535
16 10 4 1.3614 0.7643
16 10 5 0.5213 0.0851
16 10 6 0.0334 0.5944
16 11 0 -1.6889 -0.0285
16 11 1 3.8377 0.0859
16 11 2 4.3860 -0.3425
16 11 3 1.4693 0.1683
16 11 4 4.2924 -0.2346
16 11 5 4.9344 -0.1795
16 11 6 4.1381 -0.2653
16 12 0 4.7225 0.6711
16 12 1 -5.2794 0.3638
16 12 2 2.3735 0.6612
16 12 3 -5.1897 -0.0514
16 12 4 1.5247 0.2860
16 12 5 -1.8235 -0.1340
16 12 6 1.0363 0.1955
16 13 0 -3.4303 -0.0804
16 13 1 -0.0053 -0.1208
16 13 2 2.1550 -0.1877
16 13 3 2.9309 -0.2074
16 13 4 -0.5075 -0.0480
16 13 5 1.4903 0.1084
16 13 6 0.2631 0.1486
16 14 0 0.4384 0.6659
16 14 1 1.8203 0.1539
16 14 2 -2.3319 0.4442
16 14 3 -0.4611 0.0109
16 14 4 -0.0346 0.4973
16 14 5 1.4850 -0.1899
16 14 6 1.1633 -0.0576
16 15 0 -3.3124 0.0450
16 15 1 3.9470 -0.1889
16 15 2 -1.1835 0.2725
16 15 3 2.3613 -0.4766
16 15 4 0.5444 0.2980
16 15 5 7.1649 0.0784
16 15 6 1.1898 -0.0423
16 16 0 -2.6799 0.6787
16 16 1 2.6419 0.1246
16 16 2 -1.4948 0.7384
16 16 3 -0.8625 0.0015
16 16 4 0.1565 0.4083
16 16 5 0.6146 -0.0379
16 17 0 -5.2020 0.1080
16 17 1 -2.5945 -0.2626
16 17 2 -0.4505 0.3769
16 17 3 5.2283 0.1442
16 17 4 -1.1470 0.0888
16 17 5 3.7455 0.0914
16 18 0 0.2047 0.1745
16 18 1 0.6730 -0.0872
16 18 2 -0.3010 0.4330
16 18 3 -0.5539 -0.0599
16 18 4 -0.7641 0.2098
16 18 5 1.0103 0.1216
16 19 0 -2.7005 -0.1160
16 19 1 1.2044 -0.2521
16 19 2 -1.6965 0.0010
16 19 3 5.7519 0.3562
16 19 4 -2.3994 -0.1416
16 19 5 0.8818 -0.0626
16 20 0 -2.5985 0.5970
16 20 1 0.6701 -0.3610
16 20 2 -1.4979 0.6833
16 20 3 -3.2220 0.1546
16 20 4 -0.5450 0.3163
16 21 0 0.1902 0.0353
16 21 1 4.6736 -0.1795
16 21 2 -2.9735 -0.4152
16 21 3 5.3668 -0.3295
16 21 4 -0.9418 -0.3069
16 22 0 1.2879 0.6673
16 22 1 -0.8500 -0.0463
16 22 2 0.7405 -0.9636
16 22 3 -2.9991 -0.0668
16 23 0 -0.0477 -0.3959
16 23 1 -0.9632 -0.0416
16 23 2 -1.7286 -0.4784
16 23 3 -0.4821 -0.2487
16 24 0 -2.5052 -0.3415
16 24 1 1.6628 0.2416
16 24 2 -0.5516 -0.5277
17 0 2 -0.7946 -0.1268
17 0 4 0.7921 -0.1039
17 0 6 -0.3488 -0.3042
17 1 1 8.2031 -5.8346
17 1 2 -2.5536 -0.1740
17 1 3 -1.3106 -6.6028
17 1 4 0.6007 0.1555
17 1 5 2.2742 -5.3076
17 1 6 -0.8011 0.1547
17 1 7 3.3010 -3.7373
17 2 1 0.9321 -0.0849
17 2 2 -2.1402 -0.1058
17 2 3 -1.2067 -0.0536
17 2 4 -2.0271 -0.1290
17 2 5 -2.5385 -0.0774
17 2 6 2.8288 -0.0847
17 2 7 -3.3737 -0.1714
17 3 1 9.3354 3.1269
17 3 2 -7.9426 0.2165
17 3 3 2.7550 3.3588
17 3 4 0.4233 -0.2070
17 3 5 -0.4375 2.6988
17 3 6 -5.2203 -0.2656
17 3 7 3.7217 1.4967
17 4 1 -0.8751 0.2678
17 4 2 -5.5612 0.1931
17 4 3 -0.5854 0.3103
17 4 4 -0.0444 -0.0022
17 4 5 -2.4026 0.2996
17 4 6 0.2124 0.1650
17 4 7 -3.4072 0.4208
17 5 1 -2.5504 0.9677
17 5 2 -9.5418 0.3355
17 5 3 -3.5865 1.3986
17 5 4 0.7393 -0.0101
17 5 5 -0.7170 1.2752
17 5 6 -6.8536 -0.1919
17 5 7 -1.2747 0.7202
17 6 1 4.8070 -0.0195
17 6 2 0.1872 0.0650
17 6 3 -1.2946 0.0677
17 6 4 -0.8969 0.0228
17 6 5 1.6697 0.1854
17 6 6 -1.8150 0.1090
17 6 7 0.0370 0.0797
17 7 1 -4.5985 0.3658
17 7 2 -8.0416 -0.0425
17 7 3 0.9523 0.2382
17 7 4 -0.4930 0.2460
17 7 5 -3.1935 0.3265
17 7 6 -2.5078 0.3612
17 7 7 0.5615 0.2476
17 8 1 -0.3072 0.2876
17 8 2 -0.4917 -0.1755
17 8 3 -1.5844 0.2428
17 8 4 -2.1149 -0.0092
17 8 5 0.0302 -0.1189
17 8 6 -0.4521 -0.1649
17 8 7 0.8351 -0.1139
17 9 1 -9.7194 0.6955
17 9 2 -5.0945 -0.2441
17 9 3 -2.6581 0.2967
17 9 4 3.7455 0.1660
17 9 5 -2.8562 0.3050
17 9 6 -4.1534 0.1921
17 9 7 -1.8614 0.0542
17 10 1 -1.3905 0.0194
17 10 2 0.8668 0.1663
17 10 3 -2.6739 -0.1353
17 10 4 0.5663 0.0363
17 10 5 1.4239 -0.1083
17 10 6 -3.6845 -0.2499
17 11 1 -11.8643 0.6493
17 11 2 -8.4440 0.0760
17 11 3 -1.2186 0.5333
17 11 4 -0.5911 -0.0917
17 11 5 -1.5292 0.5278
17 11 6 -1.0987 -0.0798
17 12 1 -2.6953 -0.0931
17 12 2 -0.1509 0.2941
17 12 3 2.4936 -0.1187
17 12 4 0.8754 -0.1432
17 12 5 -3.2358 0.0135
17 12 6 1.9872 -0.1480
17 13 1 -6.7365 1.3846
17 13 2 -2.2314 0.2025
17 13 3 -0.7991 1.4175
17 13 4 2.8298 -0.1503
17 13 5 -2.2148 1.0193
17 13 6 0.1820 -0.0960
17 14 1 -2.3668 -0.1821
17 14 2 0.1632 -0.1090
17 14 3 -0.9986 -0.0363
17 14 4 0.2945 -0.3231
17 14 5 -1.2256 -0.1787
17 14 6 -2.1659 0.2113
17 15 1 -11.0859 0.6900
17 15 2 0.9033 0.0959
17 15 3 -1.3508 0.4904
17 15 4 3.0444 0.0574
17 15 5 1.7782 0.4706
17 16 1 -0.3505 0.0424
17 16 2 0.9432 -0.1950
17 16 3 2.2034 0.1496
17 16 4 0.3125 0.1128
17 16 5 -0.4835 0.2998
17 17 1 -4.3456 0.7686
17 17 2 3.2101 -0.0379
17 17 3 0.7962 1.0237
17 17 4 1.1579 0.0566
17 17 5 -0.6993 0.6811
17 18 1 -0.5642 0.1868
17 18 2 -3.1319 0.2638
17 18 3 -0.4201 -0.0069
17 18 4 0.3998 0.2908
17 18 5 -2.1129 -0.3643
17 19 1 -2.2847 0.9802
17 19 2 2.5684 -0.1412
17 19 3 1.3245 0.7803
17 19 4 -1.8761 0.2456
17 20 1 0.1855 -0.0535
17 20 2 4.5415 0.2633
17 20 3 1.4653 -0.3178
17 20 4 0.4161 -0.3608
17 21 1 1.6514 0.9024
17 21 2 -1.5117 0.1714
17 21 3 1.1335 0.1112
17 21 4 -1.5034 -0.1407
17 22 1 1.3426 -0.6509
17 22 2 4.3357 -0.4399
17 22 3 2.4774 -0.4001
17 23 1 0.7927 -1.3259
17 23 2 0.3887 -0.0679
17 24 1 0.8757 0.2738
18 0 0 -8.2888 0.1203
18 0 2 -5.2719 -4.5556
18 0 4 -5.0607 -3.8134
18 0 6 -0.7235 -3.0856
18 1 0 1.9006 -0.0122
18 1 1 5.7840 -0.1655
18 1 2 1.4263 -0.0886
18 1 3 1.3413 -0.3384
18 1 4 -5.4408 -0.1293
18 1 5 -5.4351 -0.3152
18 1 6 -0.2126 -0.2018
18 1 7 -0.5840 -0.5142
18 2 0 -7.1709 -0.1062
18 2 1 -0.5441 0.2009
18 2 2 -3.3344 -1.0898
18 2 3 0.4175 -0.1895
18 2 4 -0.4948 -0.8328
18 2 5 -4.1561 0.0228
18 2 6 -0.3019 -0.9973
18 2 7 2.0393 -0.2022
18 3 0 0.1632 0.1241
18 3 1 4.5846 0.0173
18 3 2 -5.4786 0.2853
18 3 3 -2.3963 0.0643
18 3 4 -2.0946 0.2314
18 3 5 -3.4182 0.1647
18 3 6 -5.4006 0.2587
18 3 7 -2.7665 0.1980
18 4 0 -2.1134 0.2622
18 4 1 -0.3957 0.8585
18 4 2 -1.9705 1.5196
18 4 3 -1.1296 -0.1359
18 4 4 -1.9146 1.2322
18 4 5 -6.3793 -0.2244
18 4 6 -0.4318 1.0847
18 4 7 0.2375 -0.4694
18 5 0 -0.2211 -0.0061
18 5 1 -0.3489 0.1951
18 5 2 -4.5238 0.2672
18 5 3 -0.1372 0.2080
18 5 4 -9.1342 0.1505
18 5 5 0.3263 0.0915
18 5 6 -2.2852 0.2860
18 5 7 -2.3827 -0.1131
18 6 0 -6.4367 -0.0668
18 6 1 3.4360 0.1017
18 6 2 -2.8140 0.7388
18 6 3 0.6213 0.1769
18 6 4 -0.8612 0.8802
18 6 5 0.7045 -0.0066
18 6 6 -1.1708 0.8744
18 6 7 -0.8867 0.0872
18 7 0 2.5324 -0.0540
18 7 1 1.3227 -0.4111
18 7 2 -6.6884 0.0504
18 7 3 -1.3858 0.0611
18 7 4 -7.4060 0.0403
18 7 5 3.3792 0.0535
18 7 6 -0.0788 -0.0611
18 7 7 0.2102 0.1743
18 8 0 0.5823 -0.7136
18 8 1 -0.7801 -0.7605
18 8 2 3.8992 -1.6455
18 8 3 3.3205 0.1248
18 8 4 -1.6300 -1.1871
18 8 5 0.1737 0.1693
18 8 6 1.3485 -1.0708
18 8 7 -1.9330 0.4441
18 9 0 -1.7936 0.1386
18 9 1 -3.7656 -0.3611
18 9 2 -7.9803 0.0967
18 9 3 -2.3490 0.0036
18 9 4 -7.4715 0.1142
18 9 5 2.5299 0.0194
18 9 6 -4.1657 -0.0828
18 9 7 3.3040 0.1081
18 10 0 -4.5680 0.1174
18 10 1 5.2077 -0.0658
18 10 2 -0.8367 0.2737
18 10 3 2.2879 -0.2271
18 10 4 -1.5922 0.4384
18 10 5 2.3931 0.0331
18 10 6 -0.0944 0.0937
18 11 0 3.7626 0.1389
18 11 1 -4.3808 0.2190
18 11 2 -2.4859 0.0304
18 11 3 -1.8394 0.1545
18 11 4 -2.1418 0.1904
18 11 5 2.7292 -0.0733
18 11 6 -2.0150 0.0981
18 12 0 1.8058 -0.2651
18 12 1 0.7970 0.3540
18 12 2 5.9300 0.3983
18 12 3 0.4681 -0.0376
18 12 4 0.5431 0.2194
18 12 5 -1.1977 -0.1111
18 12 6 0.6443 0.6724
18 13 0 1.7340 -0.1494
18 13 1 -4.5440 0.0671
18 13 2 -0.6348 -0.0448
18 13 3 -0.5725 -0.0340
18 13 4 -2.5317 0.0541
18 13 5 -5.3789 0.1257
18 14 0 1.3555 -0.1832
18 14 1 2.5884 0.0463
18 14 2 0.5999 0.2922
18 14 3 4.9259 0.1453
18 14 4 0.2333 0.5001
18 14 5 1.9939 -0.0906
18 15 0 3.9093 -0.0147
18 15 1 0.7006 -0.1253
18 15 2 -0.1706 0.0921
18 15 3 -2.8916 -0.1786
18 15 4 3.0247 -0.1647
18 15 5 -5.1061 0.0937
18 16 0 0.0434 0.1273
18 16 1 -1.6284 -0.0235
18 16 2 2.0526 0.3565
18 16 3 0.8560 0.0559
18 16 4 2.2513 0.2540
18 16 5 -1.0253 0.0758
18 17 0 3.1982 0.0764
18 17 1 -3.4342 -0.1220
18 17 2 1.9672 0.0614
18 17 3 -3.3138 0.4053
18 17 4 0.1176 -0.0536
18 17 5 -3.2727 -0.0133
18 18 0 1.9580 -0.1829
18 18 1 -3.0545 -0.0639
18 18 2 1.5619 -0.1203
18 18 3 0.6502 -0.0448
18 18 4 -0.0438 0.0431
18 18 5 -1.3547 0.1265
18 19 0 1.4039 -0.0194
18 19 1 -2.6800 0.0200
18 19 2 0.9379 -0.2052
18 19 3 -5.7530 0.1958
18 19 4 0.7251 -0.4540
18 20 0 0.5721 0.0222
18 20 1 0.1354 -0.0784
18 20 2 0.6066 0.7499
18 20 3 2.2252 0.1034
18 20 4 -0.0412 -0.1435
18 21 0 1.2485 -0.0244
18 21 1 0.3454 -0.1922
18 21 2 1.4935 -0.4812
18 21 3 -0.4164 -0.2968
18 22 0 3.0589 -0.6101
18 22 1 -1.5599 0.1701
18 22 2 0.4602 0.2563
18 22 3 3.9911 -0.1797
18 23 0 0.1050 -0.3816
18 23 1 -3.4714 -0.2601
18 23 2 2.2213 -0.0088
18 24 0 -2.3126 -1.0155
19 0 2 2.9195 -0.0721
19 0 4 2.8443 -0.2896
19 0 6 -3.7966 -0.2496
19 1 1 -7.2620 -5.6831
19 1 2 3.7227 -0.1456
19 1 3 0.4013 -6.2503
19 1 4 -0.2579 0.1820
19 1 5 -2.1084 -5.1437
19 1 6 3.4524 0.2653
19 1 7 -3.0360 -3.5207
19 2 1 4.5983 -0.0379
19 2 2 3.0041 -0.0684
19 2 3 0.4964 -0.1010
19 2 4 -1.1109 -0.2075
19 2 5 3.6530 -0.1815
19 2 6 -0.0633 0.1221
19 2 7 0.2102 -0.2299
19 3 1 -2.2802 2.4193
19 3 2 7.9014 0.0840
19 3 3 3.1319 2.4962
19 3 4 2.4830 -0.2636
19 3 5 -2.6612 1.9561
19 3 6 3.6871 -0.2316
19 3 7 0.2984 1.0646
19 4 1 0.9833 0.1981
19 4 2 1.7720 0.1209
19 4 3 1.8672 0.3677
19 4 4 2.0020 0.0723
19 4 5 2.4202 0.1949
19 4 6 -0.6597 0.2689
19 4 7 0.1440 0.5257
19 5 1 0.5219 0.2891
19 5 2 8.5698 0.3361
19 5 3 -1.3048 0.6745
19 5 4 1.1492 -0.0504
19 5 5 0.7311 0.6760
19 5 6 5.8360 -0.2544
19 5 7 -1.3688 0.3119
19 6 1 6.3487 -0.1755
19 6 2 3.3496 0.1629
19 6 3 3.1000 -0.2153
19 6 4 1.4074 0.1150
19 6 5 1.7247 -0.2160
19 6 6 1.7525 -0.2017
19 6 7 -0.8603 -0.1435
19 7 1 4.5418 -0.6910
19 7 2 9.1565 -0.0577
19 7 3 3.2549 -0.5846
19 7 4 0.6849 0.1210
19 7 5 0.9331 -0.3671
19 7 6 8.4398 0.2774
19 7 7 1.3290 -0.1446
19 8 1 0.4005 -0.0427
19 8 2 -1.3377 -0.2567
19 8 3 2.7836 0.0097
19 8 4 0.4721 -0.0824
19 8 5 -3.5919 -0.2300
19 8 6 3.2687 -0.2487
19 8 7 -0.6673 -0.1838
19 9 1 6.3251 -0.5306
19 9 2 6.8608 -0.2837
19 9 3 0.5184 -0.5304
19 9 4 3.6924 0.0557
19 9 5 0.4091 -0.6007
19 9 6 -0.0685 0.0436
19 10 1 3.7919 -0.1350
19 10 2 -4.2306 -0.0046
19 10 3 0.1196 -0.1775
19 10 4 0.5131 -0.0891
19 10 5 1.9403 0.3236
19 10 6 -2.5937 0.0503
19 11 1 7.1434 -0.4396
19 11 2 5.4585 -0.0630
19 11 3 1.6078 -0.3230
19 11 4 -2.7123 -0.1144
19 11 5 1.9446 -0.0662
19 11 6 2.1779 -0.0115
19 12 1 4.0077 -0.0682
19 12 2 -0.8427 0.2572
19 12 3 -0.2339 0.1982
19 12 4 0.0546 -0.0895
19 12 5 -0.2729 0.3660
19 12 6 2.8904 0.0416
19 13 1 9.8066 0.3824
19 13 2 5.2678 0.1558
19 13 3 0.0960 0.6822
19 13 4 -1.2473 -0.0601
19 13 5 -1.0700 0.7168
19 14 1 0.0413 0.1642
19 14 2 -1.2138 -0.1798
19 14 3 -4.2390 0.1958
19 14 4 -1.3469 0.0052
19 14 5 2.8945 -0.1986
19 15 1 4.4811 -0.4256
19 15 2 2.3764 0.0987
19 15 3 -0.8405 -0.1380
19 15 4 -0.2008 0.0840
19 15 5 2.3314 0.3222
19 16 1 -0.2532 0.3241
19 16 2 2.8237 -0.2128
19 16 3 0.2592 0.0297
19 16 4 0.3346 0.1141
19 16 5 0.5135 0.0014
19 17 1 4.2289 -0.3313
19 17 2 -1.9199 -0.0734
19 17 3 -1.2424 0.4280
19 17 4 -2.5356 0.0731
19 17 5 -1.9581 -0.4193
19 18 1 -0.9162 0.2156
19 18 2 -3.0209 0.3675
19 18 3 -2.7809 -0.1072
19 18 4 0.3914 -0.1573
19 19 1 -0.2241 -0.0792
19 19 2 -1.3162 -0.1088
19 19 3 -1.8081 -0.1278
19 19 4 0.5713 0.2026
19 20 1 0.0986 -0.2594
19 20 2 0.6721 -0.1690
19 20 3 -2.1660 -0.3547
19 20 4 -0.3489 -0.3462
19 21 1 0.8577 0.0501
19 21 2 -0.4038 0.1866
19 21 3 -2.1190 -0.5677
19 22 1 -0.0976 -0.6779
19 22 2 0.0917 -0.3155
19 22 3 -2.7175 0.3335
19 23 1 -1.6040 -0.6712
19 23 2 3.1364 -0.0608
20 0 0 10.3846 -0.4041
20 0 2 7.7649 -4.2780
20 0 4 2.6676 -3.5088
20 0 6 2.9649 -2.8943
20 1 0 0.9680 -0.1034
20 1 1 -6.6008 0.1813
20 1 2 1.5105 -0.3692
20 1 3 0.5650 -0.3565
20 1 4 -2.0869 -0.3044
20 1 5 5.2353 -0.4029
20 1 6 1.6657 -0.4665
20 1 7 0.7347 -0.3546
20 2 0 8.8983 -0.4477
20 2 1 0.4769 0.1544
20 2 2 6.4110 -1.1203
20 2 3 3.5678 -0.2039
20 2 4 6.0321 -0.8375
20 2 5 5.5555 0.0839
20 2 6 2.8429 -0.5076
20 2 7 -3.2712 -0.3004
20 3 0 -2.9328 0.1545
20 3 1 -3.3647 0.2202
20 3 2 -1.3587 0.2590
20 3 3 -2.4693 -0.0898
20 3 4 4.8457 0.2298
20 3 5 0.8413 0.1827
20 3 6 1.9618 0.3522
20 3 7 0.9932 0.4800
20 4 0 10.4846 0.1694
20 4 1 -0.9002 0.8133
20 4 2 6.7909 1.3732
20 4 3 1.1503 -0.1128
20 4 4 0.7912 1.0259
20 4 5 3.6700 -0.3410
20 4 6 2.6242 0.9990
20 4 7 -2.3848 -0.2598
20 5 0 -1.8378 -0.0438
20 5 1 -2.6559 0.5279
20 5 2 2.2104 0.2176
20 5 3 0.1548 0.0647
20 5 4 4.5706 -0.0252
20 5 5 -1.2196 -0.0279
20 5 6 1.3130 0.1362
20 5 7 4.6022 -0.0776
20 6 0 2.9118 -0.2252
20 6 1 3.6561 0.0300
20 6 2 1.7692 0.4957
20 6 3 -1.2166 0.1991
20 6 4 2.1277 0.7353
20 6 5 1.8891 -0.0370
20 6 6 1.0427 0.5176
20 6 7 -0.2244 0.0708
20 7 0 0.1850 -0.0916
20 7 1 2.6344 0.0936
20 7 2 5.3584 -0.2967
20 7 3 3.2396 0.0153
20 7 4 6.0381 -0.3341
20 7 5 -7.5310 -0.1164
20 7 6 1.1048 -0.2736
20 7 7 1.4237 -0.0812
20 8 0 2.0288 -0.9908
20 8 1 -3.7170 -0.8294
20 8 2 0.9953 -2.0881
20 8 3 0.0891 0.0979
20 8 4 0.4443 -1.5623
20 8 5 -2.6857 0.1855
20 8 6 0.8730 -1.3493
20 8 7 2.4102 0.4717
20 9 0 -5.5132 -0.0867
20 9 1 1.1140 -0.1142
20 9 2 1.8442 -0.2159
20 9 3 0.5584 -0.1138
20 9 4 3.8253 -0.2596
20 9 5 -6.3473 -0.0369
20 9 6 -1.0928 -0.2455
20 10 0 -0.5775 -0.0817
20 10 1 -0.1221 -0.0564
20 10 2 -4.4903 -0.5423
20 10 3 -0.6306 -0.3066
20 10 4 -0.2282 -0.5372
20 10 5 -1.7564 0.1426
20 10 6 -3.0576 -0.3861
20 11 0 1.3234 0.0499
20 11 1 4.0281 0.4162
20 11 2 2.6438 -0.1445
20 11 3 2.4792 0.0229
20 11 4 4.0556 0.2015
20 11 5 -2.2388 -0.0100
20 11 6 3.9098 0.2277
20 12 0 1.6146 -0.4055
20 12 1 -3.9311 0.4632
20 12 2 -0.9409 -0.5749
20 12 3 -4.5503 -0.1101
20 12 4 -0.1576 -0.3781
20 12 5 -0.3511 -0.1312
20 12 6 -2.0830 -0.0820
20 13 0 -4.4581 -0.1762
20 13 1 4.1122 0.3604
20 13 2 -1.1307 0.0032
20 13 3 1.0829 -0.0546
20 13 4 -1.8751 0.1552
20 13 5 2.4278 0.0622
20 14 0 -0.6378 -0.5203
20 14 1 0.1168 0.1778
20 14 2 -4.2653 -0.4120
20 14 3 -0.1493 0.0852
20 14 4 -2.6220 0.0492
20 14 5 1.2734 -0.0682
20 15 0 -2.2212 0.1341
20 15 1 4.7717 0.0202
20 15 2 -1.3667 0.3593
20 15 3 0.6040 -0.1313
20 15 4 1.8675 -0.0365
20 15 5 2.9959 0.0473
20 16 0 -2.3631 -0.4004
20 16 1 1.1601 -0.1153
20 16 2 -1.4033 -0.0724
20 16 3 -0.2532 0.0469
20 16 4 -0.3774 -0.2562
20 16 5 -0.5887 0.0770
20 17 0 -1.0869 0.1156
20 17 1 1.0366 0.0466
20 17 2 -0.4110 0.2535
20 17 3 2.0290 0.4095
20 17 4 -2.1543 0.3179
20 18 0 -1.3319 -0.5049
20 18 1 1.0669 -0.2475
20 18 2 -2.1404 -0.7887
20 18 3 -2.5206 0.0824
20 18 4 -0.8088 -1.1041
20 19 0 -1.0642 0.0413
20 19 1 1.9412 0.3894
20 19 2 -0.3532 -0.1403
20 19 3 0.7998 0.0301
20 19 4 -0.4599 -0.3645
20 20 0 -0.3553 0.0966
20 20 1 2.1782 -0.0758
20 20 2 0.2096 -1.0999
20 20 3 -1.3646 0.1956
20 21 0 0.9844 -0.1691
20 21 1 4.3626 0.1834
20 21 2 -1.0831 -0.4827
20 21 3 4.0527 -0.2284
20 22 0 1.3689 0.2147
20 22 1 -2.2526 0.1521
20 22 2 0.3423 -1.4311
20 23 0 -1.4311 -0.0058
20 23 1 0.7126 -0.0227
21 0 2 -0.4965 -0.2209
21 0 4 3.5673 -0.1233
21 0 6 -0.9303 -0.3433
21 1 1 2.2483 -5.4660
21 1 2 -3.2174 -0.0393
21 1 3 -3.6944 -5.8888
21 1 4 -2.5139 -0.0214
21 1 5 1.0217 -4.9120
21 1 6 0.3607 0.1943
21 1 7 -0.4944 -2.5592
21 2 1 -2.8079 0.1933
21 2 2 -2.4066 -0.1146
21 2 3 -1.4474 0.0254
21 2 4 -1.3255 -0.0458
21 2 5 -4.0546 0.0261
21 2 6 0.5011 -0.2207
21 2 7 0.0776 -0.0191
21 3 1 1.0213 2.0982
21 3 2 -8.2628 0.0519
21 3 3 -0.1910 2.1830
21 3 4 -0.6428 -0.3920
21 3 5 -0.2403 1.6549
21 3 6 -4.9706 -0.4029
21 3 7 2.1160 1.7283
21 4 1 -8.6082 0.3739
21 4 2 -5.3992 -0.0262
21 4 3 -1.3056 0.5614
21 4 4 -0.8638 0.0365
21 4 5 -3.9049 0.5435
21 4 6 -2.1466 0.3092
21 4 7 3.2844 0.7556
21 5 1 0.3976 0.1329
21 5 2 -8.4486 0.3689
21 5 3 -2.8029 0.4048
21 5 4 -3.2180 -0.0557
21 5 5 2.1448 0.2202
21 5 6 -3.5268 -0.4241
21 5 7 -0.0119 0.3372
21 6 1 -2.1114 -0.0945
21 6 2 0.3171 0.1126
21 6 3 -1.5558 -0.2376
21 6 4 -0.2010 0.1400
21 6 5 1.4032 -0.1087
21 6 6 -1.5393 0.0320
21 6 7 3.2138 0.0274
21 7 1 -3.9966 -0.8387
21 7 2 -4.1552 -0.1146
21 7 3 -0.6998 -0.7285
21 7 4 -2.8685 0.2147
21 7 5 1.0728 -0.7525
21 7 6 -0.9960 0.1964
21 7 7 1.8175 -0.3685
21 8 1 -6.2429 -0.1650
21 8 2 0.8387 -0.1856
21 8 3 -1.8005 -0.2967
21 8 4 -0.3235 0.1541
21 8 5 -3.5807 -0.4506
21 8 6 -1.2515 -0.0717
21 9 1 -4.7215 -0.9153
21 9 2 -5.8284 -0.3648
21 9 3 -2.2184 -0.9700
21 9 4 -0.6025 0.0881
21 9 5 -0.1339 -1.0444
21 9 6 -4.7577 0.1329
21 10 1 -2.0817 -0.0964
21 10 2 1.0483 -0.0521
21 10 3 -0.4622 -0.2770
21 10 4 0.2118 0.0694
21 10 5 1.4661 0.0166
21 10 6 -2.7098 0.1508
21 11 1 -4.2085 -0.9484
21 11 2 -2.6702 -0.1294
21 11 3 0.9268 -0.9980
21 11 4 -4.1814 -0.1792
21 11 5 1.2126 -0.6173
21 11 6 2.4755 0.1446
21 12 1 -0.4066 -0.1771
21 12 2 4.4050 0.1427
21 12 3 2.4494 0.1253
21 12 4 1.2546 -0.1456
21 12 5 -3.6963 0.0756
21 12 6 4.5673 0.1489
21 13 1 -3.3996 -0.1028
21 13 2 -5.1002 0.2069
21 13 3 1.7305 -0.0241
21 13 4 -0.3548 -0.1129
21 13 5 -0.6656 -0.1508
21 14 1 -0.4553 -0.0085
21 14 2 0.4643 -0.2559
21 14 3 2.6780 0.1322
21 14 4 0.1140 -0.0112
21 14 5 0.1038 -0.0064
21 15 1 -3.7596 -0.6091
21 15 2 -0.0015 0.0873
21 15 3 1.5583 -0.7010
21 15 4 2.9773 -0.0122
21 15 5 1.9628 -0.5352
21 16 1 3.2796 0.2370
21 16 2 2.2783 -0.2104
21 16 3 4.1747 0.1223
21 16 4 -0.8960 0.2944
21 17 1 -1.2043 -0.2078
21 17 2 -0.6955 -0.1199
21 17 3 0.9924 -0.6041
21 17 4 -0.5303 0.0059
21 18 1 1.7102 0.3228
21 18 2 -3.2034 0.4415
21 18 3 0.7953 0.1907
21 18 4 -0.6430 0.1410
21 19 1 -0.3671 -0.7500
21 19 2 2.6687 -0.1142
21 19 3 2.1236 -1.7021
21 19 4 0.5481 0.1213
21 20 1 1.4805 -0.4285
21 20 2 2.2945 -0.1926
21 20 3 2.7739 -0.4226
21 21 1 3.0612 -1.2709
21 21 2 0.5903 0.1625
21 21 3 0.9989 -1.3232
21 22 1 -0.9283 -0.4035
21 22 2 3.5065 0.0431
22 0 0 -8.0499 -0.1195
22 0 2 -7.2447 -3.7852
22 0 4 -8.5436 -3.2608
22 0 6 -5.8455 -2.6947
22 1 0 3.2611 -0.1211
22 1 1 6.2591 0.0752
22 1 2 1.9837 -0.2579
22 1 3 3.7011 -0.2718
22 1 4 -2.2164 -0.3137
22 1 5 -3.0574 -0.4845
22 1 6 -2.4525 -0.4192
22 1 7 1.8589 -0.4944
22 2 0 -9.2982 -0.1573
22 2 1 -1.5238 0.3056
22 2 2 -7.8974 -0.6049
22 2 3 -3.1583 -0.1727
22 2 4 -3.1930 -0.5522
22 2 5 -5.8105 -0.0361
22 2 6 -5.2164 -0.3228
22 2 7 1.4826 -0.3278
22 3 0 1.6389 0.1154
22 3 1 4.0353 -0.0095
22 3 2 1.8920 0.2937
22 3 3 1.7149 -0.0366
22 3 4 -0.7055 0.3462
22 3 5 -1.4656 0.2378
22 3 6 -0.8949 0.5308
22 3 7 -2.8811 0.1808
22 4 0 -5.3890 0.5585
22 4 1 -3.4081 0.8616
22 4 2 -4.7987 1.8689
22 4 3 -3.6908 -0.0239
22 4 4 -3.1275 1.1380
22 4 5 -2.9961 -0.3200
22 4 6 -3.9624 0.8352
22 4 7 4.1251 -0.4148
22 5 0 4.2171 -0.0673
22 5 1 1.3040 -0.0052
22 5 2 1.0550 0.2302
22 5 3 1.4394 0.0472
22 5 4 -1.1690 0.2356
22 5 5 7.9487 0.1044
22 5 6 0.7181 0.2271
22 5 7 -1.0782 -0.1208
22 6 0 -4.5725 0.4485
22 6 1 1.8090 0.1384
22 6 2 -3.6071 1.1743
22 6 3 0.6795 0.3443
22 6 4 -0.3230 0.9531
22 6 5 0.6340 0.0147
22 6 6 -1.8081 0.6253
22 6 7 0.1078 -0.3267
22 7 0 4.1253 -0.0787
22 7 1 0.7861 -0.2249
22 7 2 1.7455 -0.3286
22 7 3 3.3119 0.0866
22 7 4 -3.5893 -0.3189
22 7 5 5.9271 0.0060
22 7 6 2.2747 -0.3123
22 8 0 -3.4572 -0.1251
22 8 1 -4.6953 -0.7628
22 8 2 -1.0007 -0.9601
22 8 3 -0.8400 0.0686
22 8 4 -0.4240 -0.8775
22 8 5 3.4540 0.2467
22 8 6 1.2475 -0.8713
22 9 0 1.0407 -0.0452
22 9 1 -1.8976 -0.3086
22 9 2 -1.8227 -0.1983
22 9 3 -5.1618 -0.0753
22 9 4 -3.1951 -0.4765
22 9 5 8.1795 -0.1194
22 9 6 -1.7775 -0.4577
22 10 0 -0.3109 0.6568
22 10 1 1.3614 -0.1138
22 10 2 0.9183 0.4238
22 10 3 1.9810 -0.3521
22 10 4 0.2184 -0.0287
22 10 5 -2.8309 0.1254
22 10 6 0.1294 -0.0827
22 11 0 8.4260 0.1098
22 11 1 -1.9613 0.2527
22 11 2 1.2716 -0.0175
22 11 3 -0.5604 -0.0599
22 11 4 0.5038 0.2742
22 11 5 2.0068 -0.1526
22 11 6 -0.4115 0.2305
22 12 0 -0.1615 0.3051
22 12 1 -0.6386 0.3972
22 12 2 4.1903 0.1199
22 12 3 -2.2966 -0.0086
22 12 4 2.7524 -0.0603
22 12 5 0.2537 -0.1985
22 13 0 -0.0831 -0.1429
22 13 1 -2.5468 0.2682
22 13 2 1.3575 -0.0837
22 13 3 -1.0257 -0.1145
22 13 4 -1.7912 0.0635
22 13 5 0.9654 -0.0219
22 14 0 0.4053 0.3008
22 14 1 1.0518 0.1353
22 14 2 2.0913 0.2140
22 14 3 2.2677 0.2644
22 14 4 1.0765 0.0647
22 14 5 -1.5968 -0.0946
22 15 0 1.2351 0.1270
22 15 1 -2.4974 -0.2888
22 15 2 2.1054 0.1740
22 15 3 0.6263 -0.1897
22 15 4 2.0380 -0.1026
22 16 0 0.2214 0.5748
22 16 1 -2.0079 -0.1244
22 16 2 1.8166 0.3328
22 16 3 1.1478 -0.0081
22 16 4 1.8208 0.4212
22 17 0 0.4064 0.0683
22 17 1 -3.5910 -0.3355
22 17 2 -0.6483 0.1256
22 17 3 -1.6109 0.1671
22 17 4 -0.4668 0.1048
22 18 0 -0.6144 0.1655
22 18 1 -1.6305 -0.2039
22 18 2 -0.6403 -0.2215
22 18 3 -2.4909 -0.1251
22 18 4 0.7562 -0.0463
22 19 0 -0.5451 -0.0422
22 19 1 -2.5427 0.1416
22 19 2 0.1536 -0.1267
22 19 3 -2.3885 -0.1889
22 20 0 0.5861 -0.3795
22 20 1 2.1314 0.0384
22 20 2 1.6421 -0.3012
22 20 3 3.1785 -0.0742
22 21 0 1.2585 -0.3827
22 21 1 -0.8582 0.0500
22 21 2 -0.5553 -0.1495
22 22 0 0.5185 -0.7755
22 22 1 -0.1320 0.0307
23 0 2 1.5332 -0.1141
23 0 4 -0.2105 -0.2660
23 0 6 1.2320 -0.2334
23 1 1 -0.3918 -4.9051
23 1 2 2.7171 -0.1195
23 1 3 2.6825 -5.3339
23 1 4 -1.3513 0.1175
23 1 5 3.6276 -4.5181
23 1 6 0.8549 0.2311
23 1 7 -0.2658 -2.5295
23 2 1 4.7949 0.0526
23 2 2 2.1677 0.0755
23 2 3 0.1209 0.0807
23 2 4 -2.4143 -0.1295
23 2 5 1.4668 0.1020
23 2 6 2.2560 0.0054
23 2 7 -3.2671 0.1650
23 3 1 -0.6370 2.4929
23 3 2 6.3607 0.0608
23 3 3 3.7737 2.5860
23 3 4 1.8845 -0.1160
23 3 5 0.6902 1.9784
23 3 6 -2.0478 -0.4173
23 3 7 0.3332 0.2481
23 4 1 3.4341 0.2608
23 4 2 0.8720 0.0868
23 4 3 0.2560 0.4785
23 4 4 -0.1825 0.0621
23 4 5 3.6864 0.5633
23 4 6 2.8410 0.2970
23 4 7 -3.0525 0.4955
23 5 1 2.7292 0.7466
23 5 2 6.8807 0.4315
23 5 3 0.8965 0.9082
23 5 4 1.5107 0.0548
23 5 5 1.4422 0.8891
23 5 6 1.7339 -0.2721
23 5 7 -3.3944 -0.3560
23 6 1 6.6853 0.0768
23 6 2 4.1848 0.0450
23 6 3 -0.1850 0.0405
23 6 4 0.7395 0.2213
23 6 5 4.7101 -0.0841
23 6 6 3.1801 -0.1842
23 7 1 -0.0022 0.0429
23 7 2 3.1483 0.0346
23 7 3 1.4829 0.0731
23 7 4 1.5082 0.1963
23 7 5 -0.5798 0.2340
23 7 6 0.1783 0.2828
23 8 1 0.6309 -0.0619
23 8 2 -1.2311 -0.1635
23 8 3 0.1005 -0.2955
23 8 4 -1.9965 -0.0161
23 8 5 -1.3935 -0.4576
23 8 6 1.0141 -0.1299
23 9 1 1.4237 0.2039
23 9 2 -3.0656 -0.3399
23 9 3 -0.8837 -0.0520
23 9 4 3.1568 -0.0809
23 9 5 0.0099 -0.0428
23 9 6 -3.4444 0.2355
23 10 1 2.3648 0.1102
23 10 2 -2.3250 -0.0366
23 10 3 -0.1042 -0.0352
23 10 4 -3.2434 -0.2169
23 10 5 6.4844 0.2012
23 10 6 -1.3760 0.2035
23 11 1 2.5488 0.4209
23 11 2 1.9831 -0.0830
23 11 3 -2.4604 -0.0769
23 11 4 1.4725 -0.2002
23 11 5 -1.4430 -0.1372
23 11 6 1.1383 0.0935
23 12 1 -0.2862 0.0343
23 12 2 -1.4342 0.2139
23 12 3 -1.5538 0.2692
23 12 4 -1.2724 -0.0507
23 12 5 1.9160 0.1644
23 13 1 1.1743 0.9736
23 13 2 -1.9281 0.3506
23 13 3 -2.8333 0.7028
23 13 4 2.4758 0.0878
23 13 5 -1.5180 0.1327
23 14 1 -4.3866 0.0168
23 14 2 -2.9245 0.0273
23 14 3 -2.7334 0.1354
23 14 4 0.0174 0.2132
23 14 5 3.0211 -0.0664
23 15 1 0.3882 0.1688
23 15 2 3.4678 0.1519
23 15 3 -2.5109 0.2263
23 15 4 0.9612 0.1105
23 16 1 -3.4620 -0.1085
23 16 2 -0.2170 -0.0850
23 16 3 -2.1844 -0.3075
23 16 4 0.1382 0.1446
23 17 1 -1.2309 0.7064
23 17 2 -3.6240 -0.1791
23 17 3 -1.9101 0.7975
23 17 4 -2.1066 0.0040
23 18 1 -3.6459 -0.0559
23 18 2 -2.4549 0.1928
23 18 3 -2.2165 -0.1925
23 19 1 -1.6083 0.2764
23 19 2 -1.7095 -0.1345
23 19 3 -0.0605 0.3132
23 20 1 0.0505 -0.5332
23 20 2 0.3609 -0.1206
23 20 3 -1.3955 -0.2600
23 21 1 0.3518 0.5386
23 21 2 -1.1821 0.0913
24 0 0 4.8569 0.1828
24 0 2 5.1905 -3.7453
24 0 4 3.7458 -3.0665
24 0 6 5.8447 -2.5414
24 1 0 0.0872 0.0215
24 1 1 -5.5609 -0.1155
24 1 2 -0.4981 -0.1495
24 1 3 -2.9792 -0.2256
24 1 4 -1.2492 -0.0097
24 1 5 1.9717 -0.4066
24 1 6 -2.6732 -0.1908
24 2 0 3.5021 0.0219
24 2 1 1.8561 0.1866
24 2 2 4.7986 -0.7604
24 2 3 3.0548 -0.0936
24 2 4 4.8052 -0.6971
24 2 5 -0.0475 -0.0259
24 2 6 5.1098 -0.3288
24 3 0 -5.5907 0.1123
24 3 1 -4.3796 0.0518
24 3 2 -3.5793 0.3681
24 3 3 -5.8313 0.0708
24 3 4 -0.0948 0.3889
24 3 5 -2.7792 0.3293
24 3 6 0.7275 0.5003
24 4 0 6.5412 0.5000
24 4 1 2.1178 0.7508
24 4 2 4.0227 1.6206
24 4 3 1.5173 -0.0862
24 4 4 2.0915 1.1018
24 4 5 3.9263 -0.2818
24 4 6 1.2527 0.6679
24 5 0 -2.9185 0.0154
24 5 1 -1.4661 -0.1041
24 5 2 -5.0064 0.3776
24 5 3 -5.9632 0.1908
24 5 4 1.7063 0.3683
24 5 5 -2.1507 0.0009
24 5 6 -0.3197 0.2905
24 6 0 4.4703 0.1447
24 6 1 4.9648 0.2325
24 6 2 3.1153 0.9316
24 6 3 3.8449 0.3147
24 6 4 -0.3809 1.0450
24 6 5 -4.0738 -0.1032
24 6 6 0.1554 0.6809
24 7 0 -6.1783 -0.0515
24 7 1 -2.4415 -0.2776
24 7 2 -1.7254 -0.1287
24 7 3 1.6087 0.1727
24 7 4 -1.0014 -0.1219
24 7 5 -9.4065 -0.0073
24 7 6 -0.9989 -0.1832
24 8 0 0.7581 -0.3526
24 8 1 0.8470 -0.6860
24 8 2 0.2914 -0.8785
24 8 3 -4.2969 0.0697
24 8 4 0.2480 -0.5914
24 8 5 2.1953 0.1900
24 8 6 0.4098 -0.2831
24 9 0 -6.8454 0.0495
24 9 1 -0.7589 -0.3897
24 9 2 -3.1393 -0.1909
24 9 3 -0.8410 -0.1097
24 9 4 -0.1772 -0.2283
24 9 5 -4.1467 -0.0127
24 9 6 -2.3698 -0.2526
24 10 0 3.3063 0.4557
24 10 1 4.5827 -0.1628
24 10 2 -1.1612 0.5895
24 10 3 4.5713 -0.2816
24 10 4 -1.6671 0.3089
24 10 5 -3.0834 0.0009
24 10 6 -1.7960 0.4152
24 11 0 -1.5382 0.1720
24 11 1 -0.2900 -0.0511
24 11 2 -1.6383 0.2553
24 11 3 3.4881 -0.0915
24 11 4 1.5998 0.5867
24 11 5 -3.0552 0.0828
24 12 0 0.2693 0.2237
24 12 1 1.2842 0.4767
24 12 2 -1.5336 0.4439
24 12 3 -2.1307 0.0020
24 12 4 -1.5031 0.4790
24 12 5 7.7663 -0.1227
24 13 0 -6.2378 -0.0539
24 13 1 1.9906 0.0555
24 13 2 -2.1115 0.2353
24 13 3 0.4236 0.1359
24 13 4 -1.0562 -0.0083
24 13 5 2.2822 0.0450
24 14 0 0.6832 -0.0622
24 14 1 2.4442 0.1732
24 14 2 -1.4020 0.7783
24 14 3 2.1518 0.2519
24 14 4 -2.5518 0.5291
24 14 5 -0.0897 0.0781
24 15 0 -0.3891 0.0109
24 15 1 0.8358 -0.2366
24 15 2 -0.6967 0.1548
24 15 3 1.4589 0.0799
24 15 4 -0.9543 -0.2181
24 16 0 0.6312 0.2105
24 16 1 0.1145 -0.1840
24 16 2 -0.5963 0.8159
24 16 3 1.8395 -0.0971
24 16 4 -0.9599 0.4486
24 17 0 0.4137 -0.0109
24 17 1 1.1270 -0.2380
24 17 2 -0.2157 -0.3554
24 17 3 -0.1888 0.0209
24 17 4 -0.4114 -0.3652
24 18 0 0.1540 0.2842
24 18 1 0.2907 -0.2860
24 18 2 -0.4119 0.2834
24 18 3 -1.2655 -0.0226
24 19 0 1.1744 -0.1077
24 19 1 1.1816 0.0207
24 19 2 2.6387 -0.6284
24 19 3 2.1637 -0.1957
24 20 0 1.3767 0.6208
24 20 1 -0.9348 0.1090
24 20 2 1.3356 -0.3351
24 21 0 1.5461 -0.0811
24 21 1 1.2096 -0.1432
24 21 2 -0.5627 0.1373
25 0 2 -1.4140 -0.1727
25 0 4 3.1962 -0.2221
25 0 6 -2.8886 -0.3376
25 1 1 0.2795 -4.5978
25 1 2 -3.8617 -0.0701
25 1 3 -3.9048 -5.0565
25 1 4 -2.5144 0.1775
25 1 5 -4.7264 -4.1869
25 1 6 1.6230 0.4575
25 2 1 -1.7640 0.0397
25 2 2 -0.4400 0.0693
25 2 3 0.8081 0.0713
25 2 4 -0.4779 -0.0350
25 2 5 -3.8550 0.0207
25 2 6 -3.0221 -0.1569
25 3 1 -0.5045 2.1681
25 3 2 -7.3239 0.1415
25 3 3 -1.3366 2.1502
25 3 4 -1.1663 -0.1311
25 3 5 -4.1903 2.0282
25 3 6 0.3481 -0.3814
25 4 1 -4.3921 0.1710
25 4 2 -3.4145 0.1140
25 4 3 1.4976 0.4137
25 4 4 -0.0205 -0.0418
25 4 5 -0.7480 0.3900
25 4 6 -0.4404 0.1879
25 5 1 1.8754 0.5122
25 5 2 -2.9466 0.3053
25 5 3 -1.5965 0.6765
25 5 4 0.8509 -0.1507
25 5 5 -2.1095 0.8163
25 5 6 4.8626 -0.1713
25 6 1 -1.2138 -0.0011
25 6 2 0.0496 0.0527
25 6 3 2.5772 0.1393
25 6 4 1.1415 0.0287
25 6 5 -2.6563 -0.0980
25 6 6 -1.1208 -0.0104
25 7 1 -0.7478 -0.0452
25 7 2 -0.1225 0.1067
25 7 3 0.0991 0.0168
25 7 4 -0.4837 0.2171
25 7 5 -4.5299 -0.1433
25 7 6 1.9439 0.1334
25 8 1 -2.7211 -0.3440
25 8 2 -1.9479 -0.0426
25 8 3 1.0228 -0.4986
25 8 4 3.2054 -0.1228
25 8 5 -8.4238 -0.3309
25 8 6 -1.7941 -0.0831
25 9 1 0.6825 -0.0553
25 9 2 2.4786 -0.3805
25 9 3 2.1823 -0.0840
25 9 4 -1.6017 0.0360
25 9 5 0.0252 0.0773
25 9 6 2.0040 0.2371
25 10 1 1.7536 -0.0938
25 10 2 1.7087 0.0161
25 10 3 -0.9625 0.0719
25 10 4 3.2439 -0.1439
25 10 5 -3.4744 0.2547
25 10 6 -0.8309 -0.0796
25 11 1 0.7317 0.0447
25 11 2 6.6421 -0.1166
25 11 3 3.9636 0.0281
25 11 4 -2.7885 -0.0987
25 11 5 -1.5476 0.4702
25 12 1 2.3350 0.1376
25 12 2 1.8789 0.0867
25 12 3 0.1149 0.3793
25 12 4 3.3543 0.0185
25 12 5 -4.6031 0.1998
25 13 1 0.5110 0.6183
25 13 2 -1.1795 0.3500
25 13 3 4.7245 1.0620
25 13 4 -0.8547 0.1015
25 13 5 1.1140 1.1660
25 14 1 2.0930 0.3171
25 14 2 3.4744 0.1059
25 14 3 0.9912 0.2162
25 14 4 0.5759 0.0595
25 15 1 1.5660 0.2956
25 15 2 2.8666 0.1287
25 15 3 2.3362 0.5284
25 15 4 -0.7070 0.0180
25 16 1 3.7664 0.1351
25 16 2 0.9778 -0.0372
25 16 3 0.7485 -0.4426
25 16 4 -1.0428 -0.0746
25 17 1 1.3620 0.5264
25 17 2 -0.6877 -0.2393
25 17 3 0.5154 0.5327
25 18 1 2.4726 -0.0803
25 18 2 -1.6718 -0.1301
25 18 3 1.5623 -0.2589
25 19 1 1.1959 -0.9159
25 19 2 3.6864 0.0329
25 19 3 1.2617 -0.8410
25 20 1 3.1679 -0.6072
25 20 2 1.3763 -0.0356
26 0 0 0.7472 -0.1415
26 0 2 -3.1733 -3.2674
26 0 4 -2.8021 -2.9901
26 0 6 -3.0163 -1.8004
26 1 0 2.2943 0.0560
26 1 1 3.6843 -0.0629
26 1 2 2.6145 -0.0819
26 1 3 3.4284 -0.1698
26 1 4 -1.0099 -0.2616
26 1 5 -1.3354 -0.5353
26 1 6 -2.6194 -0.0717
26 2 0 -2.8598 -0.2918
26 2 1 -2.9254 -0.0240
26 2 2 -1.6929 -0.8903
26 2 3 -3.7252 -0.0195
26 2 4 -1.3701 -0.7117
26 2 5 -3.1887 -0.0315
26 2 6 0.1885 0.4539
26 3 0 2.6664 0.0903
26 3 1 3.5606 0.3644
26 3 2 2.3052 0.3718
26 3 3 4.9476 0.0402
26 3 4 1.1729 0.2921
26 3 5 0.5009 0.1724
26 3 6 1.3091 0.3065
26 4 0 -0.9861 0.1641
26 4 1 -3.1202 0.4625
26 4 2 -1.3371 0.9387
26 4 3 -2.7442 0.0024
26 4 4 0.5471 0.9646
26 4 5 5.9871 -0.3224
26 4 6 1.9063 1.1333
26 5 0 6.8450 0.0907
26 5 1 4.2035 0.2404
26 5 2 3.5537 0.2568
26 5 3 3.8777 0.0559
26 5 4 1.9472 0.3809
26 5 5 5.3361 -0.0984
26 5 6 1.3853 0.3017
26 6 0 -3.5438 -0.2857
26 6 1 -3.1506 0.2115
26 6 2 -0.3071 0.1983
26 6 3 5.3248 0.2515
26 6 4 -1.7685 0.5646
26 6 5 -1.6152 -0.1509
26 6 6 3.6179 0.2538
26 7 0 3.2597 -0.1257
26 7 1 1.0276 -0.0008
26 7 2 5.9677 -0.1946
26 7 3 2.1871 0.0354
26 7 4 -0.1043 -0.3278
26 7 5 1.0500 0.0807
26 7 6 0.4935 -0.2468
26 8 0 -3.2074 -0.7767
26 8 1 -4.2805 -0.6075
26 8 2 -0.9116 -1.4894
26 8 3 -4.6885 -0.0967
26 8 4 1.2524 -0.9845
26 8 5 5.1533 0.3828
26 8 6 2.9259 -0.8194
26 9 0 5.9447 -0.1257
26 9 1 2.9545 -0.0181
26 9 2 1.8012 -0.4282
26 9 3 -2.2401 -0.1053
26 9 4 0.0978 -0.5076
26 9 5 1.3291 -0.0482
26 9 6 -2.0277 -0.2807
26 10 0 -0.2103 -0.2259
26 10 1 -4.3894 -0.3037
26 10 2 -0.0117 -0.2917
26 10 3 3.5409 -0.4281
26 10 4 1.7328 -0.0100
26 10 5 -8.7783 0.0969
26 11 0 7.2778 0.0113
26 11 1 -0.3968 0.3286
26 11 2 2.8320 0.1612
26 11 3 -2.4982 -0.0805
26 11 4 1.4205 0.3860
26 11 5 0.0731 -0.0087
26 12 0 -2.7309 -0.2291
26 12 1 -3.4506 0.4165
26 12 2 1.5370 -0.4659
26 12 3 -4.5352 -0.0313
26 12 4 1.6338 -0.1385
26 12 5 1.7499 -0.0606
26 13 0 1.3772 0.0388
26 13 1 1.4821 0.3224
26 13 2 1.8257 0.2681
26 13 3 -1.2013 0.1624
26 13 4 1.9571 0.1707
26 13 5 -0.4003 0.0431
26 14 0 -1.2886 -0.3621
26 14 1 -2.5250 0.3024
26 14 2 0.6301 0.0433
26 14 3 -0.5051 0.3788
26 14 4 0.4084 -0.2226
26 15 0 2.0019 0.0804
26 15 1 -1.0725 -0.0699
26 15 2 -0.6395 0.1522
26 15 3 0.0290 0.1802
26 15 4 -0.0987 0.1698
26 16 0 -0.7544 -0.1648
26 16 1 -1.7755 -0.0693
26 16 2 -1.5512 0.0056
26 16 3 -1.6801 -0.0839
26 16 4 1.7738 0.2061
26 17 0 -1.2096 0.0844
26 17 1 0.6252 -0.1710
26 17 2 -1.5759 -0.2509
26 17 3 -2.8664 0.1265
26 18 0 -1.3310 -0.9644
26 18 1 1.6416 -0.3375
26 18 2 -0.8026 -0.5038
26 18 3 -2.5393 0.0382
26 19 0 -0.0660 -0.2874
26 19 1 -0.9457 0.2226
26 19 2 -0.5855 -0.2865
26 20 0 -0.5094 -0.9909
26 20 1 1.9594 0.0600
26 20 2 0.6600 -1.1130
27 0 2 -0.9504 -0.2218
27 0 4 1.6761 -0.2358
27 0 6 1.5957 -0.1885
27 1 1 -1.5062 -4.3150
27 1 2 1.9578 -0.2735
27 1 3 2.7119 -4.7523
27 1 4 -1.7972 -0.1038
27 1 5 1.2338 -4.1242
27 1 6 0.4969 0.4226
27 2 1 1.6008 0.1670
27 2 2 3.2488 0.0734
27 2 3 -0.5228 0.1007
27 2 4 -0.2277 -0.1227
27 2 5 -1.8891 0.1626
27 2 6 -0.7839 0.0096
27 3 1 -1.4127 1.7680
27 3 2 4.7076 0.1973
27 3 3 2.2063 1.7366
27 3 4 1.4203 -0.0679
27 3 5 1.2456 1.2090
27 3 6 -3.1356 -0.6576
27 4 1 0.8328 0.2105
27 4 2 0.3574 0.0792
27 4 3 -4.4446 0.2717
27 4 4 2.6804 0.0665
27 4 5 5.1012 0.5523
27 4 6 1.5622 -0.0256
27 5 1 -0.7069 -0.1170
27 5 2 6.3431 0.1948
27 5 3 0.4576 0.2253
27 5 4 2.6610 -0.0270
27 5 5 2.9385 0.0465
27 5 6 -0.6601 -0.2597
27 6 1 1.7021 0.0377
27 6 2 1.6708 0.0109
27 6 3 -2.9341 0.0810
27 6 4 -1.6265 0.2427
27 6 5 3.8398 -0.0821
27 6 6 -1.0730 -0.0630
27 7 1 -3.2989 -0.7878
27 7 2 -1.3513 0.0985
27 7 3 -1.6250 -0.5193
27 7 4 0.1821 0.1988
27 7 5 2.7264 -0.6494
27 7 6 -4.8562 0.0554
27 8 1 -1.0136 -0.3689
27 8 2 -0.4392 -0.1403
27 8 3 -1.9024 -0.5854
27 8 4 -2.7189 -0.0156
27 8 5 4.8352 -0.4426
27 8 6 -0.7364 0.1471
27 9 1 -1.3970 -0.8103
27 9 2 -3.6864 -0.4755
27 9 3 -3.0127 -0.5838
27 9 4 -0.7284 -0.0824
27 9 5 7.8280 -0.1767
27 10 1 -0.8565 -0.1717
27 10 2 1.1835 -0.0679
27 10 3 0.2882 -0.1842
27 10 4 -3.9924 -0.1065
27 10 5 6.1886 -0.1775
27 11 1 -2.2305 -0.5779
27 11 2 -2.7374 -0.2575
27 11 3 -3.5946 -0.4947
27 11 4 0.4619 -0.1516
27 11 5 0.6020 -0.5844
27 12 1 -0.8714 0.1736
27 12 2 -4.4117 -0.0237
27 12 3 3.0152 0.1598
27 12 4 -0.7166 -0.0336
27 12 5 3.6679 0.1102
27 13 1 -1.5389 -0.2623
27 13 2 -3.5986 0.3020
27 13 3 -3.2394 -0.0211
27 13 4 1.6952 0.1055
27 14 1 -2.4392 0.2444
27 14 2 -0.5455 0.0630
27 14 3 0.8073 0.3923
27 14 4 -0.6115 0.0449
27 15 1 -2.1248 -0.5575
27 15 2 0.6673 0.1708
27 15 3 -1.9686 -1.2426
27 15 4 -0.4264 -0.0176
27 16 1 -0.4112 -0.1339
27 16 2 -0.8327 -0.0832
27 16 3 -1.2369 -0.0580
27 17 1 -0.9303 -0.2001
27 17 2 -1.6874 -0.2401
27 17 3 -0.9055 -0.4256
27 18 1 -1.0838 -0.2201
27 18 2 0.8958 -0.1456
27 18 3 1.1703 0.0172
27 19 1 0.3994 -0.4672
27 19 2 0.4337 0.0967
28 0 0 -2.1936 -0.2733
28 0 2 -0.2604 -3.2347
28 0 4 -1.0298 -2.6880
28 0 6 -2.7805 -1.6813
28 1 0 -1.6063 -0.0466
28 1 1 -1.7465 -0.1465
28 1 2 1.7319 -0.2464
28 1 3 -2.0307 -0.1955
28 1 4 -2.2868 -0.3097
28 1 5 0.7000 -0.4531
28 1 6 -2.5239 0.0697
28 2 0 -3.7957 -0.2652
28 2 1 2.5263 0.2703
28 2 2 -0.4241 -0.6170
28 2 3 -1.0095 -0.0112
28 2 4 -0.7486 -0.7866
28 2 5 -4.5611 -0.2098
28 2 6 -3.4359 -1.4377
28 3 0 -3.0875 0.0147
28 3 1 -1.4374 0.2288
28 3 2 -2.9776 0.2292
28 3 3 -2.4397 0.0543
28 3 4 -0.5977 0.2549
28 3 5 0.1470 0.2490
28 3 6 -0.2477 0.1598
28 4 0 1.5781 0.3192
28 4 1 3.0035 0.5302
28 4 2 -0.8679 1.2652
28 4 3 -0.6593 -0.0019
28 4 4 -0.0188 0.9498
28 4 5 1.4404 -0.1452
28 4 6 -7.5521 -0.3846
28 5 0 -3.2485 0.0179
28 5 1 -2.8211 0.1143
28 5 2 -3.8015 0.1030
28 5 3 -3.5384 0.0037
28 5 4 -1.0474 0.2561
28 5 5 0.6962 -0.0457
28 5 6 0.9793 0.1993
28 6 0 -1.0505 -0.0034
28 6 1 1.7942 0.2004
28 6 2 -0.5491 0.6343
28 6 3 1.1210 0.1207
28 6 4 -0.9990 0.5810
28 6 5 -7.1826 0.0060
28 6 6 -7.0094 -0.4013
28 7 0 -5.2748 -0.1542
28 7 1 -2.9652 -0.1522
28 7 2 -1.4567 -0.2328
28 7 3 -1.8671 -0.0827
28 7 4 -0.7046 -0.3964
28 7 5 0.5392 0.1037
28 8 0 1.1399 -0.2312
28 8 1 5.2646 -0.5091
28 8 2 -0.0062 -1.0838
28 8 3 -5.7187 0.0192
28 8 4 0.0660 -1.0722
28 8 5 4.6062 0.3092
28 9 0 -3.3752 -0.0886
28 9 1 0.4926 -0.1117
28 9 2 -5.2157 -0.5221
28 9 3 4.0729 -0.1784
28 9 4 -1.4109 -0.4316
28 9 5 0.9140 -0.0644
28 10 0 2.5641 0.3213
28 10 1 2.1950 -0.3364
28 10 2 -0.7909 -0.0381
28 10 3 3.1794 -0.2132
28 10 4 0.7321 -0.2799
28 10 5 -2.6506 -0.0688
28 11 0 -3.5092 0.0979
28 11 1 -1.0450 0.2552
28 11 2 -0.6064 0.0386
28 11 3 0.4290 -0.0333
28 11 4 -1.8444 0.1446
28 11 5 4.2214 -0.1340
28 12 0 1.2001 0.1857
28 12 1 6.2343 0.2503
28 12 2 0.7062 -0.1205
28 12 3 -0.3365 0.0121
28 12 4 -1.4531 -0.2304
28 13 0 -3.9154 0.0330
28 13 1 0.8617 0.2810
28 13 2 0.0160 0.2890
28 13 3 1.1462 0.2126
28 13 4 -0.1753 0.0877
28 14 0 1.9097 -0.1501
28 14 1 0.4358 0.2738
28 14 2 0.6182 -0.2784
28 14 3 3.3721 0.3085
28 14 4 -1.5226 -0.2353
28 15 0 0.0993 -0.1039
28 15 1 -1.6824 -0.0291
28 15 2 -0.6253 0.1244
28 15 3 1.3638 -0.0223
28 16 0 2.7307 0.3964
28 16 1 1.2249 -0.0906
28 16 2 0.6620 -0.7819
28 16 3 2.0449 -0.1601
28 17 0 -0.4626 0.0779
28 17 1 0.4175 -0.1532
28 17 2 2.8006 -0.2593
28 17 3 -0.0696 -0.3912
28 18 0 1.5778 0.1576
28 18 1 0.1725 -0.2954
28 18 2 1.3214 -0.4870
28 19 1 -1.7373 0.0466
29 0 2 -5.5023 -0.1846
29 0 4 -2.0386 -0.1953
29 1 1 1.8415 -3.9314
29 1 2 -1.7912 -0.1121
29 1 3 -2.0369 -4.4732
29 1 4 -4.8477 0.0346
29 1 5 7.1615 -3.5145
29 2 1 -0.2055 0.1316
29 2 2 1.3401 0.1330
29 2 3 2.4800 0.1894
29 2 4 -3.3488 0.0359
29 2 5 -3.0895 0.2848
29 3 1 2.3936 1.8001
29 3 2 -6.5080 0.3246
29 3 3 -1.8209 1.9452
29 3 4 -2.2754 -0.1539
29 3 5 6.1154 1.4043
29 3 6 -0.9971 -0.5693
29 4 1 -1.3441 0.2995
29 4 2 -2.1862 0.0710
29 4 3 2.2815 0.6089
29 4 4 0.5962 0.2127
29 4 5 1.0461 0.5257
29 5 1 2.7625 0.1988
29 5 2 -2.3460 0.0992
29 5 3 1.2916 0.7184
29 5 4 -2.0223 -0.1488
29 5 5 1.7689 0.4113
29 6 1 0.6541 0.1185
29 6 2 -0.9984 -0.0132
29 6 3 6.3212 0.0361
29 6 4 -1.3805 0.0205
29 6 5 -4.8535 -0.1927
29 7 1 1.6983 -0.1219
29 7 2 -3.2466 0.0119
29 7 3 1.1347 -0.1243
29 7 4 -1.2255 0.1268
29 7 5 -5.0189 -0.4526
29 8 1 1.3281 -0.2101
29 8 2 -0.7050 -0.2861
29 8 3 1.7744 -0.5734
29 8 4 1.9784 -0.1561
29 8 5 -3.7874 -0.2362
29 9 1 3.6255 -0.1384
29 9 2 1.6633 -0.3242
29 9 3 2.1571 -0.6553
29 9 4 -0.5783 0.0084
29 9 5 -2.9641 -0.5598
29 10 1 -0.2670 -0.0474
29 10 2 2.6086 -0.1562
29 10 3 -1.6711 -0.0162
29 10 4 0.6549 0.0553
29 10 5 -5.0646 -0.0688
29 11 1 1.1908 0.0956
29 11 2 0.4486 -0.0924
29 11 3 3.1017 -0.4411
29 11 4 0.8978 -0.1312
29 11 5 -4.2165 -0.7398
29 12 1 1.8984 0.2453
29 12 2 -0.9512 0.2009
29 12 3 -1.0516 0.3769
29 12 4 0.8939 0.0963
29 13 1 2.1760 0.3497
29 13 2 1.3040 0.3934
29 13 3 0.3197 0.5661
29 13 4 1.5371 0.0268
29 14 1 -2.3665 0.1356
29 14 2 3.5118 0.2984
29 14 3 -1.0310 0.1541
29 14 4 -2.1611 0.2040
29 15 1 0.9007 0.0749
29 15 2 -0.2944 0.1594
29 15 3 0.0788 -0.2680
29 16 1 -0.5946 -0.2827
29 16 2 -0.9813 -0.0821
29 16 3 -1.0714 -0.4379
29 17 1 1.0009 -0.1936
29 17 2 -0.7106 -0.2842
29 18 1 -1.4491 -0.3309
29 18 2 -3.4257 -0.3484
30 0 0 6.8811 0.0706
30 0 2 1.9077 -2.7732
30 0 4 1.6790 -2.6629
30 1 0 -0.3084 -0.0699
30 1 1 -1.3393 -0.3247
30 1 2 1.6039 -0.2663
30 1 3 -0.8171 -0.2326
30 1 4 -0.4731 -0.2648
30 1 5 -1.8701 -0.3206
30 2 0 4.7228 0.0438
30 2 1 -0.1724 0.2705
30 2 2 1.4335 -0.4120
30 2 3 -1.4316 -0.0192
30 2 4 1.8654 -0.4614
30 2 5 -0.4224 -0.1543
30 3 0 2.5882 0.0216
30 3 1 1.8065 0.1347
30 3 2 -0.2723 0.4570
30 3 3 3.6123 0.2234
30 3 4 1.9915 0.5721
30 3 5 -0.0487 0.2053
30 4 0 5.2755 0.5504
30 4 1 -2.5537 0.6748
30 4 2 3.1895 1.2125
30 4 3 3.4706 0.1329
30 4 4 -0.2880 0.9670
30 4 5 5.9381 -0.3846
30 5 0 0.9915 0.0722
30 5 1 -0.1341 0.0427
30 5 2 1.3991 0.3550
30 5 3 1.8739 0.0963
30 5 4 0.8787 0.4549
30 5 5 -0.9766 -0.0178
30 6 0 0.9449 0.2241
30 6 1 -2.1440 0.2290
30 6 2 1.1346 0.9975
30 6 3 4.2244 0.1198
30 6 4 -0.3143 0.5714
30 6 5 -1.7666 -0.2079
30 7 0 3.2451 -0.0451
30 7 1 1.1960 -0.3642
30 7 2 4.9119 -0.1864
30 7 3 -1.7430 0.0367
30 7 4 0.6822 -0.2276
30 7 5 -2.4147 0.0786
30 8 0 1.2681 -0.1288
30 8 1 0.1715 -0.4445
30 8 2 0.3903 -0.2840
30 8 3 1.2298 0.0777
30 8 4 -3.3638 -0.6026
30 8 5 2.8810 0.2525
30 9 0 2.1417 -0.0238
30 9 1 -0.7342 -0.5284
30 9 2 -1.1387 -0.3596
30 9 3 1.4356 -0.0989
30 9 4 0.3718 -0.2273
30 9 5 -6.5996 0.1110
30 10 0 -0.5736 0.4655
30 10 1 -6.9448 -0.2507
30 10 2 -0.7525 0.4428
30 10 3 0.9241 -0.1511
30 10 4 1.5735 0.4308
30 10 5 -5.0292 -0.0092
30 11 0 1.2894 0.1764
30 11 1 -1.3051 -0.0555
30 11 2 1.9111 0.3153
30 11 3 -2.2100 -0.1145
30 11 4 0.9143 0.1593
30 12 0 -3.5181 0.4684
30 12 1 1.5860 0.2451
30 12 2 0.6393 0.5559
30 12 3 -2.1289 -0.0152
30 12 4 -0.4918 0.4750
30 13 0 0.7460 0.1251
30 13 1 -0.1250 0.2909
30 13 2 0.3576 0.4351
30 13 3 0.2278 0.0167
30 13 4 3.3276 0.1204
30 14 0 -3.5899 0.1527
30 14 1 -5.2375 0.3929
30 14 2 -1.2661 0.6195
30 14 3 -0.8582 0.1911
30 15 0 0.8196 -0.1265
30 15 1 1.0921 -0.1692
30 15 2 -2.5114 -0.1423
30 15 3 1.0016 0.0211
30 16 0 -0.9139 0.1461
30 16 1 0.9462 -0.0840
30 16 2 -1.5294 0.7102
30 17 0 -0.4228 -0.1443
30 17 1 2.1216 -0.4357
30 17 2 0.3373 -0.4543
31 0 2 -2.4475 -0.0863
31 0 4 1.4239 -0.2391
31 1 1 -2.8012 -3.4390
31 1 2 3.2823 -0.1827
31 1 3 1.7079 -4.2701
31 1 4 -2.5742 0.1578
31 1 5 -13.9670 -2.4791
31 2 1 0.9966 0.0831
31 2 2 4.8858 0.1063
31 2 3 -1.4750 0.0145
31 2 4 1.3741 -0.2181
31 2 5 -1.5516 0.1672
31 3 1 -1.5459 1.8825
31 3 2 0.4344 0.3339
31 3 3 -0.9729 1.7982
31 3 4 4.8238 -0.1295
31 3 5 -12.3353 1.8048
31 4 1 -1.0418 0.3019
31 4 2 -0.3252 0.0488
31 4 3 -4.5021 0.5422
31 4 4 2.3518 0.1010
31 4 5 2.9337 0.5136
31 5 1 -1.3638 0.3484
31 5 2 5.6299 0.2539
31 5 3 0.7899 0.5464
31 5 4 3.5028 -0.0778
31 5 5 -6.9609 0.7026
31 6 1 -0.4909 -0.0342
31 6 2 0.1485 0.0684
31 6 3 -2.5645 0.1536
31 6 4 -1.6828 -0.0958
31 6 5 0.7268 0.0267
31 7 1 -2.5618 0.2102
31 7 2 1.8515 0.0673
31 7 3 -2.9156 0.0010
31 7 4 2.4632 0.0828
31 7 5 -1.4449 0.4477
31 8 1 0.8087 -0.3522
31 8 2 0.4585 -0.0759
31 8 3 -3.6791 -0.2128
31 8 4 0.1417 -0.0258
31 8 5 3.4299 -0.0661
31 9 1 -0.8007 0.2176
31 9 2 4.4659 -0.1760
31 9 3 -1.8647 -0.1087
31 9 4 -0.2614 0.0865
31 10 1 -3.1952 -0.0702
31 10 2 0.7005 -0.0518
31 10 3 -0.5328 -0.0065
31 10 4 0.9305 0.1182
31 11 1 -1.7844 0.4544
31 11 2 -0.9389 -0.0955
31 11 3 1.6318 0.4603
31 11 4 -1.9199 0.0040
31 12 1 2.4536 0.3497
31 12 2 -3.2516 0.2592
31 12 3 0.9296 0.1117
31 12 4 3.4624 -0.1315
31 13 1 -0.8110 0.5980
31 13 2 2.5615 0.2343
31 13 3 0.3793 0.9649
31 14 1 -0.3143 0.1776
31 14 2 0.6198 0.1037
31 14 3 0.1673 -0.0458
31 15 1 -0.6167 0.2111
31 15 2 -0.8389 0.0750
31 15 3 0.3603 -0.6381
31 16 1 3.5896 -0.2179
31 16 2 1.5125 -0.1536
31 17 1 0.6402 0.2691
32 0 0 -8.7233 0.1195
32 0 2 -2.4535 -2.7681
32 0 4 -0.1141 -2.4516
32 1 0 -0.0441 0.0583
32 1 1 0.6804 -0.1668
32 1 2 -0.1493 -0.0041
32 1 3 -0.7597 -0.2562
32 1 4 -1.2846 -0.2791
32 1 5 0.9973 -0.3929
32 2 0 -7.5743 -0.0180
32 2 1 1.4370 0.0809
32 2 2 -3.5751 -0.5556
32 2 3 -4.5055 -0.0920
32 2 4 0.3339 -0.5687
32 2 5 -1.5002 -0.1112
32 3 0 0.8846 0.1668
32 3 1 1.1908 0.2742
32 3 2 -0.7918 0.4840
32 3 3 1.1775 0.3566
32 3 4 -2.0833 0.6080
32 3 5 0.6708 -0.2747
32 4 0 -5.0388 0.1565
32 4 1 -2.6803 0.4692
32 4 2 -1.0715 0.7991
32 4 3 -1.8410 0.0577
32 4 4 -0.6432 0.8209
32 4 5 1.2739 -0.1560
32 5 0 -2.9863 0.0778
32 5 1 -2.2261 0.0913
32 5 2 -2.3043 0.3609
32 5 3 -2.3747 -0.0030
32 5 4 0.6720 0.4004
32 5 5 0.4801 -0.0758
32 6 0 -3.4083 -0.1939
32 6 1 1.1472 0.0440
32 6 2 -1.7981 0.1908
32 6 3 -3.4669 -0.0018
32 6 4 5.1132 1.0188
32 6 5 -2.4928 -0.0212
32 7 0 2.0460 -0.1615
32 7 1 2.9044 -0.0311
32 7 2 0.5700 -0.1728
32 7 3 -1.6896 -0.1286
32 7 4 0.4762 -0.2173
32 8 0 -2.1218 -0.5721
32 8 1 3.5054 -0.4030
32 8 2 -0.5947 -1.0788
32 8 3 -0.4371 -0.0361
32 8 4 0.0098 -0.3392
32 9 0 -1.3509 -0.0259
32 9 1 0.6489 -0.1330
32 9 2 -2.4077 -0.2135
32 9 3 0.8428 -0.1159
32 9 4 -0.4906 -0.2764
32 10 0 0.9842 -0.0185
32 10 1 -1.8699 -0.1186
32 10 2 -0.5186 -0.0947
32 10 3 -1.4442 -0.2182
32 10 4 4.9697 0.0898
32 11 0 -0.6662 0.1151
32 11 1 1.8161 0.1218
32 11 2 1.1647 0.2027
32 11 3 -1.1518 0.0710
32 11 4 -2.1079 0.1135
32 12 0 2.1616 -0.1761
32 12 1 6.0568 0.1890
32 12 2 1.0435 0.6896
32 12 3 -0.3623 -0.0399
32 13 0 1.1198 0.0395
32 13 1 -1.9089 0.3977
32 13 2 0.9715 0.0886
32 13 3 -1.7229 0.2845
32 14 0 2.5017 -0.3285
32 14 1 -3.5847 0.2956
32 14 2 0.5397 0.0689
32 14 3 2.8806 0.2381
32 15 0 0.9030 -0.1423
32 15 1 -0.8272 -0.1852
32 15 2 -0.8622 -0.1646
32 16 1 2.9621 -0.0824
33 0 2 -4.9898 -0.1674
33 0 4 -2.1260 -0.1336
33 1 1 1.5334 -3.3227
33 1 2 2.6070 -0.1822
33 1 3 0.1476 -4.0255
33 1 4 -3.8937 0.0307
33 2 1 0.4821 0.0404
33 2 2 1.6981 0.0985
33 2 3 -0.0351 0.1701
33 2 4 -0.1323 -0.0663
33 3 1 1.7127 1.5661
33 3 2 -4.5358 0.1766
33 3 3 -0.8362 1.3294
33 3 4 -0.5325 -0.2678
33 4 1 -0.7180 0.3336
33 4 2 -1.9821 0.2651
33 4 3 2.5062 0.6549
33 4 4 1.7349 0.2279
33 5 1 1.7029 -0.0749
33 5 2 0.9558 0.1940
33 5 3 3.1473 0.3303
33 5 4 -2.6648 0.0373
33 6 1 0.6865 -0.0553
33 6 2 -0.6620 0.0702
33 6 3 3.8260 -0.1247
33 6 4 0.4552 -0.0950
33 7 1 0.0669 -0.4759
33 7 2 -4.0982 -0.1442
33 7 3 -0.1444 -0.0489
33 7 4 -1.5221 0.2411
33 8 1 2.6990 -0.3326
33 8 2 0.6553 -0.2261
33 8 3 1.3529 -0.6979
33 8 4 -0.9332 0.0095
33 9 1 -0.2769 -0.5533
33 9 2 -1.6673 -0.3080
33 9 3 -0.1130 -0.1637
33 9 4 0.1707 0.0832
33 10 1 -3.0285 -0.0156
33 10 2 0.1656 -0.2781
33 10 3 1.6701 -0.1184
33 10 4 -3.0161 -0.0454
33 11 1 -0.4424 -0.3364
33 11 2 -5.5737 -0.1122
33 11 3 0.2873 0.0505
33 12 1 2.2164 0.1955
33 12 2 -0.1444 0.2221
33 12 3 1.0731 0.3804
33 13 1 -0.0419 0.0659
33 13 2 1.1402 0.2153
33 13 3 -2.0384 0.5075
33 14 1 -1.4755 -0.0793
33 14 2 0.3787 0.1847
33 15 1 0.6263 -0.3322
33 15 2 -0.6839 0.0880
34 0 0 7.2817 -0.4410
34 0 2 1.8118 -2.6283
34 0 4 -0.9087 -1.8240
34 1 0 0.2895 -0.0588
34 1 1 1.1509 -0.0917
34 1 2 -0.9564 -0.5325
34 1 3 -2.1048 -0.4715
34 1 4 0.7451 -0.3955
34 2 0 6.5128 -0.3576
34 2 1 2.9939 0.1545
34 2 2 1.9217 -0.5904
34 2 3 0.9879 -0.1533
34 2 4 -1.2636 0.2460
34 3 0 -1.0406 -0.0123
34 3 1 1.8007 0.4499
34 3 2 2.0873 0.3064
34 3 3 2.6345 0.1668
34 3 4 -1.2732 0.5037
34 4 0 4.1801 0.0639
34 4 1 -0.7557 0.6223
34 4 2 2.9514 0.7418
34 4 3 4.0763 -0.1230
34 4 4 -3.3518 0.4172
34 5 0 -2.5105 0.0344
34 5 1 -1.4885 0.1258
34 5 2 1.0481 0.3808
34 5 3 0.7090 -0.0819
34 5 4 1.5756 0.2972
34 6 0 4.5933 -0.1224
34 6 1 2.3280 -0.0130
34 6 2 0.4150 0.1467
34 6 3 0.9092 0.0188
34 6 4 -0.7625 -0.0504
34 7 0 2.9345 -0.2197
34 7 1 0.6099 -0.0521
34 7 2 1.8246 -0.4923
34 7 3 1.6436 -0.0800
34 7 4 -1.6579 -0.3933
34 8 0 0.4739 -0.4550
34 8 1 -1.1919 -0.5867
34 8 2 -0.0818 -0.8388
34 8 3 1.2614 0.0764
34 8 4 -8.1742 -1.3896
34 9 0 -2.1534 0.0403
34 9 1 -3.0222 -0.2162
34 9 2 -1.1280 -0.5258
34 9 3 0.4609 0.0503
34 9 4 0.1287 -0.4636
34 10 0 -0.0529 0.0136
34 10 1 -4.7648 -0.2050
34 10 2 0.0828 -0.5001
34 10 3 -0.4674 -0.0739
34 11 0 -1.7136 0.0137
34 11 1 1.0594 0.1217
34 11 2 -1.1153 0.1759
34 11 3 2.5840 0.0584
34 12 0 -1.7262 0.0911
34 12 1 3.1084 0.2024
34 12 2 0.6872 -0.5146
34 12 3 -0.4843 0.0474
34 13 0 0.0577 0.0073
34 13 1 0.3894 0.6180
34 13 2 0.3968 0.1886
34 14 1 -3.1568 0.2494
34 14 2 -0.9961 -1.0348
35 0 2 -2.1389 -0.0624
35 0 4 -0.0209 -0.1961
35 1 1 -1.8929 -3.2515
35 1 2 2.4233 -0.0066
35 1 3 -0.6058 -2.9724
35 1 4 -1.7882 0.1478
35 2 1 0.6092 0.1048
35 2 2 2.8094 -0.0209
35 2 3 -1.7397 0.3092
35 2 4 -0.1782 -0.1133
35 3 1 -1.2978 1.2178
35 3 2 -4.0841 0.0836
35 3 3 -0.8321 1.9675
35 3 4 0.5172 -0.3931
35 4 1 -0.7886 0.3757
35 4 2 0.2609 0.1560
35 4 3 0.5418 0.4911
35 4 4 -0.9699 0.0493
35 5 1 0.2405 -0.0934
35 5 2 2.6917 0.1035
35 5 3 1.0855 0.8740
35 5 4 0.1906 -0.1800
35 6 1 -0.5492 -0.0423
35 6 2 0.2151 -0.2012
35 6 3 -1.1994 -0.0088
35 6 4 -0.7624 -0.0632
35 7 1 0.3707 -0.4164
35 7 2 0.0264 -0.1899
35 7 3 -1.6883 -0.5574
35 8 1 1.9271 -0.2646
35 8 2 0.9830 -0.2902
35 8 3 -1.4755 -0.3513
35 9 1 0.4589 -0.0139
35 9 2 3.6445 -0.2184
35 9 3 -0.1243 -0.9880
35 10 1 -2.0984 0.1006
35 10 2 -1.3047 -0.0165
35 10 3 -0.9657 -0.0464
35 11 1 1.3078 -0.0198
35 11 2 0.5511 0.0754
35 12 1 1.3912 0.2031
35 12 2 0.2399 0.3246
35 13 1 0.6443 0.1458
35 13 2 2.2205 0.2869
36 0 0 -3.8868 0.0893
36 0 2 -2.8478 -2.3307
36 1 0 2.1410 -0.0079
36 1 1 -4.4055 -0.1099
36 1 2 -1.8407 -0.1848
36 1 3 0.1634 -0.3311
36 2 0 -4.0536 0.0014
36 2 1 -1.7671 0.1988
36 2 2 -0.8440 -0.4237
36 2 3 -3.2668 -0.0783
36 3 0 1.2468 -0.0208
36 3 1 -2.5735 0.3237
36 3 2 -0.6341 0.3420
36 3 3 1.0616 0.2548
36 4 0 -2.3428 0.2675
36 4 1 -4.1114 0.5867
36 4 2 0.5249 1.4919
36 4 3 -1.5696 -0.0320
36 5 0 0.3740 0.0296
36 5 1 -1.0192 -0.2084
36 5 2 -2.1005 0.2767
36 5 3 -1.4593 0.1568
36 6 0 0.5124 0.2027
36 6 1 2.1379 0.0734
36 6 2 -0.1272 0.9373
36 6 3 0.9038 0.1915
36 7 0 2.3434 -0.2219
36 7 1 2.1132 -0.3649
36 7 2 -0.8476 -0.3565
36 7 3 -0.5885 -0.0834
36 8 0 -1.9693 0.4276
36 8 1 1.8041 -0.3625
36 8 2 -0.5903 -0.1474
36 8 3 1.0621 0.0972
36 9 0 -1.2145 0.2288
36 9 1 0.1882 -0.3272
36 9 2 1.1473 -0.1031
36 9 3 -2.5656 -0.1807
36 10 0 -0.8923 0.5257
36 10 1 1.0046 -0.1047
36 10 2 -0.8477 0.3925
36 11 0 0.7468 0.1337
36 11 1 -0.4102 0.0649
36 11 2 0.2511 0.3371
36 12 1 2.9621 0.2320
37 0 2 -3.2809 -0.0884
37 1 1 0.7300 -2.8091
37 1 2 1.5811 -0.0809
37 1 3 -0.1440 -2.9278
37 2 1 -0.2200 0.1506
37 2 2 0.9120 -0.1410
37 2 3 -1.2938 0.3261
37 3 1 1.2184 1.4238
37 3 2 -1.9365 0.0869
37 3 3 0.3382 -0.0970
37 4 1 -0.0707 0.4076
37 4 2 -0.8543 0.2827
37 4 3 0.9609 0.7930
37 5 1 1.5005 0.7419
37 5 2 3.0763 0.3546
37 5 3 0.2400 -0.2169
37 6 1 -0.4467 -0.0751
37 6 2 -1.1152 0.0513
37 6 3 -1.1445 0.0715
37 7 1 -0.2861 -0.0855
37 7 2 -0.6535 0.1044
37 7 3 -1.5852 -0.3603
37 8 1 -0.4759 -0.2284
37 8 2 0.4261 -0.2130
37 9 1 -2.1405 0.1612
37 9 2 -0.7999 -0.1456
37 10 1 -2.7650 0.0509
37 10 2 -0.7971 -0.0287
37 11 1 -1.3298 -0.2548
38 0 0 1.2186 0.5294
38 0 2 -1.2328 -1.5907
38 1 0 -0.7917 0.1213
38 1 1 5.4823 -0.1920
38 1 2 0.4945 -0.1482
38 1 3 -1.8428 -0.1282
38 2 0 -0.5327 0.4391
38 2 1 1.8952 0.0173
38 2 2 0.3764 -0.5408
38 2 3 1.1716 -0.0750
38 3 0 -2.2608 0.0875
38 3 1 3.5893 0.3855
38 3 2 1.6417 0.6692
38 3 3 0.7625 0.0418
38 4 0 0.2508 0.6096
38 4 1 1.2177 0.5018
38 4 2 0.3056 0.4877
38 4 3 0.4535 -0.1355
38 5 0 -0.5590 0.1161
38 5 1 0.7909 0.0397
38 5 2 1.3758 0.6295
38 5 3 1.1885 0.0543
38 6 0 0.1195 -0.2274
38 6 1 0.5998 0.0077
38 6 2 -0.7758 -0.4973
38 7 0 0.5467 -0.1351
38 7 1 -1.6920 -0.2131
38 7 2 -0.2133 -0.2315
38 8 0 -0.3180 -0.4305
38 8 1 -3.4486 -0.2737
38 8 2 -0.5806 -0.9868
38 9 1 -0.1533 -0.2325
39 0 2 -2.8110 0.0063
39 1 1 -1.0305 -2.2457
39 1 2 0.8036 0.1028
39 2 1 0.3754 0.1729
39 2 2 2.4271 0.0600
39 3 1 -0.4940 0.9138
39 3 2 -0.9419 -0.0025
39 4 1 0.9787 0.4084
39 4 2 0.8640 0.2869
39 5 1 -0.4942 0.3043
39 5 2 0.8084 0.0508
39 6 1 0.7587 -0.1498
39 6 2 0.6248 0.0031
39 7 1 -0.2736 -0.7331
40 1 1 -4.8658 -0.0614
40 1 2 1.0249 -0.2643
40 2 1 -1.6162 -0.0914
40 2 2 0.2047 -0.8190
40 3 0 1.4343 0.0377
40 3 1 -2.2880 0.4634
40 3 2 -0.9133 0.4713
40 4 1 -0.8467 0.3434
40 5 1 1.2102 0.2100
0 0 0 0.0 0.0
;
_shelx_fab_checksum              18755
_olex2_submission_special_instructions 'No special instructions were received'
_oxdiff_exptl_absorpt_empirical_details
;
Empirical correction (ABSPACK) includes:
- Absorption correction using spherical harmonics
- Frame scaling
;
_oxdiff_exptl_absorpt_empirical_full_max 4.949
_oxdiff_exptl_absorpt_empirical_full_min 0.411
loop_
_space_group_symop_operation_xyz
'x, y, z'
'-x+1/2, -y, z+1/2'
'-x, y+1/2, -z+1/2'
'x+1/2, -y+1/2, -z'
'-x, -y, -z'
'x-1/2, y, -z-1/2'
'x, -y-1/2, z-1/2'
'-x-1/2, y-1/2, z'
loop_
_atom_site_label
_atom_site_type_symbol
_atom_site_fract_x
_atom_site_fract_y
_atom_site_fract_z
_atom_site_U_iso_or_equiv
_atom_site_adp_type
_atom_site_occupancy
_atom_site_site_symmetry_order
_atom_site_calc_flag
_atom_site_refinement_flags_posn
_atom_site_refinement_flags_adp
_atom_site_refinement_flags_occupancy
Pd1 Pd 0.500000 0.500000 0.000000 0.03045(17) Uani 1 2 d S T P
O3 O 0.26896(12) 0.23727(19) -0.2855(7) 0.0418(11) Uani 1 1 d . . .
O4 O 0.30730(12) 0.15885(18) -0.1857(7) 0.0427(11) Uani 1 1 d . . .
N2 N 0.44827(14) 0.47636(19) 0.1319(7) 0.0308(11) Uani 1 1 d . . .
N1 N 0.50818(15) 0.5666(2) 0.1998(7) 0.0318(11) Uani 1 1 d . . .
O1 O 0.33932(15) 0.7109(2) 0.9947(8) 0.0541(12) Uani 1 1 d . . .
O2 O 0.34069(16) 0.6178(2) 1.1301(7) 0.0581(14) Uani 1 1 d . . .
C16 C 0.42223(17) 0.4307(2) 0.0744(8) 0.0295(12) Uani 1 1 d . . .
C17 C 0.42683(18) 0.3934(2) -0.0850(9) 0.0343(13) Uani 1 1 d . . .
C19 C 0.39463(17) 0.3466(2) -0.1241(8) 0.0305(12) Uani 1 1 d . . .
C23 C 0.37164(16) 0.2412(2) -0.1266(8) 0.0294(12) Uani 1 1 d . . .
H23 H 0.376631 0.199498 -0.108219 0.035 Uiso 1 1 calc R . .
C24 C 0.40149(17) 0.2840(2) -0.0972(8) 0.0298(12) Uani 1 1 d . . .
H24 H 0.426601 0.270781 -0.058780 0.036 Uiso 1 1 calc R . .
C4 C 0.44736(18) 0.5534(3) 0.3896(9) 0.0337(13) Uani 1 1 d . . .
C3 C 0.48420(18) 0.5800(2) 0.3509(9) 0.0355(13) Uani 1 1 d . . .
C8 C 0.37606(18) 0.6306(3) 0.8431(9) 0.0343(13) Uani 1 1 d . . .
C13 C 0.43118(17) 0.5040(2) 0.2879(8) 0.0290(12) Uani 1 1 d . . .
C18 C 0.45869(18) 0.3952(2) -0.2130(9) 0.0314(13) Uani 1 1 d . . .
C5 C 0.42349(18) 0.5798(2) 0.5517(8) 0.0320(13) Uani 1 1 d . . .
C14 C 0.39373(19) 0.4758(2) 0.3291(9) 0.0347(13) Uani 1 1 d . . .
H14 H 0.376144 0.486809 0.426424 0.042 Uiso 1 1 calc R . .
C15 C 0.38867(18) 0.4302(3) 0.2007(9) 0.0355(13) Uani 1 1 d . . .
H15 H 0.367194 0.403178 0.195104 0.043 Uiso 1 1 calc R . .
C7 C 0.38562(19) 0.6653(3) 0.6835(10) 0.0399(15) Uani 1 1 d . . .
H7 H 0.376519 0.705601 0.673146 0.048 Uiso 1 1 calc R . .
C25 C 0.30274(18) 0.2131(3) -0.2160(9) 0.0341(13) Uani 1 1 d . . .
C6 C 0.4086(2) 0.6402(3) 0.5393(9) 0.0395(15) Uani 1 1 d . . .
H6 H 0.414487 0.663801 0.431450 0.047 Uiso 1 1 calc R . .
C11 C 0.35051(19) 0.6581(3) 0.9948(10) 0.0417(14) Uani 1 1 d . . .
C21 C 0.32687(18) 0.3230(3) -0.2144(9) 0.0352(13) Uani 1 1 d . . .
H21 H 0.301900 0.336042 -0.255541 0.042 Uiso 1 1 calc R . .
C1 C 0.5378(2) 0.6405(3) 0.3862(10) 0.0415(15) Uani 1 1 d . . .
H1 H 0.556349 0.668693 0.432529 0.050 Uiso 1 1 calc R . .
C20 C 0.35673(19) 0.3653(3) -0.1839(9) 0.0387(14) Uani 1 1 d . . .
H20 H 0.351627 0.406999 -0.203295 0.046 Uiso 1 1 calc R . .
C22 C 0.33398(16) 0.2611(2) -0.1841(8) 0.0297(12) Uani 1 1 d . . .
C2 C 0.5029(2) 0.6259(3) 0.4689(9) 0.0433(15) Uani 1 1 d . . .
H2 H 0.492758 0.642437 0.581986 0.052 Uiso 1 1 calc R . .
C9 C 0.39049(19) 0.5702(3) 0.8580(9) 0.0389(14) Uani 1 1 d . . .
H9 H 0.384479 0.546438 0.965377 0.047 Uiso 1 1 calc R . .
C10 C 0.41374(19) 0.5461(3) 0.7121(9) 0.0375(14) Uani 1 1 d . . .
H10 H 0.423052 0.505891 0.722904 0.045 Uiso 1 1 calc R . .
C26 C 0.23754(19) 0.1927(3) -0.3240(12) 0.0526(19) Uani 1 1 d . . .
H26A H 0.246471 0.163903 -0.419502 0.079 Uiso 1 1 calc GR . .
H26B H 0.214277 0.213766 -0.370012 0.079 Uiso 1 1 calc GR . .
H26C H 0.231145 0.170951 -0.207886 0.079 Uiso 1 1 calc GR . .
C12 C 0.3148(3) 0.6410(4) 1.2794(12) 0.071(2) Uani 1 1 d . . .
H12A H 0.289404 0.651545 1.225011 0.107 Uiso 1 1 calc GR . .
H12B H 0.326526 0.676984 1.336318 0.107 Uiso 1 1 calc GR . .
H12C H 0.311233 0.609939 1.376050 0.107 Uiso 1 1 calc GR . .
loop_
_atom_site_aniso_label
_atom_site_aniso_U_11
_atom_site_aniso_U_22
_atom_site_aniso_U_33
_atom_site_aniso_U_23
_atom_site_aniso_U_13
_atom_site_aniso_U_12
Pd1 0.0396(3) 0.0203(2) 0.0314(3) -0.0031(2) 0.0045(3) -0.0033(2)
O3 0.037(2) 0.041(2) 0.047(3) -0.005(2) -0.011(2) -0.0042(18)
O4 0.039(2) 0.033(2) 0.056(3) -0.005(2) -0.003(2) -0.0059(18)
N2 0.038(2) 0.018(2) 0.037(3) -0.0035(19) 0.001(2) -0.0024(18)
N1 0.045(3) 0.025(2) 0.026(2) -0.0043(19) 0.003(2) -0.006(2)
O1 0.063(3) 0.044(3) 0.056(3) -0.011(2) 0.012(3) 0.011(2)
O2 0.083(4) 0.044(3) 0.048(3) 0.000(2) 0.034(3) 0.009(2)
C16 0.034(3) 0.021(2) 0.033(3) -0.001(2) 0.003(3) -0.005(2)
C17 0.042(3) 0.020(2) 0.041(3) 0.000(2) -0.002(3) 0.000(2)
C19 0.038(3) 0.024(2) 0.029(3) -0.004(2) 0.002(3) -0.001(2)
C23 0.039(3) 0.019(2) 0.030(3) 0.000(2) 0.002(3) 0.000(2)
C24 0.035(3) 0.020(2) 0.034(3) 0.002(2) 0.002(3) 0.000(2)
C4 0.042(3) 0.028(3) 0.032(3) 0.004(2) 0.003(3) 0.002(2)
C3 0.044(3) 0.024(3) 0.039(3) -0.004(2) 0.006(3) -0.001(2)
C8 0.039(3) 0.035(3) 0.030(3) -0.004(3) 0.001(3) -0.004(2)
C13 0.041(3) 0.020(2) 0.026(3) 0.004(2) 0.010(3) -0.002(2)
C18 0.044(3) 0.016(2) 0.034(3) -0.002(2) 0.006(3) 0.001(2)
C5 0.043(3) 0.025(3) 0.028(3) -0.004(2) 0.006(3) -0.008(2)
C14 0.049(3) 0.020(2) 0.035(3) 0.000(2) 0.009(3) -0.003(2)
C15 0.041(3) 0.028(3) 0.038(3) 0.001(3) 0.004(3) -0.006(2)
C7 0.049(4) 0.020(2) 0.050(4) 0.000(3) 0.005(3) 0.003(2)
C25 0.038(3) 0.037(3) 0.027(3) 0.000(2) -0.002(3) -0.004(3)
C6 0.058(4) 0.026(3) 0.034(3) -0.002(2) 0.012(3) -0.003(3)
C11 0.044(3) 0.042(3) 0.039(4) -0.008(3) 0.001(3) 0.002(3)
C21 0.033(3) 0.037(3) 0.035(3) 0.001(3) -0.002(3) 0.004(2)
C1 0.053(4) 0.026(3) 0.045(4) -0.017(3) 0.005(3) -0.009(3)
C20 0.051(4) 0.022(3) 0.044(4) -0.002(3) -0.007(3) 0.007(2)
C22 0.036(3) 0.026(3) 0.027(3) -0.002(2) 0.005(3) -0.003(2)
C2 0.054(4) 0.038(3) 0.038(4) -0.013(3) 0.013(3) -0.005(3)
C9 0.052(4) 0.030(3) 0.034(3) -0.002(3) 0.004(3) 0.001(3)
C10 0.050(4) 0.026(3) 0.036(3) -0.007(3) 0.006(3) 0.004(2)
C26 0.036(3) 0.060(4) 0.062(5) -0.006(4) -0.012(4) -0.003(3)
C12 0.075(6) 0.084(6) 0.055(5) -0.007(5) 0.030(5) 0.011(5)
loop_
_atom_type_symbol
_atom_type_description
_atom_type_scat_dispersion_real
_atom_type_scat_dispersion_imag
_atom_type_scat_source
C C 0.0181 0.0091 'International Tables Vol C Tables 4.2.6.8 and 6.1.1.4'
H H 0.0000 0.0000 'International Tables Vol C Tables 4.2.6.8 and 6.1.1.4'
N N 0.0311 0.0180 'International Tables Vol C Tables 4.2.6.8 and 6.1.1.4'
O O 0.0492 0.0322 'International Tables Vol C Tables 4.2.6.8 and 6.1.1.4'
Pd Pd 0.1215 3.9337 'International Tables Vol C Tables 4.2.6.8 and 6.1.1.4'
loop_
_geom_angle_atom_site_label_1
_geom_angle_atom_site_label_2
_geom_angle_atom_site_label_3
_geom_angle
_geom_angle_site_symmetry_1
_geom_angle_site_symmetry_3
N2 Pd1 N2 180.0 5_665 .
N1 Pd1 N2 89.19(19) . .
N1 Pd1 N2 90.81(19) . 5_665
N1 Pd1 N2 89.19(19) 5_665 5_665
N1 Pd1 N2 90.81(19) 5_665 .
N1 Pd1 N1 180.0 . 5_665
C25 O3 C26 114.8(5) . .
C16 N2 Pd1 126.3(4) . .
C13 N2 Pd1 127.4(4) . .
C13 N2 C16 106.2(5) . .
C3 N1 Pd1 127.3(4) . .
C3 N1 C18 107.2(5) . 5_665
C18 N1 Pd1 125.4(4) 5_665 .
C11 O2 C12 115.4(6) . .
N2 C16 C17 125.6(5) . .
N2 C16 C15 109.0(5) . .
C17 C16 C15 125.3(5) . .
C16 C17 C19 117.3(5) . .
C16 C17 C18 125.6(5) . .
C18 C17 C19 117.1(5) . .
C24 C19 C17 121.0(5) . .
C24 C19 C20 118.3(5) . .
C20 C19 C17 120.7(5) . .
C24 C23 H23 120.3 . .
C24 C23 C22 119.4(5) . .
C22 C23 H23 120.3 . .
C19 C24 H24 119.4 . .
C23 C24 C19 121.1(5) . .
C23 C24 H24 119.4 . .
C3 C4 C13 124.6(6) . .
C3 C4 C5 117.5(5) . .
C13 C4 C5 117.9(5) . .
N1 C3 C4 126.0(5) . .
N1 C3 C2 109.5(5) . .
C4 C3 C2 124.5(6) . .
C7 C8 C11 119.1(5) . .
C7 C8 C9 119.3(6) . .
C9 C8 C11 121.6(6) . .
N2 C13 C4 125.2(5) . .
N2 C13 C14 109.9(5) . .
C4 C13 C14 124.8(5) . .
N1 C18 C17 126.2(5) 5_665 .
N1 C18 C1 108.2(5) 5_665 5_665
C17 C18 C1 125.7(5) . 5_665
C6 C5 C4 120.1(5) . .
C10 C5 C4 122.4(5) . .
C10 C5 C6 117.5(5) . .
C13 C14 H14 126.5 . .
C15 C14 C13 107.1(5) . .
C15 C14 H14 126.5 . .
C16 C15 H15 126.2 . .
C14 C15 C16 107.7(5) . .
C14 C15 H15 126.2 . .
C8 C7 H7 120.0 . .
C6 C7 C8 120.1(5) . .
C6 C7 H7 120.0 . .
O3 C25 C22 112.0(5) . .
O4 C25 O3 123.5(5) . .
O4 C25 C22 124.4(6) . .
C5 C6 H6 119.2 . .
C7 C6 C5 121.5(6) . .
C7 C6 H6 119.2 . .
O1 C11 O2 123.3(6) . .
O1 C11 C8 124.2(7) . .
O2 C11 C8 112.5(5) . .
C20 C21 H21 120.0 . .
C20 C21 C22 120.0(5) . .
C22 C21 H21 120.0 . .
C18 C1 H1 126.2 5_665 .
C2 C1 C18 107.6(5) . 5_665
C2 C1 H1 126.2 . .
C19 C20 H20 119.5 . .
C21 C20 C19 120.9(5) . .
C21 C20 H20 119.5 . .
C23 C22 C25 117.6(5) . .
C21 C22 C23 120.1(5) . .
C21 C22 C25 122.3(5) . .
C3 C2 H2 126.3 . .
C1 C2 C3 107.5(5) . .
C1 C2 H2 126.3 . .
C8 C9 H9 120.2 . .
C10 C9 C8 119.6(6) . .
C10 C9 H9 120.2 . .
C5 C10 C9 122.0(5) . .
C5 C10 H10 119.0 . .
C9 C10 H10 119.0 . .
O3 C26 H26A 109.5 . .
O3 C26 H26B 109.5 . .
O3 C26 H26C 109.5 . .
H26A C26 H26B 109.5 . .
H26A C26 H26C 109.5 . .
H26B C26 H26C 109.5 . .
O2 C12 H12A 109.5 . .
O2 C12 H12B 109.5 . .
O2 C12 H12C 109.5 . .
H12A C12 H12B 109.5 . .
H12A C12 H12C 109.5 . .
H12B C12 H12C 109.5 . .
loop_
_geom_bond_atom_site_label_1
_geom_bond_atom_site_label_2
_geom_bond_distance
_geom_bond_site_symmetry_2
Pd1 N2 2.030(5) .
Pd1 N2 2.030(5) 5_665
Pd1 N1 2.025(4) 5_665
Pd1 N1 2.025(4) .
O3 C25 1.339(7) .
O3 C26 1.457(7) .
O4 C25 1.207(7) .
N2 C16 1.381(7) .
N2 C13 1.367(7) .
N1 C3 1.356(8) .
N1 C18 1.389(7) 5_665
O1 C11 1.206(8) .
O2 C11 1.327(8) .
O2 C12 1.446(8) .
C16 C17 1.383(8) .
C16 C15 1.429(8) .
C17 C19 1.507(8) .
C17 C18 1.392(8) .
C19 C24 1.390(7) .
C19 C20 1.399(8) .
C23 H23 0.9300 .
C23 C24 1.382(7) .
C23 C22 1.394(8) .
C24 H24 0.9300 .
C4 C3 1.392(8) .
C4 C13 1.394(8) .
C4 C5 1.498(8) .
C3 C2 1.435(8) .
C8 C7 1.380(9) .
C8 C11 1.485(9) .
C8 C9 1.401(8) .
C13 C14 1.428(8) .
C18 N1 1.389(7) 5_665
C18 C1 1.439(8) 5_665
C5 C6 1.405(8) .
C5 C10 1.374(8) .
C14 H14 0.9300 .
C14 C15 1.344(8) .
C15 H15 0.9300 .
C7 H7 0.9300 .
C7 C6 1.378(9) .
C25 C22 1.495(8) .
C6 H6 0.9300 .
C21 H21 0.9300 .
C21 C20 1.377(8) .
C21 C22 1.380(8) .
C1 C18 1.439(8) 5_665
C1 H1 0.9300 .
C1 C2 1.343(9) .
C20 H20 0.9300 .
C2 H2 0.9300 .
C9 H9 0.9300 .
C9 C10 1.383(8) .
C10 H10 0.9300 .
C26 H26A 0.9600 .
C26 H26B 0.9600 .
C26 H26C 0.9600 .
C12 H12A 0.9600 .
C12 H12B 0.9600 .
C12 H12C 0.9600 .
