#------------------------------------------------------------------------------
#$Date: 2019-08-14 03:26:17 +0300 (Wed, 14 Aug 2019) $
#$Revision: 217514 $
#$URL: file:///home/coder/svn-repositories/cod/cif/1/55/22/1552207.cif $
#------------------------------------------------------------------------------
#
# This file is available in the Crystallography Open Database (COD),
# http://www.crystallography.net/
#
# All data on this site have been placed in the public domain by the
# contributors.
#
data_1552207
loop_
_publ_author_name
'El Abbassi, Maria'
'Zwick, Patrick'
'Rates, Alfredo'
'Stefani, Davide'
'Prescimone, Alessandro'
'Mayor, Marcel'
'van der Zant, Herre S. J.'
'Duli\'c, Diana'
_publ_section_title
;
 Unravelling the conductance path through single-porphyrin junctions
;
_journal_name_full               'Chemical Science'
_journal_paper_doi               10.1039/C9SC02497B
_journal_year                    2019
_chemical_absolute_configuration ad
_chemical_formula_moiety         'C64 H56 N4 O3 S2 Zn1'
_chemical_formula_sum            'C64 H56 N4 O3 S2 Zn'
_chemical_formula_weight         1058.68
_chemical_melting_point          ?
_chemical_name_systematic
'[S,S'-(((10,20-bis(4-(tert-butyl)phenyl)porphyrinato-5,15-diyl)bis(ethyne-2,1-diyl))bis(4,1-phenylene)) diethanethioate]zinc(II)'
_space_group_IT_number           4
_space_group_name_Hall           'P 2yb'
_space_group_name_H-M_alt        'P 1 21 1'
_symmetry_cell_setting           monoclinic
_symmetry_space_group_name_Hall  'P 2yb'
_symmetry_space_group_name_H-M   'P 1 21 1'
_atom_sites_solution_hydrogens   difmap
_atom_sites_solution_primary     other
_audit_creation_date             2018-06-01
_audit_creation_method           CRYSTALS_ver_14.61_build_6949
_audit_update_record
;
2019-04-16 deposited with the CCDC.    2019-08-13 downloaded from the CCDC.
;
_cell_angle_alpha                90
_cell_angle_beta                 90.077(3)
_cell_angle_gamma                90
_cell_formula_units_Z            2
_cell_length_a                   10.5687(6)
_cell_length_b                   17.5433(9)
_cell_length_c                   14.2726(8)
_cell_measurement_reflns_used    9974
_cell_measurement_temperature    123
_cell_measurement_theta_max      70
_cell_measurement_theta_min      3
_cell_volume                     2646.3(3)
_computing_cell_refinement       'Apex2 (Bruker AXS, 2006)'
_computing_data_collection       'Apex2 (Bruker AXS, 2006)'
_computing_data_reduction        'Apex2 (Bruker AXS, 2006)'
_computing_molecular_graphics    'CAMERON (Watkin et al., 1996)'
_computing_publication_material  'CRYSTALS (Betteridge et al., 2003)'
_computing_structure_refinement  'CRYSTALS (Betteridge et al., 2003)'
_computing_structure_solution    'Superflip (Palatinus & Chapuis, 2007)'
_diffrn_ambient_temperature      123
_diffrn_measured_fraction_theta_full 0.964
_diffrn_measured_fraction_theta_max 0.941
_diffrn_measurement_device       Area
_diffrn_measurement_device_type  'Bruker Kappa Apex2'
_diffrn_measurement_method       '\f & \w scans'
_diffrn_radiation_monochromator  graphite
_diffrn_radiation_type           'Cu K\a'
_diffrn_radiation_wavelength     1.54178
_diffrn_reflns_av_R_equivalents  0.027
_diffrn_reflns_av_unetI/netI     0.054
_diffrn_reflns_limit_h_max       8
_diffrn_reflns_limit_h_min       -12
_diffrn_reflns_limit_k_max       20
_diffrn_reflns_limit_k_min       -20
_diffrn_reflns_limit_l_max       16
_diffrn_reflns_limit_l_min       -17
_diffrn_reflns_number            13644
_diffrn_reflns_theta_full        68.000
_diffrn_reflns_theta_max         70.323
_diffrn_reflns_theta_min         3.993
_diffrn_standards_number         0
_exptl_absorpt_coefficient_mu    1.785
_exptl_absorpt_correction_T_max  0.87
_exptl_absorpt_correction_T_min  0.79
_exptl_absorpt_correction_type   multi-scan
_exptl_absorpt_process_details   'SADABS (Siemens, 1996)'
_exptl_crystal_colour            green
_exptl_crystal_density_diffrn    1.329
_exptl_crystal_density_meas      ?
_exptl_crystal_density_method    'not measured'
_exptl_crystal_description       block
_exptl_crystal_F_000             1108
_exptl_crystal_recrystallization_method ' '
_exptl_crystal_size_max          0.120
_exptl_crystal_size_mid          0.100
_exptl_crystal_size_min          0.080
_refine_diff_density_max         0.37
_refine_diff_density_min         -0.67
_refine_ls_abs_structure_details
; 
 Parsons, Flack & Wagner (2013), 
 2429 Friedel Pairs 
;
_refine_ls_abs_structure_Flack   0.037(10)
_refine_ls_extinction_method     None
_refine_ls_goodness_of_fit_ref   0.8466
_refine_ls_hydrogen_treatment    constr
_refine_ls_matrix_type           full
_refine_ls_number_parameters     668
_refine_ls_number_reflns         7367
_refine_ls_number_restraints     1
_refine_ls_R_factor_all          0.0456
_refine_ls_R_factor_gt           0.0439
_refine_ls_shift/su_max          0.0004331
_refine_ls_shift/su_mean         0.0000324
_refine_ls_structure_factor_coef Fsqd
_refine_ls_weighting_details
;
 Method= Modified Sheldrick 
 w=1/[\s^2^(F^2^) + ( 0.08P)^2^ + 4.85P] 
 ,where P=(max(Fo^2^,0) + 2Fc^2^)/3 
;
_refine_ls_weighting_scheme      calc
_refine_ls_wR_factor_all         0.1170
_refine_ls_wR_factor_gt          0.1153
_refine_ls_wR_factor_ref         0.1170
_reflns_limit_h_max              12
_reflns_limit_h_min              -12
_reflns_limit_k_max              20
_reflns_limit_k_min              -20
_reflns_limit_l_max              17
_reflns_limit_l_min              0
_reflns_number_gt                7044
_reflns_number_total             7406
_reflns_threshold_expression     I>2.0\s(I)
_oxford_diffrn_Wilson_B_factor   0.00
_oxford_diffrn_Wilson_scale      0.00
_oxford_refine_ls_r_factor_ref   0.0456
_oxford_refine_ls_scale          0.10280(3)
_oxford_reflns_number_all        7367
_oxford_structure_analysis_title 'ZWP412_123K_0m in P2(1)'
_iucr_refine_instructions_details
;
#
# Punched on 01/06/18 at 14:10:20
#
#LIST     12                                                                    
BLOCK SCALE X'S  U'S 
CONT ENANTIO 
RIDE C   (   3,X'S) H   (  31,X'S) H   (  32,X'S) 
RIDE C   (   4,X'S) H   (  41,X'S) H   (  42,X'S) 
RIDE C   (   5,X'S) H   (  52,X'S) H   (  51,X'S) 
RIDE C   (   6,X'S) H   (  61,X'S) H   (  62,X'S) 
RIDE C   (   9,X'S) H   (  91,X'S) 
RIDE C   (  10,X'S) H   ( 101,X'S) 
RIDE C   (  14,X'S) H   ( 141,X'S) 
RIDE C   (  15,X'S) H   ( 151,X'S) 
RIDE C   (  18,X'S) H   ( 181,X'S) H   ( 182,X'S) H   ( 183,X'S) 
RIDE C   (  19,X'S) H   ( 192,X'S) H   ( 191,X'S) H   ( 193,X'S) 
RIDE C   (  20,X'S) H   ( 202,X'S) H   ( 201,X'S) H   ( 203,X'S) 
RIDE C   (  21,X'S) H   ( 211,X'S) 
RIDE C   (  22,X'S) H   ( 221,X'S) 
RIDE C   (  30,X'S) H   ( 301,X'S) 
RIDE C   (  31,X'S) H   ( 311,X'S) 
RIDE C   (  36,X'S) H   ( 362,X'S) H   ( 361,X'S) H   ( 363,X'S) 
RIDE C   (  37,X'S) H   ( 371,X'S) 
RIDE C   (  38,X'S) H   ( 381,X'S) 
RIDE C   (  42,X'S) H   ( 421,X'S) 
RIDE C   (  43,X'S) H   ( 431,X'S) 
RIDE C   (  46,X'S) H   ( 461,X'S) 
RIDE C   (  47,X'S) H   ( 471,X'S) 
RIDE C   (  49,X'S) H   ( 491,X'S) 
RIDE C   (  50,X'S) H   ( 501,X'S) 
RIDE C   (  52,X'S) H   ( 522,X'S) H   ( 521,X'S) H   ( 523,X'S) 
RIDE C   (  53,X'S) H   ( 532,X'S) H   ( 531,X'S) H   ( 533,X'S) 
RIDE C   (  54,X'S) H   ( 541,X'S) H   ( 543,X'S) H   ( 542,X'S) 
RIDE C   (  62,X'S) H   ( 621,X'S) 
RIDE C   (  63,X'S) H   ( 631,X'S) 
RIDE C   (  68,X'S) H   ( 681,X'S) H   ( 682,X'S) H   ( 683,X'S) 
RIDE C   (  69,X'S) H   ( 691,X'S) 
RIDE C   (  70,X'S) H   ( 701,X'S) 
RIDE C   (  71,X'S) H   ( 711,X'S) 
RIDE C   (  72,X'S) H   ( 721,X'S) 
RIDE C   (  73,X'S) H   ( 731,X'S) 
RIDE C   (  74,X'S) H   ( 741,X'S) 
END                                                                             
#
# Punched on 01/06/18 at 14:10:20
#
#LIST     16                                                                    
NO 
REM   HREST   START (DO NOT REMOVE THIS LINE) 
REM   HREST   END (DO NOT REMOVE THIS LINE) 
END                                                                             
;
_cod_data_source_file            c9sc02497b2.cif
_cod_data_source_block           ZWP412_123K
_cod_depositor_comments
;
The following automatic conversions were performed:

'_chemical_melting_point' value 'not measured' was changed to '?' -
the value is undefined or not given.

'_exptl_crystal_density_meas' value 'not measured' was changed to '?'
- the value is perceived as not measured.

Automatic conversion script
Id: cif_fix_values 4973 2017-02-22 13:04:09Z antanas 
;
_cod_original_sg_symbol_H-M      'P 1 21 1 '
_cod_original_formula_sum        'C64 H56 N4 O3 S2 Zn1'
_cod_database_code               1552207
_oxford_refine_reflns_threshold_expression_ref I>-3.0\s(I)
_oxford_hooft_y                  0.034(9)
_oxford_bijvoet_difference       0.037(10)
_oxford_refined_flack_x          0.006(19)
_iucr_refine_reflections_details
; 
# An asterisk in column 34 indicates a format overflow 
# Data was input as F-squared 
   1   0   0  210.73    9.51 
   1   0   0  220.21    9.51 
   2   0   0    0.20    0.06 
   2   0   0    0.22    0.06 
   3   0   0    8.17    0.47 
  -3   0   0    9.55    0.48 
   3   0   0    9.50    0.48 
  -4   0   0    2.21    0.23 
   4   0   0    2.11    0.21 
   4   0   0    2.18    0.22 
   5   0   0   10.55    0.59 
  -5   0   0   10.09    0.58 
   5   0   0    9.21    0.57 
  -6   0   0    0.02    0.11 
  -7   0   0   49.22    2.43 
  -8   0   0   35.77    1.79 
  -9   0   0    1.73    0.30 
  -9   0   0    2.08    0.18 
  -9   0   0    2.39    0.21 
 -10   0   0    3.60    0.28 
 -10   0   0    3.83    0.30 
 -11   0   0    2.35    0.21 
 -11   0   0    2.47    0.19 
 -12   0   0    0.09    0.07 
   0  -1   0   -0.15    0.01 
   0  -1   0   -0.14    0.02 
   0  -1   0   -0.13    0.02 
   0  -1   0   -0.13    0.02 
   0   1   0   -0.14    0.02 
   0   1   0   -0.13    0.02 
   1  -1   0   29.21    1.36 
   1  -1   0   30.12    1.36 
  -1   1   0   29.38    1.36 
  -1   1   0   28.69    1.34 
  -1   1   0   31.45    1.35 
  -1   1   0   29.64    1.36 
   2  -1   0  141.72    6.01 
   2  -1   0  133.43    6.01 
  -2   1   0  129.84    5.99 
  -3  -1   0    3.47    0.22 
   3  -1   0    3.11    0.26 
   3  -1   0    3.32    0.26 
   3   1   0    3.91    0.21 
   3   1   0    3.80    0.21 
  -3   1   0    3.96    0.28 
   4  -1   0    6.98    0.50 
  -4  -1   0    8.47    0.46 
   4  -1   0    8.68    0.52 
   4   1   0    8.94    0.46 
   4   1   0    9.08    0.47 
  -4   1   0    8.89    0.52 
   5  -1   0   33.11    1.61 
  -5  -1   0   32.12    1.52 
   5   1   0   30.59    1.54 
   5   1   0   33.98    1.55 
  -5   1   0   32.89    1.58 
  -6  -1   0   18.98    0.96 
  -6   1   0   18.04    1.01 
  -7  -1   0    0.46    0.24 
  -7   1   0    0.34    0.29 
  -8  -1   0    2.49    0.30 
  -8   1   0    2.51    0.36 
  -9  -1   0    6.17    0.45 
  -9  -1   0    6.36    0.34 
  -9  -1   0    6.04    0.33 
  -9   1   0    6.90    0.56 
  -9   1   0    6.85    0.34 
  -9   1   0    6.74    0.34 
  -9   1   0    7.12    0.34 
 -10  -1   0    0.94    0.24 
 -10  -1   0    1.13    0.22 
 -10   1   0    0.55    0.22 
 -10   1   0    0.71    0.21 
 -10   1   0    0.61    0.23 
 -11  -1   0    0.01    0.08 
 -11  -1   0    0.17    0.09 
 -11   1   0    0.06    0.09 
 -11   1   0    0.02    0.09 
 -12   1   0    4.42    0.23 
 -12   1   0    4.30    0.23 
   0  -2   0   98.26    4.11 
   0  -2   0   91.65    4.11 
   0  -2   0   89.44    4.13 
   0  -2   0   91.53    4.13 
   0   2   0   89.38    4.14 
   0   2   0   86.44    4.13 
   1  -2   0   41.85    1.89 
  -1   2   0   42.01    1.89 
   1   2   0   40.63    1.84 
  -1   2   0   39.44    1.87 
  -1   2   0   40.69    1.87 
   1   2   0   42.37    1.84 
  -1   2   0   40.80    1.89 
   2  -2   0   90.59    4.11 
   2  -2   0   92.57    4.11 
   2  -2   0   89.77    4.11 
  -2   2   0   88.71    4.06 
  -2   2   0   92.67    4.10 
  -2   2   0   92.77    4.07 
  -3  -2   0   30.06    1.28 
   3  -2   0   29.13    1.41 
   3  -2   0   28.76    1.41 
   3  -2   0   29.41    1.41 
  -3   2   0   27.65    1.38 
   4  -2   0    8.18    0.53 
  -4  -2   0    8.47    0.43 
   4  -2   0    7.75    0.52 
   4  -2   0    7.76    0.52 
   4   2   0    8.72    0.43 
   4   2   0    8.35    0.43 
  -4   2   0    8.88    0.54 
   5  -2   0    6.82    0.48 
  -5  -2   0    6.35    0.37 
  -5   2   0    5.79    0.47 
   5   2   0    6.06    0.37 
   5   2   0    6.24    0.37 
   6  -2   0   10.15    0.66 
  -6  -2   0    9.33    0.53 
  -6   2   0    8.37    0.63 
   6   2   0    9.28    0.53 
  -7  -2   0    6.50    0.53 
  -7   2   0    7.77    0.72 
  -8  -2   0   17.84    0.94 
  -8   2   0   18.08    1.11 
  -8   2   0   18.45    0.73 
  -9  -2   0    5.26    0.30 
  -9   2   0    5.73    0.32 
  -9   2   0    5.53    0.30 
  -9   2   0    5.60    0.54 
  -9   2   0    6.21    0.32 
 -10  -2   0    6.87    0.38 
 -10   2   0    8.01    0.39 
 -10   2   0    7.08    0.39 
 -10   2   0    7.69    0.41 
 -11   2   0    1.46    0.18 
 -11   2   0    1.66    0.17 
 -11   2   0    1.54    0.18 
 -12   2   0    2.48    0.18 
 -12   2   0    2.19    0.16 
   0  -3   0    0.02    0.08 
   0  -3   0   -0.03    0.06 
   0  -3   0   -0.02    0.04 
   0  -3   0    0.03    0.07 
   0   3   0   -0.03    0.06 
   0   3   0   -0.02    0.07 
   1  -3   0   76.71    3.21 
   1  -3   0   74.89    3.23 
   1  -3   0   73.03    3.22 
  -1   3   0   66.97    3.20 
  -1   3   0   68.21    3.22 
   1   3   0   67.51    3.18 
  -1   3   0   73.83    3.21 
   1   3   0   68.43    3.18 
  -1   3   0   70.52    3.22 
  -1   3   0   69.25    3.22 
   2  -3   0   77.11    3.41 
   2  -3   0   74.34    3.41 
  -2   3   0   70.78    3.35 
  -2   3   0   74.46    3.35 
  -2   3   0   77.03    3.40 
   2   3   0   74.10    3.31 
   2   3   0   73.45    3.31 
   3  -3   0   50.36    2.38 
  -3  -3   0   49.92    2.20 
   3  -3   0   49.49    2.37 
  -3   3   0   49.96    2.26 
   3   3   0   52.20    2.24 
  -3   3   0   50.59    2.33 
  -3   3   0   48.80    2.26 
   3   3   0   50.93    2.24 
   4  -3   0   14.01    0.83 
  -4  -3   0   14.44    0.68 
  -4  -3   0   14.64    0.68 
   4   3   0   14.22    0.69 
   4   3   0   14.92    0.69 
  -4   3   0   14.39    0.83 
  -5  -3   0   21.22    1.03 
   5  -3   0   22.74    1.22 
  -5   3   0   23.54    1.21 
   5   3   0   23.01    1.06 
   5   3   0   21.45    1.05 
  -6  -3   0   15.68    0.77 
  -6   3   0   15.03    0.94 
  -7  -3   0    1.75    0.23 
  -7   3   0    1.87    0.40 
  -8  -3   0    3.55    0.23 
  -8   3   0    3.25    0.22 
  -8   3   0    3.52    0.45 
  -9  -3   0    1.45    0.16 
  -9   3   0    1.06    0.15 
  -9   3   0    1.26    0.17 
  -9   3   0    1.50    0.19 
  -9   3   0    1.08    0.31 
 -10  -3   0    0.00    0.22 
 -10   3   0    0.07    0.23 
 -10   3   0    0.50    0.21 
 -10   3   0    0.25    0.25 
 -11   3   0    5.12    0.27 
 -11   3   0    4.66    0.28 
 -11   3   0    4.75    0.28 
 -12   3   0    1.71    0.15 
 -12   3   0    1.95    0.15 
 -12   3   0    2.10    0.16 
   0  -4   0   62.06    2.73 
   0  -4   0   58.24    2.73 
   0  -4   0   58.11    2.81 
   0   4   0   61.10    2.84 
   0   4   0   56.78    2.82 
   1  -4   0  103.04    4.57 
   1  -4   0   99.97    4.53 
   1  -4   0  100.74    4.53 
   1  -4   0  107.05    4.57 
  -1   4   0  100.41    4.57 
  -1   4   0  100.71    4.57 
  -1   4   0   94.29    4.54 
   1   4   0   98.74    4.52 
   1   4   0   99.81    4.52 
  -1   4   0  103.30    4.57 
   2  -4   0   66.25    3.12 
   2  -4   0   64.23    3.08 
  -2   4   0   65.74    3.06 
   2   4   0   69.36    3.03 
  -2   4   0   67.43    3.06 
   2   4   0   71.41    3.04 
  -2   4   0   66.26    3.11 
   3  -4   0    9.26    0.62 
   3   4   0    9.96    0.50 
  -3   4   0    9.59    0.52 
  -3   4   0   10.42    0.63 
  -3   4   0    9.93    0.52 
   3   4   0   10.61    0.50 
   4  -4   0    2.51    0.33 
   4   4   0    2.62    0.18 
   4   4   0    2.74    0.19 
  -4   4   0    2.81    0.35 
  -5   4   0   23.27    1.26 
   5   4   0   22.74    1.07 
   5   4   0   22.23    1.07 
  -6   4   0   14.11    0.92 
  -7   4   0    2.51    0.51 
  -8  -4   0    0.13    0.09 
  -8   4   0    0.14    0.22 
  -8   4   0    0.30    0.10 
  -9  -4   0   13.84    0.55 
  -9   4   0   12.59    0.98 
  -9   4   0   12.86    0.56 
  -9   4   0   12.31    0.55 
  -9   4   0   12.63    0.55 
 -10   4   0    5.57    0.35 
 -10   4   0    6.64    0.38 
 -10   4   0    6.55    0.39 
 -11   4   0   11.43    0.48 
 -11   4   0   11.39    0.48 
 -11   4   0   11.03    0.49 
 -12   4   0    2.35    0.17 
 -12   4   0    2.59    0.17 
 -12   4   0    2.55    0.17 
   0  -5   0   -0.03    0.09 
   0  -5   0   -0.02    0.06 
   0  -5   0    0.05    0.10 
   0   5   0    0.06    0.12 
   0   5   0    0.01    0.11 
   1  -5   0   40.14    2.00 
   1  -5   0   38.52    1.95 
   1  -5   0   41.69    2.01 
   1  -5   0   41.12    1.95 
  -1   5   0   45.47    2.02 
   1   5   0   39.99    1.97 
  -1   5   0   44.63    2.02 
  -1   5   0   42.21    1.97 
   1   5   0   44.22    1.97 
  -1   5   0   42.61    2.01 
   2  -5   0   69.87    3.20 
   2  -5   0   72.40    3.26 
  -2   5   0   65.43    3.18 
   2   5   0   69.72    3.17 
   2   5   0   71.11    3.17 
  -3   5   0   35.95    1.69 
   3   5   0   38.13    1.67 
  -3   5   0   34.41    1.69 
   3   5   0   35.39    1.67 
  -3   5   0   35.11    1.77 
   4   5   0   12.91    0.64 
  -4   5   0   11.42    0.60 
  -4   5   0   12.72    0.81 
  -4   5   0   13.03    0.60 
   4   5   0   12.53    0.63 
  -5   5   0   94.41    4.45 
   5   5   0   97.69    4.32 
  -6   5   0   34.48    1.85 
  -7   5   0    6.29    0.75 
  -8  -5   0    2.51    0.21 
  -8   5   0    2.87    0.21 
  -8   5   0    2.35    0.46 
  -9   5   0    1.38    0.18 
  -9   5   0    0.98    0.17 
  -9   5   0    1.13    0.17 
 -10   5   0    0.75    0.25 
 -10   5   0    1.15    0.29 
 -10   5   0    1.18    0.28 
 -11   5   0    1.77    0.17 
 -11   5   0    1.55    0.17 
 -11   5   0    1.52    0.16 
 -12   5   0    3.16    0.19 
 -12   5   0    2.99    0.18 
 -12   5   0    2.90    0.18 
   0  -6   0    6.88    0.42 
   0  -6   0    6.54    0.40 
   0   6   0    6.52    0.56 
   0   6   0    6.13    0.54 
   1  -6   0   25.89    1.27 
  -1   6   0   26.73    1.36 
   1   6   0   25.95    1.31 
  -1   6   0   27.19    1.36 
   1   6   0   25.84    1.31 
   2   6   0   21.19    1.07 
   2   6   0   23.78    1.08 
  -2   6   0   18.93    1.07 
   3   6   0   37.70    1.77 
   3   6   0   37.95    1.76 
  -3   6   0   38.10    1.88 
  -3   6   0   35.59    1.78 
   4   6   0   17.15    0.87 
  -4   6   0   17.55    1.05 
  -4   6   0   18.59    0.86 
   4   6   0   17.59    0.87 
  -4   6   0   15.34    0.85 
  -5   6   0    5.09    0.53 
  -6   6   0    7.08    0.67 
  -7   6   0    9.59    1.01 
  -8   6   0   19.98    0.78 
  -8   6   0   19.70    0.79 
  -8   6   0   19.73    0.78 
  -8   6   0   19.09    1.31 
  -9   6   0   12.58    0.54 
  -9   6   0   12.18    0.54 
  -9   6   0   12.34    0.54 
 -10   6   0   15.74    0.66 
 -10   6   0   15.46    0.66 
 -10   6   0   14.99    0.65 
 -11   6   0    3.08    0.22 
 -11   6   0    3.35    0.21 
 -11   6   0    3.49    0.22 
 -12   6   0    1.65    0.14 
 -12   6   0    1.60    0.13 
 -12   6   0    1.70    0.14 
   0  -7   0    0.02    0.07 
   0  -7   0   -0.01    0.05 
   0   7   0    0.04    0.12 
   1  -7   0    5.41    0.36 
   1   7   0    5.41    0.43 
  -2  -7   0  109.14    3.86 
   2   7   0  111.65    5.03 
   3   7   0    4.76    0.35 
   3   7   0    3.61    0.33 
  -3   7   0    4.37    0.35 
   4   7   0    2.30    0.25 
  -4   7   0    2.57    0.24 
  -5   7   0   18.72    1.20 
  -6   7   0   26.39    1.58 
  -7   7   0    6.60    0.78 
  -8  -7   0    2.73    0.27 
  -8   7   0    2.94    0.22 
  -8   7   0    2.61    0.53 
  -8   7   0    2.43    0.22 
  -8   7   0    2.65    0.17 
  -8   7   0    2.75    0.22 
  -9   7   0    5.19    0.30 
  -9   7   0    4.62    0.29 
 -10   7   0    1.60    0.22 
 -10   7   0    1.76    0.24 
 -10   7   0    1.95    0.25 
 -11   7   0    0.25    0.09 
 -11   7   0    0.23    0.09 
 -11   7   0    0.21    0.08 
 -12   7   0    4.68    0.23 
 -12   7   0    4.58    0.22 
   0  -8   0   80.33    3.79 
   0  -8   0   85.95    3.79 
   1  -8   0   17.89    0.91 
   1   8   0   17.23    1.00 
  -2  -8   0   23.77    0.87 
   2   8   0   25.04    1.29 
   3   8   0    1.27    0.22 
  -4   8   0    0.04    0.10 
  -8  -8   0   10.48    0.57 
  -8   8   0    9.25    0.44 
  -8   8   0    9.04    0.44 
  -8   8   0    9.30    0.42 
  -8   8   0    9.75    0.45 
  -9   8   0    4.55    0.27 
  -9   8   0    4.53    0.28 
  -9   8   0    4.41    0.27 
 -10   8   0    0.83    0.20 
 -10   8   0    0.85    0.19 
 -10   8   0    0.38    0.21 
 -11   8   0    0.35    0.09 
 -11   8   0    0.60    0.10 
 -11   8   0    0.28    0.08 
   1  -9   0    3.02    0.26 
  -2  -9   0   37.04    1.34 
   2   9   0   38.99    1.93 
  -4  -9   0    3.44    0.24 
  -4   9   0    3.06    0.31 
  -5  -9   0    0.81    0.16 
  -7  -9   0    5.08    0.41 
  -7   9   0    4.63    0.31 
  -8  -9   0    0.22    0.13 
  -8   9   0    0.30    0.11 
  -8   9   0    0.14    0.08 
  -8   9   0    0.15    0.10 
  -9   9   0    6.29    0.33 
  -9   9   0    6.01    0.32 
  -9   9   0    6.40    0.33 
 -10   9   0    2.05    0.21 
 -10   9   0    1.70    0.20 
 -10   9   0    2.19    0.23 
 -11   9   0    0.50    0.09 
 -11   9   0    0.36    0.08 
 -11   9   0    0.48    0.09 
   1 -10   0   52.79    2.45 
  -2 -10   0    5.98    0.35 
  -2 -10   0    6.30    0.25 
   2 -10   0    6.44    0.45 
  -3 -10   0   12.93    0.63 
   3 -10   0   12.60    0.61 
  -4 -10   0   16.33    0.75 
  -4  10   0   14.35    0.91 
  -5 -10   0    0.22    0.10 
  -7 -10   0    7.34    0.54 
  -7  10   0    7.49    0.42 
  -7  10   0    7.96    0.41 
  -8 -10   0    3.12    0.30 
  -8  10   0    2.70    0.23 
  -8  10   0    3.11    0.23 
  -8  10   0    3.25    0.20 
  -9  10   0    2.07    0.19 
  -9  10   0    1.82    0.19 
 -10  10   0    1.16    0.22 
 -10  10   0    1.39    0.19 
 -11  10   0    0.21    0.07 
 -11  10   0    0.32    0.08 
   0 -11   0   -0.01    0.07 
   1 -11   0    2.44    0.21 
   1 -11   0    2.30    0.20 
   1 -11   0    2.45    0.20 
  -1 -11   0    2.00    0.20 
  -2 -11   0    1.03    0.16 
   2 -11   0    0.93    0.15 
   2 -11   0    1.01    0.08 
   2 -11   0    1.03    0.20 
  -2 -11   0    1.17    0.08 
   3 -11   0   27.20    1.24 
  -3 -11   0   28.13    1.25 
  -4 -11   0   60.69    2.62 
  -5 -11   0    4.24    0.29 
  -6 -11   0    8.74    0.54 
  -6  11   0    8.80    0.44 
  -7 -11   0    1.47    0.28 
  -7  11   0    1.77    0.22 
  -7  11   0    1.38    0.20 
  -8 -11   0    6.13    0.41 
  -8  11   0    5.53    0.31 
  -8  11   0    5.85    0.33 
  -8  11   0    6.48    0.31 
  -9  11   0    0.51    0.11 
  -9  11   0    0.41    0.10 
 -10  11   0    2.10    0.22 
 -10  11   0    1.98    0.20 
   0 -12   0    2.49    0.26 
   1 -12   0    5.96    0.35 
  -1 -12   0    5.70    0.36 
   2 -12   0   18.82    0.86 
  -2 -12   0   17.55    0.87 
  -2 -12   0   18.50    0.67 
   3 -12   0    7.43    0.31 
  -3 -12   0    7.85    0.44 
   3 -12   0    7.65    0.42 
  -4 -12   0    7.50    0.43 
  -5 -12   0    0.75    0.16 
  -5 -12   0    0.69    0.15 
  -6 -12   0   16.01    0.84 
  -6  12   0   14.84    0.69 
  -7 -12   0    0.76    0.25 
  -7  12   0    0.73    0.18 
  -8  12   0    0.19    0.10 
  -8  12   0    0.12    0.08 
  -8  12   0    0.20    0.10 
  -9  12   0    2.06    0.18 
  -9  12   0    2.06    0.18 
 -10  12   0    4.73    0.27 
 -10  12   0    4.66    0.27 
   0 -13   0    0.14    0.16 
   0  13   0    0.03    0.07 
  -1 -13   0    8.77    0.47 
   1 -13   0    8.29    0.47 
   1  13   0    8.13    0.43 
  -1  13   0    7.98    0.43 
   2 -13   0    0.22    0.10 
  -2 -13   0   -0.07    0.09 
  -2 -13   0    0.10    0.04 
  -2  13   0    0.11    0.09 
   2  13   0    0.28    0.09 
  -3 -13   0    4.01    0.30 
   3 -13   0    4.04    0.28 
  -4 -13   0   28.88    1.46 
   4 -13   0   30.84    1.11 
  -4 -13   0   29.46    1.36 
  -5 -13   0   35.16    1.60 
  -5 -13   0   36.17    1.73 
  -6 -13   0    3.44    0.32 
  -6  13   0    4.38    0.27 
  -7 -13   0    4.05    0.36 
  -7  13   0    4.00    0.30 
  -8  13   0    0.36    0.08 
  -8  13   0    0.42    0.10 
  -9  13   0    1.32    0.14 
   0 -14   0    0.85    0.19 
   0  14   0    0.71    0.16 
   1 -14   0    3.68    0.28 
  -1 -14   0    3.86    0.28 
   1  14   0    2.63    0.23 
  -1  14   0    2.62    0.23 
  -2 -14   0    0.42    0.06 
   2 -14   0    0.58    0.14 
  -2 -14   0    0.54    0.14 
   2  14   0    0.71    0.14 
  -2  14   0    0.65    0.15 
  -3 -14   0    9.33    0.53 
   3 -14   0   10.08    0.53 
  -4 -14   0   22.06    1.14 
  -4 -14   0   23.22    1.07 
  -5 -14   0   11.09    0.59 
  -5 -14   0   10.74    0.62 
   5 -14   0   10.70    0.42 
   6 -14   0    1.41    0.11 
  -6 -14   0    1.45    0.23 
  -6  14   0    1.18    0.18 
   7 -14   0    4.38    0.22 
  -7  14   0    3.65    0.28 
   8 -14   0    4.63    0.20 
  -8  14   0    4.94    0.26 
  -8  14   0    4.40    0.24 
  -9  14   0    0.39    0.08 
   0 -15   0    0.09    0.10 
   0 -15   0    0.03    0.07 
   0  15   0    0.01    0.08 
   1 -15   0    3.96    0.31 
  -1 -15   0    3.42    0.29 
  -1 -15   0    3.67    0.21 
  -1 -15   0    3.51    0.19 
   1 -15   0    3.80    0.25 
   1  15   0    4.46    0.28 
  -1  15   0    4.47    0.28 
  -2 -15   0    1.33    0.21 
   2 -15   0    1.53    0.19 
   2 -15   0    1.65    0.21 
   2  15   0    2.62    0.21 
  -2  15   0    2.44    0.21 
  -3 -15   0   12.41    0.66 
   3 -15   0   12.03    0.65 
   3 -15   0   12.81    0.59 
   3  15   0   13.15    0.62 
  -4 -15   0    8.81    0.49 
  -4 -15   0    8.32    0.52 
  -5 -15   0    6.26    0.40 
  -5 -15   0    6.29    0.42 
  -6  15   0    3.92    0.27 
  -7  15   0    0.83    0.18 
  -7  15   0    0.69    0.17 
  -8  15   0    2.55    0.17 
  -8  15   0    2.48    0.16 
   0 -16   0   17.56    1.01 
   0 -16   0   17.97    0.83 
   0  16   0   20.07    0.97 
  -1 -16   0   15.65    0.55 
   1 -16   0   14.56    0.74 
   1 -16   0   14.12    0.63 
  -1 -16   0   14.20    0.74 
  -1 -16   0   14.12    0.60 
   1  16   0   14.89    0.71 
  -1  16   0   13.85    0.70 
   2 -16   0    6.30    0.39 
   2 -16   0    6.25    0.34 
  -2 -16   0    6.54    0.41 
   2  16   0    6.20    0.37 
  -2  16   0    6.03    0.36 
   3 -16   0    0.10    0.09 
  -3 -16   0   -0.05    0.10 
   3  16   0    0.19    0.09 
  -4 -16   0    1.69    0.22 
   4  16   0    1.35    0.17 
  -5 -16   0    0.44    0.13 
  -6  16   0    1.71    0.18 
  -6  16   0    1.78    0.17 
  -7  16   0    5.70    0.32 
  -7  16   0    5.63    0.31 
  -8  16   0    1.90    0.12 
   0 -17   0    0.03    0.06 
   0 -17   0   -0.01    0.10 
   0  17   0    0.12    0.10 
   1 -17   0    6.12    0.31 
  -1 -17   0    5.85    0.38 
  -1 -17   0    5.56    0.25 
   1 -17   0    6.18    0.38 
  -1  17   0    5.22    0.33 
   1  17   0    5.24    0.34 
   2 -17   0    7.30    0.36 
   2 -17   0    6.56    0.42 
  -2 -17   0    7.44    0.43 
   2  17   0    6.83    0.39 
  -2  17   0    7.06    0.39 
  -3 -17   0    1.16    0.20 
   3 -17   0    1.51    0.23 
   3  17   0    1.31    0.17 
   4 -17   0    2.95    0.23 
  -4 -17   0    3.04    0.27 
   4  17   0    2.95    0.22 
  -5 -17   0   12.86    0.64 
  -6  17   0    1.63    0.16 
  -6  17   0    1.55    0.15 
  -7  17   0    3.12    0.21 
   0 -18   0    4.79    0.27 
   0 -18   0    5.52    0.42 
   0  18   0    5.59    0.38 
  -1 -18   0    7.50    0.43 
   1 -18   0    8.00    0.44 
   1 -18   0    6.82    0.34 
   1  18   0    6.85    0.40 
  -1  18   0    7.05    0.39 
   2 -18   0    9.44    0.42 
  -2 -18   0    8.45    0.49 
   2 -18   0    8.52    0.48 
   2  18   0    8.88    0.46 
  -3 -18   0    6.09    0.38 
   3 -18   0    6.41    0.33 
   3  18   0    6.25    0.35 
   4 -18   0    2.45    0.19 
   4  18   0    2.44    0.20 
   5 -18   0    0.65    0.13 
   5  18   0    0.53    0.12 
   6 -18   0    4.68    0.26 
  -6  18   0    5.14    0.26 
   0 -19   0   -0.04    0.08 
   0  19   0   -0.06    0.07 
  -1 -19   0    1.76    0.20 
   1 -19   0    1.85    0.13 
   1 -19   0    1.87    0.20 
  -1  19   0    1.20    0.16 
   1  19   0    1.46    0.17 
   2 -19   0    0.03    0.06 
   2  19   0   -0.02    0.07 
   3 -19   0    8.74    0.42 
   3  19   0    9.05    0.45 
   4 -19   0    4.53    0.23 
   4  19   0    3.76    0.25 
   5 -19   0    0.53    0.10 
  -5  19   0    0.31    0.08 
   0  20   0    0.13    0.08 
   1  20   0    2.38    0.19 
   2 -20   0    1.59    0.10 
   2  20   0    1.34    0.15 
   3 -20   0    3.27    0.17 
   3  20   0    3.05    0.20 
   4 -20   0    3.18    0.17 
 -12   0   1    1.99    0.16 
 -11   0   1    1.16    0.15 
 -11   0   1    1.32    0.17 
 -10   0   1    4.31    0.28 
 -10   0   1    4.90    0.27 
  -9   0   1    6.63    0.36 
  -9   0   1    6.17    0.59 
  -9   0   1    6.82    0.38 
  -8   0   1    0.73    0.22 
  -7   0   1    0.04    0.14 
  -6   0   1    1.01    0.35 
  -5   0   1    1.28    0.22 
   5   0  -1    0.80    0.19 
   5   0  -1    0.96    0.21 
   4   0  -1    6.34    0.40 
   4   0  -1    5.95    0.39 
  -4   0   1    5.36    0.38 
   3   0  -1    0.58    0.15 
   3   0  -1    0.43    0.11 
  -3   0   1    0.32    0.12 
   2   0  -1   79.94    3.56 
   2   0  -1   79.00    3.57 
  -1   0   1    0.48    0.09 
  -1   0   1    0.49    0.06 
  -1   0   1    0.46    0.06 
   1   0  -1    0.42    0.09 
   1   0  -1    0.48    0.11 
  -1   0   1    0.60    0.10 
   1   0   1   19.83    1.02 
  -1   0  -1   20.33    1.01 
   1   0   1   19.70    1.01 
  -1   0  -1   19.96    1.01 
   2   0   1   82.38    3.69 
   2   0   1   83.61    3.69 
   3   0   1    4.07    0.26 
   3   0   1    3.99    0.26 
   3   0   1    4.25    0.26 
  -3   0  -1    4.44    0.27 
   4   0   1    5.33    0.34 
   4   0   1    5.66    0.35 
  -4   0  -1    5.13    0.34 
   4   0   1    5.44    0.34 
   5   0   1   63.07    2.97 
  -5   0  -1   64.50    2.91 
   5   0   1   65.86    2.97 
  -6   0  -1    0.59    0.16 
  -7   0  -1    7.34    0.52 
  -8   0  -1    1.90    0.34 
  -9   0  -1   -0.07    0.08 
  -9   0  -1    0.08    0.10 
  -9   0  -1    0.04    0.13 
 -10   0  -1    4.93    0.29 
 -10   0  -1    4.72    0.28 
 -11   0  -1    0.09    0.19 
 -11   0  -1   -0.02    0.19 
 -12   0  -1    1.76    0.15 
 -12  -1   1    4.18    0.23 
 -12   1   1    3.85    0.21 
 -12   1   1    4.26    0.23 
 -11  -1   1    0.15    0.08 
 -11  -1   1    0.02    0.09 
 -11   1   1    0.31    0.10 
 -11   1   1    0.41    0.10 
 -10  -1   1    1.58    0.18 
 -10  -1   1    1.48    0.18 
 -10   1   1    1.55    0.17 
 -10   1   1    1.79    0.20 
 -10   1   1    2.00    0.19 
  -9  -1   1    6.37    0.34 
  -9  -1   1    5.95    0.53 
  -9  -1   1    5.39    0.35 
  -9   1   1    5.32    0.34 
  -9   1   1    6.15    0.35 
  -9   1   1    6.38    0.36 
  -9   1   1    6.07    0.63 
  -8  -1   1    1.49    0.27 
  -8   1   1    1.79    0.32 
  -7  -1   1    1.41    0.25 
  -7   1   1    1.85    0.31 
  -6  -1   1    6.62    0.50 
  -6   1   1    6.76    0.57 
   5  -1  -1   28.16    1.44 
  -5  -1   1   27.04    1.37 
   5   1  -1   30.30    1.41 
   5   1  -1   28.40    1.40 
  -5   1   1   28.68    1.42 
   4  -1  -1   35.50    1.67 
   4  -1  -1   34.25    1.66 
  -4  -1   1   35.05    1.59 
   4   1  -1   34.16    1.63 
   4   1  -1   32.35    1.62 
  -4   1   1   35.29    1.64 
   3  -1  -1   50.08    2.41 
   3  -1  -1   51.91    2.41 
  -3  -1   1   50.72    2.32 
   3   1  -1   52.46    2.38 
  -3   1   1   54.79    2.37 
   3   1  -1   52.96    2.38 
   2  -1  -1   44.22    2.13 
   2  -1  -1   44.55    2.12 
   2   1  -1   46.42    2.09 
  -2   1   1   47.61    2.07 
  -2   1   1   47.03    2.07 
  -2   1   1   47.55    2.12 
   2   1  -1   46.65    2.10 
   1  -1  -1   88.14    4.06 
  -1  -1   1   85.87    4.03 
  -1  -1   1   85.32    4.03 
   1  -1  -1   88.78    4.06 
  -1   1   1   90.70    4.05 
   1   1  -1   98.08    4.04 
  -1   1   1   93.15    4.06 
  -1   1   1   90.35    4.04 
  -1   1   1   92.74    4.06 
   1   1  -1   94.35    4.04 
   0  -1  -1   78.14    3.37 
   0  -1  -1   75.05    3.38 
   0  -1   1   71.58    3.38 
   0  -1  -1   83.01    3.37 
   0  -1  -1   67.37    3.37 
   0  -1   1   76.55    3.38 
   0  -1   1   76.23    3.38 
   0   1  -1   73.54    3.38 
   0   1   1   75.00    3.38 
   0   1   1   80.17    3.38 
   0   1  -1   77.50    3.38 
   1  -1   1  104.36    4.88 
   1  -1   1  109.23    4.88 
  -1   1  -1  108.38    4.88 
   1   1   1  106.77    5.09 
  -1   1  -1  109.97    4.88 
  -1   1  -1  106.69    4.86 
   1   1   1  108.53    5.08 
  -1   1  -1  109.60    4.87 
   2  -1   1   36.21    1.71 
   2  -1   1   38.18    1.71 
   3  -1   1   47.08    2.16 
   3  -1   1   46.69    2.16 
  -3  -1  -1   47.64    2.05 
   3   1   1   45.61    2.10 
  -3   1  -1   47.45    2.12 
   3   1   1   47.10    2.10 
  -4  -1  -1    8.31    0.44 
   4  -1   1    8.58    0.50 
   4  -1   1    8.59    0.50 
   4   1   1    8.24    0.44 
  -4   1  -1    8.13    0.50 
   4   1   1    8.32    0.44 
  -5  -1  -1   13.25    0.68 
   5  -1   1   13.16    0.74 
   5   1   1   13.80    0.69 
  -5   1  -1   13.19    0.74 
   5   1   1   13.15    0.68 
   5   1   1   12.50    0.68 
  -6  -1  -1    9.13    0.55 
   6   1   1    9.61    0.56 
  -6   1  -1    9.35    0.61 
  -7  -1  -1    9.94    0.61 
  -7   1  -1   10.77    0.69 
  -8  -1  -1    6.70    0.49 
  -8   1  -1    5.80    0.58 
  -9  -1  -1    2.25    0.21 
  -9  -1  -1    2.22    0.19 
  -9  -1  -1    2.00    0.23 
  -9   1  -1    3.04    0.22 
  -9   1  -1    2.51    0.35 
  -9   1  -1    2.58    0.22 
  -9   1  -1    2.39    0.20 
 -10  -1  -1    0.23    0.11 
 -10  -1  -1    0.36    0.11 
 -10   1  -1    0.53    0.11 
 -10   1  -1    0.50    0.12 
 -11  -1  -1    8.02    0.41 
 -11  -1  -1    7.94    0.41 
 -11   1  -1    7.49    0.42 
 -11   1  -1    8.17    0.41 
 -12   1  -1    5.75    0.28 
 -12   1  -1    5.71    0.27 
 -12   2   1    2.86    0.18 
 -12   2   1    2.53    0.17 
 -11   2   1    0.93    0.15 
 -11   2   1    0.99    0.16 
 -11   2   1    0.92    0.13 
 -10  -2   1    4.56    0.27 
 -10   2   1    4.75    0.29 
 -10   2   1    4.70    0.27 
 -10   2   1    4.95    0.28 
  -9  -2   1    4.39    0.30 
  -9   2   1    5.01    0.61 
  -9   2   1    4.31    0.30 
  -9   2   1    4.19    0.30 
  -9   2   1    4.34    0.30 
  -8  -2   1    4.08    0.37 
  -8   2   1    4.30    0.49 
  -8   2   1    4.49    0.27 
  -7  -2   1    2.91    0.30 
  -7   2   1    3.57    0.42 
  -6  -2   1    6.39    0.48 
  -6   2   1    7.42    0.59 
   5  -2  -1   30.10    1.50 
  -5  -2   1   27.47    1.37 
  -5   2   1   28.96    1.47 
   5   2  -1   30.18    1.41 
   5   2  -1   28.77    1.41 
   4  -2  -1    9.03    0.57 
  -4  -2   1    9.41    0.49 
   4   2  -1    8.32    0.49 
   4   2  -1    8.73    0.49 
  -4   2   1    8.59    0.57 
   3  -2  -1   71.50    3.53 
  -3  -2   1   78.47    3.39 
   3  -2  -1   77.23    3.55 
   3   2  -1   77.24    3.48 
  -3   2   1   80.37    3.47 
   3   2  -1   79.21    3.47 
   2  -2  -1    6.39    0.38 
   2  -2  -1    6.83    0.39 
   2   2  -1    5.43    0.31 
  -2   2   1    5.32    0.31 
  -2   2   1    5.36    0.36 
  -2   2   1    5.29    0.31 
   2   2  -1    5.00    0.31 
   1  -2  -1    5.55    0.33 
   1  -2  -1    5.98    0.36 
  -1  -2   1    5.85    0.32 
   1   2  -1    6.30    0.33 
   1   2  -1    6.50    0.33 
  -1   2   1    6.33    0.36 
  -1   2   1    6.25    0.33 
  -1   2   1    5.86    0.36 
  -1   2   1    6.31    0.33 
   0  -2  -1   16.21    0.81 
   0  -2  -1   16.03    0.79 
   0  -2  -1   16.87    0.79 
   0  -2  -1   15.94    0.81 
   0  -2   1   17.14    0.83 
   0  -2   1   16.43    0.82 
   0  -2  -1   16.68    0.82 
   0  -2   1   16.56    0.80 
   0  -2   1   16.94    0.80 
   0   2   1   19.02    0.82 
   0   2  -1   19.41    0.84 
   0   2   1   19.51    0.82 
   1  -2   1    5.86    0.39 
   1  -2   1    5.96    0.39 
  -1   2  -1    5.57    0.38 
   1   2   1    5.11    0.30 
   1   2   1    5.40    0.31 
  -1   2  -1    5.45    0.38 
  -1   2  -1    5.52    0.34 
   2  -2   1   37.31    1.71 
   2  -2   1   36.71    1.71 
  -2   2  -1   36.00    1.65 
  -2   2  -1   36.19    1.65 
   3  -2   1   22.90    1.16 
   3  -2   1   22.54    1.16 
  -3   2  -1   24.78    1.15 
   4  -2   1    5.39    0.42 
   4  -2   1    5.34    0.42 
  -4  -2  -1    5.67    0.31 
   4   2   1    5.92    0.30 
  -4   2  -1    6.48    0.44 
   4   2   1    6.58    0.30 
   5  -2   1   61.64    2.95 
  -5  -2  -1   62.19    2.76 
   5   2   1   63.85    2.83 
  -5   2  -1   62.71    2.89 
   5   2   1   62.00    2.82 
  -6  -2  -1   21.97    1.03 
  -6   2  -1   20.63    1.17 
  -7  -2  -1    6.67    0.44 
  -7   2  -1    9.48    0.64 
  -8  -2  -1    8.29    0.52 
  -8   2  -1    9.59    0.74 
  -9  -2  -1    2.52    0.21 
  -9   2  -1    2.74    0.22 
  -9   2  -1    2.18    0.38 
  -9   2  -1    2.71    0.21 
  -9   2  -1    2.84    0.22 
 -10  -2  -1    4.26    0.26 
 -10   2  -1    4.33    0.26 
 -10   2  -1    4.58    0.28 
 -10   2  -1    4.60    0.27 
 -11   2  -1    1.38    0.23 
 -11   2  -1    1.97    0.22 
 -11   2  -1    1.56    0.23 
 -12   2  -1    0.68    0.11 
 -12   2  -1    0.42    0.10 
 -12   3   1    0.59    0.09 
 -12   3   1    0.52    0.10 
 -12   3   1    0.50    0.09 
 -11   3   1    5.04    0.28 
 -11   3   1    4.78    0.26 
 -11   3   1    4.86    0.27 
 -10  -3   1    1.59    0.18 
 -10   3   1    1.89    0.18 
 -10   3   1    1.66    0.19 
 -10   3   1    1.66    0.20 
  -9  -3   1    6.95    0.37 
  -9   3   1    7.11    0.39 
  -9   3   1    5.94    0.37 
  -9   3   1    6.34    0.74 
  -9   3   1    6.92    0.40 
  -8   3   1    3.54    0.48 
  -8   3   1    3.68    0.24 
  -7   3   1   13.67    0.92 
  -6  -3   1   13.93    0.80 
  -6   3   1   14.70    1.00 
  -5  -3   1    8.50    0.50 
   5   3  -1    8.57    0.51 
   5   3  -1    9.36    0.52 
  -5   3   1    8.69    0.62 
   4  -3  -1    8.03    0.56 
  -4  -3   1    9.09    0.47 
   4   3  -1    8.40    0.47 
  -4   3   1    8.82    0.58 
   4   3  -1    7.42    0.46 
   3  -3  -1   45.33    2.29 
  -3  -3   1   48.18    2.16 
   3  -3  -1   46.83    2.30 
   3   3  -1   48.86    2.21 
  -3   3   1   46.79    2.20 
   3   3  -1   50.01    2.21 
  -3   3   1   51.40    2.20 
  -3   3   1   49.36    2.26 
   2  -3  -1   18.32    0.98 
   2  -3  -1   17.41    0.97 
  -2   3   1   21.03    0.99 
  -2   3   1   19.67    0.93 
   2   3  -1   18.65    0.91 
   2   3  -1   18.70    0.91 
  -2   3   1   19.28    0.92 
   1  -3  -1   39.69    1.92 
   1  -3  -1   41.26    1.95 
   1  -3  -1   42.26    1.92 
   1  -3  -1   40.89    1.95 
   1  -3  -1   41.66    1.95 
  -1   3   1   44.30    1.92 
   1   3  -1   42.30    1.92 
   1   3  -1   41.13    1.92 
  -1   3   1   42.96    1.95 
  -1   3   1   42.15    1.95 
   0  -3  -1  124.64    5.56 
   0  -3  -1  117.17    5.58 
   0  -3   1  121.93    5.59 
   0  -3   1  123.75    5.60 
   0  -3   1  132.35    5.58 
   0  -3  -1  123.18    5.56 
   0  -3   1  130.77    5.58 
   0  -3  -1  123.77    5.58 
   0   3   1  119.09    5.59 
   0   3  -1  127.81    5.60 
   0   3   1  133.24    5.60 
   0   3  -1  123.54    5.59 
   1  -3   1   61.20    2.79 
   1  -3   1   57.32    2.77 
   1  -3   1   53.52    2.73 
  -1   3  -1   59.05    2.72 
  -1   3  -1   58.84    2.78 
   1   3   1   58.95    2.69 
  -1   3  -1   59.25    2.71 
   1   3   1   57.59    2.69 
  -1   3  -1   59.81    2.79 
   2  -3   1   17.85    0.90 
   2  -3   1   19.40    0.92 
  -2   3  -1   17.68    0.89 
   2   3   1   17.05    0.80 
  -2   3  -1   18.27    0.84 
  -2   3  -1   16.60    0.83 
   2   3   1   15.87    0.79 
   3  -3   1   18.95    1.06 
   3  -3   1   21.02    1.07 
  -3   3  -1   21.83    1.06 
   4  -3   1   10.42    0.68 
  -4   3  -1   12.21    0.69 
  -5  -3  -1   19.36    0.88 
   5  -3   1   19.03    1.08 
  -5   3  -1   19.92    1.08 
  -6  -3  -1    7.60    0.38 
  -6   3  -1    6.05    0.55 
  -7   3  -1    0.57    0.23 
  -8  -3  -1    3.05    0.25 
  -8   3  -1    3.28    0.54 
  -8   3  -1    2.90    0.26 
  -9  -3  -1    3.05    0.22 
  -9   3  -1    3.96    0.25 
  -9   3  -1    3.40    0.25 
  -9   3  -1    3.68    0.24 
  -9   3  -1    3.04    0.46 
 -10  -3  -1    2.12    0.19 
 -10   3  -1    1.94    0.21 
 -10   3  -1    2.43    0.21 
 -10   3  -1    2.17    0.19 
 -11   3  -1   11.11    0.49 
 -11   3  -1   10.66    0.49 
 -11   3  -1   10.75    0.50 
 -12   3  -1    0.69    0.10 
 -12   3  -1    0.53    0.09 
 -12   3  -1    0.95    0.14 
 -12   4   1    4.00    0.21 
 -12   4   1    3.99    0.21 
 -12   4   1    3.59    0.21 
 -11   4   1    4.86    0.27 
 -11   4   1    4.38    0.27 
 -11   4   1    4.61    0.25 
 -10   4   1    0.48    0.11 
 -10   4   1    0.87    0.16 
 -10   4   1    0.76    0.13 
  -9   4   1   20.60    0.84 
  -9   4   1   20.79    0.84 
  -9   4   1   20.26    0.85 
  -8   4   1    8.07    0.38 
  -8   4   1    8.28    0.74 
  -7   4   1    4.29    0.51 
  -6   4   1    8.50    0.75 
  -5   4   1   -0.10    0.13 
   5   4  -1    0.09    0.09 
   5   4  -1    0.02    0.08 
  -4   4   1   36.83    1.80 
   4   4  -1   36.74    1.70 
   4   4  -1   35.26    1.69 
   3  -4  -1   11.84    0.73 
  -3   4   1   12.62    0.74 
  -3   4   1   11.36    0.63 
   3   4  -1   13.48    0.64 
  -3   4   1   12.29    0.63 
   3   4  -1   11.82    0.63 
   2  -4  -1    1.63    0.23 
   2  -4  -1    1.54    0.18 
   2  -4  -1    1.63    0.25 
  -2   4   1    1.74    0.20 
  -2   4   1    1.87    0.19 
  -2   4   1    1.60    0.24 
   2   4  -1    1.94    0.20 
   2   4  -1    1.68    0.19 
   1  -4  -1  154.45    6.86 
   1  -4  -1  153.22    6.82 
   1  -4  -1  151.03    6.83 
   1  -4  -1  153.11    6.85 
   1   4  -1  150.66    6.82 
  -1   4   1  148.25    6.85 
  -1   4   1  155.32    6.85 
   1   4  -1  151.96    6.82 
  -1   4   1  155.60    6.84 
   0  -4   1   31.63    1.50 
   0  -4  -1   32.53    1.54 
   0  -4  -1   34.34    1.49 
   0  -4   1   31.68    1.54 
   0  -4   1   32.67    1.50 
   0  -4  -1   32.23    1.48 
   0   4  -1   34.16    1.56 
   0   4   1   31.38    1.54 
   0   4  -1   29.26    1.54 
   0   4   1   34.19    1.55 
   1  -4   1    2.63    0.27 
   1  -4   1    2.15    0.30 
   1  -4   1    1.98    0.24 
   1  -4   1    2.12    0.30 
   1   4   1    2.24    0.24 
   1   4   1    2.18    0.25 
  -1   4  -1    2.66    0.24 
  -1   4  -1    2.25    0.31 
  -1   4  -1    2.10    0.30 
   2  -4   1   13.90    0.75 
   2  -4   1   15.01    0.81 
  -2   4  -1   14.55    0.79 
  -2   4  -1   13.90    0.73 
   2   4   1   14.59    0.70 
  -2   4  -1   15.13    0.74 
  -2   4  -1   13.57    0.78 
   3  -4   1    6.40    0.48 
  -3   4  -1    6.15    0.36 
  -3   4  -1    6.48    0.48 
  -3   4  -1    6.39    0.36 
   3   4   1    6.62    0.33 
   3   4   1    6.63    0.33 
   4  -4   1   21.27    1.19 
  -4   4  -1   22.78    1.18 
  -5   4  -1    3.51    0.41 
  -6   4  -1   18.44    1.11 
  -7   4  -1   15.35    1.02 
  -8  -4  -1    5.03    0.32 
  -8   4  -1    5.98    0.68 
  -8   4  -1    5.67    0.33 
  -9  -4  -1    0.96    0.15 
  -9   4  -1    0.65    0.13 
  -9   4  -1    0.58    0.12 
  -9   4  -1    0.60    0.12 
 -10   4  -1    1.39    0.19 
 -10   4  -1    1.20    0.17 
 -10   4  -1    0.93    0.14 
 -11   4  -1    1.35    0.22 
 -11   4  -1    1.26    0.22 
 -11   4  -1    1.35    0.22 
 -12   4  -1    1.52    0.14 
 -12   4  -1    1.63    0.13 
 -12   4  -1    1.62    0.15 
 -12   5   1    2.37    0.16 
 -12   5   1    2.32    0.16 
 -12   5   1    2.32    0.16 
 -11   5   1   12.01    0.51 
 -11   5   1   12.03    0.50 
 -11   5   1   12.28    0.50 
 -10   5   1    1.60    0.18 
 -10   5   1    1.76    0.20 
 -10   5   1    2.06    0.20 
  -9   5   1    0.05    0.20 
  -9   5   1   -0.05    0.21 
  -9   5   1    0.07    0.21 
  -8   5   1    1.91    0.44 
  -8   5   1    2.21    0.19 
  -7   5   1   11.32    0.88 
  -6   5   1   24.00    1.49 
  -5   5   1    2.55    0.37 
   5   5  -1    2.34    0.23 
  -4   5   1    7.17    0.42 
   4   5  -1    8.52    0.47 
  -4   5   1    7.90    0.42 
   4   5  -1    7.84    0.46 
  -4   5   1    7.39    0.60 
  -3   5   1   81.59    3.81 
   3   5  -1   83.00    3.79 
   3   5  -1   82.25    3.78 
  -3   5   1   86.58    3.81 
   2  -5  -1   16.14    0.94 
   2   5  -1   20.16    0.95 
  -2   5   1   19.10    0.95 
   2   5  -1   19.00    0.94 
   1  -5  -1    7.50    0.44 
   1  -5  -1    7.48    0.43 
   1  -5  -1    6.85    0.48 
   1   5  -1    7.26    0.46 
  -1   5   1    7.16    0.44 
   1   5  -1    7.46    0.46 
  -1   5   1    7.69    0.50 
  -1   5   1    7.64    0.50 
   0  -5  -1   65.68    2.94 
   0  -5  -1   65.89    3.00 
   0  -5  -1   65.10    2.93 
   0  -5   1   65.21    3.01 
   0  -5   1   65.48    2.95 
   0  -5   1   63.86    2.95 
   0   5  -1   67.18    3.02 
   0   5   1   67.97    3.01 
   0   5   1   62.25    3.01 
   0   5   1   66.26    3.01 
   0   5  -1   62.64    3.02 
   1  -5   1    5.77    0.51 
   1  -5   1    5.59    0.43 
   1  -5   1    5.50    0.43 
   1  -5   1    5.70    0.51 
   1   5   1    5.75    0.45 
  -1   5  -1    4.88    0.42 
  -1   5  -1    5.71    0.51 
  -1   5  -1    5.16    0.49 
   1   5   1    5.38    0.44 
   2  -5   1   13.06    0.71 
   2   5   1   11.02    0.59 
  -2   5  -1   10.24    0.61 
   2   5   1   11.25    0.60 
   3   5   1    4.82    0.29 
  -3   5  -1    4.40    0.43 
  -3   5  -1    4.52    0.31 
  -3   5  -1    4.93    0.32 
   3   5   1    5.02    0.29 
  -4   5  -1   19.10    1.09 
   4   5   1   20.17    0.89 
   4   5   1   17.55    0.89 
  -5   5  -1    2.57    0.38 
  -6   5  -1    2.29    0.41 
  -7   5  -1    2.74    0.45 
  -8   5  -1    7.60    0.42 
  -8   5  -1    7.65    0.87 
  -9   5  -1    7.95    0.40 
  -9   5  -1    8.29    0.40 
  -9   5  -1    7.72    0.39 
 -10   5  -1    4.90    0.28 
 -10   5  -1    5.00    0.30 
 -10   5  -1    4.51    0.27 
 -11   5  -1    1.94    0.24 
 -11   5  -1    2.53    0.23 
 -11   5  -1    1.93    0.24 
 -12   5  -1    0.17    0.07 
 -12   5  -1    0.23    0.08 
 -12   5  -1    0.13    0.07 
 -12   6   1    0.63    0.12 
 -12   6   1    0.70    0.11 
 -11   6   1    2.60    0.20 
 -11   6   1    2.72    0.20 
 -11   6   1    2.72    0.19 
 -10   6   1    4.05    0.27 
 -10   6   1    4.20    0.27 
 -10   6   1    3.93    0.25 
  -9   6   1    1.97    0.27 
  -9   6   1    1.87    0.27 
  -9   6   1    1.73    0.28 
  -8   6   1    3.66    0.25 
  -8   6   1    3.63    0.24 
  -8   6   1    3.59    0.55 
  -8   6   1    3.39    0.24 
  -7   6   1    0.58    0.29 
  -6   6   1    7.02    0.73 
  -5   6   1   51.13    2.56 
  -4   6   1   29.63    1.63 
  -4   6   1   30.18    1.49 
   4   6  -1   30.27    1.50 
   4   6  -1   31.97    1.51 
  -4   6   1   31.43    1.47 
  -3   6   1   19.35    0.99 
   3   6  -1   17.54    0.97 
   3   6  -1   20.19    0.99 
  -2   6   1   41.41    1.97 
   2   6  -1   41.13    1.97 
   2   6  -1   41.12    1.97 
   1  -6  -1   43.46    1.99 
   1  -6  -1   42.55    1.97 
  -1   6   1   42.71    2.05 
   1   6  -1   40.64    2.01 
   1   6  -1   40.85    2.01 
   0  -6  -1   28.72    1.30 
   0  -6  -1   27.19    1.30 
   0  -6   1   28.42    1.32 
   0  -6   1   28.04    1.33 
   0   6   1   29.32    1.42 
   0   6   1   27.53    1.42 
   0   6  -1   28.06    1.43 
   1  -6   1   15.38    0.87 
   1   6   1   14.76    0.93 
   1   6   1   14.72    0.92 
   1   6   1   14.64    0.92 
  -2  -6  -1   16.11    0.54 
   2   6   1   14.48    0.79 
  -2   6  -1   13.79    0.81 
   2   6   1   15.24    0.80 
  -3   6  -1   15.13    0.94 
   3   6   1   16.61    0.82 
  -3   6  -1   15.37    0.83 
   3   6   1   15.88    0.81 
   4   6   1    0.63    0.13 
  -4   6  -1    0.55    0.11 
  -4   6  -1    0.67    0.24 
  -4   6  -1    0.49    0.12 
   4   6   1    0.81    0.14 
  -5   6  -1   18.23    1.13 
  -6   6  -1   31.69    1.77 
  -7   6  -1   14.66    1.06 
  -8   6  -1   13.23    0.60 
  -8   6  -1   14.28    1.14 
  -9   6  -1    5.03    0.30 
  -9   6  -1    5.32    0.29 
  -9   6  -1    4.89    0.30 
 -10   6  -1    0.49    0.11 
 -10   6  -1    0.37    0.11 
 -10   6  -1    0.62    0.13 
 -11   6  -1    0.46    0.21 
 -11   6  -1    0.35    0.22 
 -11   6  -1    0.54    0.20 
 -12   6  -1    0.55    0.09 
 -12   6  -1    0.77    0.13 
 -12   6  -1    0.74    0.12 
 -12   7   1    3.49    0.19 
 -12   7   1    3.56    0.18 
 -11   7   1    2.77    0.19 
 -11   7   1    2.36    0.19 
 -11   7   1    2.56    0.18 
 -10   7   1    5.05    0.29 
 -10   7   1    4.92    0.29 
 -10   7   1    5.45    0.29 
  -9   7   1    7.45    0.40 
  -9   7   1    7.34    0.41 
  -9   7   1    7.22    0.39 
  -8  -7   1   14.60    0.79 
  -8   7   1   14.01    1.12 
  -8   7   1   15.62    0.62 
  -8   7   1   15.08    0.61 
  -8   7   1   14.25    0.61 
  -8   7   1   14.52    0.61 
  -7   7   1   10.32    0.91 
  -7   7   1   11.20    0.48 
  -4   7   1   46.54    2.20 
   3   7  -1  128.88    5.78 
  -3   7   1  125.66    5.79 
  -2  -7   1    0.68    0.06 
   2   7  -1    0.88    0.19 
   1  -7  -1   30.01    1.42 
   1   7  -1   28.96    1.50 
   0  -7  -1   12.28    0.61 
   0  -7  -1   12.74    0.61 
   0  -7   1   13.11    0.64 
   0  -7   1   12.39    0.64 
   0   7   1   12.88    0.77 
   1  -7   1    0.88    0.19 
   1   7   1    0.93    0.25 
   1   7   1    1.05    0.26 
  -2  -7  -1    8.39    0.32 
   2   7   1    8.83    0.55 
   2   7   1    8.99    0.56 
   3   7   1   39.78    1.85 
   3   7   1   37.69    1.85 
  -3   7  -1   37.99    1.86 
  -4   7  -1   26.29    1.25 
   4   7   1   24.70    1.25 
  -5   7  -1   34.47    1.89 
  -6   7  -1    5.06    0.60 
  -7   7  -1    3.63    0.24 
  -7   7  -1    3.62    0.55 
  -8  -7  -1    0.99    0.25 
  -8   7  -1    0.71    0.49 
  -8   7  -1    0.61    0.20 
  -8   7  -1    0.73    0.12 
  -8   7  -1    0.99    0.19 
  -8   7  -1    0.79    0.20 
  -9   7  -1    1.71    0.19 
  -9   7  -1    1.53    0.20 
  -9   7  -1    1.48    0.19 
 -10   7  -1   12.54    0.53 
 -10   7  -1   12.56    0.52 
 -10   7  -1   11.85    0.53 
 -11   7  -1    2.48    0.24 
 -11   7  -1    1.69    0.24 
 -11   7  -1    2.57    0.23 
 -12   7  -1    3.39    0.18 
 -12   7  -1    3.17    0.18 
 -11   8   1    4.11    0.23 
 -11   8   1    4.18    0.23 
 -11   8   1    4.43    0.23 
 -10   8   1    3.57    0.24 
 -10   8   1    3.99    0.24 
 -10   8   1    4.14    0.25 
  -9   8   1    0.99    0.24 
  -9   8   1    0.98    0.25 
  -9   8   1    1.37    0.26 
  -8  -8   1    0.37    0.14 
  -8   8   1    0.66    0.12 
  -8   8   1    0.63    0.12 
  -8   8   1    0.96    0.13 
  -8   8   1    0.74    0.13 
  -7   8   1    0.56    0.11 
  -5  -8   1   20.71    0.95 
  -4   8   1    0.25    0.13 
  -3  -8   1   13.37    0.48 
   3   8  -1   14.15    0.82 
  -2  -8   1   19.82    0.72 
   2   8  -1   20.30    1.10 
   1  -8  -1   25.12    1.23 
   0  -8   1   35.36    1.70 
   0  -8   1   38.04    1.70 
   1  -8   1    0.32    0.16 
  -1  -8  -1    0.33    0.07 
   1   8   1    0.34    0.20 
   1   8   1    0.29    0.19 
  -2  -8  -1   34.97    1.30 
   2   8   1   38.48    1.83 
   2   8   1   37.50    1.83 
   3   8   1   52.76    2.52 
  -4   8  -1    9.70    0.58 
  -7   8  -1    1.48    0.17 
  -8  -8  -1    1.02    0.27 
  -8   8  -1    1.34    0.16 
  -8   8  -1    1.34    0.23 
  -8   8  -1    1.29    0.22 
  -8   8  -1    1.27    0.22 
  -9   8  -1    2.34    0.22 
  -9   8  -1    2.35    0.21 
  -9   8  -1    2.37    0.21 
 -10   8  -1    0.17    0.09 
 -10   8  -1    0.09    0.09 
 -10   8  -1    0.14    0.09 
 -11   8  -1    0.33    0.17 
 -11   8  -1    0.18    0.20 
 -11   8  -1    0.27    0.19 
 -11   9   1    1.73    0.14 
 -11   9   1    1.77    0.14 
 -11   9   1    1.77    0.15 
 -10   9   1    0.15    0.09 
 -10   9   1   -0.06    0.08 
 -10   9   1    0.23    0.09 
  -9   9   1    0.23    0.22 
  -9   9   1    0.47    0.21 
  -9   9   1    0.52    0.21 
  -8  -9   1    4.08    0.35 
  -8   9   1    5.04    0.30 
  -8   9   1    4.94    0.26 
  -8   9   1    5.29    0.29 
  -7  -9   1    4.20    0.35 
  -7   9   1    4.74    0.27 
  -7   9   1    4.86    0.27 
  -7   9   1    4.57    0.27 
  -5  -9   1    4.95    0.32 
  -4  -9   1    9.47    0.49 
  -4   9   1    9.45    0.61 
  -2  -9   1   17.01    0.64 
   2  -9  -1   18.09    0.94 
   1  -9  -1   35.34    1.68 
   0  -9   1   22.24    1.02 
   0  -9   1   21.51    1.02 
   1  -9   1   11.43    0.74 
  -2  -9  -1   37.37    1.35 
   2   9   1   38.65    1.93 
   2   9   1   39.02    1.93 
  -4  -9  -1    3.13    0.23 
  -4   9  -1    2.79    0.30 
  -7  -9  -1    1.29    0.22 
  -7   9  -1    1.76    0.18 
  -7   9  -1    1.88    0.18 
  -7   9  -1    1.44    0.19 
  -8  -9  -1    0.27    0.22 
  -8   9  -1    0.25    0.13 
  -8   9  -1    0.34    0.17 
  -8   9  -1    0.42    0.19 
  -9  -9  -1    1.30    0.21 
  -9   9  -1    1.02    0.17 
  -9   9  -1    1.35    0.17 
  -9   9  -1    1.26    0.18 
 -10   9  -1    2.51    0.19 
 -10   9  -1    2.59    0.19 
 -10   9  -1    2.21    0.19 
 -11   9  -1    0.74    0.11 
 -11   9  -1    0.50    0.18 
 -11   9  -1    1.25    0.18 
 -11  10   1    0.94    0.12 
 -11  10   1    0.71    0.11 
 -10  10   1    1.96    0.16 
 -10  10   1    1.50    0.16 
  -9  10   1    6.24    0.27 
  -9  10   1    6.50    0.36 
  -9  10   1    6.36    0.36 
  -8  10   1    5.36    0.30 
  -8  10   1    5.05    0.30 
  -8  10   1    5.44    0.28 
  -7 -10   1    3.36    0.32 
  -7  10   1    3.93    0.25 
  -7  10   1    3.79    0.24 
  -5 -10   1   28.89    1.31 
  -4 -10   1    7.18    0.41 
   3 -10  -1   21.15    0.98 
  -3 -10   1   21.85    0.99 
   2 -10  -1   25.54    1.22 
  -2 -10   1   28.59    1.22 
   2 -10  -1   27.63    1.37 
  -2 -10   1   26.70    0.98 
   1 -10  -1   22.94    1.12 
   1 -10   1    0.33    0.15 
  -2 -10  -1    7.58    0.41 
  -2 -10  -1    7.58    0.29 
  -3 -10  -1    4.08    0.27 
  -4 -10  -1    9.30    0.47 
  -4  10  -1    8.30    0.63 
  -6 -10  -1   11.03    0.63 
  -7 -10  -1   24.39    1.25 
  -7  10  -1   24.46    0.95 
  -7  10  -1   25.53    1.03 
  -7  10  -1   25.70    0.97 
  -8 -10  -1    7.38    0.51 
  -8  10  -1    6.94    0.37 
  -8  10  -1    6.23    0.40 
  -8  10  -1    8.44    0.40 
  -9 -10  -1    1.77    0.23 
  -9  10  -1    1.45    0.18 
  -9  10  -1    1.58    0.19 
 -10  10  -1    0.84    0.14 
 -10  10  -1    0.97    0.15 
 -11  10  -1    1.89    0.15 
 -11  10  -1    1.79    0.15 
 -10  11   1    1.42    0.14 
 -10  11   1    1.04    0.14 
  -9  11   1    0.71    0.20 
  -9  11   1    0.58    0.08 
  -9  11   1    0.68    0.21 
  -8  11   1    1.51    0.16 
  -8  11   1    1.44    0.19 
  -8  11   1    1.40    0.19 
  -7 -11   1    3.99    0.33 
  -7  11   1    3.91    0.26 
  -6 -11   1   14.24    0.81 
  -6  11   1   12.72    0.67 
  -5 -11   1    2.84    0.26 
  -4 -11   1    8.41    0.46 
   3 -11  -1    7.95    0.43 
  -3 -11   1    7.49    0.43 
   2 -11  -1    2.33    0.26 
  -2 -11   1    2.11    0.13 
  -2 -11   1    2.73    0.21 
   2 -11  -1    2.71    0.21 
   2 -11  -1    2.45    0.11 
   1 -11  -1    8.13    0.44 
  -1 -11   1    8.63    0.45 
   0 -11  -1    9.41    0.49 
   1 -11   1   31.65    1.57 
  -1 -11  -1   30.35    1.45 
   1 -11   1   30.04    1.44 
   2 -11   1    8.88    0.58 
  -2 -11  -1    9.29    0.48 
   2 -11   1    9.10    0.47 
  -2 -11  -1    9.05    0.35 
  -3 -11  -1    7.94    0.44 
  -4 -11  -1   17.94    0.85 
  -6 -11  -1    6.65    0.47 
  -6  11  -1    8.08    0.39 
  -7 -11  -1    4.17    0.35 
  -7  11  -1    4.55    0.28 
  -7  11  -1    4.51    0.27 
  -7  11  -1    4.80    0.28 
  -8 -11  -1    6.02    0.47 
  -8  11  -1    5.11    0.32 
  -8  11  -1    5.13    0.35 
  -8  11  -1    6.18    0.35 
  -9  11  -1    4.59    0.26 
  -9  11  -1    4.28    0.25 
 -10  11  -1    1.44    0.15 
 -10  11  -1    1.42    0.14 
 -10  12   1    1.83    0.14 
 -10  12   1    1.32    0.13 
  -9  12   1    9.60    0.44 
  -9  12   1    8.45    0.42 
  -9  12   1    9.20    0.37 
  -8  12   1   14.65    0.62 
  -8  12   1   14.86    0.63 
  -7 -12   1    1.62    0.24 
  -7  12   1    1.28    0.18 
  -7  12   1    1.36    0.18 
  -6 -12   1    0.60    0.23 
  -6 -12   1    0.83    0.25 
  -6  12   1    0.68    0.21 
  -5 -12   1    6.03    0.41 
  -5 -12   1    5.92    0.39 
  -4 -12   1   29.87    1.36 
  -3 -12   1    8.69    0.47 
   3 -12  -1    8.49    0.47 
   3 -12  -1    8.53    0.34 
  -2 -12   1   34.11    1.21 
   2 -12  -1   33.37    1.50 
  -2 -12   1   33.62    1.51 
  -1 -12   1   39.77    1.75 
   1 -12  -1   39.43    1.75 
   0 -12   1    5.66    0.35 
   0 -12  -1    5.79    0.35 
  -1 -12  -1    0.18    0.11 
   1 -12   1    0.24    0.14 
  -2 -12  -1    3.59    0.16 
   2 -12   1    3.37    0.25 
  -2 -12  -1    3.71    0.27 
  -3 -12  -1    8.55    0.47 
   3 -12   1    8.75    0.35 
  -4 -12  -1    6.33    0.39 
  -5 -12  -1    5.94    0.41 
  -6 -12  -1   23.81    1.20 
  -6  12  -1   23.62    0.99 
  -7 -12  -1    5.40    0.41 
  -7  12  -1    5.87    0.32 
  -7  12  -1    6.06    0.32 
  -8 -12  -1    0.63    0.24 
  -8  12  -1    0.67    0.19 
  -8  12  -1    0.51    0.14 
  -8  12  -1    0.76    0.18 
  -9  12  -1    0.48    0.10 
  -9  12  -1    0.47    0.10 
 -10  12  -1    3.31    0.19 
 -10  12  -1    3.32    0.18 
  -9  13   1    1.06    0.19 
  -8  13   1    1.11    0.16 
  -8  13   1    1.06    0.14 
  -7  13   1    4.14    0.26 
  -7  13   1    4.37    0.27 
  -6 -13   1   11.73    0.65 
  -6 -13   1   11.02    0.69 
  -6  13   1    9.98    0.57 
  -5 -13   1    0.20    0.13 
   5 -13  -1    0.24    0.06 
  -5 -13   1    0.38    0.15 
   4 -13  -1    4.02    0.18 
  -4 -13   1    3.93    0.32 
  -4 -13   1    3.91    0.31 
  -3 -13   1    1.50    0.20 
   3 -13  -1    1.61    0.19 
  -3  13   1    1.59    0.17 
   2 -13  -1    1.70    0.20 
  -2 -13   1    1.40    0.19 
  -2 -13   1    1.55    0.10 
   2  13  -1    1.73    0.17 
  -2  13   1    1.54    0.17 
  -1 -13   1    1.47    0.19 
   1 -13  -1    1.44    0.19 
  -1  13   1    1.46    0.17 
   1  13  -1    1.34    0.16 
   0 -13   1    6.11    0.37 
   0 -13  -1    5.59    0.37 
   0  13   1    6.06    0.34 
   0  13  -1    6.41    0.35 
  -1 -13  -1   48.72    2.23 
   1 -13   1   48.54    2.22 
  -1  13  -1   49.02    2.18 
   1  13   1   48.24    2.18 
  -2 -13  -1    5.09    0.21 
   2 -13   1    4.91    0.34 
  -2 -13  -1    5.08    0.34 
  -2 -13  -1    5.32    0.21 
   2  13   1    5.48    0.31 
  -2  13  -1    5.69    0.32 
   3 -13   1    7.67    0.30 
   3 -13   1    7.55    0.30 
  -3 -13  -1    7.49    0.44 
  -4 -13  -1    5.19    0.35 
  -4 -13  -1    5.66    0.45 
   4 -13   1    5.54    0.24 
  -5 -13  -1    6.87    0.41 
  -5 -13  -1    6.81    0.45 
  -6 -13  -1    3.37    0.31 
  -6  13  -1    2.70    0.24 
  -7 -13  -1    0.66    0.16 
  -7  13  -1    1.05    0.16 
  -7  13  -1    1.09    0.16 
  -8 -13  -1    4.80    0.42 
  -8  13  -1    4.76    0.30 
  -8  13  -1    5.13    0.32 
  -9  13  -1    3.80    0.22 
  -9  14   1    0.38    0.16 
   8 -14  -1    0.19    0.04 
  -8  14   1    0.06    0.08 
  -8  14   1    0.06    0.07 
   7 -14  -1    0.56    0.08 
  -7  14   1    0.55    0.11 
  -7  14   1    0.40    0.10 
   6 -14  -1    0.95    0.11 
  -6 -14   1    0.65    0.24 
  -6  14   1    0.94    0.21 
   5 -14  -1   11.26    0.44 
  -5 -14   1   11.35    0.65 
  -5 -14   1   12.24    0.62 
   5 -14  -1   11.69    0.44 
  -4 -14   1   28.40    1.28 
  -4 -14   1   26.85    1.36 
   3 -14  -1    8.40    0.47 
  -3 -14   1    8.06    0.48 
   3  14  -1    8.19    0.44 
   2 -14  -1   11.51    0.60 
  -2 -14   1   11.89    0.43 
  -2 -14   1   11.39    0.60 
   2  14  -1   11.31    0.57 
  -2  14   1   10.73    0.57 
  -1 -14   1    0.46    0.12 
   1 -14  -1    0.61    0.14 
  -1  14   1    0.41    0.11 
   1  14  -1    0.47    0.11 
   0 -14  -1   21.63    1.05 
   0 -14   1   21.71    1.05 
   0  14  -1   23.12    1.02 
   0  14   1   22.61    1.02 
  -1 -14  -1    0.73    0.10 
  -1 -14  -1    0.63    0.19 
   1 -14   1    0.69    0.19 
   1  14   1    0.84    0.17 
  -1  14  -1    0.83    0.17 
   2 -14   1   20.44    0.95 
  -2 -14  -1   19.93    0.95 
   2  14   1   19.32    0.91 
  -2  14  -1   19.68    0.91 
  -3 -14  -1    3.44    0.28 
  -4 -14  -1    4.21    0.32 
  -4 -14  -1    4.06    0.43 
  -5 -14  -1    3.62    0.29 
   5 -14   1    3.75    0.18 
  -5 -14  -1    3.87    0.32 
   6 -14   1   23.35    0.88 
  -6 -14  -1   22.27    1.16 
  -6  14  -1   23.53    0.90 
  -6  14  -1   23.52    0.98 
   7 -14   1   12.12    0.47 
  -7 -14  -1   11.70    0.65 
  -7  14  -1   11.34    0.50 
  -7  14  -1   11.59    0.53 
   8 -14   1    0.28    0.09 
  -8  14  -1    0.31    0.15 
  -8  14  -1    0.19    0.12 
  -9  14  -1    1.73    0.13 
  -8  15   1    8.24    0.37 
  -8  15   1    8.54    0.37 
  -7  15   1   19.55    0.84 
  -7  15   1   20.99    0.79 
  -6 -15   1    6.70    0.46 
  -6  15   1    6.31    0.40 
  -5 -15   1   11.15    0.60 
  -4 -15   1    4.30    0.33 
  -3 -15   1    0.11    0.11 
   3 -15  -1    0.25    0.10 
   3 -15  -1    0.12    0.11 
   3  15  -1    0.26    0.10 
   2 -15  -1   20.78    0.99 
   2 -15  -1   21.38    0.91 
  -2 -15   1   20.97    1.00 
  -2 -15   1   20.76    0.81 
   2  15  -1   20.38    0.96 
  -2  15   1   20.18    0.95 
   1 -15  -1    0.78    0.14 
   1 -15  -1    1.00    0.20 
  -1 -15   1    0.77    0.12 
  -1 -15   1    0.90    0.18 
   1  15  -1    0.71    0.15 
  -1  15   1    0.42    0.11 
   0 -15  -1   16.97    0.86 
   0 -15   1   18.75    0.75 
   0 -15   1   16.59    0.85 
   0 -15  -1   18.70    0.74 
   0  15   1   17.13    0.83 
   0  15  -1   16.90    0.83 
  -1 -15  -1   23.96    1.04 
   1 -15   1   24.51    1.26 
  -1 -15  -1   25.94    0.95 
   1 -15   1   25.04    1.11 
  -1 -15  -1   23.16    1.26 
   1  15   1   25.84    1.22 
  -1  15  -1   24.92    1.21 
   2 -15   1   17.69    0.85 
  -2 -15  -1   16.77    0.85 
   2 -15   1   18.23    0.76 
  -2  15  -1   16.91    0.81 
   2  15   1   17.21    0.82 
  -3 -15  -1    0.53    0.14 
  -3  15  -1    0.40    0.07 
   3  15   1    0.34    0.10 
  -4 -15  -1    6.75    0.41 
  -4 -15  -1    5.72    0.52 
  -5 -15  -1    0.85    0.21 
  -5 -15  -1    0.73    0.15 
  -6 -15  -1    1.96    0.24 
  -6  15  -1    2.22    0.20 
  -6  15  -1    1.98    0.19 
  -7  15  -1    0.58    0.10 
  -7  15  -1    0.47    0.09 
  -8  15  -1    3.17    0.22 
  -8  15  -1    3.28    0.20 
  -8  16   1    2.63    0.15 
  -7  16   1   -0.01    0.07 
  -7  16   1   -0.13    0.07 
  -6  16   1    0.36    0.18 
  -5 -16   1    1.71    0.22 
   4 -16  -1    0.87    0.17 
  -4 -16   1    1.24    0.21 
   4  16  -1    0.93    0.15 
   3 -16  -1    6.75    0.43 
  -3 -16   1    7.59    0.45 
   3 -16  -1    7.16    0.39 
   3  16  -1    8.21    0.42 
   2 -16  -1    7.22    0.44 
   2 -16  -1    7.26    0.38 
  -2 -16   1    7.33    0.45 
  -2  16   1    7.23    0.40 
   2  16  -1    7.47    0.41 
  -1 -16   1    5.95    0.39 
  -1 -16   1    6.51    0.26 
   1 -16  -1    6.26    0.33 
   1 -16  -1    5.70    0.40 
  -1 -16   1    6.25    0.30 
  -1  16   1    6.40    0.37 
   1  16  -1    6.16    0.37 
   0 -16   1    5.68    0.38 
   0 -16  -1    5.66    0.29 
   0 -16   1    5.36    0.29 
   0 -16  -1    5.34    0.37 
   0  16  -1    5.48    0.34 
   0  16   1    5.79    0.35 
  -1 -16  -1    0.35    0.15 
  -1 -16  -1    0.41    0.07 
  -1 -16  -1    0.38    0.09 
   1 -16   1    0.41    0.17 
   1 -16   1    0.29    0.11 
  -1 -16  -1    0.36    0.06 
  -1  16  -1    0.34    0.15 
   1  16   1    0.35    0.15 
   2 -16   1    3.44    0.24 
   2 -16   1    2.92    0.26 
  -2 -16  -1    3.13    0.28 
   2  16   1    2.72    0.24 
  -2  16  -1    3.36    0.24 
   3 -16   1    1.85    0.19 
  -3 -16  -1    1.41    0.22 
   3  16   1    2.08    0.19 
  -4 -16  -1    8.41    0.47 
  -4 -16  -1    8.15    0.58 
  -5 -16  -1    7.61    0.46 
  -5 -16  -1    7.54    0.44 
  -6  16  -1    3.64    0.24 
  -6  16  -1    3.76    0.23 
  -7  16  -1    2.57    0.18 
  -7  16  -1    2.47    0.17 
  -8  16  -1    0.13    0.09 
  -7  17   1    2.72    0.17 
  -7  17   1    2.80    0.17 
  -6  17   1    0.11    0.15 
  -5 -17   1    6.85    0.40 
   5 -17  -1    6.64    0.35 
   5  17  -1    6.44    0.36 
   4 -17  -1    1.16    0.17 
  -4 -17   1    1.13    0.20 
   4  17  -1    1.22    0.16 
   3 -17  -1   -0.02    0.08 
  -3 -17   1   -0.04    0.11 
   3 -17  -1    0.02    0.09 
   3  17  -1    0.03    0.08 
   2 -17  -1    1.54    0.20 
   2 -17  -1    1.34    0.16 
  -2 -17   1    1.41    0.21 
   2  17  -1    1.71    0.19 
  -2  17   1    1.45    0.17 
   1 -17  -1    8.39    0.47 
  -1 -17   1    7.68    0.34 
  -1 -17   1    7.51    0.47 
   1 -17  -1    8.30    0.38 
  -1  17   1    7.77    0.43 
   1  17  -1    8.03    0.44 
   0 -17   1   18.54    0.92 
   0 -17  -1   18.30    0.77 
   0 -17  -1   20.03    0.93 
   0 -17   1   19.23    0.78 
   0  17   1   19.57    0.89 
   0  17  -1   18.21    0.88 
   1 -17   1    9.47    0.50 
   1 -17   1    9.26    0.61 
  -1 -17  -1    9.92    0.63 
   1  17   1    9.39    0.57 
  -1  17  -1    9.70    0.57 
  -2 -17  -1   19.11    0.90 
   2 -17   1   17.51    0.88 
   2 -17   1   19.11    0.79 
   2  17   1   17.76    0.86 
  -2  17  -1   18.76    0.88 
  -3 -17  -1   18.07    0.87 
   3 -17   1   18.27    0.77 
   3  17   1   17.34    0.83 
   4 -17   1    3.04    0.23 
  -4 -17  -1    2.57    0.25 
   4  17   1    3.07    0.22 
  -6  17  -1    0.28    0.08 
  -7  17  -1    2.75    0.17 
   6 -18  -1    1.59    0.17 
  -6  18   1    1.97    0.18 
   5 -18  -1    2.42    0.19 
   5  18  -1    2.85    0.19 
   4 -18  -1    7.49    0.37 
   4  18  -1    7.52    0.40 
   3 -18  -1    0.35    0.09 
   3 -18  -1    0.25    0.11 
  -3 -18   1    0.54    0.13 
   3  18  -1    0.29    0.09 
  -2 -18   1    7.93    0.44 
   2 -18  -1    7.30    0.43 
   2 -18  -1    7.08    0.36 
   2  18  -1    7.46    0.41 
   1 -18  -1   12.46    0.64 
  -1 -18   1   12.94    0.65 
   1 -18  -1   12.06    0.53 
  -1  18   1   12.81    0.61 
   1  18  -1   12.08    0.61 
   0 -18  -1   11.14    0.58 
   0 -18   1   10.51    0.45 
   0 -18  -1   10.14    0.44 
   0 -18   1   10.88    0.58 
   0  18   1   11.18    0.55 
   0  18  -1   11.35    0.55 
   1 -18   1    0.40    0.12 
   1 -18   1    0.28    0.13 
  -1 -18  -1    0.35    0.14 
  -1  18  -1    0.43    0.15 
   1  18   1    0.31    0.12 
  -2 -18  -1   10.14    0.54 
   2 -18   1    9.88    0.46 
   2  18   1   10.23    0.51 
  -3 -18  -1    1.81    0.20 
   3 -18   1    1.84    0.18 
   3  18   1    1.96    0.19 
   4 -18   1    5.84    0.32 
   4  18   1    6.55    0.34 
   5 -18   1    2.58    0.19 
  -5  18  -1    2.26    0.20 
   6 -18   1    4.91    0.25 
  -6  18  -1    4.75    0.25 
   5 -19  -1    1.15    0.13 
  -5  19   1    1.22    0.14 
   4 -19  -1    2.19    0.17 
   4  19  -1    2.15    0.18 
   3 -19  -1    2.08    0.16 
   3  19  -1    1.95    0.18 
   2 -19  -1    0.53    0.10 
   2  19  -1    0.47    0.11 
   1 -19  -1    0.14    0.05 
   1 -19  -1    0.19    0.10 
  -1 -19   1    0.12    0.10 
   1  19  -1    0.06    0.08 
  -1  19   1    0.05    0.08 
   0 -19   1    4.35    0.30 
   0 -19  -1    4.33    0.31 
   0  19  -1    4.61    0.29 
   0  19   1    4.85    0.28 
  -1 -19  -1    5.97    0.44 
   1 -19   1    6.19    0.32 
  -1  19  -1    6.23    0.39 
   1  19   1    6.34    0.41 
   2 -19   1    3.91    0.22 
   2  19   1    4.20    0.26 
   3 -19   1    1.05    0.13 
   3  19   1    1.35    0.15 
   4 -19   1    4.10    0.22 
   4  19   1    3.28    0.22 
   5 -19   1    1.16    0.12 
  -5  19  -1    0.90    0.13 
   4 -20  -1    3.37    0.17 
   3 -20  -1    0.46    0.08 
   3  20  -1    0.41    0.09 
   2 -20  -1    1.08    0.08 
   2  20  -1    1.23    0.20 
   1  20  -1   12.04    0.57 
   0  20   1    0.29    0.08 
   0  20  -1    0.34    0.08 
   1  20   1    0.05    0.07 
   2 -20   1    0.52    0.08 
   2  20   1    0.27    0.08 
   3 -20   1    2.09    0.13 
   4 -20   1    0.89    0.13 
 -12   0   2    7.32    0.35 
 -11   0   2    0.41    0.10 
 -10   0   2    1.76    0.20 
 -10   0   2    1.55    0.18 
  -9   0   2    1.98    0.19 
  -9   0   2    1.97    0.33 
  -9   0   2    2.35    0.21 
  -9   0   2    2.20    0.21 
  -8   0   2    0.04    0.37 
  -7   0   2   19.69    1.12 
  -6   0   2   27.80    1.42 
  -5   0   2   60.12    2.95 
   5   0  -2   65.80    3.02 
   4   0  -2   11.61    0.65 
   4   0  -2   10.62    0.64 
  -4   0   2   10.70    0.64 
   3   0  -2   33.36    1.63 
  -3   0   2   36.72    1.61 
   3   0  -2   33.23    1.64 
   2   0  -2  155.32    7.35 
   2   0  -2  166.60    7.34 
  -2   0   2  159.43    7.33 
  -2   0   2  164.21    7.29 
  -2   0   2  176.93    7.30 
  -1   0   2    0.01    0.08 
  -1   0   2    0.07    0.08 
  -1   0   2    0.11    0.06 
   1   0  -2    0.06    0.09 
   1   0  -2    0.06    0.08 
  -1   0   2   -0.03    0.05 
   0   0  -2    0.09    0.08 
   0   0   2    0.02    0.05 
   0   0  -2   -0.04    0.07 
   0   0   2   -0.04    0.02 
   0   0  -2   -0.06    0.04 
   0   0  -2   -0.04    0.05 
   0   0   2    0.04    0.07 
   1   0   2    7.43    0.41 
  -1   0  -2    7.57    0.40 
   1   0   2    7.69    0.41 
  -1   0  -2    7.77    0.41 
   2   0   2  931.99   43.30 
   2   0   2 1000.00   43.32 
   3   0   2  613.81   26.05 
  -3   0  -2  581.95   25.39 
   3   0   2  574.23   26.04 
   4   0   2    0.08    0.09 
  -4   0  -2    0.10    0.11 
   4   0   2    0.22    0.10 
   5   0   2    8.91    0.54 
   5   0   2    9.21    0.55 
  -5   0  -2    9.38    0.55 
  -6   0  -2   10.99    0.66 
  -7   0  -2    0.79    0.20 
  -8   0  -2    1.96    0.28 
  -8   0  -2    2.29    0.18 
  -9   0  -2    5.63    0.39 
  -9   0  -2    5.40    0.54 
  -9   0  -2    5.89    0.38 
 -10   0  -2    4.00    0.27 
 -10   0  -2    4.28    0.26 
 -11   0  -2    0.22    0.09 
 -11   0  -2    0.13    0.09 
 -12   0  -2    0.35    0.09 
 -12   1   2    4.07    0.25 
 -11  -1   2    0.27    0.10 
 -11   1   2    0.19    0.10 
 -11   1   2    0.28    0.09 
 -11   1   2    0.22    0.10 
 -10  -1   2    2.95    0.22 
 -10   1   2    2.88    0.23 
 -10   1   2    3.06    0.22 
 -10   1   2    2.83    0.22 
  -9  -1   2   14.52    0.91 
  -9  -1   2   15.19    0.62 
  -9   1   2   15.20    0.98 
  -9   1   2   15.20    0.63 
  -9   1   2   15.53    0.62 
  -9   1   2   14.81    0.62 
  -8  -1   2    2.31    0.55 
  -8   1   2    2.47    0.62 
  -7  -1   2   14.46    0.88 
  -7   1   2   15.41    0.93 
  -6  -1   2   36.68    1.82 
   6  -1  -2   38.65    1.93 
  -6   1   2   37.07    1.87 
  -5  -1   2    3.84    0.45 
   5  -1  -2    3.77    0.52 
   5   1  -2    3.69    0.45 
  -5   1   2    2.90    0.49 
  -4  -1   2    3.76    0.30 
   4  -1  -2    3.59    0.32 
   4   1  -2    3.01    0.28 
  -4   1   2    2.77    0.31 
   4   1  -2    2.52    0.28 
   3  -1  -2   50.95    2.41 
  -3  -1   2   49.43    2.33 
   3  -1  -2   50.93    2.42 
  -3   1   2   53.49    2.37 
   3   1  -2   52.43    2.39 
   3   1  -2   52.62    2.40 
   2  -1  -2    6.75    0.42 
   2  -1  -2    6.68    0.42 
  -2   1   2    6.32    0.35 
  -2   1   2    6.32    0.35 
  -2   1   2    6.03    0.41 
   2   1  -2    6.69    0.39 
   2   1  -2    6.33    0.39 
   1  -1  -2  127.37    5.75 
  -1  -1   2  126.39    5.75 
   1  -1  -2  134.92    5.77 
  -1  -1   2  125.37    5.73 
  -1  -1   2  126.14    5.75 
  -1  -1   2  131.43    5.73 
  -1   1   2  124.84    5.75 
  -1   1   2  126.92    5.76 
   1   1  -2  130.09    5.76 
   1   1  -2  131.88    5.76 
  -1   1   2  132.35    5.77 
  -1   1   2  128.96    5.75 
   0  -1  -2  133.83    6.36 
   0  -1   2  143.99    6.37 
   0  -1   2  137.50    6.36 
   0  -1   2  150.19    6.37 
   0  -1  -2  142.72    6.35 
   0  -1  -2  140.23    6.35 
   0  -1  -2  141.50    6.36 
   0   1  -2  153.35    6.37 
   0   1  -2  144.03    6.36 
   0   1   2  141.86    6.36 
   0   1  -2  141.90    6.37 
   0   1   2  143.56    6.37 
   1  -1   2  136.63    6.20 
  -1  -1  -2  137.35    6.16 
   1  -1   2  144.55    6.20 
   1   1   2  138.71    6.18 
  -1   1  -2  141.72    6.19 
  -1   1  -2  135.78    6.19 
   1   1   2  136.98    6.17 
  -1   1  -2  140.06    6.18 
  -1   1  -2  138.84    6.18 
   2  -1   2   84.84    3.85 
   2  -1   2   85.24    3.86 
   2   1   2   79.69    3.79 
   2   1   2   83.82    3.79 
  -3  -1  -2   14.79    0.76 
   3  -1   2   14.81    0.82 
   3  -1   2   14.94    0.82 
   3   1   2   17.27    0.77 
   3   1   2   17.48    0.77 
  -3   1  -2   17.08    0.82 
   4  -1   2   33.99    1.62 
   4  -1   2   32.06    1.61 
  -4  -1  -2   33.22    1.53 
   4   1   2   35.13    1.56 
   4   1   2   33.15    1.55 
  -4   1  -2   33.77    1.59 
   5  -1   2   23.56    1.17 
  -5  -1  -2   21.69    1.07 
   5   1   2   23.04    1.09 
  -5   1  -2   21.05    1.13 
   5   1   2   21.70    1.08 
  -6  -1  -2    1.71    0.22 
  -6   1  -2    1.58    0.26 
  -7  -1  -2   17.09    0.92 
  -7   1  -2   18.02    1.01 
  -8  -1  -2   21.66    1.09 
  -8  -1  -2   21.43    0.83 
  -8   1  -2   21.93    0.83 
  -8   1  -2   20.44    1.19 
  -9  -1  -2    2.05    0.26 
  -9  -1  -2    2.53    0.25 
  -9   1  -2    2.29    0.27 
  -9   1  -2    2.61    0.43 
  -9   1  -2    2.50    0.24 
 -10  -1  -2    2.82    0.21 
 -10  -1  -2    2.49    0.22 
 -10   1  -2    2.80    0.23 
 -10   1  -2    2.96    0.22 
 -11  -1  -2    0.34    0.09 
 -11  -1  -2    0.49    0.10 
 -11   1  -2    0.31    0.10 
 -11   1  -2    0.31    0.09 
 -12   1  -2    0.86    0.14 
 -12   2   2    2.55    0.22 
 -12   2   2    2.57    0.20 
 -11   2   2    0.46    0.11 
 -11   2   2    0.57    0.11 
 -11   2   2    0.45    0.11 
 -10  -2   2    0.25    0.10 
 -10   2   2    0.15    0.09 
 -10   2   2    0.29    0.10 
 -10   2   2    0.15    0.10 
  -9  -2   2    0.65    0.12 
  -9   2   2    0.60    0.12 
  -9   2   2    0.62    0.26 
  -9   2   2    0.68    0.13 
  -9   2   2    0.66    0.13 
  -8  -2   2   17.41    1.05 
  -8   2   2   16.59    0.72 
  -8   2   2   18.77    1.21 
  -7  -2   2   14.07    0.84 
  -7   2   2   14.39    0.93 
  -6  -2   2   42.75    2.09 
  -6   2   2   45.96    2.20 
  -5  -2   2   16.12    0.95 
   5  -2  -2   16.85    1.09 
  -5   2   2   15.44    1.05 
   5   2  -2   17.22    0.98 
  -4  -2   2   12.85    0.68 
   4  -2  -2   12.87    0.76 
  -4   2   2   12.90    0.74 
   4   2  -2   12.33    0.69 
   4   2  -2   12.06    0.69 
   3  -2  -2   26.49    1.34 
   3  -2  -2   24.49    1.33 
  -3  -2   2   27.10    1.27 
  -3   2   2   24.76    1.22 
  -3   2   2   27.55    1.31 
   3   2  -2   27.00    1.29 
  -3   2   2   27.90    1.22 
   3   2  -2   28.11    1.29 
   2  -2  -2   22.46    1.12 
   2  -2  -2   22.10    1.12 
   2   2  -2   22.48    1.09 
  -2   2   2   20.14    1.06 
  -2   2   2   22.94    1.12 
   2   2  -2   22.81    1.09 
  -2   2   2   23.78    1.07 
   1  -2  -2   84.85    3.83 
  -1  -2   2   86.00    3.80 
   1  -2  -2   85.69    3.86 
  -1  -2   2   84.00    3.80 
  -1  -2   2   81.67    3.83 
   1  -2  -2   86.15    3.86 
  -1   2   2   88.91    3.86 
  -1   2   2   82.18    3.85 
  -1   2   2   84.43    3.84 
   1   2  -2   86.77    3.85 
   1   2  -2   85.30    3.85 
  -1   2   2   86.45    3.84 
   0  -2   2    4.33    0.28 
   0  -2   2    4.79    0.32 
   0  -2   2    4.61    0.32 
   0  -2  -2    4.70    0.31 
   0  -2   2    4.79    0.29 
   0  -2  -2    4.71    0.27 
   0  -2  -2    4.78    0.30 
   0  -2  -2    4.74    0.27 
   0   2  -2    5.21    0.29 
   0   2   2    5.57    0.32 
   0   2  -2    5.70    0.33 
   0   2   2    5.75    0.32 
   1  -2   2   62.19    2.71 
   1  -2   2   63.72    2.72 
  -1   2  -2   58.50    2.67 
   1   2   2   56.87    2.66 
  -1   2  -2   58.77    2.70 
  -1   2  -2   60.36    2.70 
   1   2   2   55.14    2.66 
  -1   2  -2   58.04    2.67 
   2  -2   2   88.59    4.06 
   2  -2   2   84.36    4.05 
  -2   2  -2   87.42    4.07 
  -2   2  -2   85.86    3.92 
  -2   2  -2   87.15    3.92 
   2   2   2   87.66    3.93 
   2   2   2   86.12    3.93 
   3  -2   2   16.01    0.85 
  -3  -2  -2   16.99    0.74 
   3  -2   2   16.15    0.85 
  -3   2  -2   15.28    0.84 
   3   2   2   15.82    0.75 
   3   2   2   15.93    0.75 
   4  -2   2   13.55    0.77 
  -4  -2  -2   13.95    0.65 
   4  -2   2   13.74    0.77 
   4   2   2   13.64    0.66 
  -4   2  -2   13.85    0.77 
   4   2   2   13.47    0.65 
   5  -2   2    0.20    0.13 
  -5  -2  -2    0.06    0.08 
  -5   2  -2    0.17    0.16 
   5   2   2    0.18    0.07 
   5   2   2    0.12    0.07 
  -6  -2  -2    2.54    0.23 
  -6   2  -2    2.83    0.35 
  -7  -2  -2    2.95    0.24 
  -7   2  -2    2.69    0.37 
  -8  -2  -2    0.59    0.11 
  -8   2  -2    0.81    0.25 
  -8   2  -2    0.84    0.12 
  -9  -2  -2    1.71    0.23 
  -9   2  -2    1.59    0.23 
  -9   2  -2    1.87    0.23 
  -9   2  -2    1.69    0.25 
  -9   2  -2    1.79    0.43 
 -10  -2  -2    4.58    0.28 
 -10   2  -2    5.48    0.30 
 -10   2  -2    5.10    0.29 
 -10   2  -2    4.72    0.29 
 -11   2  -2    7.52    0.35 
 -11   2  -2    7.13    0.35 
 -11   2  -2    7.32    0.35 
 -12   2  -2    4.45    0.23 
 -12   2  -2    4.69    0.25 
 -12   3   2    0.52    0.16 
 -12   3   2    0.68    0.16 
 -12   3   2    0.69    0.18 
 -11   3   2    1.57    0.16 
 -11   3   2    1.44    0.17 
 -11   3   2    1.29    0.17 
 -10   3   2    6.11    0.34 
 -10   3   2    6.81    0.34 
 -10   3   2    7.05    0.35 
  -9   3   2    9.12    0.41 
  -9   3   2    7.60    0.72 
  -9   3   2    7.70    0.39 
  -9   3   2    8.30    0.39 
  -8   3   2   19.56    1.32 
  -8   3   2   20.77    0.82 
  -7   3   2    0.44    0.25 
  -6  -3   2    3.05    0.32 
  -6   3   2    4.24    0.45 
  -5  -3   2    1.79    0.32 
   5   3  -2    2.23    0.35 
  -5   3   2    1.97    0.43 
   4  -3  -2   20.65    1.19 
  -4  -3   2   21.94    1.10 
  -4   3   2   22.47    1.18 
   4   3  -2   22.89    1.12 
   4   3  -2   23.22    1.13 
   3  -3  -2    1.90    0.27 
   3   3  -2    1.48    0.21 
   3   3  -2    1.87    0.21 
  -3   3   2    1.46    0.16 
  -3   3   2    1.49    0.26 
  -3   3   2    1.71    0.17 
   2  -3  -2   31.31    1.59 
   2  -3  -2   33.41    1.64 
  -2   3   2   34.88    1.64 
  -2   3   2   35.98    1.59 
   2   3  -2   34.16    1.60 
   2   3  -2   32.83    1.60 
  -1  -3   2   89.29    4.17 
   1  -3  -2   95.32    4.25 
  -1  -3   2   95.12    4.17 
   1  -3  -2   87.11    4.21 
  -1  -3   2   92.41    4.21 
   1  -3  -2   94.90    4.21 
   1  -3  -2   91.41    4.24 
   1   3  -2   92.39    4.22 
  -1   3   2   96.36    4.25 
  -1   3   2   97.10    4.22 
  -1   3   2   95.53    4.25 
   1   3  -2   96.50    4.23 
   0  -3   2   18.09    0.91 
   0  -3   2   18.95    0.95 
   0  -3   2   19.82    0.91 
   0  -3  -2   19.06    0.89 
   0  -3  -2   19.51    0.89 
   0  -3   2   19.70    0.96 
   0  -3  -2   18.42    0.93 
   0   3  -2   19.15    0.96 
   0   3   2   18.05    0.94 
   0   3  -2   17.19    0.91 
   0   3   2   20.46    0.96 
   1  -3   2   30.76    1.48 
   1  -3   2   29.81    1.44 
  -1   3  -2   31.35    1.44 
   1   3   2   31.24    1.43 
  -1   3  -2   30.83    1.48 
   1   3   2   29.89    1.43 
  -1   3  -2   30.94    1.44 
  -1   3  -2   30.65    1.48 
   2  -3   2   29.86    1.54 
   2  -3   2   27.44    1.53 
   2   3   2   28.06    1.37 
  -2   3  -2   28.64    1.40 
  -2   3  -2   29.55    1.40 
  -2   3  -2   27.42    1.51 
   2   3   2   29.16    1.38 
   3  -3   2   10.47    0.67 
   3  -3   2   10.47    0.67 
   3   3   2   11.68    0.55 
   3   3   2   12.17    0.55 
  -3   3  -2   12.27    0.69 
  -4  -3  -2    1.34    0.11 
   4  -3   2    1.63    0.26 
  -4   3  -2    1.33    0.26 
   5  -3   2   22.39    1.22 
  -5  -3  -2   22.62    1.00 
  -5   3  -2   21.76    1.19 
   5   3   2   21.70    1.02 
  -6   3  -2   18.82    1.10 
  -7   3  -2    7.88    0.65 
  -8  -3  -2   10.69    0.48 
  -8   3  -2   11.56    0.48 
  -8   3  -2   10.62    0.81 
  -9  -3  -2    5.97    0.34 
  -9   3  -2    6.33    0.37 
  -9   3  -2    5.68    0.35 
  -9   3  -2    5.94    0.37 
 -10   3  -2    1.68    0.19 
 -10   3  -2    1.53    0.20 
 -10   3  -2    1.49    0.17 
 -11   3  -2    4.62    0.27 
 -11   3  -2    4.79    0.27 
 -11   3  -2    4.68    0.27 
 -12   3  -2    1.44    0.13 
 -12   3  -2    1.54    0.15 
 -12   3  -2    1.44    0.14 
 -12   4   2    2.21    0.20 
 -12   4   2    1.75    0.18 
 -12   4   2    2.10    0.19 
 -11   4   2    1.26    0.16 
 -11   4   2    1.39    0.17 
 -11   4   2    1.54    0.17 
 -10   4   2    2.60    0.21 
 -10   4   2    2.35    0.21 
 -10   4   2    2.11    0.19 
  -9   4   2   11.84    0.51 
  -9   4   2   11.15    0.50 
  -9   4   2   11.17    0.50 
  -8   4   2   16.61    1.24 
  -8   4   2   17.00    0.70 
  -7   4   2    5.22    0.57 
  -6   4   2    4.18    0.48 
  -5   4   2    8.88    0.72 
   5   4  -2   10.17    0.63 
  -4   4   2   46.89    2.08 
  -4   4   2   41.88    2.07 
   4   4  -2   46.23    2.17 
   4   4  -2   48.18    2.17 
  -4   4   2   47.13    2.23 
  -3   4   2   11.03    0.59 
   3   4  -2   11.31    0.62 
  -3   4   2   10.78    0.59 
   3   4  -2   11.41    0.62 
  -3   4   2   10.32    0.68 
   2  -4  -2   13.63    0.81 
   2  -4  -2   15.13    0.82 
   2  -4  -2   14.45    0.75 
  -2   4   2   13.64    0.83 
   2   4  -2   14.50    0.76 
   2   4  -2   14.50    0.76 
  -2   4   2   13.86    0.80 
  -2   4   2   13.97    0.74 
  -1  -4   2   52.32    2.32 
   1  -4  -2   51.73    2.39 
   1  -4  -2   52.85    2.38 
   1  -4  -2   52.59    2.43 
   1  -4  -2   52.07    2.43 
   1  -4  -2   52.48    2.43 
  -1  -4   2   54.95    2.32 
  -1   4   2   50.65    2.39 
  -1   4   2   46.53    2.43 
   1   4  -2   52.14    2.42 
  -1   4   2   52.91    2.44 
   1   4  -2   49.84    2.41 
   0  -4   2   42.01    1.96 
   0  -4  -2   41.64    1.88 
   0  -4  -2   40.41    1.93 
   0  -4   2   39.81    1.91 
   0  -4  -2   41.56    1.88 
   0  -4   2   41.54    1.91 
   0   4   2   41.55    1.95 
   0   4   2   44.42    1.96 
   0   4  -2   37.66    1.92 
   0   4  -2   44.20    1.97 
   1  -4   2   72.75    3.40 
   1  -4   2   73.18    3.37 
   1  -4   2   72.85    3.41 
  -1   4  -2   75.41    3.37 
   1   4   2   76.15    3.36 
  -1   4  -2   73.22    3.40 
   1   4   2   73.22    3.35 
  -1   4  -2   73.13    3.36 
  -1   4  -2   74.94    3.41 
   2  -4   2    6.41    0.58 
   2   4   2    7.30    0.45 
  -2   4  -2    7.04    0.48 
   2   4   2    7.10    0.46 
  -2   4  -2    6.29    0.56 
  -2   4  -2    7.00    0.47 
   3  -4   2   57.70    2.75 
  -3   4  -2   60.60    2.70 
  -3   4  -2   56.18    2.61 
   3   4   2   56.02    2.60 
   3   4   2   61.41    2.60 
  -3   4  -2   55.50    2.61 
  -4  -4  -2   40.80    1.87 
  -4  -4  -2   42.70    1.87 
  -4   4  -2   45.44    2.09 
  -5   4  -2   27.46    1.46 
  -6   4  -2    3.34    0.42 
  -7   4  -2    3.32    0.46 
  -8  -4  -2    9.75    0.45 
  -8   4  -2   10.88    0.84 
  -8   4  -2   10.93    0.46 
  -9   4  -2    3.93    0.31 
  -9   4  -2    3.91    0.32 
  -9   4  -2    4.27    0.30 
 -10   4  -2    2.93    0.23 
 -10   4  -2    2.77    0.21 
 -10   4  -2    2.96    0.23 
 -11   4  -2    9.19    0.41 
 -11   4  -2    8.96    0.40 
 -11   4  -2    8.99    0.40 
 -12   4  -2    5.49    0.26 
 -12   4  -2    5.49    0.26 
 -12   4  -2    5.56    0.27 
 -12   5   2    8.34    0.37 
 -12   5   2    7.96    0.36 
 -11   5   2   10.03    0.44 
 -11   5   2   10.05    0.43 
 -11   5   2   10.01    0.44 
 -10   5   2   12.08    0.52 
 -10   5   2   11.87    0.52 
 -10   5   2   12.17    0.52 
  -9   5   2    2.43    0.22 
  -9   5   2    2.53    0.21 
  -9   5   2    2.69    0.22 
  -8   5   2    9.99    0.50 
  -8   5   2   10.33    1.08 
  -7   5   2    1.77    0.42 
  -6   5   2    1.26    0.32 
  -5   5   2   10.97    0.90 
  -4   5   2   42.24    2.00 
   4   5  -2   45.47    2.07 
  -4   5   2   42.99    2.14 
  -4   5   2   43.04    2.00 
   4   5  -2   42.09    2.06 
  -3   5   2   25.74    1.37 
   3   5  -2   28.62    1.32 
   3   5  -2   26.27    1.31 
  -3   5   2   24.64    1.29 
   2  -5  -2   54.57    2.72 
  -2   5   2   58.24    2.73 
   2   5  -2   63.63    2.75 
   1  -5  -2   16.73    0.83 
   1  -5  -2   16.11    0.82 
   1   5  -2   13.96    0.86 
   1   5  -2   16.39    0.88 
  -1   5   2   18.40    0.92 
   0  -5   2   34.79    1.69 
   0  -5  -2   34.43    1.59 
   0  -5  -2   33.96    1.59 
   0  -5   2   36.61    1.63 
   0  -5   2   35.94    1.63 
   0  -5   2   34.37    1.63 
   0   5   2   36.43    1.69 
   0   5  -2   32.55    1.69 
   0   5   2   33.42    1.68 
   0   5  -2   35.07    1.70 
   1  -5   2    1.15    0.25 
   1  -5   2    1.55    0.21 
   1  -5   2    1.00    0.24 
  -1   5  -2    1.86    0.26 
  -1   5  -2    1.49    0.20 
   1   5   2    1.84    0.21 
   1   5   2    1.36    0.21 
  -1   5  -2    1.84    0.28 
   2   5   2    1.93    0.26 
   2   5   2    2.52    0.28 
  -2   5  -2    2.77    0.30 
  -3   5  -2    7.59    0.55 
  -3   5  -2    6.57    0.39 
   3   5   2    7.07    0.39 
  -3   5  -2    6.01    0.39 
   3   5   2    6.50    0.38 
  -4   5  -2   12.70    0.82 
   4   5   2   13.27    0.63 
   4   5   2   12.47    0.63 
  -5   5  -2    4.71    0.49 
  -6   5  -2   16.96    1.09 
  -7   5  -2    4.42    0.54 
  -8   5  -2    9.29    0.42 
  -8   5  -2    8.84    0.79 
  -9   5  -2    2.99    0.27 
  -9   5  -2    2.08    0.23 
  -9   5  -2    3.27    0.27 
 -10   5  -2    0.49    0.11 
 -10   5  -2    0.87    0.13 
 -10   5  -2    0.56    0.12 
 -11   5  -2    0.99    0.16 
 -11   5  -2    0.93    0.15 
 -11   5  -2    1.05    0.14 
 -12   5  -2    0.06    0.08 
 -12   5  -2    0.03    0.07 
 -12   5  -2    0.08    0.06 
 -12   6   2    1.37    0.17 
 -12   6   2    1.24    0.18 
 -11   6   2    1.56    0.16 
 -11   6   2    1.69    0.17 
 -11   6   2    1.54    0.17 
 -10   6   2    3.24    0.23 
 -10   6   2    3.07    0.23 
 -10   6   2    3.21    0.23 
  -9   6   2    1.72    0.19 
  -9   6   2    2.18    0.21 
  -9   6   2    1.84    0.20 
  -8   6   2   17.87    0.74 
  -8   6   2   17.87    0.74 
  -8   6   2   18.32    0.73 
  -8   6   2   19.01    1.34 
  -8   6   2   17.57    0.74 
  -7   6   2   10.63    0.89 
  -6   6   2   30.29    1.72 
  -5   6   2   18.95    1.29 
  -4   6   2   46.07    2.13 
   4   6  -2   44.49    2.18 
  -3  -6   2   17.05    0.58 
  -3   6   2   15.09    0.87 
   3   6  -2   16.19    0.90 
   1  -6  -2   22.28    1.07 
   1   6  -2   20.78    1.13 
   0  -6   2    5.79    0.35 
   0  -6  -2    5.72    0.31 
   0  -6  -2    6.35    0.32 
   0  -6   2    5.93    0.36 
   0   6   2    5.13    0.42 
   0   6  -2    5.21    0.44 
   1  -6   2   29.12    1.44 
   1  -6   2   28.34    1.43 
   1   6   2   30.28    1.46 
   1   6   2   30.13    1.46 
  -2  -6  -2    1.98    0.10 
  -2  -6  -2    1.97    0.10 
   2   6   2    2.55    0.31 
  -2   6  -2    2.18    0.30 
   2   6   2    2.15    0.30 
  -3   6  -2    4.62    0.48 
   3   6   2    5.14    0.36 
  -3   6  -2    5.12    0.36 
   3   6   2    5.59    0.36 
  -4   6  -2   59.93    2.52 
  -4   6  -2   53.76    2.52 
   4   6   2   54.64    2.55 
  -4   6  -2   53.30    2.70 
   4   6   2   56.23    2.55 
  -5   6  -2   30.32    1.66 
  -6   6  -2    9.17    0.77 
  -7   6  -2    8.75    0.79 
  -8   6  -2    5.92    0.32 
  -8   6  -2    6.17    0.66 
  -8   6  -2    6.07    0.33 
  -8   6  -2    6.22    0.33 
  -9   6  -2    4.55    0.31 
  -9   6  -2    4.25    0.32 
  -9   6  -2    3.62    0.29 
 -10   6  -2    6.66    0.33 
 -10   6  -2    6.63    0.34 
 -10   6  -2    6.14    0.33 
 -11   6  -2    8.15    0.36 
 -11   6  -2    8.33    0.37 
 -11   6  -2    7.53    0.36 
 -12   6  -2    6.59    0.29 
 -12   6  -2    6.39    0.28 
 -12   7   2    4.47    0.25 
 -12   7   2    4.68    0.26 
 -11   7   2    1.75    0.17 
 -11   7   2    1.90    0.16 
 -11   7   2    1.96    0.16 
 -10   7   2    8.03    0.39 
 -10   7   2    7.91    0.38 
 -10   7   2    8.35    0.39 
  -9   7   2    1.70    0.18 
  -9   7   2    1.71    0.18 
  -9   7   2    1.39    0.19 
  -8   7   2    5.84    0.37 
  -8   7   2    5.48    0.37 
  -8   7   2    5.22    0.36 
  -8   7   2    5.49    0.28 
  -7   7   2   18.98    0.75 
  -6  -7   2    3.88    0.28 
  -5  -7   2   19.77    0.94 
  -4   7   2   17.84    0.95 
  -3  -7   2   44.83    1.56 
   3   7  -2   43.56    2.16 
  -2  -7   2   15.30    0.57 
   2   7  -2   16.53    0.91 
   1  -7  -2   12.72    0.68 
   1   7  -2   12.49    0.78 
   0  -7   2   90.57    4.05 
   0  -7  -2   87.23    3.99 
   0  -7   2   92.42    4.05 
   0  -7  -2   92.95    3.99 
   0   7   2   83.47    4.14 
   1  -7   2   16.17    0.84 
   1   7   2   15.10    0.87 
  -2  -7  -2   14.65    0.55 
  -2  -7  -2   14.56    0.54 
   2   7   2   15.10    0.97 
  -3   7  -2   13.30    0.71 
   3   7   2   11.02    0.70 
   3   7   2   13.64    0.72 
  -4   7  -2   19.79    0.92 
   4   7   2   18.37    0.95 
  -4   7  -2   16.87    0.91 
  -5   7  -2    2.15    0.43 
  -6   7  -2   18.04    1.22 
  -7   7  -2   13.75    0.57 
  -7   7  -2   12.62    1.02 
  -8  -7  -2   10.17    0.57 
  -8   7  -2    9.99    0.44 
  -8   7  -2    9.45    0.41 
  -8   7  -2    9.60    0.45 
  -8   7  -2    8.89    0.86 
  -8   7  -2    9.99    0.45 
  -9   7  -2    3.81    0.29 
  -9   7  -2    3.72    0.30 
  -9   7  -2    3.61    0.31 
 -10   7  -2   16.33    0.66 
 -10   7  -2   16.65    0.66 
 -10   7  -2   15.84    0.65 
 -11   7  -2    1.84    0.17 
 -11   7  -2    1.49    0.16 
 -11   7  -2    1.82    0.16 
 -12   7  -2    0.80    0.11 
 -12   7  -2    0.93    0.11 
 -11   8   2    1.89    0.15 
 -11   8   2    1.85    0.16 
 -11   8   2    1.63    0.15 
 -10   8   2    6.00    0.31 
 -10   8   2    6.35    0.31 
 -10   8   2    5.87    0.31 
  -9   8   2    4.55    0.28 
  -9   8   2    4.35    0.27 
  -9   8   2    4.34    0.26 
  -8   8   2    0.51    0.09 
  -8   8   2    0.69    0.23 
  -8   8   2    0.42    0.22 
  -8   8   2    0.79    0.23 
  -7  -8   2    3.18    0.29 
  -6  -8   2    1.09    0.18 
  -5  -8   2   25.95    1.21 
  -4  -8   2    1.40    0.17 
  -4   8   2    2.00    0.25 
  -3  -8   2    5.30    0.20 
   3   8  -2    4.94    0.45 
   2  -8  -2   21.34    1.15 
  -2  -8   2   22.98    0.82 
   2   8  -2   23.18    1.30 
   1  -8  -2    0.21    0.11 
   0  -8   2   55.79    2.45 
   0  -8   2   51.13    2.46 
   1  -8   2   10.04    0.56 
  -1  -8  -2    8.86    0.36 
   1   8   2    9.32    0.63 
  -2  -8  -2   12.82    0.49 
  -2  -8  -2   13.02    0.50 
   2   8   2   14.14    0.95 
  -3   8  -2    2.76    0.29 
   3   8   2    2.82    0.30 
  -4   8  -2    5.42    0.38 
  -7  -8  -2   -0.02    0.12 
  -7   8  -2    0.02    0.09 
  -8  -8  -2    7.37    0.46 
  -8   8  -2    7.00    0.32 
  -8   8  -2    6.54    0.35 
  -8   8  -2    7.15    0.35 
  -8   8  -2    6.88    0.36 
  -9   8  -2    2.12    0.24 
  -9   8  -2    2.62    0.25 
  -9   8  -2    2.27    0.24 
 -10   8  -2    4.47    0.26 
 -10   8  -2    4.97    0.26 
 -10   8  -2    4.54    0.27 
 -11   8  -2    0.29    0.09 
 -11   8  -2    0.31    0.08 
 -11   8  -2    0.18    0.08 
 -11   9   2    0.15    0.07 
 -11   9   2    0.30    0.08 
 -11   9   2    0.23    0.08 
 -10   9   2    0.85    0.15 
 -10   9   2    0.80    0.12 
 -10   9   2    1.16    0.15 
  -9   9   2    2.29    0.21 
  -9   9   2    2.71    0.21 
  -9   9   2    2.69    0.21 
  -9   9   2    2.63    0.14 
  -8   9   2    1.19    0.23 
  -8   9   2    1.18    0.23 
  -8   9   2    1.20    0.14 
  -7  -9   2   12.20    0.68 
  -7   9   2   12.02    0.52 
  -7   9   2   12.25    0.55 
  -6  -9   2    1.63    0.20 
  -5  -9   2    6.96    0.43 
  -4  -9   2    8.12    0.44 
  -3  -9   2    9.44    0.48 
  -3  -9   2    9.43    0.35 
   2  -9  -2    4.46    0.36 
  -2  -9   2    4.58    0.20 
   1  -9  -2    5.06    0.34 
   0  -9   2   74.48    3.39 
   0  -9   2   75.34    3.38 
   1  -9   2   23.44    1.17 
  -1  -9  -2   22.34    0.83 
  -2  -9  -2    0.25    0.05 
  -2  -9  -2    0.26    0.05 
   2   9   2    0.29    0.19 
  -4   9  -2    1.30    0.21 
  -6   9  -2    2.79    0.21 
  -7  -9  -2    4.43    0.35 
  -7   9  -2    4.24    0.26 
  -7   9  -2    4.20    0.25 
  -7   9  -2    3.96    0.26 
  -8  -9  -2    2.54    0.28 
  -8   9  -2    2.73    0.22 
  -8   9  -2    2.77    0.18 
  -8   9  -2    2.74    0.22 
  -8   9  -2    2.66    0.22 
  -9  -9  -2    4.52    0.38 
  -9   9  -2    4.88    0.31 
  -9   9  -2    4.25    0.29 
  -9   9  -2    3.71    0.30 
 -10   9  -2    4.73    0.25 
 -10   9  -2    4.03    0.25 
 -10   9  -2    4.59    0.25 
 -11   9  -2    0.45    0.09 
 -11   9  -2    0.67    0.11 
 -11   9  -2    0.45    0.09 
 -11  10   2    1.96    0.14 
 -10  10   2    1.42    0.15 
 -10  10   2    1.12    0.15 
  -9  10   2    0.88    0.16 
  -9  10   2    0.90    0.10 
  -9  10   2    0.89    0.16 
  -8  10   2    1.98    0.25 
  -8  10   2    2.27    0.25 
  -8  10   2    2.12    0.18 
  -7  10   2    1.08    0.14 
  -7  10   2    0.88    0.16 
  -6 -10   2    7.91    0.46 
  -6 -10   2    8.33    0.50 
  -5 -10   2   19.41    0.98 
  -4 -10   2    5.96    0.36 
  -3 -10   2   31.61    1.39 
  -3 -10   2   30.82    1.11 
  -2 -10   2   10.06    0.38 
   2 -10  -2    9.65    0.60 
  -2 -10   2    9.57    0.50 
  -1 -10   2   25.17    1.15 
   1 -10  -2   26.14    1.23 
   1 -10  -2   26.40    1.22 
   1 -10  -2   24.93    1.15 
   1 -10   2   25.83    1.29 
  -2 -10  -2    4.82    0.21 
  -2 -10  -2    4.57    0.21 
  -2 -10  -2    4.52    0.34 
  -3 -10  -2   14.39    0.69 
  -6 -10  -2    6.79    0.43 
  -6  10  -2    6.09    0.32 
  -7 -10  -2    1.51    0.24 
  -7  10  -2    1.34    0.17 
  -7  10  -2    1.54    0.19 
  -7  10  -2    1.20    0.18 
  -8 -10  -2    0.19    0.13 
  -8  10  -2   -0.02    0.10 
  -8  10  -2    0.00    0.06 
  -8  10  -2    0.09    0.09 
  -9 -10  -2    1.30    0.24 
  -9  10  -2    1.10    0.19 
  -9  10  -2    1.38    0.21 
 -10  10  -2    5.80    0.30 
 -10  10  -2    6.56    0.29 
 -10  10  -2    5.86    0.29 
 -11  10  -2    1.76    0.14 
 -10  11   2    4.02    0.22 
 -10  11   2    3.89    0.22 
  -9  11   2    7.41    0.35 
  -9  11   2    7.42    0.31 
  -9  11   2    7.29    0.35 
  -8  11   2   12.34    0.52 
  -8  11   2   11.19    0.55 
  -8  11   2   11.64    0.54 
  -7  11   2    0.56    0.11 
  -6 -11   2    4.03    0.32 
  -6 -11   2    3.74    0.29 
  -6  11   2    2.99    0.24 
  -5 -11   2    3.48    0.34 
  -4 -11   2   15.09    0.74 
   3 -11  -2    2.91    0.24 
  -3 -11   2    2.83    0.12 
  -3 -11   2    3.00    0.24 
   3 -11  -2    2.73    0.14 
   2 -11  -2   62.84    2.70 
   2 -11  -2   66.90    2.27 
   2 -11  -2   59.38    2.92 
   2 -11  -2   61.55    2.27 
  -2 -11   2   60.91    2.22 
  -2 -11   2   63.90    2.70 
   1 -11  -2   59.62    2.59 
  -1 -11   2   60.69    2.59 
   0 -11   2    8.99    0.47 
   0 -11  -2    9.15    0.48 
   1 -11   2    4.81    0.34 
   1 -11   2    5.33    0.31 
  -1 -11  -2    5.30    0.32 
  -2 -11  -2    0.62    0.07 
   2 -11   2    0.51    0.07 
  -2 -11  -2    0.67    0.07 
  -2 -11  -2    0.77    0.17 
  -3 -11  -2   15.47    0.74 
  -4 -11  -2    8.79    0.47 
  -6 -11  -2   43.21    2.04 
  -6  11  -2   42.45    1.70 
  -6  11  -2   42.41    1.57 
  -7 -11  -2    1.66    0.23 
  -7  11  -2    1.97    0.19 
  -7  11  -2    1.92    0.20 
  -7  11  -2    1.72    0.20 
  -8 -11  -2    1.87    0.24 
  -8  11  -2    1.67    0.19 
  -8  11  -2    1.53    0.18 
  -8  11  -2    1.52    0.15 
  -9 -11  -2    3.38    0.31 
  -9  11  -2    3.36    0.24 
  -9  11  -2    2.59    0.23 
 -10  11  -2    2.15    0.16 
 -10  11  -2    2.61    0.18 
 -10  12   2    0.18    0.07 
 -10  12   2    0.19    0.07 
  -9  12   2    3.69    0.23 
  -9  12   2    4.03    0.23 
  -9  12   2    3.96    0.18 
  -8  12   2    1.78    0.24 
  -8  12   2    1.66    0.16 
  -7  12   2    0.89    0.16 
  -6 -12   2    0.79    0.16 
  -6  12   2    0.67    0.13 
  -5 -12   2    0.72    0.23 
  -5 -12   2    0.68    0.21 
  -4 -12   2   20.81    0.97 
   4 -12  -2   20.64    0.97 
   4 -12  -2   20.03    0.78 
  -3 -12   2   31.42    1.43 
   3 -12  -2   32.28    1.42 
   3 -12  -2   30.98    1.16 
  -2 -12   2    1.75    0.11 
   2 -12  -2    1.70    0.19 
  -2 -12   2    1.64    0.19 
   1 -12  -2    4.08    0.28 
  -1 -12   2    4.17    0.28 
   0 -12  -2   10.62    0.56 
   0 -12   2   11.29    0.56 
   1 -12   2    6.39    0.37 
  -1 -12  -2    6.58    0.38 
   2 -12   2    1.91    0.23 
   2 -12   2    2.12    0.12 
  -2 -12  -2    2.21    0.12 
   2 -12   2    2.32    0.12 
  -2 -12  -2    2.28    0.26 
  -2 -12  -2    2.30    0.12 
   3 -12   2    4.05    0.19 
  -3 -12  -2    4.39    0.29 
  -4 -12  -2   24.45    1.13 
  -5 -12  -2   22.37    1.13 
  -6 -12  -2   15.51    0.80 
  -6  12  -2   14.64    0.61 
  -6  12  -2   14.12    0.66 
  -7 -12  -2    1.89    0.26 
  -7  12  -2    2.15    0.20 
  -7  12  -2    2.19    0.19 
  -8 -12  -2    2.99    0.27 
  -8  12  -2    2.66    0.18 
  -8  12  -2    2.59    0.20 
  -8  12  -2    2.22    0.20 
  -9  12  -2    0.90    0.17 
  -9  12  -2    0.62    0.16 
 -10  12  -2    2.03    0.16 
 -10  12  -2    2.31    0.16 
  -9  13   2   11.14    0.46 
  -8  13   2    2.27    0.24 
  -8  13   2    1.95    0.17 
  -7  13   2    0.33    0.10 
  -6 -13   2    2.62    0.26 
   6 -13  -2    2.29    0.15 
  -6  13   2    2.72    0.23 
  -5 -13   2    1.73    0.29 
   5 -13  -2    2.06    0.15 
   4 -13  -2   12.14    0.46 
   4 -13  -2   12.37    0.62 
  -4 -13   2   11.75    0.63 
  -4 -13   2   11.00    0.65 
   3 -13  -2    2.44    0.23 
  -3 -13   2    2.04    0.23 
  -3  13   2    2.20    0.19 
   3  13  -2    2.24    0.20 
   2 -13  -2   40.84    1.79 
  -2 -13   2   41.58    1.79 
  -2  13   2   39.32    1.75 
   2  13  -2   39.57    1.75 
  -1 -13   2    7.81    0.45 
   1 -13  -2    8.98    0.46 
   1  13  -2    7.28    0.42 
  -1  13   2    7.96    0.42 
   0 -13  -2    4.72    0.32 
   0 -13   2    4.72    0.32 
   0  13  -2    5.14    0.31 
   0  13   2    4.92    0.30 
   1 -13   2    5.37    0.32 
  -1 -13  -2    5.04    0.33 
  -1  13  -2    4.50    0.29 
   1  13   2    4.08    0.28 
  -2 -13  -2    3.07    0.30 
   2 -13   2    3.39    0.30 
  -2 -13  -2    2.64    0.14 
  -2  13  -2    3.52    0.28 
   2  13   2    3.31    0.27 
  -3 -13  -2   11.00    0.59 
   3 -13   2   11.77    0.44 
  -4 -13  -2    5.28    0.35 
   4 -13   2    5.01    0.23 
  -4 -13  -2    5.16    0.37 
  -5 -13  -2    0.87    0.22 
  -6 -13  -2    7.99    0.50 
  -6  13  -2    8.04    0.41 
  -6  13  -2    7.95    0.38 
  -7 -13  -2    9.39    0.56 
  -7  13  -2    9.60    0.45 
  -7  13  -2    9.45    0.43 
  -8 -13  -2    1.05    0.20 
  -8  13  -2    0.60    0.10 
  -8  13  -2    0.94    0.12 
  -9  13  -2    2.44    0.19 
  -9  14   2    0.30    0.07 
  -8  14   2    9.94    0.45 
  -8  14   2    9.51    0.43 
   7 -14  -2    1.24    0.08 
   7 -14  -2    1.17    0.08 
  -7  14   2    1.14    0.17 
  -7  14   2    1.35    0.16 
   6 -14  -2    6.29    0.25 
   6 -14  -2    5.80    0.25 
  -6 -14   2    6.08    0.39 
  -6  14   2    6.31    0.35 
  -5 -14   2    4.84    0.41 
   4 -14  -2    7.90    0.46 
  -4 -14   2    8.11    0.48 
  -3 -14   2   16.92    0.84 
   3 -14  -2   17.12    0.84 
  -3  14   2   17.08    0.81 
   3  14  -2   17.49    0.81 
  -2 -14   2   16.07    0.59 
  -2 -14   2   14.10    0.78 
   2 -14  -2   15.90    0.79 
   2  14  -2   16.24    0.75 
  -2  14   2   16.32    0.75 
  -1 -14   2    0.47    0.13 
   1 -14  -2    0.38    0.12 
   1  14  -2    0.33    0.10 
  -1  14   2    0.16    0.09 
   0 -14  -2    1.50    0.20 
   0 -14   2    1.80    0.20 
   0  14   2    1.39    0.17 
   0  14  -2    1.40    0.18 
   1 -14   2   14.00    0.67 
  -1 -14  -2   13.54    0.67 
  -1 -14  -2   13.25    0.50 
  -1 -14  -2   12.98    0.50 
  -1  14  -2   12.33    0.64 
   1  14   2   12.51    0.64 
   2 -14   2    4.22    0.36 
  -2 -14  -2    4.35    0.38 
  -2  14  -2    4.12    0.33 
   2  14   2    4.39    0.33 
  -3 -14  -2    1.58    0.20 
   4 -14   2    0.70    0.06 
  -4 -14  -2    0.48    0.15 
  -4 -14  -2    0.74    0.15 
   4 -14   2    0.55    0.06 
  -5 -14  -2   15.28    0.81 
   5 -14   2   14.85    0.58 
   6 -14   2    9.68    0.39 
  -6 -14  -2    9.27    0.57 
  -6  14  -2    9.97    0.47 
   7 -14   2   11.48    0.46 
  -7 -14  -2   11.64    0.65 
  -7  14  -2   12.36    0.53 
  -7  14  -2   11.44    0.49 
  -8 -14  -2    1.45    0.20 
   8 -14   2    1.21    0.09 
  -8  14  -2    1.11    0.12 
  -8  14  -2    1.02    0.14 
  -9  14  -2    0.82    0.11 
  -8  15   2    1.46    0.20 
  -8  15   2    1.82    0.14 
  -7  15   2    3.05    0.21 
  -7  15   2    3.19    0.21 
  -6 -15   2    3.08    0.27 
  -6  15   2    3.10    0.24 
  -5 -15   2    3.30    0.33 
   4 -15  -2    0.95    0.16 
  -4 -15   2    1.22    0.22 
   4  15  -2    1.78    0.18 
  -3 -15   2    6.15    0.40 
   3 -15  -2    6.38    0.35 
   3 -15  -2    6.49    0.39 
   3  15  -2    6.03    0.36 
  -2 -15   2    0.05    0.11 
   2 -15  -2    0.02    0.09 
   2 -15  -2    0.08    0.11 
  -2 -15   2    0.11    0.05 
  -2 -15   2    0.01    0.04 
  -2  15   2    0.07    0.09 
   2  15  -2    0.04    0.09 
   1 -15  -2    3.37    0.23 
   1 -15  -2    3.39    0.28 
  -1 -15   2    3.59    0.29 
  -1 -15   2    3.62    0.21 
  -1  15   2    3.61    0.26 
   1  15  -2    3.52    0.26 
   0 -15   2    1.62    0.22 
   0 -15  -2    1.54    0.22 
   0 -15  -2    1.72    0.16 
   0 -15   2    1.70    0.17 
   0  15  -2    1.85    0.20 
   0  15   2    1.96    0.19 
  -1 -15  -2   12.29    0.47 
   1 -15   2   12.23    0.64 
  -1 -15  -2   12.07    0.47 
  -1 -15  -2   12.33    0.65 
   1 -15   2   13.05    0.57 
  -1 -15  -2   11.98    0.52 
   1  15   2   12.78    0.62 
  -1  15  -2   12.98    0.62 
  -2 -15  -2    6.04    0.48 
   2 -15   2    6.02    0.48 
   2 -15   2    6.65    0.42 
   2  15   2    6.29    0.43 
  -2  15  -2    6.59    0.43 
  -3 -15  -2    5.36    0.35 
   3  15   2    4.88    0.31 
  -3  15  -2    4.85    0.23 
  -4 -15  -2   14.25    0.77 
  -4 -15  -2   14.35    0.72 
  -5 -15  -2    2.88    0.37 
  -6 -15  -2    1.09    0.20 
  -6  15  -2    0.74    0.12 
  -7 -15  -2    7.28    0.43 
  -7  15  -2    6.74    0.34 
  -8  15  -2    7.66    0.33 
  -8  16   2    1.24    0.10 
  -7  16   2    3.15    0.20 
  -7  16   2    3.04    0.20 
  -6 -16   2    2.64    0.24 
  -6  16   2    2.73    0.21 
  -5 -16   2    7.38    0.49 
   4 -16  -2    1.97    0.22 
   4 -16  -2    2.35    0.21 
  -4 -16   2    2.54    0.25 
   4  16  -2    2.30    0.20 
   3 -16  -2    0.41    0.13 
  -3 -16   2    0.39    0.14 
   3 -16  -2    0.41    0.10 
   3  16  -2    0.22    0.10 
   2 -16  -2    2.88    0.22 
   2 -16  -2    2.69    0.26 
  -2 -16   2    3.22    0.28 
  -2  16   2    2.81    0.23 
   2  16  -2    2.54    0.23 
   1 -16  -2    0.74    0.16 
  -1 -16   2    0.92    0.10 
  -1 -16   2    0.85    0.12 
  -1 -16   2    0.71    0.15 
   1 -16  -2    1.04    0.14 
   1  16  -2    1.01    0.16 
  -1  16   2    0.80    0.16 
   0 -16  -2    8.08    0.48 
   0 -16   2    7.94    0.48 
   0 -16   2    9.05    0.40 
   0 -16  -2    8.29    0.38 
   0  16  -2    7.98    0.45 
   0  16   2    8.48    0.46 
   1 -16   2    6.66    0.41 
  -1 -16  -2    6.28    0.41 
   1 -16   2    6.85    0.35 
  -1 -16  -2    6.35    0.29 
  -1  16  -2    6.92    0.39 
   1  16   2    7.05    0.39 
  -2 -16  -2    5.63    0.45 
   2 -16   2    5.26    0.37 
   2  16   2    5.88    0.41 
  -2  16  -2    5.68    0.40 
  -3 -16  -2    6.79    0.40 
   3 -16   2    6.10    0.35 
   3  16   2    6.07    0.36 
  -4 -16  -2    6.46    0.42 
  -4 -16  -2    6.23    0.39 
  -5 -16  -2    0.33    0.27 
  -6 -16  -2    2.61    0.24 
  -6  16  -2    2.45    0.20 
  -7  16  -2    0.67    0.11 
  -7  17   2    3.71    0.20 
  -7  17   2    3.70    0.20 
  -6  17   2    0.75    0.11 
  -6  17   2    0.99    0.13 
   5 -17  -2    3.00    0.25 
  -5 -17   2    2.50    0.29 
   5  17  -2    3.39    0.25 
  -4 -17   2    9.61    0.53 
   4 -17  -2    9.57    0.46 
   4  17  -2    9.19    0.48 
   3 -17  -2    4.58    0.33 
   3 -17  -2    4.94    0.29 
  -3 -17   2    4.59    0.34 
   3  17  -2    4.82    0.30 
   2 -17  -2    3.64    0.24 
  -2 -17   2    3.75    0.30 
   2 -17  -2    3.58    0.30 
  -2  17   2    3.82    0.26 
   2  17  -2    3.75    0.27 
   1 -17  -2    2.97    0.20 
  -1 -17   2    2.46    0.25 
   1 -17  -2    2.69    0.26 
  -1 -17   2    2.62    0.16 
   1  17  -2    2.87    0.23 
  -1  17   2    2.94    0.29 
   0 -17   2   14.69    0.72 
   0 -17  -2   14.84    0.73 
   0 -17  -2   14.33    0.58 
   0 -17   2   13.53    0.59 
   0  17   2   13.80    0.68 
   0  17  -2   13.30    0.68 
  -1 -17  -2   12.44    0.63 
   1 -17   2   12.45    0.53 
   1 -17   2   12.15    0.62 
   1  17   2   11.18    0.58 
  -1  17  -2   10.77    0.58 
  -2 -17  -2    5.13    0.42 
   2 -17   2    5.07    0.34 
   2  17   2    4.79    0.37 
  -3 -17  -2    3.09    0.26 
   3 -17   2    2.90    0.23 
   3  17   2    3.07    0.23 
  -4 -17  -2    1.17    0.19 
   4 -17   2    1.50    0.18 
   4  17   2    1.58    0.17 
  -5 -17  -2    0.44    0.22 
  -5  17  -2    0.34    0.10 
  -6  17  -2    0.62    0.13 
  -7  17  -2    7.31    0.32 
   6 -18  -2    4.70    0.25 
  -6  18   2    4.48    0.24 
   5 -18  -2    1.59    0.19 
   5  18  -2    1.37    0.18 
   4 -18  -2    8.27    0.40 
   4  18  -2    8.69    0.44 
  -3 -18   2    3.11    0.26 
   3 -18  -2    2.90    0.20 
   3 -18  -2    2.93    0.24 
   3  18  -2    3.22    0.23 
   2 -18  -2    2.43    0.24 
   2 -18  -2    2.65    0.19 
  -2 -18   2    2.73    0.26 
   2  18  -2    2.84    0.23 
   1 -18  -2   10.36    0.56 
  -1 -18   2   10.44    0.56 
   1 -18  -2   10.11    0.45 
  -1  18   2   10.51    0.56 
   1  18  -2   10.61    0.53 
   0 -18  -2    2.00    0.23 
   0 -18   2    2.13    0.22 
   0 -18   2    1.72    0.14 
   0 -18  -2    1.85    0.11 
   0  18   2    1.94    0.19 
   0  18  -2    2.37    0.21 
  -1 -18  -2    7.70    0.45 
   1 -18   2    7.79    0.37 
   1 -18   2    8.22    0.45 
  -1  18  -2    7.74    0.42 
   1  18   2    7.66    0.42 
   2 -18   2    0.26    0.09 
  -2 -18  -2    0.28    0.13 
   2  18   2    0.28    0.11 
   3 -18   2    5.85    0.31 
  -3 -18  -2    5.98    0.36 
   3  18   2    5.61    0.33 
   4 -18   2   10.07    0.47 
   4  18   2   10.27    0.50 
   5 -18   2   10.29    0.48 
  -5  18  -2    9.66    0.45 
   6 -18   2    3.85    0.22 
  -6  18  -2    4.11    0.22 
   5 -19  -2    0.19    0.12 
   4 -19  -2    1.20    0.13 
   4  19  -2    1.27    0.14 
   3 -19  -2    0.37    0.08 
   3  19  -2    0.26    0.09 
   2 -19  -2    4.53    0.22 
   2  19  -2    4.14    0.27 
   1 -19  -2    9.75    0.40 
   1 -19  -2    9.27    0.55 
   1  19  -2   10.37    0.50 
  -1  19   2   10.15    0.49 
   0 -19  -2    0.80    0.17 
   0  19   2    0.97    0.14 
   0  19  -2    0.74    0.14 
   1 -19   2    1.75    0.13 
  -1 -19  -2    1.96    0.20 
   1  19   2    1.64    0.17 
   2 -19   2    1.34    0.15 
   2  19   2    1.42    0.18 
   3 -19   2    0.52    0.09 
   3  19   2    0.42    0.09 
   4 -19   2    3.08    0.19 
   4  19   2    3.31    0.21 
   5 -19   2    1.53    0.18 
  -5  19  -2    1.70    0.14 
   4 -20  -2    8.16    0.34 
   3 -20  -2    4.19    0.19 
   2  20  -2    1.95    0.16 
   1  20  -2    0.04    0.18 
   0  20   2    4.35    0.25 
   0  20  -2    4.12    0.25 
   1  20   2    0.85    0.13 
   2 -20   2    0.08    0.05 
   2  20   2    0.07    0.07 
   3 -20   2    1.32    0.11 
   4 -20   2    5.00    0.23 
 -12   0   3    1.07    0.13 
 -11   0   3    2.21    0.22 
 -10   0   3    1.72    0.19 
  -9   0   3    0.97    0.14 
  -9   0   3    0.88    0.17 
  -9   0   3    0.74    0.27 
  -8   0   3   41.22    2.12 
  -7   0   3    0.47    0.37 
  -6   0   3    0.35    0.18 
  -5   0   3   29.03    1.52 
   5   0  -3   31.52    1.57 
   4   0  -3    6.39    0.62 
  -4   0   3    6.57    0.64 
  -3   0   3    4.49    0.37 
   3   0  -3    4.61    0.36 
   3   0  -3    4.50    0.37 
   2   0  -3   16.81    0.90 
  -2   0   3   16.98    0.81 
  -2   0   3   16.99    0.88 
  -2   0   3   16.79    0.81 
   2   0  -3   17.38    0.89 
  -1   0   3  292.94   13.04 
  -1   0   3  292.56   13.04 
   1   0  -3  305.60   13.05 
   1   0  -3  291.44   13.05 
  -1   0   3  304.18   13.05 
  -1   0   3  275.23   13.04 
   0   0  -3   74.25    3.46 
   0   0  -3   76.49    3.43 
   0   0   3   75.48    3.47 
   0   0  -3   75.60    3.43 
   0   0   3   77.80    3.44 
   0   0  -3   77.45    3.46 
  -1   0  -3    1.77    0.13 
  -1   0  -3    1.89    0.20 
  -1   0  -3    1.55    0.13 
   1   0   3    1.51    0.20 
   1   0   3    1.43    0.21 
   2   0   3  628.12   29.34 
   2   0   3  677.48   29.35 
  -2   0  -3  687.77   28.60 
   3   0   3  998.63   44.59 
  -3   0  -3  986.51   43.44 
   3   0   3  989.73   44.36 
  -4   0  -3  151.44    6.57 
   4   0   3  146.45    6.73 
   4   0   3  152.12    6.74 
   5   0   3    4.95    0.38 
   5   0   3    5.05    0.40 
  -5   0  -3    5.06    0.38 
  -6   0  -3   -0.01    0.12 
  -7   0  -3   36.99    1.82 
  -8   0  -3    0.40    0.10 
  -8   0  -3    0.52    0.18 
  -9   0  -3    1.76    0.26 
  -9   0  -3    1.77    0.18 
  -9   0  -3    1.70    0.21 
 -10   0  -3    9.00    0.46 
 -10   0  -3    8.42    0.46 
 -11   0  -3    2.85    0.20 
 -11   0  -3    2.62    0.20 
 -12   0  -3    4.60    0.23 
 -12  -1   3    4.16    0.23 
 -12   1   3    4.10    0.22 
 -11  -1   3    1.24    0.19 
 -11   1   3    1.17    0.18 
 -11   1   3    0.84    0.20 
 -10  -1   3    0.30    0.10 
 -10   1   3    0.58    0.12 
 -10   1   3    0.59    0.11 
  -9  -1   3    5.72    0.31 
  -9   1   3    5.70    0.32 
  -9   1   3    5.32    0.57 
  -9   1   3    5.78    0.31 
  -8  -1   3    2.32    0.36 
  -8   1   3    3.11    0.44 
  -7  -1   3    5.07    0.56 
  -7   1   3    4.85    0.61 
  -6  -1   3    6.75    0.52 
  -6   1   3    5.94    0.53 
  -5  -1   3    7.93    0.54 
  -5   1   3    7.26    0.55 
   5   1  -3    6.93    0.54 
  -4  -1   3    2.21    0.36 
   4  -1  -3    2.45    0.36 
  -4   1   3    2.17    0.36 
   4   1  -3    2.22    0.36 
   3  -1  -3   34.49    1.71 
  -3  -1   3   35.48    1.66 
   3  -1  -3   33.36    1.72 
  -3   1   3   35.44    1.59 
   3   1  -3   33.01    1.70 
  -3   1   3   36.49    1.59 
   3   1  -3   34.92    1.70 
  -3   1   3   36.29    1.68 
  -2  -1   3   68.45    3.04 
   2  -1  -3   68.57    3.14 
   2   1  -3   67.63    3.12 
  -2   1   3   66.63    3.07 
   2   1  -3   65.05    3.13 
  -2   1   3   69.76    3.08 
  -2   1   3   69.34    3.14 
  -1  -1   3   23.24    1.09 
  -1  -1   3   23.99    1.09 
   1  -1  -3   22.63    1.14 
   1  -1  -3   23.57    1.10 
   1  -1  -3   23.29    1.14 
  -1  -1   3   23.14    1.14 
   1   1  -3   20.54    1.13 
  -1   1   3   22.60    1.09 
  -1   1   3   23.62    1.15 
  -1   1   3   23.66    1.14 
  -1   1   3   21.83    1.10 
   1   1  -3   23.59    1.14 
   0  -1   3   22.84    1.05 
   0  -1   3   22.08    1.01 
   0  -1  -3   21.20    1.03 
   0  -1  -3   21.76    1.03 
   0  -1  -3   21.18    0.99 
   0  -1  -3   22.22    0.99 
   0   1  -3   20.07    1.00 
   0   1  -3   20.15    1.03 
   0   1  -3   19.19    0.99 
   0   1   3   19.74    1.03 
   0   1  -3   18.77    1.03 
   0   1   3   20.87    1.04 
   1  -1   3   57.06    2.64 
   1  -1   3   58.13    2.65 
   1   1   3   54.88    2.62 
   1   1   3   57.22    2.63 
  -1   1  -3   58.48    2.59 
  -1   1  -3   57.26    2.63 
  -1   1  -3   57.69    2.59 
  -2  -1  -3    8.33    0.49 
   2  -1   3    8.57    0.53 
   2  -1   3    8.19    0.52 
   2   1   3    9.22    0.50 
   2   1   3    9.35    0.51 
  -2   1  -3   10.56    0.54 
   3  -1   3   13.16    0.84 
   3  -1   3   13.79    0.84 
  -3  -1  -3   13.48    0.77 
  -3   1  -3   13.86    0.84 
   3   1   3   13.46    0.77 
   3   1   3   13.34    0.78 
  -4  -1  -3   23.21    1.15 
   4  -1   3   23.95    1.23 
   4  -1   3   23.77    1.23 
  -4   1  -3   24.82    1.22 
   4   1   3   25.18    1.18 
   4   1   3   24.39    1.18 
   5  -1   3   73.59    3.26 
  -5  -1  -3   70.94    3.12 
   5   1   3   70.34    3.19 
   5   1   3   66.47    3.19 
  -5   1  -3   65.82    3.17 
  -6  -1  -3   11.04    0.65 
  -6   1  -3   11.99    0.72 
  -7  -1  -3    9.76    0.61 
  -7   1  -3   10.63    0.70 
  -8  -1  -3    4.23    0.36 
  -8  -1  -3    5.34    0.28 
  -8   1  -3    5.27    0.28 
  -8   1  -3    4.73    0.46 
  -9  -1  -3    0.42    0.11 
  -9  -1  -3    0.18    0.10 
  -9   1  -3    0.18    0.10 
  -9   1  -3    0.16    0.10 
  -9   1  -3    0.05    0.15 
 -10  -1  -3    1.35    0.21 
 -10  -1  -3    1.21    0.20 
 -10   1  -3    0.94    0.21 
 -10   1  -3    0.98    0.20 
 -11  -1  -3    0.12    0.09 
 -11   1  -3    0.14    0.09 
 -11   1  -3    0.15    0.08 
 -12   1  -3    1.11    0.13 
 -12   2   3    0.50    0.09 
 -12   2   3    0.71    0.12 
 -11   2   3    2.13    0.22 
 -11   2   3    2.15    0.23 
 -10  -2   3   -0.11    0.08 
 -10   2   3   -0.17    0.08 
 -10   2   3    0.27    0.10 
  -9  -2   3    2.35    0.20 
  -9   2   3    1.64    0.19 
  -9   2   3    2.13    0.21 
  -9   2   3    2.15    0.21 
  -8   2   3   20.62    0.80 
  -8   2   3   20.47    1.28 
  -7  -2   3   11.84    0.83 
  -7   2   3   12.26    0.94 
  -6  -2   3   10.06    0.67 
  -6   2   3   10.61    0.74 
  -5  -2   3   15.28    0.90 
   5   2  -3   17.28    0.93 
  -5   2   3   16.02    0.96 
  -4  -2   3    7.16    0.59 
   4   2  -3    4.74    0.58 
  -4   2   3    6.90    0.66 
   3  -2  -3   13.19    0.77 
  -3  -2   3   14.16    0.74 
  -3   2   3   13.04    0.66 
  -3   2   3   13.35    0.77 
  -3   2   3   14.05    0.67 
   3   2  -3   12.29    0.73 
   3   2  -3   12.48    0.74 
   2  -2  -3   93.63    4.30 
   2  -2  -3   95.17    4.34 
   2   2  -3   95.26    4.33 
  -2   2   3   94.71    4.29 
  -2   2   3   94.81    4.35 
  -2   2   3   96.63    4.30 
   2   2  -3   95.28    4.32 
  -1  -2   3   24.49    1.17 
   1  -2  -3   24.31    1.19 
  -1  -2   3   25.38    1.12 
   1  -2  -3   24.61    1.18 
   1  -2  -3   24.13    1.13 
   1  -2  -3   24.17    1.14 
  -1  -2   3   23.26    1.11 
   1   2  -3   23.15    1.17 
  -1   2   3   23.22    1.18 
   1   2  -3   21.59    1.17 
  -1   2   3   22.85    1.18 
  -1   2   3   22.22    1.14 
   0  -2   3    6.86    0.43 
   0  -2   3    7.33    0.48 
   0  -2   3    6.79    0.44 
   0  -2  -3    7.47    0.42 
   0  -2   3    7.35    0.49 
   0  -2  -3    7.35    0.41 
   0  -2  -3    7.56    0.47 
   0   2   3    8.85    0.48 
   0   2  -3    9.03    0.44 
   0   2  -3    9.44    0.50 
   0   2  -3    8.77    0.50 
   1  -2   3  102.65    5.24 
  -1   2  -3  123.57    5.25 
   1   2   3  113.49    5.22 
  -1   2  -3  122.48    5.21 
  -1   2  -3  120.93    5.21 
   1   2   3  114.44    5.22 
  -2  -2  -3   30.02    1.44 
   2  -2   3   29.47    1.53 
   2  -2   3   28.26    1.52 
  -2   2  -3   33.54    1.51 
  -2   2  -3   32.19    1.43 
   2   2   3   33.19    1.48 
  -2   2  -3   33.06    1.44 
   2   2   3   31.32    1.48 
   3  -2   3   13.90    0.92 
   3  -2   3   13.98    0.92 
  -3  -2  -3   15.26    0.81 
   3   2   3   14.37    0.80 
   3   2   3   14.54    0.80 
  -3   2  -3   15.28    0.93 
   4  -2   3   10.57    0.62 
  -4  -2  -3   10.35    0.51 
   4   2   3    8.60    0.50 
  -4   2  -3    8.64    0.60 
   4   2   3    9.00    0.51 
   5  -2   3   44.40    2.12 
  -5  -2  -3   43.01    1.95 
   5   2   3   42.35    1.99 
  -5   2  -3   40.37    2.06 
   5   2   3   43.90    1.99 
  -6  -2  -3    1.73    0.20 
  -6   2  -3    1.31    0.27 
  -7  -2  -3    7.11    0.44 
  -7   2  -3    7.74    0.60 
  -8  -2  -3    8.16    0.38 
  -8   2  -3    7.69    0.37 
  -8   2  -3    7.97    0.64 
  -9  -2  -3    1.20    0.17 
  -9   2  -3    1.64    0.19 
  -9   2  -3    1.38    0.18 
  -9   2  -3    1.50    0.17 
 -10  -2  -3    3.28    0.28 
 -10   2  -3    4.33    0.31 
 -10   2  -3    4.04    0.31 
 -10   2  -3    4.24    0.30 
 -11   2  -3    3.14    0.21 
 -11   2  -3    3.74    0.23 
 -12   2  -3    0.77    0.12 
 -12   3   3    2.99    0.18 
 -12   3   3    2.87    0.18 
 -11   3   3    0.42    0.18 
 -11   3   3    0.35    0.19 
 -10   3   3    1.63    0.18 
 -10   3   3    1.76    0.19 
 -10   3   3    1.89    0.19 
  -9   3   3    3.49    0.24 
  -9   3   3    3.71    0.24 
  -9   3   3    3.38    0.25 
  -8   3   3    2.35    0.20 
  -8   3   3    2.37    0.43 
  -7   3   3    4.27    0.62 
  -6   3   3    2.13    0.37 
  -5   3   3   13.83    0.92 
   5   3  -3   15.88    0.88 
   4   3  -3   27.84    1.51 
  -4   3   3   31.29    1.58 
  -3   3   3   12.81    0.76 
  -3   3   3   12.81    0.66 
   3   3  -3   12.59    0.72 
   3   3  -3   11.83    0.71 
  -3   3   3   12.74    0.66 
   2  -3  -3   46.51    2.30 
   2  -3  -3   48.34    2.23 
   2  -3  -3   48.31    2.28 
  -2   3   3   46.57    2.21 
  -2   3   3   48.43    2.29 
  -2   3   3   48.99    2.22 
   2   3  -3   46.95    2.25 
   2   3  -3   47.83    2.25 
   1  -3  -3   11.18    0.65 
   1  -3  -3   10.70    0.65 
  -1  -3   3   11.19    0.56 
  -1  -3   3   10.81    0.63 
  -1  -3   3   11.40    0.56 
   1  -3  -3    9.84    0.59 
   1  -3  -3   11.50    0.59 
   1   3  -3   10.99    0.64 
   1   3  -3   12.51    0.65 
  -1   3   3   11.17    0.64 
  -1   3   3   11.10    0.60 
  -1   3   3   11.56    0.66 
   0  -3  -3   21.38    1.00 
   0  -3  -3   22.74    1.00 
   0  -3   3   22.09    1.09 
   0  -3  -3   22.04    1.06 
   0  -3   3   22.43    1.04 
   0  -3   3   23.07    1.04 
   0   3  -3   19.82    1.03 
   0   3   3   20.19    1.07 
   0   3   3   20.94    1.07 
   0   3  -3   17.04    1.06 
   0   3  -3   20.82    1.09 
   1  -3   3   41.12    2.12 
   1  -3   3   46.94    2.13 
   1   3   3   45.04    2.09 
  -1   3  -3   45.87    2.12 
  -1   3  -3   44.08    2.12 
  -1   3  -3   44.80    2.07 
  -1   3  -3   44.89    2.07 
   1   3   3   45.39    2.09 
  -2  -3  -3   30.49    1.37 
   2  -3   3   27.28    1.46 
   2  -3   3   28.66    1.47 
  -2   3  -3   28.79    1.38 
   2   3   3   30.10    1.40 
  -2   3  -3   28.15    1.45 
  -2   3  -3   30.42    1.38 
  -2   3  -3   30.40    1.45 
   2   3   3   30.31    1.39 
  -3  -3  -3    7.34    0.45 
   3  -3   3    6.50    0.59 
   3   3   3    6.28    0.44 
  -3   3  -3    6.06    0.58 
   3   3   3    6.43    0.44 
  -4  -3  -3   16.65    0.78 
   4  -3   3   16.82    0.94 
  -4   3  -3   15.91    0.92 
   4   3   3   16.27    0.80 
   4   3   3   15.32    0.79 
  -5  -3  -3    3.68    0.25 
  -5   3  -3    3.20    0.38 
   5   3   3    3.71    0.25 
  -6  -3  -3   16.68    0.80 
  -6   3  -3   17.36    1.02 
  -7   3  -3    2.15    0.38 
  -8  -3  -3    4.05    0.24 
  -8   3  -3    3.89    0.24 
  -8   3  -3    3.60    0.47 
  -9  -3  -3    7.43    0.36 
  -9   3  -3    7.07    0.36 
  -9   3  -3    7.76    0.38 
  -9   3  -3    6.67    0.35 
 -10   3  -3    0.67    0.20 
 -10   3  -3    0.72    0.20 
 -10   3  -3    0.82    0.19 
 -11   3  -3    2.30    0.19 
 -11   3  -3    2.33    0.18 
 -11   3  -3    1.95    0.18 
 -12   3  -3    0.86    0.12 
 -12   3  -3    1.12    0.13 
 -12   4   3    3.14    0.18 
 -12   4   3    2.81    0.18 
 -11   4   3    1.42    0.20 
 -11   4   3    1.42    0.20 
 -11   4   3    1.50    0.21 
 -10   4   3    2.61    0.20 
 -10   4   3    2.88    0.22 
 -10   4   3    2.79    0.22 
  -9   4   3   14.52    0.58 
  -9   4   3   12.83    0.56 
  -9   4   3   12.74    0.57 
  -8   4   3    7.93    0.76 
  -8   4   3    8.42    0.39 
  -7   4   3   16.23    1.22 
  -6  -4   3   28.05    1.24 
  -6   4   3   27.37    1.57 
  -5   4   3    1.27    0.29 
  -4   4   3   22.83    1.35 
  -4   4   3   21.49    1.10 
  -4   4   3   22.13    1.11 
   4   4  -3   24.30    1.27 
   3   4  -3   15.05    0.86 
   3   4  -3   13.96    0.82 
  -3   4   3   15.20    0.79 
  -3   4   3   15.54    0.89 
   2  -4  -3    9.20    0.50 
  -2   4   3    7.17    0.47 
   2   4  -3    7.33    0.50 
   2   4  -3    7.50    0.50 
   1  -4  -3    5.99    0.36 
   1  -4  -3    5.41    0.36 
   1  -4  -3    5.70    0.42 
  -1  -4   3    5.73    0.33 
  -1  -4   3    5.85    0.33 
  -1   4   3    5.18    0.37 
   1   4  -3    5.68    0.42 
  -1   4   3    5.62    0.42 
   1   4  -3    5.40    0.41 
  -1   4   3    6.34    0.44 
   0  -4   3    5.44    0.33 
   0  -4   3    4.86    0.33 
   0  -4   3    4.92    0.38 
   0  -4  -3    4.93    0.29 
   0  -4  -3    5.02    0.29 
   0   4   3    5.08    0.38 
   0   4   3    5.06    0.38 
   0   4  -3    4.48    0.39 
   0   4  -3    3.89    0.36 
   0   4  -3    4.80    0.33 
   1  -4   3   71.21    3.13 
   1  -4   3   65.80    3.11 
   1  -4   3   68.28    3.07 
   1   4   3   67.64    3.07 
   1   4   3   64.06    3.06 
  -1   4  -3   63.24    3.11 
  -1   4  -3   68.42    3.06 
  -1   4  -3   64.86    3.11 
   2  -4   3   29.47    1.58 
   2   4   3   32.87    1.50 
  -2   4  -3   31.18    1.49 
   2   4   3   32.75    1.50 
  -2   4  -3   33.70    1.58 
  -2   4  -3   29.40    1.49 
   3   4   3    1.61    0.21 
  -3   4  -3    1.63    0.34 
   3   4   3    1.64    0.21 
  -3   4  -3    1.58    0.17 
  -3   4  -3    1.74    0.18 
  -4  -4  -3    4.25    0.27 
   4   4   3    3.74    0.27 
  -4   4  -3    3.71    0.41 
   4   4   3    4.41    0.27 
  -5  -4  -3    2.03    0.16 
  -5   4  -3    1.53    0.32 
  -6   4  -3   11.15    0.80 
  -7   4  -3    2.80    0.44 
  -8  -4  -3    7.36    0.36 
  -8   4  -3    7.78    0.70 
  -8   4  -3    7.57    0.36 
  -9   4  -3    2.33    0.21 
  -9   4  -3    2.24    0.20 
  -9   4  -3    2.19    0.21 
 -10   4  -3    3.60    0.29 
 -10   4  -3    4.37    0.30 
 -10   4  -3    4.47    0.31 
 -11   4  -3    0.85    0.15 
 -11   4  -3    0.63    0.11 
 -11   4  -3    0.58    0.11 
 -12   4  -3    0.01    0.06 
 -12   4  -3    0.09    0.07 
 -12   4  -3   -0.09    0.07 
 -12   5   3    0.42    0.08 
 -12   5   3    0.44    0.08 
 -11   5   3    8.38    0.37 
 -11   5   3    6.44    0.38 
 -11   5   3    7.38    0.39 
 -10   5   3    6.73    0.34 
 -10   5   3    6.71    0.33 
 -10   5   3    6.64    0.34 
  -9   5   3    3.03    0.23 
  -9   5   3    2.81    0.22 
  -9   5   3    3.06    0.23 
  -8   5   3    0.36    0.29 
  -8   5   3    0.70    0.12 
  -8   5   3    0.64    0.10 
  -8   5   3    0.75    0.13 
  -8   5   3    0.57    0.12 
  -7   5   3    4.14    0.70 
  -6  -5   3    0.43    0.11 
  -6   5   3    0.40    0.27 
  -5   5   3   10.35    0.78 
  -4   5   3   32.81    1.76 
   4   5  -3   31.03    1.69 
  -4   5   3   33.32    1.60 
  -3  -5   3   92.95    3.31 
  -3   5   3  102.43    4.33 
   3   5  -3   88.11    4.35 
   2   5  -3   48.89    2.34 
  -1  -5   3   25.35    1.15 
   1  -5  -3   23.51    1.19 
  -1  -5   3   24.81    1.15 
  -1   5   3   25.52    1.34 
   1   5  -3   24.22    1.28 
   0  -5   3   17.77    0.87 
   0  -5   3   17.31    0.87 
   0  -5  -3   17.65    0.82 
   0  -5  -3   17.80    0.82 
   0   5  -3   16.38    0.94 
   0   5   3   16.53    0.93 
   0   5   3   15.07    0.95 
   1  -5   3   27.63    1.41 
   1   5   3   30.89    1.44 
   1   5   3   29.05    1.43 
  -1   5  -3   28.00    1.41 
  -2  -5  -3   11.14    0.41 
  -2  -5  -3   11.54    0.41 
  -2   5  -3   10.79    0.71 
   2   5   3   10.83    0.64 
   2   5   3   11.57    0.64 
  -2   5  -3   11.87    0.63 
  -3   5  -3    8.44    0.54 
  -3   5  -3    8.32    0.55 
  -3   5  -3    8.60    0.77 
   3   5   3    8.92    0.58 
   3   5   3    8.67    0.58 
  -4  -5  -3   33.99    1.52 
   4   5   3   32.61    1.56 
  -4   5  -3   31.74    1.72 
   4   5   3   34.11    1.56 
  -5  -5  -3    8.17    0.41 
  -5   5  -3    8.18    0.65 
  -6   5  -3   23.70    1.39 
  -7   5  -3    8.40    0.75 
  -8   5  -3   16.52    0.68 
  -8   5  -3   17.12    0.68 
  -8   5  -3   16.70    0.69 
  -8   5  -3   16.14    1.14 
  -9   5  -3    6.65    0.35 
  -9   5  -3    6.33    0.35 
  -9   5  -3    6.77    0.34 
 -10   5  -3    0.72    0.21 
 -10   5  -3    0.67    0.21 
 -10   5  -3    0.55    0.18 
 -11   5  -3    6.53    0.31 
 -11   5  -3    6.57    0.31 
 -11   5  -3    6.00    0.32 
 -12   5  -3    1.56    0.13 
 -12   5  -3    1.56    0.14 
 -12   6   3    0.67    0.11 
 -12   6   3    0.65    0.11 
 -11   6   3    2.00    0.22 
 -11   6   3    2.41    0.21 
 -11   6   3    2.13    0.23 
 -10   6   3    0.62    0.11 
 -10   6   3    0.49    0.11 
 -10   6   3    0.64    0.12 
  -9   6   3    5.99    0.33 
  -9   6   3    6.48    0.34 
  -9   6   3    6.65    0.34 
  -8   6   3    1.49    0.17 
  -8   6   3    0.96    0.17 
  -8   6   3    1.08    0.38 
  -8   6   3    1.10    0.17 
  -8   6   3    1.08    0.13 
  -7   6   3   22.11    1.56 
  -6  -6   3    4.15    0.29 
  -6   6   3    4.20    0.60 
  -5  -6   3    9.55    0.49 
  -4   6   3    4.05    0.41 
   4   6  -3    3.12    0.48 
  -3  -6   3   31.65    1.13 
   3   6  -3   32.79    1.62 
  -3   6   3   31.02    1.58 
   2   6  -3   22.29    1.20 
  -1  -6   3   16.77    0.78 
  -1  -6   3   16.82    0.79 
   1  -6  -3   16.76    0.85 
   1   6  -3   15.50    0.94 
   0  -6   3   46.53    2.04 
   0  -6  -3   45.09    1.97 
   0  -6  -3   43.15    1.96 
   0   6   3   37.78    2.10 
   1   6   3   30.14    1.51 
  -2  -6  -3    1.96    0.09 
  -2  -6  -3    2.12    0.10 
   2   6   3    2.72    0.27 
  -2   6  -3    2.22    0.25 
   2   6   3    2.21    0.26 
  -3   6  -3    6.08    0.47 
  -3   6  -3    5.76    0.67 
   3   6   3    5.83    0.49 
   3   6   3    6.38    0.51 
   4   6   3   15.52    0.78 
  -4   6  -3   13.72    0.94 
  -5  -6  -3    4.81    0.28 
  -5   6  -3    4.07    0.50 
  -6   6  -3    2.88    0.46 
  -7   6  -3    6.37    0.69 
  -7   6  -3    6.75    0.33 
  -8   6  -3    2.51    0.21 
  -8   6  -3    2.45    0.21 
  -8   6  -3    2.70    0.22 
  -8   6  -3    2.45    0.49 
  -9   6  -3    8.25    0.40 
  -9   6  -3    8.41    0.41 
  -9   6  -3    8.71    0.41 
 -10   6  -3    5.15    0.32 
 -10   6  -3    5.30    0.33 
 -10   6  -3    4.79    0.33 
 -11   6  -3    9.96    0.43 
 -11   6  -3    9.96    0.42 
 -11   6  -3    9.69    0.42 
 -12   6  -3    1.55    0.13 
 -12   6  -3    1.45    0.13 
 -12   7   3    2.83    0.18 
 -11   7   3    1.01    0.19 
 -11   7   3    1.20    0.18 
 -11   7   3    1.07    0.19 
 -10   7   3    8.95    0.41 
 -10   7   3    9.27    0.41 
 -10   7   3    8.99    0.41 
  -9   7   3    5.00    0.29 
  -9   7   3    5.01    0.29 
  -9   7   3    4.84    0.29 
  -8   7   3    4.57    0.28 
  -8   7   3    4.79    0.29 
  -8   7   3    4.76    0.25 
  -8   7   3    4.63    0.29 
  -6  -7   3    5.65    0.35 
  -5  -7   3   12.31    0.61 
  -4   7   3    4.21    0.40 
  -3  -7   3   61.05    2.14 
   3   7  -3   60.29    2.92 
   2  -7  -3   20.07    1.07 
   1  -7  -3   74.10    3.39 
   0  -7   3   13.81    0.72 
  -1  -7  -3   28.87    1.08 
   1  -7   3   30.26    1.50 
   1  -7   3   30.10    1.50 
   1   7   3   32.61    1.56 
  -2  -7  -3    7.53    0.30 
  -2  -7  -3    8.25    0.30 
   2   7   3    9.62    0.56 
   3   7   3    0.04    0.11 
  -3   7  -3    0.21    0.10 
   4   7   3    0.88    0.20 
  -4   7  -3    0.80    0.15 
  -4   7  -3    0.77    0.13 
  -5  -7  -3   51.73    2.28 
  -5   7  -3   49.69    2.61 
  -7   7  -3    7.37    0.36 
  -7   7  -3    8.16    0.78 
  -8  -7  -3    4.84    0.35 
  -8   7  -3    4.46    0.29 
  -8   7  -3    4.32    0.62 
  -8   7  -3    5.18    0.29 
  -8   7  -3    4.49    0.22 
  -8   7  -3    5.04    0.29 
  -9   7  -3    0.02    0.09 
  -9   7  -3    0.38    0.12 
  -9   7  -3    0.31    0.11 
 -10   7  -3    2.21    0.22 
 -10   7  -3    1.58    0.20 
 -10   7  -3    1.85    0.22 
 -11   7  -3    0.13    0.09 
 -11   7  -3    0.18    0.09 
 -11   7  -3    0.15    0.08 
 -11   8   3    1.00    0.19 
 -11   8   3    0.86    0.19 
 -11   8   3    1.02    0.18 
 -10   8   3    2.41    0.19 
 -10   8   3    2.40    0.19 
 -10   8   3    2.37    0.20 
  -9   8   3    6.59    0.33 
  -9   8   3    6.36    0.28 
  -9   8   3    6.23    0.33 
  -9   8   3    6.29    0.32 
  -8   8   3   19.86    0.79 
  -8   8   3   19.62    0.78 
  -8   8   3   20.21    0.82 
  -8   8   3   19.73    0.78 
  -6  -8   3    1.70    0.20 
  -5  -8   3    5.93    0.36 
  -4  -8   3    4.76    0.39 
  -4   8   3    6.75    0.57 
  -3  -8   3   12.12    0.45 
   2  -8  -3    2.06    0.24 
   1  -8  -3   39.12    1.84 
   0  -8   3   26.28    1.27 
   1  -8   3   18.41    0.92 
  -1  -8  -3   16.20    0.63 
  -2  -8  -3   12.57    0.47 
  -2  -8  -3   13.13    0.47 
   2   8   3   13.04    0.79 
  -3   8  -3   27.75    1.56 
  -4   8  -3   14.20    0.75 
  -5  -8  -3   18.83    0.93 
  -7  -8  -3   13.02    0.70 
  -7   8  -3   12.06    0.54 
  -7   8  -3   12.59    0.55 
  -7   8  -3   12.57    0.54 
  -8  -8  -3    0.47    0.16 
  -8   8  -3    0.71    0.13 
  -8   8  -3    0.83    0.10 
  -8   8  -3    1.10    0.17 
  -8   8  -3    0.94    0.17 
  -9   8  -3    1.34    0.18 
  -9   8  -3    1.58    0.20 
  -9   8  -3    1.78    0.18 
 -10   8  -3    1.66    0.21 
 -10   8  -3    1.61    0.20 
 -10   8  -3    1.27    0.18 
 -11   8  -3    4.44    0.23 
 -11   8  -3    4.79    0.23 
 -11   8  -3    4.18    0.23 
 -11   9   3    1.02    0.17 
 -11   9   3    0.67    0.15 
 -10   9   3    8.40    0.37 
 -10   9   3    7.76    0.36 
 -10   9   3    8.11    0.37 
  -9   9   3   10.63    0.46 
  -9   9   3    9.94    0.46 
  -9   9   3   10.63    0.46 
  -9   9   3   10.67    0.43 
  -8   9   3    1.69    0.19 
  -8   9   3    1.95    0.20 
  -8   9   3    1.91    0.17 
  -7   9   3    1.25    0.24 
  -7   9   3    0.84    0.20 
  -6  -9   3    7.32    0.43 
  -5  -9   3    0.50    0.12 
  -4  -9   3    8.80    0.51 
  -3  -9   3   13.27    0.64 
  -3  -9   3   13.07    0.49 
   2  -9  -3   12.68    0.73 
   1  -9  -3    0.04    0.08 
   1  -9  -3    0.16    0.09 
   0  -9   3    1.89    0.19 
   0  -9   3    1.99    0.18 
  -1  -9  -3   31.20    1.15 
   1  -9   3   33.05    1.58 
  -2  -9  -3    4.05    0.17 
  -2  -9  -3    4.30    0.17 
  -5  -9  -3   29.95    1.44 
  -6   9  -3    1.10    0.23 
  -7  -9  -3    1.43    0.23 
  -7   9  -3    2.41    0.20 
  -7   9  -3    1.74    0.17 
  -7   9  -3    1.99    0.20 
  -8  -9  -3    0.43    0.15 
  -8   9  -3    0.08    0.10 
  -8   9  -3    0.26    0.07 
  -8   9  -3    0.40    0.10 
  -8   9  -3    0.01    0.09 
  -9  -9  -3    0.12    0.11 
  -9   9  -3    0.28    0.10 
  -9   9  -3    0.37    0.11 
  -9   9  -3    0.41    0.11 
 -10   9  -3    0.72    0.16 
 -10   9  -3    0.45    0.17 
 -10   9  -3    0.70    0.17 
 -11   9  -3    0.54    0.09 
 -11   9  -3    0.86    0.11 
 -11   9  -3    0.36    0.09 
 -11  10   3    1.07    0.15 
 -10  10   3    2.28    0.18 
 -10  10   3    2.33    0.18 
  -9  10   3    2.31    0.14 
  -9  10   3    2.58    0.21 
  -9  10   3    2.57    0.20 
  -8  10   3    0.31    0.09 
  -8  10   3    0.27    0.10 
  -8  10   3    0.41    0.11 
  -7  10   3   -0.45    0.20 
  -7  10   3    0.05    0.18 
  -6 -10   3    0.66    0.15 
  -5 -10   3    3.30    0.27 
  -4 -10   3    1.87    0.26 
  -3 -10   3    5.02    0.21 
  -3 -10   3    4.81    0.31 
  -2 -10   3   14.50    0.70 
  -1 -10   3    9.05    0.47 
   0 -10  -3   20.32    0.93 
  -1 -10  -3    5.65    0.32 
   1 -10   3    5.18    0.39 
  -2 -10  -3    9.70    0.36 
  -2 -10  -3    9.65    0.36 
  -2 -10  -3    9.68    0.49 
  -3 -10  -3    3.82    0.31 
  -6 -10  -3    5.85    0.40 
  -6  10  -3    5.82    0.33 
  -7 -10  -3    4.82    0.39 
  -7  10  -3    5.36    0.30 
  -7  10  -3    5.42    0.31 
  -7  10  -3    5.97    0.30 
  -8 -10  -3    3.94    0.32 
  -8  10  -3    3.90    0.26 
  -8  10  -3    3.79    0.25 
  -8  10  -3    3.83    0.21 
  -9 -10  -3    3.19    0.29 
  -9  10  -3    3.89    0.24 
  -9  10  -3    4.06    0.20 
  -9  10  -3    3.85    0.23 
 -10  10  -3    7.66    0.38 
 -10  10  -3    8.11    0.38 
 -11  10  -3    2.18    0.14 
 -10  11   3    1.41    0.14 
 -10  11   3    1.46    0.14 
  -9  11   3    1.22    0.10 
  -9  11   3    1.07    0.16 
  -9  11   3    1.04    0.16 
  -8  11   3    1.41    0.18 
  -8  11   3    1.42    0.18 
  -8  11   3    1.56    0.16 
  -7  11   3    0.33    0.22 
  -6 -11   3    6.48    0.40 
  -6  11   3    6.14    0.35 
  -5 -11   3    8.37    0.48 
  -4 -11   3    7.16    0.47 
  -3 -11   3   10.10    0.38 
   3 -11  -3   10.12    0.40 
  -3 -11   3    9.96    0.53 
  -2 -11   3   17.57    0.84 
   1 -11  -3   22.29    0.99 
  -1 -11   3   20.37    0.98 
   0 -11   3    2.07    0.19 
   0 -11  -3    1.92    0.18 
   1 -11   3    1.36    0.20 
   1 -11   3    1.61    0.17 
  -1 -11  -3    1.72    0.18 
   2 -11   3    2.61    0.14 
  -2 -11  -3    2.63    0.12 
  -2 -11  -3    2.66    0.12 
  -2 -11  -3    2.83    0.22 
  -3 -11  -3   15.25    0.81 
  -5 -11  -3    3.89    0.31 
  -6 -11  -3   23.85    1.19 
  -6  11  -3   23.05    0.98 
  -7 -11  -3    6.40    0.44 
  -7  11  -3    6.70    0.34 
  -7  11  -3    6.53    0.34 
  -7  11  -3    6.43    0.34 
  -8 -11  -3    6.71    0.46 
  -8  11  -3    7.63    0.35 
  -8  11  -3    7.83    0.36 
  -8  11  -3    8.10    0.37 
  -9 -11  -3    3.22    0.27 
  -9  11  -3    2.79    0.21 
  -9  11  -3    3.01    0.17 
  -9  11  -3    3.06    0.21 
 -10  11  -3    3.76    0.24 
 -10  11  -3    3.33    0.22 
 -10  12   3    2.69    0.17 
 -10  12   3    2.69    0.16 
  -9  12   3   12.83    0.53 
  -9  12   3   13.24    0.52 
  -8  12   3    4.81    0.27 
  -8  12   3    5.32    0.29 
  -7  12   3   11.70    0.56 
  -6 -12   3   11.84    0.65 
  -6  12   3   13.18    0.59 
  -5 -12   3    2.34    0.26 
   5 -12  -3    2.39    0.24 
   4 -12  -3    3.11    0.18 
   4 -12  -3    3.13    0.29 
  -4 -12   3    2.66    0.31 
   3 -12  -3    1.45    0.19 
  -3 -12   3    1.34    0.20 
  -3 -12   3    1.36    0.08 
   3  12  -3    1.55    0.17 
  -3  12   3    1.71    0.17 
   2 -12  -3   19.97    0.96 
  -2 -12   3   20.86    0.97 
   1 -12  -3   10.84    0.56 
  -1 -12   3   10.91    0.56 
   0 -12  -3   23.44    1.09 
   0 -12   3   23.93    1.09 
  -1 -12  -3   40.55    1.71 
   1 -12   3   37.16    1.70 
  -1 -12  -3   37.46    1.39 
  -1 -12  -3   39.29    1.39 
   2 -12   3    6.86    0.28 
  -2 -12  -3    6.98    0.27 
  -2 -12  -3    7.25    0.27 
  -2 -12  -3    7.27    0.41 
   2 -12   3    6.97    0.28 
   3 -12   3    0.33    0.08 
  -3 -12  -3    0.44    0.16 
  -4 -12  -3    4.08    0.34 
  -5 -12  -3    1.70    0.27 
  -5 -12  -3    1.37    0.22 
  -5  12  -3    1.46    0.19 
  -6 -12  -3    0.99    0.20 
  -6  12  -3    0.87    0.17 
  -7 -12  -3    0.79    0.17 
  -7  12  -3    0.72    0.13 
  -7  12  -3    0.85    0.14 
  -8 -12  -3    4.69    0.34 
  -8  12  -3    4.47    0.24 
  -8  12  -3    4.29    0.26 
  -8  12  -3    4.68    0.26 
  -9 -12  -3    6.54    0.37 
  -9  12  -3    4.97    0.27 
  -9  12  -3    5.78    0.27 
  -9  12  -3    5.30    0.25 
 -10  12  -3    0.95    0.14 
  -9  13   3    0.25    0.08 
   8 -13  -3    0.41    0.07 
  -8  13   3    0.47    0.10 
  -8  13   3    0.47    0.09 
   7 -13  -3    2.44    0.17 
  -7  13   3    2.44    0.26 
  -6 -13   3    2.94    0.28 
   6 -13  -3    2.77    0.15 
  -6  13   3    2.59    0.22 
   5 -13  -3    5.74    0.36 
  -5 -13   3    5.62    0.37 
   5 -13  -3    5.26    0.23 
   4 -13  -3   11.51    0.63 
  -4 -13   3   10.79    0.65 
   3 -13  -3   19.01    0.87 
  -3 -13   3   17.49    0.86 
  -3  13   3   17.60    0.83 
   3  13  -3   17.15    0.83 
  -2 -13   3   12.96    0.51 
  -2 -13   3   13.53    0.68 
   2 -13  -3   12.74    0.67 
   2  13  -3   13.47    0.65 
  -2  13   3   13.58    0.64 
  -1 -13   3   13.30    0.68 
   1 -13  -3   12.91    0.68 
   1  13  -3   13.70    0.66 
  -1  13   3   14.26    0.66 
   0 -13  -3    4.07    0.30 
   0 -13   3    3.64    0.28 
   0  13   3    3.83    0.26 
   0  13  -3    4.06    0.27 
  -1 -13  -3    0.65    0.08 
  -1 -13  -3    0.71    0.08 
   1 -13   3    0.43    0.12 
  -1 -13  -3    0.98    0.18 
   1  13   3    0.82    0.15 
  -1  13  -3    0.65    0.12 
  -2 -13  -3    6.74    0.40 
  -2  13  -3    7.00    0.38 
   2  13   3    6.56    0.37 
  -3 -13  -3   16.23    0.98 
   3 -13   3   17.99    0.68 
  -3 -13  -3   17.52    0.94 
  -3  13  -3   17.09    0.72 
  -4 -13  -3   26.18    1.28 
   4 -13   3   25.20    0.97 
  -5 -13  -3    0.27    0.13 
  -5  13  -3    0.14    0.10 
  -6 -13  -3    6.91    0.46 
  -6  13  -3    7.06    0.37 
  -7 -13  -3    2.26    0.26 
  -7  13  -3    1.80    0.18 
  -8 -13  -3   11.75    0.62 
  -8  13  -3   10.78    0.47 
  -9  13  -3    3.64    0.18 
  -9  13  -3    3.91    0.21 
  -9  14   3    4.89    0.24 
  -8  14   3   10.68    0.46 
  -8  14   3   10.74    0.46 
  -7  14   3    4.46    0.32 
  -6 -14   3    3.07    0.28 
  -6  14   3    2.90    0.23 
  -5 -14   3    0.12    0.12 
  -4 -14   3   20.13    0.99 
   4 -14  -3   19.33    0.97 
   4  14  -3   19.07    0.93 
   3 -14  -3    0.35    0.13 
   3 -14  -3    0.21    0.10 
  -3 -14   3    0.29    0.13 
   3  14  -3    0.14    0.09 
  -3  14   3    0.18    0.09 
   2 -14  -3   19.12    0.82 
  -2 -14   3   18.62    0.92 
  -2 -14   3   18.69    0.77 
   2 -14  -3   19.52    0.93 
  -2 -14   3   17.99    0.70 
   2  14  -3   19.69    0.89 
  -2  14   3   19.63    0.89 
   1 -14  -3   13.38    0.67 
   1 -14  -3   12.57    0.58 
  -1 -14   3   13.15    0.56 
  -1 -14   3   12.87    0.66 
   1  14  -3   12.37    0.63 
  -1  14   3   12.69    0.63 
   0 -14  -3    9.29    0.53 
   0 -14   3    9.53    0.52 
   0  14  -3    9.87    0.50 
   0  14   3    9.63    0.49 
  -1 -14  -3    3.54    0.16 
   1 -14   3    3.61    0.27 
  -1 -14  -3    3.31    0.28 
  -1 -14  -3    3.25    0.16 
  -1  14  -3    2.63    0.24 
   1  14   3    3.10    0.24 
  -2 -14  -3    5.35    0.38 
   2 -14   3    5.88    0.35 
   2  14   3    6.80    0.36 
  -2  14  -3    6.50    0.37 
  -3 -14  -3    1.37    0.25 
  -3 -14  -3    1.41    0.24 
  -3  14  -3    1.52    0.13 
  -4 -14  -3   14.05    0.77 
   4 -14   3   14.53    0.54 
  -4 -14  -3   13.61    0.73 
   4 -14   3   14.63    0.54 
   5 -14   3    9.47    0.38 
  -5 -14  -3    9.20    0.56 
  -5  14  -3    9.28    0.47 
  -6 -14  -3    2.61    0.27 
   6 -14   3    2.42    0.14 
  -6  14  -3    2.73    0.22 
   7 -14   3    2.64    0.15 
  -7 -14  -3    2.84    0.27 
  -7  14  -3    3.00    0.20 
   8 -14   3    3.14    0.16 
  -8 -14  -3    2.95    0.26 
  -8  14  -3    3.83    0.18 
  -8  15   3    1.69    0.15 
  -8  15   3    1.77    0.13 
  -7  15   3    2.52    0.23 
  -6 -15   3   10.13    0.55 
  -6  15   3   10.48    0.49 
  -5 -15   3    9.46    0.51 
   5  15  -3    7.77    0.44 
   4 -15  -3    3.79    0.34 
  -4 -15   3    3.68    0.36 
   4  15  -3    3.80    0.29 
  -3 -15   3   13.29    0.67 
   3 -15  -3   11.89    0.65 
   3 -15  -3   12.75    0.59 
   3  15  -3   12.15    0.62 
   2 -15  -3    6.39    0.34 
  -2 -15   3    5.86    0.28 
  -2 -15   3    6.34    0.24 
   2 -15  -3    5.50    0.39 
  -2 -15   3    5.54    0.38 
  -2  15   3    6.04    0.36 
   2  15  -3    6.11    0.36 
  -1 -15   3    0.68    0.14 
  -1 -15   3    0.55    0.09 
   1 -15  -3    0.75    0.14 
   1 -15  -3    0.55    0.14 
   1  15  -3    0.51    0.12 
  -1  15   3    0.46    0.12 
   0 -15   3   13.48    0.61 
   0 -15  -3   13.22    0.71 
   0 -15  -3   14.31    0.60 
   0 -15   3   13.41    0.71 
   0  15  -3   14.79    0.69 
   0  15   3   15.16    0.69 
  -1 -15  -3    5.30    0.25 
   1 -15   3    5.41    0.31 
  -1 -15  -3    4.74    0.35 
   1 -15   3    4.94    0.34 
  -1 -15  -3    5.39    0.22 
  -1 -15  -3    5.28    0.22 
   1  15   3    5.08    0.32 
  -1  15  -3    4.95    0.33 
   2 -15   3    1.24    0.18 
  -2 -15  -3    0.81    0.17 
   2  15   3    0.59    0.12 
  -2  15  -3    0.60    0.12 
  -3 -15  -3    2.06    0.27 
  -3  15  -3    2.14    0.15 
   3  15   3    1.93    0.23 
  -4 -15  -3   12.67    0.65 
  -4 -15  -3   12.39    0.69 
  -5 -15  -3    3.00    0.28 
  -5  15  -3    3.16    0.24 
  -6 -15  -3    5.50    0.38 
  -6  15  -3    5.67    0.31 
  -7 -15  -3    2.04    0.23 
  -7  15  -3    2.90    0.18 
  -8  15  -3    0.39    0.05 
  -8  15  -3    0.28    0.07 
  -8  16   3   13.22    0.53 
  -7  16   3    9.94    0.48 
  -6  16   3    0.15    0.08 
  -5 -16   3    0.08    0.12 
   5  16  -3    0.23    0.09 
   4 -16  -3    3.33    0.34 
   4 -16  -3    3.31    0.30 
  -4 -16   3    2.55    0.36 
   4  16  -3    2.13    0.27 
  -3 -16   3    8.18    0.47 
   3 -16  -3    6.89    0.44 
   3 -16  -3    7.33    0.39 
   3  16  -3    7.82    0.42 
  -2 -16   3    0.86    0.19 
   2 -16  -3    0.71    0.11 
   2 -16  -3    0.33    0.13 
  -2  16   3    0.52    0.11 
   2  16  -3    0.47    0.12 
   1 -16  -3    4.83    0.35 
   1 -16  -3    5.87    0.29 
  -1 -16   3    5.47    0.27 
  -1 -16   3    5.00    0.35 
  -1  16   3    5.01    0.33 
   1  16  -3    5.31    0.33 
   0 -16   3   12.62    0.68 
   0 -16  -3   13.14    0.57 
   0 -16   3   14.00    0.59 
   0 -16  -3   13.67    0.70 
   0  16  -3   13.76    0.66 
   0  16   3   13.25    0.66 
  -1 -16  -3    2.22    0.24 
   1 -16   3    2.19    0.23 
   1 -16   3    2.44    0.20 
   1  16   3    2.70    0.22 
  -1  16  -3    2.20    0.22 
   2 -16   3   16.14    0.69 
  -2 -16  -3   15.49    0.77 
   2  16   3   14.73    0.73 
  -3 -16  -3    8.82    0.59 
   3 -16   3    8.94    0.53 
   3  16   3    9.60    0.55 
  -4 -16  -3    4.42    0.33 
  -5 -16  -3    1.42    0.21 
  -5  16  -3    1.81    0.19 
  -6 -16  -3    2.70    0.33 
  -6  16  -3    2.50    0.20 
  -7 -16  -3    5.02    0.31 
  -7  16  -3    4.14    0.23 
  -7  17   3    0.50    0.14 
   6 -17  -3    1.64    0.16 
  -6  17   3    2.12    0.17 
   6  17  -3    2.03    0.17 
   5 -17  -3    5.77    0.32 
   5  17  -3    6.24    0.34 
   4 -17  -3    0.45    0.19 
   4 -17  -3    0.24    0.16 
  -4 -17   3    0.23    0.21 
   4  17  -3    0.40    0.17 
   3 -17  -3    9.50    0.45 
  -3 -17   3   10.13    0.53 
   3 -17  -3    9.19    0.52 
   3  17  -3    8.53    0.48 
  -2 -17   3   10.91    0.58 
   2 -17  -3   10.49    0.48 
   2 -17  -3   11.52    0.58 
   2  17  -3   10.15    0.54 
  -2  17   3   10.32    0.53 
  -1 -17   3    2.33    0.15 
  -1 -17   3    2.78    0.26 
   1 -17  -3    2.65    0.18 
   1 -17  -3    2.72    0.26 
  -1  17   3    2.01    0.20 
   1  17  -3    2.29    0.22 
   0 -17  -3    2.06    0.14 
   0 -17  -3    2.37    0.24 
   0 -17   3    2.17    0.17 
   0 -17   3    2.73    0.24 
   0  17   3    1.82    0.26 
   0  17  -3    2.05    0.21 
   1 -17   3    1.02    0.18 
  -1 -17  -3    1.24    0.20 
   1 -17   3    1.14    0.15 
  -1  17  -3    1.46    0.18 
   1  17   3    1.28    0.17 
  -2 -17  -3    3.02    0.26 
   2 -17   3    2.73    0.21 
   2  17   3    2.93    0.23 
  -2  17  -3    2.90    0.16 
   3 -17   3    2.19    0.23 
  -3 -17  -3    2.05    0.26 
   3  17   3    2.02    0.22 
   4 -17   3   12.00    0.54 
   4  17   3   11.61    0.57 
  -5 -17  -3   13.04    0.68 
  -5  17  -3   12.81    0.58 
  -6  17  -3    2.28    0.17 
  -7  17  -3    3.69    0.20 
  -7  17  -3    3.95    0.19 
   6 -18  -3    1.34    0.13 
  -6  18   3    1.17    0.13 
   5 -18  -3    4.36    0.24 
   5  18  -3    4.15    0.25 
   4 -18  -3    1.31    0.17 
   4  18  -3    1.44    0.20 
   3 -18  -3    1.89    0.16 
  -3 -18   3    2.03    0.22 
   3 -18  -3    1.95    0.21 
   3  18  -3    2.27    0.19 
  -2 -18   3    3.91    0.29 
   2 -18  -3    4.07    0.29 
   2 -18  -3    3.61    0.22 
   2  18  -3    3.99    0.27 
  -1 -18   3    8.28    0.46 
   1 -18  -3    7.93    0.35 
   1 -18  -3    7.98    0.45 
   1  18  -3    7.35    0.42 
  -1  18   3    7.72    0.42 
   0 -18   3    4.49    0.31 
   0 -18   3    3.95    0.22 
   0  18  -3    4.17    0.27 
   0  18   3    4.49    0.35 
  -1 -18  -3   14.25    0.69 
   1 -18   3   13.62    0.58 
  -1  18  -3   13.79    0.65 
   1  18   3   13.18    0.66 
  -2 -18  -3    4.78    0.33 
   2 -18   3    4.75    0.28 
   2  18   3    5.83    0.32 
  -3 -18  -3    3.47    0.32 
   3 -18   3    3.96    0.28 
   3  18   3    4.18    0.31 
   4 -18   3    6.21    0.33 
   4  18   3    6.81    0.35 
   5 -18   3    1.77    0.16 
  -5  18  -3    1.71    0.16 
  -6  18  -3    0.77    0.10 
   5 -19  -3   12.43    0.51 
   4 -19  -3    6.73    0.34 
   3 -19  -3    0.69    0.11 
   3  19  -3    0.75    0.13 
   2 -19  -3    0.81    0.10 
   2  19  -3    0.87    0.14 
   1  19  -3    4.67    0.29 
  -1  19   3    4.88    0.28 
   0  19   3    0.72    0.14 
   0  19  -3    0.82    0.13 
   1 -19   3    0.08    0.06 
  -1  19  -3    0.09    0.05 
   1  19   3    0.05    0.08 
   2 -19   3    0.05    0.06 
   2  19   3    0.20    0.08 
   3 -19   3    6.77    0.36 
   3  19   3    6.44    0.39 
   4 -19   3    4.70    0.25 
   5 -19   3    1.25    0.12 
  -5  19  -3    1.19    0.12 
   2  20  -3    2.80    0.19 
   1  20  -3    1.49    0.15 
   0  20   3    0.16    0.17 
   1  20   3    6.48    0.34 
   2 -20   3    1.82    0.11 
   3 -20   3    0.06    0.08 
   4 -20   3    0.76    0.09 
 -12   0   4    2.38    0.16 
 -11   0   4    8.32    0.37 
 -10   0   4    6.13    0.36 
 -10   0   4    6.83    0.36 
  -9   0   4    1.84    0.19 
  -9   0   4    1.68    0.20 
  -8   0   4    3.54    0.47 
  -7   0   4    0.05    0.18 
  -6   0   4    0.39    0.37 
  -5   0   4    8.08    0.61 
  -4   0   4   33.80    1.65 
   4   0  -4   31.93    1.68 
  -3   0   4   58.53    2.45 
  -3   0   4   47.99    2.29 
   3   0  -4   55.56    2.51 
  -3   0   4   45.41    2.30 
   2   0  -4    2.66    0.32 
  -2   0   4    3.70    0.34 
  -2   0   4    3.07    0.24 
   2   0  -4    2.97    0.32 
  -2   0   4    3.11    0.24 
  -1   0   4   70.37    3.26 
  -1   0   4   71.22    3.26 
  -1   0   4   75.22    3.32 
  -1   0   4   71.47    3.31 
   1   0  -4   72.24    3.26 
   1   0  -4   68.73    3.31 
   0   0  -4   31.66    1.50 
   0   0  -4   31.34    1.50 
   0   0   4   32.42    1.57 
   0   0  -4   31.93    1.55 
   0   0  -4   31.93    1.56 
   0   0   4   32.17    1.52 
  -1   0  -4   26.46    1.35 
  -1   0  -4   27.44    1.29 
   1   0   4   29.19    1.38 
  -1   0  -4   28.78    1.29 
   1   0   4   27.07    1.37 
   2   0   4    4.25    0.34 
  -2   0  -4    3.72    0.32 
   2   0   4    3.71    0.32 
   3   0   4   31.78    1.54 
   3   0   4   29.79    1.52 
  -3   0  -4   31.96    1.50 
  -4   0  -4   72.45    3.50 
   4   0   4   74.69    3.59 
   5   0   4   91.56    4.12 
  -5   0  -4   86.47    4.02 
  -6   0  -4    0.88    0.22 
  -7   0  -4    0.62    0.20 
  -8   0  -4    3.36    0.23 
  -8   0  -4    3.40    0.37 
  -9   0  -4    0.01    0.10 
  -9   0  -4    0.16    0.09 
 -10   0  -4    0.86    0.16 
 -10   0  -4    0.97    0.18 
 -11   0  -4    3.89    0.28 
 -12   0  -4    1.19    0.12 
 -12   1   4    3.28    0.19 
 -11  -1   4    1.84    0.17 
 -11   1   4    1.66    0.17 
 -11   1   4    1.51    0.16 
 -10  -1   4    5.26    0.34 
 -10   1   4    6.44    0.34 
 -10   1   4    5.98    0.34 
  -9  -1   4    3.67    0.25 
  -9   1   4    3.80    0.26 
  -9   1   4    4.04    0.26 
  -8  -1   4   14.33    0.94 
  -8   1   4   12.50    0.95 
  -7  -1   4   14.97    0.95 
  -7   1   4   13.62    0.96 
  -6  -1   4   13.77    0.96 
  -6  -1   4   14.50    0.70 
  -6   1   4   14.94    1.03 
  -5  -1   4   21.68    1.19 
  -5   1   4   21.35    1.21 
  -4  -1   4   58.26    2.70 
   4   1  -4   53.55    2.74 
  -4   1   4   60.15    2.72 
   3  -1  -4    4.72    0.51 
  -3  -1   4    5.30    0.52 
  -3   1   4    5.24    0.53 
   3   1  -4    5.07    0.50 
  -3   1   4    5.63    0.36 
  -3   1   4    5.72    0.36 
   2  -1  -4    2.52    0.30 
  -2  -1   4    2.23    0.29 
  -2  -1   4    1.96    0.19 
  -2  -1   4    2.10    0.19 
  -2   1   4    2.51    0.22 
   2   1  -4    2.58    0.30 
   2   1  -4    2.40    0.30 
  -2   1   4    2.65    0.23 
   1  -1  -4   11.11    0.60 
   1  -1  -4   10.11    0.65 
   1  -1  -4   10.89    0.66 
  -1  -1   4   11.06    0.66 
  -1  -1   4   10.78    0.59 
   1  -1  -4   11.12    0.61 
  -1  -1   4   10.72    0.59 
   1   1  -4   10.85    0.61 
   1   1  -4   11.98    0.67 
  -1   1   4   11.47    0.66 
   1   1  -4   11.22    0.66 
  -1   1   4   11.70    0.67 
  -1   1   4   10.97    0.59 
  -1   1   4   11.70    0.62 
   0  -1   4   27.78    1.29 
   0  -1   4   27.08    1.34 
   0  -1  -4   27.77    1.27 
   0  -1  -4   26.30    1.32 
   0  -1   4   27.38    1.34 
   0  -1  -4   27.43    1.27 
   0   1  -4   25.72    1.33 
   0   1  -4   24.70    1.27 
   0   1   4   25.90    1.29 
   0   1  -4   26.48    1.28 
   0   1  -4   26.41    1.33 
   0   1   4   28.11    1.34 
  -1  -1  -4    3.65    0.31 
   1  -1   4    3.01    0.30 
  -1  -1  -4    3.20    0.18 
   1  -1   4    3.41    0.32 
  -1  -1  -4    2.98    0.18 
  -1   1  -4    3.28    0.23 
   1   1   4    3.50    0.31 
   1   1   4    2.98    0.30 
  -1   1  -4    3.02    0.30 
  -1   1  -4    3.31    0.23 
   2  -1   4  198.57    9.15 
   2  -1   4  201.23    9.16 
  -2  -1  -4  208.57    8.91 
  -2   1  -4  211.55    8.94 
   2   1   4  196.85    9.13 
   2   1   4  209.68    9.14 
   3  -1   4  166.75    7.64 
   3  -1   4  163.31    7.65 
  -3  -1  -4  172.95    5.93 
  -3  -1  -4  175.11    7.43 
  -3   1  -4  171.46    7.46 
   3   1   4  173.34    7.62 
   3   1   4  165.65    7.61 
  -4  -1  -4   25.45    1.38 
   4  -1   4   26.49    1.49 
  -4   1  -4   25.76    1.46 
   4   1   4   24.22    1.40 
   4   1   4   26.60    1.42 
   5  -1   4   30.35    1.50 
  -5  -1  -4   27.57    1.40 
  -5   1  -4   28.47    1.46 
  -6  -1  -4    4.12    0.36 
  -6   1  -4    3.99    0.40 
  -7  -1  -4    0.95    0.22 
  -7   1  -4    1.44    0.29 
  -8  -1  -4    1.86    0.26 
  -8  -1  -4    1.92    0.18 
  -8   1  -4    1.92    0.18 
  -8   1  -4    2.22    0.34 
  -9  -1  -4    0.77    0.13 
  -9  -1  -4    0.87    0.15 
  -9   1  -4    0.66    0.13 
  -9   1  -4    0.68    0.12 
 -10  -1  -4   19.71    0.78 
 -10  -1  -4   19.47    0.79 
 -10   1  -4   20.59    0.79 
 -10   1  -4   19.99    0.79 
 -11  -1  -4    3.61    0.26 
 -11   1  -4    3.57    0.27 
 -11   1  -4    3.56    0.26 
 -12   1  -4    0.19    0.07 
 -12   2   4    1.84    0.15 
 -12   2   4    1.88    0.15 
 -11   2   4    0.03    0.08 
 -11   2   4    0.07    0.08 
 -10  -2   4    2.54    0.25 
 -10   2   4    2.97    0.26 
 -10   2   4    2.46    0.26 
  -9  -2   4    1.49    0.18 
  -9   2   4    1.51    0.19 
  -9   2   4    1.86    0.20 
  -8   2   4    3.07    0.47 
  -7   2   4    7.24    0.67 
  -6  -2   4   11.42    0.85 
  -6  -2   4   11.80    0.59 
  -6   2   4   10.79    0.90 
  -5  -2   4    1.32    0.28 
   5   2  -4    1.40    0.30 
  -5   2   4    1.19    0.28 
  -4  -2   4   27.49    1.33 
  -4   2   4   24.34    1.34 
   4   2  -4   24.15    1.34 
   3   2  -4   64.75    3.09 
  -3   2   4   68.65    3.06 
  -3   2   4   61.91    2.98 
  -2  -2   4   45.46    2.09 
  -2  -2   4   45.33    2.08 
   2  -2  -4   47.57    2.23 
   2   2  -4   44.33    2.20 
  -2   2   4   46.11    2.15 
  -1  -2   4   76.58    3.44 
   1  -2  -4   72.44    3.51 
   1  -2  -4   75.16    3.45 
  -1  -2   4   73.82    3.50 
   1  -2  -4   77.53    3.51 
  -1  -2   4   79.31    3.45 
   1  -2  -4   78.21    3.48 
   1   2  -4   81.28    3.52 
  -1   2   4   77.78    3.52 
  -1   2   4   73.14    3.46 
   1   2  -4   70.81    3.46 
  -1   2   4   74.20    3.51 
   0  -2  -4   47.57    2.17 
   0  -2  -4   44.92    2.22 
   0  -2   4   46.88    2.20 
   0  -2  -4   47.19    2.17 
   0  -2   4   45.62    2.25 
   0  -2   4   49.51    2.26 
   0   2  -4   50.37    2.26 
   0   2  -4   46.73    2.20 
   0   2  -4   44.90    2.19 
   0   2  -4   48.96    2.26 
   0   2   4   46.49    2.24 
   0   2   4   50.15    2.26 
   1  -2   4   24.55    1.27 
  -1  -2  -4   23.55    1.22 
   1   2   4   25.11    1.25 
  -1   2  -4   24.81    1.19 
  -1   2  -4   25.87    1.20 
  -1   2  -4   24.93    1.26 
   1   2   4   25.51    1.25 
   2  -2   4   48.82    2.37 
  -2  -2  -4   51.54    2.28 
  -2   2  -4   48.60    2.25 
  -2   2  -4   50.09    2.32 
  -2   2  -4   49.59    2.25 
   2   2   4   49.69    2.33 
   2   2   4   50.27    2.33 
   3  -2   4   24.31    1.32 
  -3  -2  -4   24.99    1.24 
  -3  -2  -4   25.63    0.91 
   3   2   4   25.32    1.26 
   3   2   4   27.58    1.28 
  -3   2  -4   26.80    1.32 
  -4  -2  -4   16.01    0.93 
   4  -2   4   15.84    1.07 
   4   2   4   15.34    0.93 
  -4   2  -4   16.00    1.07 
   4   2   4   15.04    0.92 
   5  -2   4   16.00    0.97 
  -5  -2  -4   16.70    0.86 
   5   2   4   16.63    0.87 
  -5   2  -4   16.72    0.96 
  -6  -2  -4    2.35    0.25 
  -6   2  -4    1.68    0.32 
  -7  -2  -4    4.93    0.37 
  -7   2  -4    6.38    0.54 
  -8  -2  -4    5.03    0.28 
  -8   2  -4    4.87    0.51 
  -8   2  -4    4.95    0.28 
  -9  -2  -4    7.92    0.36 
  -9   2  -4    6.28    0.35 
  -9   2  -4    6.56    0.35 
  -9   2  -4    7.37    0.36 
 -10   2  -4    3.61    0.25 
 -10   2  -4    3.56    0.24 
 -10   2  -4    3.98    0.26 
 -11   2  -4    0.04    0.17 
 -11   2  -4    0.01    0.15 
 -12   2  -4    0.66    0.11 
 -12   3   4    1.43    0.14 
 -12   3   4    1.36    0.13 
 -11   3   4    3.93    0.23 
 -11   3   4    4.06    0.23 
 -10   3   4    3.44    0.29 
 -10   3   4    3.88    0.30 
  -9   3   4    1.70    0.20 
  -9   3   4    1.75    0.20 
  -8   3   4   37.32    2.08 
  -7   3   4   36.01    1.98 
  -6  -3   4   15.19    0.76 
  -6   3   4   14.22    1.16 
  -5   3   4    1.83    0.34 
   5   3  -4    2.22    0.33 
  -4   3   4   25.42    1.23 
  -4   3   4   28.36    1.24 
  -4   3   4   25.38    1.40 
   4   3  -4   25.89    1.39 
   3   3  -4   21.81    1.24 
  -3   3   4   19.25    1.26 
  -3   3   4   21.39    1.14 
  -2  -3   4    3.42    0.21 
  -2  -3   4    3.69    0.21 
  -2   3   4    3.58    0.30 
   2   3  -4    3.19    0.34 
  -1  -3   4   19.77    0.97 
  -1  -3   4   19.21    0.97 
   1  -3  -4   18.78    0.98 
  -1   3   4   19.08    1.01 
   1   3  -4   21.41    1.07 
  -1   3   4   21.82    1.09 
   0  -3  -4   65.58    2.82 
   0  -3  -4   61.18    2.79 
   0  -3   4   64.17    2.90 
   0  -3  -4   63.73    2.79 
   0  -3   4   63.79    2.90 
   0  -3  -4   60.25    2.86 
   0   3  -4   61.39    2.89 
   0   3   4   56.77    2.86 
   0   3  -4   56.87    2.88 
   0   3   4   63.42    2.89 
   0   3  -4   59.88    2.83 
  -1  -3  -4   33.68    1.66 
   1  -3   4   37.14    1.75 
   1   3   4   33.64    1.70 
   1   3   4   34.21    1.70 
  -1   3  -4   35.99    1.66 
  -1   3  -4   35.93    1.67 
   2  -3   4    5.65    0.47 
  -2  -3  -4    6.55    0.42 
  -2   3  -4    5.98    0.47 
  -2   3  -4    5.82    0.35 
   2   3   4    6.28    0.42 
  -2   3  -4    5.93    0.36 
   2   3   4    6.13    0.42 
  -3  -3  -4   12.84    0.68 
   3  -3   4   11.32    0.76 
   3   3   4   12.42    0.69 
  -3   3  -4   13.24    0.78 
   3   3   4   13.51    0.70 
  -4  -3  -4    5.47    0.46 
  -4   3  -4    5.94    0.63 
   4   3   4    6.20    0.48 
   4   3   4    6.27    0.48 
  -5  -3  -4   10.41    0.52 
   5   3   4    7.52    0.51 
  -5   3  -4    8.47    0.64 
  -6  -3  -4    1.62    0.19 
  -6   3  -4    1.41    0.32 
  -7  -3  -4    8.56    0.45 
  -7   3  -4    8.91    0.70 
  -8  -3  -4    2.70    0.21 
  -8   3  -4    2.52    0.42 
  -8   3  -4    2.60    0.20 
  -9   3  -4    2.36    0.20 
  -9   3  -4    2.33    0.22 
  -9   3  -4    2.16    0.22 
 -10   3  -4    3.82    0.23 
 -10   3  -4    3.07    0.24 
 -10   3  -4    3.15    0.23 
 -11   3  -4    1.75    0.21 
 -11   3  -4    1.80    0.19 
 -11   3  -4    1.66    0.20 
 -12   3  -4    1.08    0.12 
 -12   4   4    1.00    0.12 
 -12   4   4    0.78    0.12 
 -11   4   4    0.06    0.08 
 -11   4   4    0.18    0.09 
 -10   4   4    3.49    0.29 
 -10   4   4    3.78    0.28 
  -9   4   4   22.07    0.90 
  -9   4   4   23.77    0.90 
  -9   4   4   22.62    0.89 
  -8   4   4    3.00    0.52 
  -8   4   4    2.81    0.16 
  -8   4   4    3.06    0.22 
  -8   4   4    2.47    0.21 
  -8   4   4    2.64    0.21 
  -7   4   4    9.85    0.84 
  -6  -4   4   14.96    0.75 
  -6   4   4   16.90    1.15 
  -5   4   4    6.10    0.57 
  -4   4   4    7.24    0.59 
  -4   4   4    6.48    0.42 
  -4   4   4    7.55    0.43 
   4   4  -4    7.08    0.54 
  -3   4   4    3.56    0.35 
   3   4  -4    2.99    0.38 
   2   4  -4   74.49    3.49 
  -2   4   4   74.55    3.44 
  -1  -4   4   17.87    0.88 
   1  -4  -4   18.32    0.98 
   1  -4  -4   16.88    0.89 
  -1  -4   4   18.49    0.88 
   1   4  -4   16.93    0.98 
   0  -4  -4   12.48    0.62 
   0  -4   4   11.86    0.67 
   0  -4  -4   12.63    0.62 
   0   4   4   12.15    0.73 
  -1   4  -4    6.81    0.44 
   1   4   4    7.37    0.49 
   1   4   4    7.49    0.49 
  -2  -4  -4    7.64    0.46 
  -2   4  -4    6.76    0.53 
   2   4   4    7.25    0.47 
   2   4   4    7.15    0.46 
  -2   4  -4    6.59    0.42 
  -2   4  -4    6.61    0.43 
  -3  -4  -4   13.61    0.73 
  -3   4  -4   14.14    0.66 
   3   4   4   14.27    0.75 
   3   4   4   13.78    0.75 
  -3   4  -4   14.52    0.86 
  -3   4  -4   13.05    0.66 
  -4  -4  -4    0.08    0.11 
   4   4   4   -0.09    0.08 
   4   4   4    0.10    0.11 
  -4   4  -4    0.07    0.17 
  -5  -4  -4   14.32    0.72 
  -5   4  -4   14.11    0.92 
  -6  -4  -4   25.66    1.18 
  -6   4  -4   25.20    1.45 
  -7   4  -4    5.76    0.60 
  -8   4  -4    3.12    0.24 
  -8   4  -4    3.04    0.24 
  -8   4  -4    3.45    0.22 
  -8   4  -4    2.92    0.47 
  -9   4  -4    2.42    0.20 
  -9   4  -4    2.34    0.22 
  -9   4  -4    2.15    0.21 
 -10   4  -4    0.24    0.10 
 -10   4  -4    0.29    0.10 
 -10   4  -4    0.23    0.10 
 -11   4  -4    0.24    0.16 
 -11   4  -4    0.05    0.15 
 -11   4  -4    0.06    0.17 
 -12   4  -4    0.05    0.07 
 -12   4  -4    0.20    0.07 
 -12   5   4    0.07    0.06 
 -12   5   4    0.03    0.06 
 -11   5   4    1.36    0.15 
 -11   5   4    1.20    0.15 
 -10   5   4    1.58    0.25 
 -10   5   4    1.72    0.25 
  -9   5   4   12.57    0.53 
  -9   5   4   12.16    0.53 
  -9   5   4   11.65    0.52 
  -8   5   4   40.90    2.34 
  -8   5   4   41.73    1.63 
  -8   5   4   42.02    1.55 
  -8   5   4   42.98    1.56 
  -8   5   4   42.99    1.54 
  -7  -5   4   14.96    0.72 
  -7   5   4   14.00    1.07 
  -6  -5   4    3.04    0.32 
  -6   5   4    3.62    0.71 
  -5  -5   4    0.85    0.15 
  -4   5   4   13.51    0.73 
   4   5  -4   12.63    0.82 
  -3   5   4   41.79    1.94 
   3   5  -4   35.21    1.98 
   2   5  -4    5.46    0.46 
  -1  -5   4   17.17    0.82 
  -1  -5   4   16.29    0.82 
   1  -5  -4   15.67    0.84 
   0  -5   4  103.84    4.71 
   0  -5  -4  103.54    4.64 
   0  -5  -4  103.75    4.64 
   0   5   4  103.88    4.78 
   1   5   4   32.67    1.62 
  -1   5  -4   32.45    1.59 
  -2  -5  -4    1.78    0.09 
  -2   5  -4    2.01    0.35 
   2   5   4    1.96    0.26 
   2   5   4    1.38    0.23 
  -2   5  -4    1.85    0.22 
  -3  -5  -4   19.28    1.04 
   3   5   4   21.72    1.08 
  -3   5  -4   21.46    1.19 
  -3   5  -4   20.57    1.02 
  -3   5  -4   23.01    1.03 
   3   5   4   20.06    1.08 
  -4  -5  -4    6.63    0.51 
   4   5   4    6.28    0.51 
  -4   5  -4    6.48    0.72 
  -5  -5  -4    2.05    0.20 
  -5   5  -4    1.85    0.37 
  -6   5  -4    1.13    0.32 
  -7   5  -4    1.09    0.19 
  -7   5  -4    0.50    0.29 
  -8   5  -4    2.33    0.21 
  -8   5  -4    1.55    0.40 
  -8   5  -4    1.86    0.19 
  -8   5  -4    1.89    0.19 
  -9   5  -4    1.87    0.20 
  -9   5  -4    1.76    0.21 
  -9   5  -4    1.98    0.19 
 -10   5  -4    3.75    0.24 
 -10   5  -4    3.10    0.22 
 -10   5  -4    3.12    0.23 
 -11   5  -4    2.27    0.22 
 -11   5  -4    2.71    0.22 
 -11   5  -4    2.23    0.20 
 -12   5  -4    2.51    0.17 
 -12   5  -4    2.95    0.16 
 -12   6   4    0.36    0.08 
 -12   6   4    0.40    0.08 
 -11   6   4    3.01    0.20 
 -11   6   4    3.22    0.20 
 -10   6   4    2.49    0.25 
 -10   6   4    2.34    0.23 
 -10   6   4    2.87    0.25 
  -9   6   4    2.08    0.20 
  -9   6   4    2.68    0.22 
  -9   6   4    1.77    0.19 
  -8   6   4   12.93    0.55 
  -8   6   4   13.77    0.56 
  -8   6   4   12.30    0.54 
  -8   6   4   12.67    0.55 
  -7  -6   4   11.17    0.59 
  -7   6   4   11.59    0.49 
  -6  -6   4   17.84    0.86 
  -5  -6   4    0.15    0.10 
  -4   6   4   14.95    0.84 
  -1  -6   4   42.06    1.92 
   1  -6  -4   41.81    1.96 
  -1  -6   4   40.90    1.92 
   0  -6  -4   43.22    2.06 
   0  -6  -4   42.04    2.06 
   0  -6   4   53.63    2.17 
   1   6   4   29.27    1.50 
  -2  -6  -4    6.83    0.26 
  -2  -6  -4    6.73    0.26 
   2   6   4    7.14    0.50 
  -2   6  -4    7.01    0.46 
  -3   6  -4    9.01    0.52 
   3   6   4    8.72    0.56 
  -4  -6  -4    1.12    0.23 
  -4   6  -4    0.98    0.38 
  -5  -6  -4   10.49    0.56 
  -5   6  -4   10.38    0.82 
  -6   6  -4    5.30    0.60 
  -7   6  -4   11.26    0.50 
  -7   6  -4   10.30    0.90 
  -8   6  -4    7.06    0.34 
  -8   6  -4    7.50    0.36 
  -8   6  -4    7.68    0.38 
  -8   6  -4    6.48    0.72 
  -8   6  -4    7.54    0.37 
  -9   6  -4   10.37    0.47 
  -9   6  -4    9.95    0.47 
  -9   6  -4   10.28    0.46 
 -10   6  -4    1.49    0.16 
 -10   6  -4    1.48    0.18 
 -10   6  -4    1.75    0.19 
 -11   6  -4    0.25    0.16 
 -11   6  -4    0.28    0.16 
 -11   6  -4    0.18    0.14 
 -12   6  -4    0.65    0.11 
 -11   7   4    5.71    0.27 
 -11   7   4    5.89    0.27 
 -11   7   4    5.08    0.25 
 -10   7   4   12.65    0.54 
 -10   7   4   12.62    0.54 
 -10   7   4   11.16    0.53 
  -9   7   4    3.57    0.25 
  -9   7   4    3.84    0.25 
  -9   7   4    4.06    0.26 
  -8   7   4   15.78    0.65 
  -8   7   4   15.58    0.65 
  -8   7   4   15.88    0.66 
  -8   7   4   15.59    0.65 
  -7  -7   4    1.27    0.20 
  -6  -7   4   19.46    0.95 
  -5  -7   4   31.55    1.40 
  -5   7   4   31.19    1.47 
  -4  -7   4    8.75    0.47 
  -4   7   4    9.49    0.60 
  -3  -7   4   18.74    0.70 
   2  -7  -4    5.36    0.41 
  -1  -7   4   29.12    1.34 
  -1  -7   4   28.55    1.34 
   1  -7  -4   29.34    1.40 
   0  -7   4   51.42    2.35 
   0  -7   4   48.08    2.33 
  -1  -7  -4    0.90    0.08 
  -2  -7  -4   60.26    2.12 
  -2  -7  -4   58.87    2.12 
   2   7   4   61.79    2.88 
  -3   7  -4   10.75    0.63 
  -4  -7  -4    3.62    0.39 
  -5  -7  -4   16.47    0.83 
  -5   7  -4   16.26    1.12 
  -6   7  -4    5.69    0.66 
  -7  -7  -4    3.33    0.37 
  -7   7  -4    2.93    0.26 
  -7   7  -4    3.51    0.56 
  -8  -7  -4    2.13    0.26 
  -8   7  -4    2.63    0.21 
  -8   7  -4    2.55    0.23 
  -8   7  -4    2.67    0.22 
  -9   7  -4    1.41    0.19 
  -9   7  -4    1.67    0.18 
  -9   7  -4    1.74    0.20 
 -10   7  -4    3.71    0.24 
 -10   7  -4    4.08    0.24 
 -10   7  -4    3.43    0.22 
 -11   7  -4    2.34    0.19 
 -11   7  -4    2.48    0.20 
 -11   7  -4    1.74    0.20 
 -11   8   4    1.44    0.14 
 -11   8   4    2.03    0.15 
 -10   8   4    3.23    0.24 
 -10   8   4    3.26    0.25 
 -10   8   4    3.44    0.25 
  -9   8   4    2.33    0.20 
  -9   8   4    2.30    0.14 
  -9   8   4    2.37    0.21 
  -9   8   4    2.44    0.20 
  -8   8   4    1.24    0.17 
  -8   8   4    1.21    0.17 
  -8   8   4    1.22    0.17 
  -8   8   4    1.42    0.15 
  -7  -8   4   14.06    0.75 
  -7   8   4   16.07    0.64 
  -7   8   4   16.02    0.67 
  -6  -8   4    9.16    0.53 
  -5  -8   4    1.53    0.19 
  -4  -8   4    0.28    0.10 
  -3  -8   4   53.75    1.87 
  -3  -8   4   51.30    2.29 
   1  -8  -4    0.44    0.12 
   0  -8   4    2.29    0.23 
  -1  -8  -4    3.96    0.18 
  -1  -8  -4    3.91    0.18 
  -2  -8  -4   37.54    1.31 
  -2  -8  -4   36.61    1.30 
   2   8   4   35.79    1.87 
  -3   8  -4   11.83    0.70 
  -4  -8  -4   22.89    1.34 
  -4   8  -4   22.81    1.19 
  -4   8  -4   22.99    1.19 
  -5  -8  -4   17.71    0.91 
  -7  -8  -4    3.22    0.39 
  -7   8  -4    2.59    0.32 
  -7   8  -4    3.08    0.28 
  -7   8  -4    2.89    0.31 
  -7   8  -4    2.98    0.19 
  -8  -8  -4    4.33    0.35 
  -8   8  -4    4.64    0.27 
  -8   8  -4    4.56    0.27 
  -8   8  -4    4.09    0.21 
  -8   8  -4    4.68    0.28 
  -9   8  -4    2.07    0.19 
  -9   8  -4    2.15    0.21 
  -9   8  -4    2.45    0.21 
 -10   8  -4    0.42    0.10 
 -10   8  -4    0.58    0.10 
 -10   8  -4    0.48    0.11 
 -11   8  -4    0.99    0.15 
 -11   8  -4    1.14    0.17 
 -11   8  -4    1.45    0.17 
 -11   9   4    0.87    0.12 
 -11   9   4    0.92    0.11 
 -10   9   4    2.02    0.20 
 -10   9   4    1.60    0.21 
 -10   9   4    1.46    0.19 
  -9   9   4    2.38    0.15 
  -9   9   4    2.47    0.20 
  -9   9   4    2.31    0.19 
  -9   9   4    2.73    0.21 
  -8   9   4    0.96    0.17 
  -8   9   4    0.86    0.14 
  -8   9   4    0.86    0.13 
  -7  -9   4    0.67    0.15 
  -7   9   4    0.66    0.12 
  -7   9   4    0.90    0.15 
  -6  -9   4    0.71    0.26 
  -5  -9   4   12.96    0.66 
  -4  -9   4   15.16    0.74 
  -3  -9   4    1.85    0.21 
  -3  -9   4    1.85    0.13 
  -2  -9   4    0.03    0.08 
   2  -9  -4    0.08    0.10 
   1  -9  -4   26.07    1.24 
   1  -9  -4   25.93    1.23 
   0  -9   4    2.82    0.24 
  -1  -9  -4    2.25    0.13 
   1  -9   4    2.40    0.27 
  -2  -9  -4   20.69    0.76 
  -2  -9  -4   21.70    0.76 
  -5  -9  -4    9.05    0.56 
  -6  -9  -4    1.83    0.23 
  -7  -9  -4    0.33    0.31 
  -7   9  -4    0.62    0.25 
  -7   9  -4    0.39    0.09 
  -8  -9  -4    0.08    0.12 
  -8   9  -4    0.13    0.06 
  -8   9  -4    0.26    0.10 
  -8   9  -4    0.08    0.10 
  -8   9  -4    0.11    0.10 
  -9  -9  -4    1.02    0.21 
  -9   9  -4    0.95    0.17 
  -9   9  -4    0.85    0.14 
  -9   9  -4    0.61    0.12 
 -10   9  -4    1.91    0.17 
 -10   9  -4    1.54    0.16 
 -10   9  -4    1.79    0.16 
 -11   9  -4    1.57    0.16 
 -11   9  -4    1.71    0.16 
 -10  10   4    6.32    0.32 
 -10  10   4    6.08    0.32 
  -9  10   4    6.26    0.28 
  -9  10   4    6.36    0.32 
  -9  10   4    6.54    0.31 
  -8  10   4    7.74    0.38 
  -8  10   4    8.25    0.38 
  -8  10   4    7.65    0.38 
  -7 -10   4    7.40    0.45 
  -7  10   4    7.97    0.39 
  -7  10   4    7.68    0.37 
  -6 -10   4    2.33    0.29 
  -6  10   4    2.05    0.26 
  -5 -10   4    5.77    0.37 
  -4 -10   4    7.85    0.45 
  -3 -10   4   20.16    1.01 
  -3 -10   4   21.35    0.79 
   3 -10  -4   21.61    0.81 
  -2 -10   4   32.26    1.39 
   2 -10  -4   29.82    1.13 
   2 -10  -4   31.68    1.53 
  -1 -10   4   36.39    1.60 
   0 -10   4   13.38    0.66 
   0 -10   4   13.10    0.63 
   0 -10   4   12.90    0.66 
  -1 -10  -4   19.27    0.90 
   1 -10   4   20.26    1.04 
  -1 -10  -4   19.07    0.72 
  -2 -10  -4   10.64    0.54 
  -2 -10  -4   10.69    0.39 
  -2 -10  -4   10.50    0.39 
  -3  10  -4    6.00    0.26 
  -6 -10  -4    3.56    0.31 
  -6  10  -4    4.31    0.26 
  -6  10  -4    3.75    0.25 
  -7 -10  -4    3.32    0.37 
  -7  10  -4    2.91    0.20 
  -7  10  -4    2.26    0.29 
  -8 -10  -4   11.09    0.63 
  -8  10  -4   11.46    0.48 
  -8  10  -4   11.12    0.47 
  -8  10  -4   10.79    0.49 
  -9 -10  -4    8.25    0.47 
  -9  10  -4    7.78    0.37 
  -9  10  -4    7.12    0.35 
 -10  10  -4    2.99    0.18 
 -10  10  -4    3.19    0.19 
 -10  10  -4    3.07    0.19 
 -10  11   4    0.54    0.15 
 -10  11   4    0.47    0.16 
  -9  11   4   10.08    0.44 
  -9  11   4   10.60    0.42 
  -9  11   4    9.72    0.43 
  -8  11   4    9.69    0.43 
  -8  11   4    9.06    0.42 
  -8  11   4    9.24    0.43 
  -7 -11   4   18.21    0.88 
  -7  11   4   18.15    0.78 
  -6 -11   4    8.63    0.53 
  -6  11   4    8.50    0.47 
  -5 -11   4    8.65    0.50 
   4 -11  -4   13.88    0.57 
  -4 -11   4   15.40    0.74 
  -3 -11   4    8.54    0.37 
   3 -11  -4    8.78    0.36 
  -3 -11   4    8.85    0.54 
  -2 -11   4    1.16    0.17 
  -1 -11   4    4.00    0.28 
   0 -11   4   39.67    1.76 
   0 -11  -4   40.54    1.77 
  -1 -11  -4   18.41    0.66 
  -1 -11  -4   16.97    0.66 
  -1 -11  -4   17.60    0.84 
  -2 -11  -4    1.86    0.20 
   2 -11   4    1.77    0.11 
  -2 -11  -4    1.99    0.09 
  -2 -11  -4    1.75    0.09 
  -3 -11  -4    7.89    0.44 
  -3  11  -4    7.99    0.33 
  -5 -11  -4    0.77    0.21 
  -5 -11  -4    0.60    0.15 
  -5  11  -4    1.03    0.16 
  -6 -11  -4    8.37    0.51 
  -6  11  -4    8.74    0.42 
  -6  11  -4    7.81    0.40 
  -7 -11  -4    1.14    0.33 
  -7  11  -4    1.05    0.27 
  -7  11  -4    1.04    0.15 
  -8 -11  -4    0.95    0.20 
  -8  11  -4    0.90    0.13 
  -8  11  -4    1.13    0.11 
  -9 -11  -4    1.90    0.21 
  -9  11  -4    1.73    0.17 
 -10  11  -4   -0.06    0.07 
  -9  12   4    4.91    0.25 
  -9  12   4    4.33    0.20 
  -8  12   4    4.18    0.24 
  -8  12   4    4.20    0.25 
  -7 -12   4    2.48    0.24 
  -7  12   4    2.04    0.20 
  -6 -12   4    3.23    0.37 
  -6  12   4    2.69    0.32 
   5 -12  -4   17.99    0.70 
  -5 -12   4   18.37    0.90 
  -4 -12   4    0.18    0.13 
   4 -12  -4    0.24    0.05 
   4  12  -4    0.17    0.10 
  -3 -12   4    5.62    0.40 
  -3  12   4    5.44    0.36 
   3  12  -4    5.47    0.37 
   2 -12  -4   24.39    1.10 
  -2 -12   4   23.94    1.09 
   2  12  -4   22.85    1.06 
  -2  12   4   23.19    1.06 
   1 -12  -4   55.77    2.36 
  -1 -12   4   52.39    2.35 
  -1  12   4   55.31    2.33 
   1  12  -4   53.19    2.33 
   0 -12  -4   10.94    0.57 
   0 -12   4   11.16    0.57 
   0  12  -4   11.30    0.57 
  -1 -12  -4    7.25    0.31 
  -1 -12  -4    8.37    0.44 
  -1 -12  -4    7.58    0.31 
  -1  12  -4    7.77    0.42 
  -2 -12  -4    4.30    0.29 
   2 -12   4    4.13    0.18 
   2 -12   4    4.13    0.18 
  -2  12  -4    3.86    0.27 
   3 -12   4    5.86    0.26 
  -3 -12  -4    6.31    0.36 
  -3  12  -4    5.51    0.25 
  -4 -12  -4    4.99    0.43 
  -5 -12  -4    7.75    0.57 
  -5 -12  -4    8.84    0.52 
  -5  12  -4    8.54    0.44 
  -6 -12  -4    6.32    0.43 
  -6  12  -4    6.31    0.35 
  -7 -12  -4    8.53    0.53 
  -7  12  -4    8.98    0.42 
  -7  12  -4    8.72    0.45 
  -8 -12  -4   10.72    0.58 
  -8  12  -4   10.06    0.44 
  -8  12  -4    9.88    0.43 
  -9 -12  -4    1.50    0.20 
  -9  12  -4    1.81    0.16 
 -10  12  -4    0.58    0.10 
  -9  13   4    4.42    0.22 
   8 -13  -4    7.18    0.29 
   8 -13  -4    7.27    0.28 
  -8  13   4    7.38    0.35 
  -8  13   4    6.77    0.34 
  -7 -13   4   13.54    0.70 
   7 -13  -4   14.64    0.53 
  -7  13   4   13.22    0.61 
  -6 -13   4    2.65    0.33 
   6 -13  -4    2.66    0.14 
  -6  13   4    2.97    0.28 
  -5 -13   4    2.84    0.27 
   5 -13  -4    2.56    0.12 
   5 -13  -4    2.86    0.26 
  -4 -13   4    8.15    0.48 
   4 -13  -4    7.63    0.47 
   4  13  -4    7.93    0.43 
  -3 -13   4    2.64    0.32 
   3 -13  -4    3.06    0.31 
  -3  13   4    2.61    0.27 
   3  13  -4    2.55    0.28 
   2 -13  -4   20.21    0.96 
  -2 -13   4   20.11    0.96 
  -2  13   4   19.42    0.92 
   2  13  -4   20.48    0.93 
   1 -13  -4    4.80    0.32 
  -1 -13   4    4.69    0.31 
  -1  13   4    3.95    0.28 
   1  13  -4    4.37    0.29 
   0 -13  -4   12.22    0.63 
   0 -13   4   12.09    0.62 
   0  13   4   11.89    0.60 
   0  13  -4   12.55    0.61 
  -1 -13  -4    4.75    0.22 
  -1 -13  -4    4.86    0.33 
  -1 -13  -4    4.34    0.21 
   1  13   4    5.60    0.37 
  -1  13  -4    5.42    0.32 
  -2 -13  -4    5.11    0.35 
  -2  13  -4    5.23    0.31 
   2  13   4    4.95    0.31 
  -3 -13  -4    6.72    0.44 
  -3 -13  -4    6.95    0.41 
   3 -13   4    7.15    0.28 
  -3  13  -4    6.93    0.30 
  -4 -13  -4    1.62    0.26 
   4 -13   4    1.54    0.13 
  -4 -13  -4    1.53    0.39 
  -5 -13  -4    5.49    0.39 
  -5  13  -4    5.45    0.33 
  -6 -13  -4    1.23    0.23 
  -6  13  -4    1.46    0.18 
  -7 -13  -4    1.76    0.23 
  -7  13  -4    2.13    0.18 
  -8 -13  -4    2.81    0.27 
  -8  13  -4    3.38    0.17 
  -8  13  -4    3.19    0.20 
  -8  13  -4    3.44    0.20 
  -9 -13  -4    3.29    0.25 
  -9  13  -4    3.82    0.19 
  -8  14   4    2.37    0.16 
  -8  14   4    2.41    0.18 
  -7 -14   4    0.80    0.17 
  -7  14   4    0.85    0.14 
  -6 -14   4    6.49    0.44 
  -6  14   4    5.91    0.38 
  -5 -14   4    0.94    0.20 
   5 -14  -4    1.03    0.19 
   5  14  -4    0.94    0.16 
  -4 -14   4    1.31    0.22 
   4 -14  -4    1.09    0.20 
   4  14  -4    0.73    0.16 
   3 -14  -4    9.57    0.48 
   3 -14  -4    8.81    0.54 
  -3 -14   4    8.95    0.56 
   3  14  -4    9.23    0.53 
  -2 -14   4   19.90    0.74 
  -2 -14   4   19.98    0.81 
   2 -14  -4   19.58    0.85 
   2 -14  -4   19.27    0.96 
  -2 -14   4   20.56    0.96 
   2  14  -4   20.25    0.93 
  -2  14   4   19.38    0.92 
   1 -14  -4   23.14    1.11 
  -1 -14   4   23.83    0.97 
   1 -14  -4   23.92    0.97 
  -1 -14   4   23.47    1.10 
   1  14  -4   23.26    1.08 
  -1  14   4   23.70    1.07 
   0 -14   4   10.23    0.47 
   0 -14  -4    9.83    0.44 
   0 -14  -4    9.26    0.54 
   0 -14   4   10.15    0.53 
   0  14  -4    9.88    0.52 
   0  14   4    9.63    0.51 
   1 -14   4    2.92    0.22 
  -1 -14  -4    2.69    0.14 
  -1 -14  -4    2.65    0.14 
  -1 -14  -4    2.68    0.16 
  -1 -14  -4    2.41    0.24 
  -1  14  -4    2.23    0.22 
   1  14   4    2.83    0.32 
  -2 -14  -4    0.67    0.15 
   2  14   4    0.47    0.11 
  -3 -14  -4    8.71    0.52 
  -3 -14  -4    8.42    0.48 
  -3  14  -4    8.35    0.34 
  -4 -14  -4    2.15    0.29 
   5 -14   4    1.31    0.10 
  -5 -14  -4    1.14    0.22 
  -5  14  -4    1.51    0.19 
   6 -14   4    3.82    0.18 
  -6 -14  -4    3.78    0.31 
  -6  14  -4    3.57    0.25 
   7 -14   4    8.98    0.36 
  -7 -14  -4    8.60    0.52 
  -7  14  -4    9.64    0.42 
  -8 -14  -4    2.96    0.24 
  -8  14  -4    2.69    0.18 
  -8  14  -4    2.93    0.15 
  -8  15   4    1.26    0.13 
  -8  15   4    1.47    0.12 
  -7  15   4    0.78    0.11 
  -7  15   4    0.56    0.10 
  -6 -15   4    5.74    0.42 
  -6  15   4    5.79    0.37 
  -5 -15   4   26.87    1.19 
   5 -15  -4   24.92    1.17 
   5  15  -4   24.31    1.14 
  -4 -15   4    6.92    0.42 
   4 -15  -4    6.06    0.36 
   4 -15  -4    5.94    0.40 
   4  15  -4    6.48    0.37 
   3 -15  -4    8.92    0.55 
   3 -15  -4    8.67    0.49 
  -3 -15   4    8.17    0.57 
   3  15  -4    9.12    0.54 
   2 -15  -4    0.64    0.15 
  -2 -15   4    0.97    0.20 
   2 -15  -4    0.71    0.12 
  -2 -15   4    0.81    0.08 
   2  15  -4    0.57    0.13 
  -2  15   4    0.41    0.11 
  -1 -15   4    2.24    0.17 
  -1 -15   4    1.96    0.23 
   1 -15  -4    2.22    0.18 
   1 -15  -4    2.05    0.24 
  -1  15   4    2.05    0.20 
   1  15  -4    2.18    0.22 
   0 -15   4    0.91    0.19 
   0 -15  -4    0.97    0.13 
   0 -15  -4    0.81    0.18 
   0 -15   4    0.79    0.15 
   0  15   4    0.95    0.17 
   0  15  -4    1.10    0.18 
  -1 -15  -4   10.99    0.46 
  -1 -15  -4   11.93    0.42 
   1 -15   4   11.29    0.53 
  -1 -15  -4   10.97    0.60 
  -1  15  -4   10.83    0.57 
   1  15   4   11.90    0.62 
   2 -15   4    0.48    0.11 
  -2 -15  -4    0.30    0.12 
   2  15   4    0.53    0.11 
  -3 -15  -4   14.18    0.71 
   3  15   4   13.91    0.68 
  -4 -15  -4   14.55    0.87 
  -5 -15  -4   11.03    0.60 
  -5  15  -4    9.90    0.50 
  -6 -15  -4    2.69    0.26 
  -6  15  -4    2.86    0.21 
  -7 -15  -4    2.58    0.24 
  -7  15  -4    2.37    0.17 
  -8 -15  -4    0.42    0.10 
  -8  15  -4    0.28    0.07 
  -7  16   4    0.93    0.12 
  -7  16   4    0.83    0.12 
  -6  16   4    0.30    0.20 
   5 -16  -4    3.69    0.24 
  -5 -16   4    3.67    0.29 
   5  16  -4    3.20    0.24 
  -4 -16   4    0.76    0.16 
   4 -16  -4    0.61    0.14 
   4 -16  -4    0.55    0.12 
   4  16  -4    0.61    0.12 
  -3 -16   4   10.72    0.64 
   3 -16  -4   11.24    0.62 
   3 -16  -4   10.96    0.53 
   3  16  -4   10.88    0.59 
   2 -16  -4    6.89    0.36 
   2 -16  -4    7.40    0.44 
  -2 -16   4    7.26    0.45 
  -2  16   4    6.79    0.39 
   2  16  -4    7.32    0.41 
   1 -16  -4    0.41    0.14 
  -1 -16   4    0.39    0.14 
  -1 -16   4    0.29    0.07 
   1 -16  -4    0.33    0.08 
  -1  16   4    0.25    0.10 
   1  16  -4    0.28    0.11 
   0 -16  -4    0.98    0.11 
   0 -16  -4    1.08    0.09 
   0 -16  -4    1.04    0.10 
   0 -16  -4    1.05    0.20 
   0 -16   4    0.80    0.16 
   0 -16   4    1.04    0.14 
   0  16  -4    0.68    0.16 
   0  16   4    1.07    0.17 
  -1 -16  -4    0.18    0.11 
   1 -16   4    0.33    0.20 
   1  16   4    0.06    0.21 
  -1  16  -4    0.11    0.09 
   2 -16   4    5.84    0.32 
  -2 -16  -4    5.74    0.36 
   2  16   4    5.44    0.33 
  -2  16  -4    5.33    0.26 
   3 -16   4    2.05    0.20 
  -3 -16  -4    1.94    0.22 
   3  16   4    1.83    0.18 
  -4 -16  -4    1.39    0.24 
  -5 -16  -4    2.71    0.25 
  -5  16  -4    2.48    0.21 
  -6 -16  -4    3.83    0.29 
  -6  16  -4    4.07    0.24 
  -7 -16  -4    1.49    0.18 
  -7  16  -4    1.63    0.15 
  -7  16  -4    1.56    0.12 
  -7  17   4    0.51    0.10 
   6 -17  -4    1.87    0.20 
  -6  17   4    1.70    0.21 
   5 -17  -4    6.90    0.36 
   5  17  -4    7.98    0.39 
   4 -17  -4    1.76    0.17 
   4 -17  -4    1.81    0.21 
  -4 -17   4    1.94    0.22 
   4  17  -4    1.82    0.18 
  -3 -17   4    0.71    0.20 
   3 -17  -4    0.85    0.15 
   3 -17  -4    1.16    0.21 
   3  17  -4    0.97    0.17 
   2 -17  -4   11.72    0.52 
  -2 -17   4   11.78    0.62 
   2 -17  -4   11.85    0.62 
   2  17  -4   11.14    0.58 
  -2  17   4   11.98    0.58 
   1 -17  -4    1.27    0.21 
   1 -17  -4    1.31    0.13 
  -1 -17   4    1.13    0.21 
  -1  17   4    1.42    0.17 
   1  17  -4    1.65    0.18 
   0 -17   4    5.53    0.36 
   0 -17  -4    5.19    0.24 
   0 -17  -4    5.83    0.37 
   0 -17   4    5.37    0.28 
   0  17   4    5.51    0.34 
   0  17  -4    5.79    0.34 
  -1 -17  -4    0.42    0.12 
   1 -17   4    0.68    0.13 
   1  17   4    0.51    0.22 
  -1  17  -4    0.47    0.11 
   2 -17   4   10.58    0.49 
  -2 -17  -4   10.01    0.55 
   2  17   4   10.20    0.53 
  -2  17  -4   10.68    0.41 
   3 -17   4   22.14    0.91 
  -3 -17  -4   21.81    1.01 
   3  17   4   21.55    0.99 
   4 -17   4    7.00    0.42 
   4  17   4    7.09    0.43 
  -5 -17  -4    9.35    0.52 
  -5  17  -4    9.94    0.45 
  -6 -17  -4    0.08    0.08 
  -6  17  -4    0.07    0.07 
  -6  17  -4    0.07    0.08 
  -7  17  -4    1.03    0.09 
   5 -18  -4    5.51    0.28 
   5  18  -4    5.43    0.30 
   4 -18  -4    6.33    0.31 
   4  18  -4    6.18    0.34 
   3 -18  -4    1.10    0.14 
   3  18  -4    1.24    0.17 
   2 -18  -4   11.18    0.58 
   2 -18  -4   11.10    0.47 
  -2 -18   4   10.86    0.58 
   2  18  -4   11.06    0.55 
   1 -18  -4    4.00    0.30 
   1 -18  -4    3.76    0.20 
  -1 -18   4    4.42    0.31 
  -1  18   4    4.33    0.27 
   1  18  -4    4.56    0.28 
   0 -18   4    1.01    0.11 
   0 -18   4    1.14    0.18 
   0 -18  -4    0.90    0.18 
   0  18   4    1.02    0.16 
   0  18  -4    0.95    0.15 
  -1 -18  -4    8.75    0.47 
   1 -18   4    8.18    0.39 
  -1  18  -4    8.28    0.36 
   1  18   4    8.84    0.49 
   2 -18   4    2.36    0.18 
  -2 -18  -4    2.52    0.22 
   2  18   4    2.37    0.20 
   3 -18   4    7.28    0.36 
   3  18   4    7.36    0.39 
   4 -18   4    0.76    0.15 
   4  18   4    0.78    0.14 
   5 -18   4    1.38    0.14 
  -5  18  -4    1.00    0.14 
  -5  18  -4    1.21    0.14 
  -6  18  -4    2.06    0.14 
   5 -19  -4    1.78    0.12 
   4 -19  -4    3.75    0.19 
   3 -19  -4    4.91    0.25 
   3  19  -4    5.10    0.31 
   2 -19  -4    0.62    0.08 
   2  19  -4    0.60    0.13 
   1  19  -4    0.11    0.08 
  -1  19   4    0.06    0.07 
   0  19  -4    5.70    0.32 
   0  19   4    5.92    0.32 
   1 -19   4    3.68    0.18 
   1  19   4    2.78    0.22 
   2 -19   4    0.10    0.06 
   2  19   4   -0.03    0.07 
   3 -19   4    2.95    0.18 
   3  19   4    2.39    0.19 
   4 -19   4    2.93    0.21 
   3 -20   4    0.83    0.09 
 -12   0   5    0.33    0.13 
 -11   0   5    2.14    0.17 
 -10   0   5    8.58    0.39 
 -10   0   5    8.23    0.39 
  -9   0   5   11.28    0.53 
  -9   0   5   11.02    0.53 
  -8   0   5    5.25    0.59 
  -8   0   5    5.05    0.30 
  -7   0   5    2.30    0.42 
  -7   0   5    2.60    0.22 
  -6   0   5   10.27    0.78 
  -6   0   5   10.50    0.53 
  -5   0   5    6.67    0.64 
  -4   0   5    3.21    0.39 
  -3   0   5  136.98    6.06 
  -3   0   5  138.31    6.06 
  -3   0   5  131.16    6.05 
  -2   0   5   26.53    1.59 
  -2   0   5   31.52    1.47 
  -1   0   5    5.98    0.41 
   1   0  -5    6.34    0.42 
   0   0   5   29.34    1.49 
   0   0  -5   29.24    1.39 
   0   0  -5   28.71    1.41 
   1   0   5    0.16    0.12 
  -1   0  -5    0.32    0.09 
  -1   0  -5    0.40    0.18 
  -1   0  -5    0.21    0.08 
   2   0   5    0.39    0.16 
  -2   0  -5    0.50    0.18 
  -3   0  -5    0.48    0.18 
  -3   0  -5    0.28    0.05 
   3   0   5    0.42    0.16 
  -4   0  -5   94.69    4.31 
   4   0   5   96.04    4.41 
  -5   0  -5  173.88    7.93 
  -6   0  -5  126.60    5.69 
  -7   0  -5    9.92    0.68 
  -8   0  -5   -0.03    0.09 
  -8   0  -5    0.03    0.13 
  -9   0  -5    9.72    0.44 
  -9   0  -5    9.96    0.46 
 -10   0  -5    0.07    0.10 
 -10   0  -5    0.03    0.08 
 -11   0  -5    0.38    0.10 
 -12   0  -5    0.67    0.15 
 -12   1   5    2.00    0.17 
 -11  -1   5    3.70    0.22 
 -11   1   5    3.84    0.23 
 -11   1   5    4.24    0.23 
 -10  -1   5   10.90    0.48 
 -10   1   5   11.70    0.49 
 -10   1   5   10.97    0.49 
  -9  -1   5    4.03    0.34 
  -9   1   5    4.79    0.35 
  -9   1   5    4.30    0.35 
  -8  -1   5    1.85    0.22 
  -8   1   5    2.04    0.20 
  -8   1   5    1.74    0.41 
  -8   1   5    1.52    0.19 
  -7  -1   5    5.11    0.34 
  -7  -1   5    5.88    0.58 
  -7   1   5    5.45    0.59 
  -7   1   5    5.71    0.34 
  -6  -1   5    1.04    0.16 
  -6  -1   5    1.00    0.29 
  -6   1   5    1.44    0.34 
  -6   1   5    1.30    0.17 
  -5  -1   5    4.95    0.67 
  -5   1   5    6.03    0.71 
  -4  -1   5    1.58    0.32 
  -4   1   5    1.83    0.32 
  -3  -1   5  110.79    4.68 
  -3  -1   5  105.22    4.68 
  -3  -1   5  105.41    4.75 
  -3   1   5  102.75    4.73 
  -3   1   5  100.82    4.73 
  -3   1   5  103.76    4.76 
  -2  -1   5    7.62    0.45 
  -2  -1   5    7.27    0.45 
  -2   1   5    6.63    0.58 
  -2   1   5    5.96    0.48 
   1  -1  -5   32.86    1.57 
  -1  -1   5   33.10    1.57 
  -1   1   5   31.48    1.58 
   0  -1  -5   94.45    4.31 
   0  -1  -5   94.21    4.30 
   0   1   5  100.30    4.40 
   0   1  -5   92.13    4.31 
  -1  -1  -5    2.54    0.30 
  -1  -1  -5    1.78    0.15 
   1  -1   5    2.33    0.31 
  -1  -1  -5    2.09    0.15 
  -1   1  -5    1.34    0.18 
  -1   1  -5    1.55    0.28 
  -1   1  -5    1.59    0.18 
   1   1   5    1.52    0.27 
  -2  -1  -5   11.07    0.67 
   2  -1   5    9.55    0.68 
  -2   1  -5   12.06    0.70 
   2   1   5   11.58    0.69 
  -3  -1  -5   14.13    0.80 
   3  -1   5   13.15    0.83 
  -3  -1  -5   13.98    0.52 
  -3   1  -5   15.11    0.83 
   3   1   5   14.84    0.82 
  -4  -1  -5    5.24    0.42 
   4  -1   5    6.42    0.49 
  -4   1  -5    5.06    0.45 
   4   1   5    4.84    0.43 
  -5  -1  -5   46.22    2.38 
  -5   1  -5   45.84    2.48 
  -6  -1  -5    1.28    0.26 
  -6   1  -5    1.26    0.29 
  -7  -1  -5   26.41    1.36 
  -7   1  -5   26.05    1.43 
  -8  -1  -5    6.44    0.32 
  -8  -1  -5    6.99    0.47 
  -8   1  -5    5.00    0.32 
  -8   1  -5    5.70    0.53 
  -8   1  -5    5.58    0.31 
  -9  -1  -5    5.95    0.31 
  -9  -1  -5    5.91    0.33 
  -9   1  -5    5.89    0.33 
  -9   1  -5    5.83    0.32 
 -10  -1  -5    2.75    0.22 
 -10   1  -5    3.19    0.22 
 -10   1  -5    3.03    0.23 
 -11  -1  -5    2.27    0.17 
 -11   1  -5    2.01    0.18 
 -12   1  -5    0.24    0.13 
 -12   2   5    1.10    0.15 
 -11   2   5    0.40    0.09 
 -11   2   5    0.48    0.10 
 -10  -2   5    2.05    0.19 
 -10   2   5    2.08    0.20 
 -10   2   5    2.54    0.21 
  -9  -2   5    1.44    0.23 
  -9   2   5    1.25    0.23 
  -9   2   5    1.65    0.24 
  -8  -2   5    0.89    0.14 
  -8   2   5    0.86    0.14 
  -8   2   5    1.14    0.18 
  -8   2   5    0.84    0.31 
  -7  -2   5   13.35    0.65 
  -7   2   5   12.42    0.95 
  -6  -2   5    6.13    0.35 
  -6   2   5    5.63    0.34 
  -6   2   5    5.97    0.60 
  -5   2   5   10.69    0.89 
  -4   2   5   30.52    1.29 
  -4   2   5   26.71    1.28 
  -4   2   5   25.79    1.49 
  -3   2   5   36.27    1.88 
  -3   2   5   39.10    1.80 
  -2  -2   5   29.91    1.43 
  -2  -2   5   30.28    1.43 
  -2   2   5   25.60    1.52 
   1  -2  -5   17.48    0.90 
  -1  -2   5   17.29    0.90 
   0  -2  -5    1.68    0.29 
   0  -2  -5    1.42    0.18 
   0  -2  -5    1.39    0.18 
   0  -2   5    1.30    0.20 
   0   2  -5    1.57    0.20 
   0   2   5    2.10    0.29 
  -1  -2  -5   18.38    0.93 
  -1   2  -5   16.41    0.86 
  -1   2  -5   16.92    0.95 
  -1   2  -5   16.97    0.86 
   1   2   5   16.36    0.93 
  -2  -2  -5    5.23    0.40 
   2  -2   5    4.53    0.42 
   2   2   5    3.73    0.37 
  -2   2  -5    4.03    0.40 
  -2   2  -5    4.48    0.26 
  -2   2  -5    4.24    0.26 
   3  -2   5    4.63    0.45 
  -3  -2  -5    5.80    0.21 
  -3  -2  -5    5.50    0.41 
  -3   2  -5    5.09    0.46 
   3   2   5    4.84    0.41 
  -4  -2  -5    5.89    0.42 
  -4   2  -5    5.03    0.46 
   4   2   5    5.23    0.42 
  -5  -2  -5   10.15    0.75 
  -5   2  -5   10.92    0.92 
  -6  -2  -5    2.65    0.29 
  -6   2  -5    1.82    0.35 
  -7  -2  -5    0.76    0.19 
  -7   2  -5    0.75    0.26 
  -8  -2  -5    1.48    0.16 
  -8  -2  -5    1.31    0.18 
  -8   2  -5    1.33    0.19 
  -8   2  -5    1.17    0.17 
  -8   2  -5    1.40    0.33 
  -8   2  -5    1.03    0.19 
  -9   2  -5    0.19    0.11 
  -9   2  -5    0.12    0.10 
  -9   2  -5    0.29    0.10 
 -10   2  -5    2.55    0.20 
 -10   2  -5    2.52    0.21 
 -10   2  -5    2.33    0.21 
 -11   2  -5    0.34    0.10 
 -12   2  -5    2.14    0.18 
 -12   3   5    1.26    0.15 
 -11   3   5    0.56    0.10 
 -11   3   5    0.61    0.10 
 -10   3   5    2.38    0.20 
 -10   3   5    2.24    0.20 
  -9   3   5    2.39    0.27 
  -9   3   5    1.97    0.27 
  -8   3   5    0.72    0.12 
  -8   3   5    0.72    0.13 
  -8   3   5    0.78    0.10 
  -8   3   5    0.64    0.31 
  -7  -3   5    3.61    0.28 
  -7   3   5    4.62    0.57 
  -6  -3   5   16.24    0.79 
  -6   3   5   17.24    1.13 
  -5  -3   5   17.25    0.84 
  -5   3   5   17.84    0.85 
  -5   3   5   18.37    1.20 
  -4   3   5    5.05    0.32 
  -4   3   5    5.30    0.32 
  -4   3   5    4.49    0.49 
  -3   3   5   15.72    0.85 
  -2  -3   5   55.15    2.59 
  -2  -3   5   58.09    2.59 
   1  -3  -5   13.62    0.80 
  -1  -3   5   13.20    0.70 
   1  -3  -5   12.18    0.69 
   0  -3  -5    0.02    0.08 
   0  -3  -5    0.13    0.16 
   0  -3   5    0.05    0.12 
   0  -3  -5    0.02    0.07 
   0   3   5    0.06    0.15 
  -1  -3  -5   24.56    1.28 
  -1   3  -5   26.22    1.32 
  -1   3  -5   25.94    1.23 
   1   3   5   23.14    1.29 
  -2  -3  -5   26.67    1.27 
   2   3   5   24.91    1.29 
  -2   3  -5   24.12    1.20 
  -2   3  -5   25.46    1.33 
  -2   3  -5   24.29    1.20 
  -3  -3  -5    2.83    0.12 
  -3  -3  -5    2.86    0.30 
  -3   3  -5    3.17    0.39 
   3   3   5    4.39    0.35 
  -4  -3  -5    4.78    0.39 
   4   3   5    6.16    0.43 
  -4   3  -5    5.20    0.49 
  -5  -3  -5    4.85    0.46 
  -5   3  -5    5.47    0.64 
  -6  -3  -5    1.70    0.24 
  -6   3  -5    2.48    0.39 
  -7  -3  -5    0.98    0.16 
  -7  -3  -5    0.97    0.18 
  -7   3  -5    0.94    0.29 
  -8   3  -5    5.61    0.59 
  -8   3  -5    5.89    0.32 
  -8   3  -5    5.37    0.31 
  -8   3  -5    5.51    0.29 
  -9   3  -5    4.86    0.29 
  -9   3  -5    5.05    0.28 
  -9   3  -5    4.53    0.29 
 -10   3  -5    4.64    0.27 
 -10   3  -5    4.20    0.27 
 -10   3  -5    4.08    0.25 
 -11   3  -5    1.74    0.16 
 -11   3  -5    1.89    0.16 
 -11   3  -5    1.99    0.18 
 -12   3  -5    0.16    0.13 
 -12   4   5    0.64    0.13 
 -11   4   5    7.72    0.35 
 -11   4   5    7.94    0.35 
 -10   4   5    1.56    0.18 
 -10   4   5    1.80    0.19 
  -9   4   5    4.57    0.35 
  -9   4   5    4.49    0.34 
  -8   4   5    0.54    0.08 
  -8   4   5    0.56    0.12 
  -8   4   5    0.60    0.12 
  -8   4   5    0.11    0.26 
  -7  -4   5   28.10    1.30 
  -7   4   5   29.99    1.75 
  -6  -4   5    8.96    0.49 
  -6   4   5   10.08    0.83 
  -5  -4   5   18.07    0.86 
  -4   4   5   31.06    1.50 
  -3   4   5   20.59    1.08 
  -2  -4   5    3.83    0.27 
  -2  -4   5    4.55    0.29 
  -1  -4   5    7.73    0.48 
   1  -4  -5    8.00    0.48 
   1  -4  -5    8.23    0.59 
   0  -4  -5    9.99    0.53 
   0  -4   5    9.48    0.59 
   0  -4  -5   10.06    0.66 
   0  -4  -5   10.37    0.53 
  -1  -4  -5    2.02    0.30 
  -1   4  -5    1.61    0.22 
   1   4   5    2.10    0.29 
  -2  -4  -5    2.71    0.31 
  -2  -4  -5    2.74    0.13 
  -2   4  -5    3.05    0.26 
   2   4   5    2.89    0.32 
  -2   4  -5    3.36    0.39 
  -3  -4  -5   25.57    1.35 
   3   4   5   28.86    1.40 
  -3   4  -5   27.52    1.47 
  -4  -4  -5   31.02    1.48 
  -4   4  -5   29.13    1.62 
  -5  -4  -5    3.64    0.39 
  -5   4  -5    3.88    0.60 
  -6  -4  -5    3.92    0.31 
  -6   4  -5    4.23    0.50 
  -7   4  -5    1.19    0.34 
  -7   4  -5    1.31    0.16 
  -8   4  -5    3.82    0.53 
  -8   4  -5    4.79    0.29 
  -8   4  -5    4.60    0.27 
  -8   4  -5    4.58    0.28 
  -9   4  -5    1.04    0.19 
  -9   4  -5    1.04    0.16 
  -9   4  -5    1.07    0.18 
 -10   4  -5    3.06    0.22 
 -10   4  -5    3.10    0.23 
 -10   4  -5    2.66    0.21 
 -11   4  -5    2.88    0.19 
 -11   4  -5    3.03    0.20 
 -11   4  -5    2.99    0.19 
 -12   4  -5    0.87    0.14 
 -11   5   5    1.30    0.14 
 -11   5   5    1.53    0.15 
 -10   5   5    0.66    0.12 
 -10   5   5    0.68    0.12 
  -9   5   5   20.25    0.87 
  -9   5   5   22.54    0.87 
  -8   5   5   31.77    1.20 
  -8   5   5   31.18    1.18 
  -8   5   5   31.74    1.24 
  -7  -5   5    3.96    0.30 
  -6  -5   5   17.77    0.84 
  -5  -5   5    5.50    0.37 
  -4   5   5    3.07    0.29 
   1  -5  -5   91.15    4.34 
  -1  -5   5   96.92    4.31 
   1  -5  -5   95.99    4.32 
   0  -5  -5    4.14    0.41 
   0  -5  -5    4.17    0.25 
   0  -5  -5    3.68    0.25 
   0  -5   5    3.77    0.33 
  -1  -5  -5   23.58    1.26 
   1   5   5   24.90    1.30 
  -2  -5  -5   26.40    0.93 
  -2  -5  -5   28.09    1.34 
   2   5   5   26.22    1.36 
  -2   5  -5   23.56    1.28 
  -3  -5  -5   17.75    0.95 
   3   5   5   17.94    0.96 
  -3   5  -5   16.31    0.85 
  -3   5  -5   17.82    0.85 
  -3   5  -5   16.66    1.06 
  -4  -5  -5    1.11    0.20 
  -4   5  -5    0.77    0.27 
  -5  -5  -5    9.48    0.68 
  -5   5  -5   10.62    1.00 
  -6  -5  -5    1.38    0.18 
  -6   5  -5    1.68    0.39 
  -7   5  -5    1.33    0.36 
  -7   5  -5    1.57    0.15 
  -7   5  -5    1.57    0.18 
  -8   5  -5    5.23    0.63 
  -8   5  -5    4.99    0.30 
  -8   5  -5    4.79    0.28 
  -8   5  -5    4.88    0.29 
  -9   5  -5    5.35    0.29 
  -9   5  -5    5.34    0.30 
  -9   5  -5    5.15    0.31 
 -10   5  -5    5.72    0.30 
 -10   5  -5    5.50    0.31 
 -10   5  -5    6.10    0.31 
 -11   5  -5    2.89    0.18 
 -11   5  -5    2.93    0.20 
 -11   5  -5    3.21    0.19 
 -11   6   5    1.02    0.13 
 -11   6   5    1.11    0.13 
 -10   6   5   -0.02    0.08 
 -10   6   5   -0.07    0.07 
  -9   6   5    5.41    0.36 
  -9   6   5    5.63    0.36 
  -8   6   5    7.62    0.38 
  -8   6   5    7.20    0.37 
  -8   6   5    7.78    0.37 
  -8   6   5    7.41    0.35 
  -7  -6   5    9.28    0.50 
  -7   6   5    8.71    0.41 
  -6  -6   5    6.53    0.39 
  -5  -6   5   32.94    1.49 
  -4   6   5   14.56    0.84 
  -1  -6   5   65.78    3.13 
   1  -6  -5   71.26    3.15 
   1  -6  -5   68.01    3.23 
   0  -6   5    6.04    0.44 
  -1  -6  -5    1.50    0.29 
  -2  -6  -5    5.28    0.21 
  -2  -6  -5    5.26    0.44 
   2   6   5    5.09    0.44 
  -3  -6  -5   26.75    1.44 
  -3   6  -5   29.77    1.40 
   3   6   5   29.96    1.51 
  -4  -6  -5   13.30    0.76 
  -4   6  -5   13.25    0.94 
  -5  -6  -5    2.21    0.31 
  -5   6  -5    1.99    0.51 
  -6  -6  -5   12.89    0.66 
  -6   6  -5   15.37    1.04 
  -7  -6  -5    5.35    0.39 
  -7   6  -5    6.15    0.68 
  -7   6  -5    6.21    0.29 
  -8   6  -5    0.97    0.14 
  -8   6  -5    1.21    0.19 
  -8   6  -5    0.72    0.12 
  -9   6  -5    0.26    0.09 
  -9   6  -5    0.34    0.11 
  -9   6  -5    0.10    0.10 
 -10   6  -5    0.55    0.10 
 -10   6  -5    0.46    0.11 
 -10   6  -5    0.87    0.16 
 -11   6  -5    0.50    0.09 
 -11   6  -5    0.45    0.09 
 -11   6  -5    0.38    0.09 
 -11   7   5    0.71    0.12 
 -11   7   5    0.75    0.12 
 -10   7   5    2.46    0.19 
 -10   7   5    2.64    0.20 
  -9   7   5    1.21    0.27 
  -9   7   5    1.82    0.27 
  -9   7   5    1.49    0.28 
  -8   7   5   13.62    0.59 
  -8   7   5   14.13    0.59 
  -8   7   5   14.47    0.59 
  -8   7   5   13.22    0.58 
  -7  -7   5   17.46    0.85 
  -7   7   5   17.62    0.75 
  -7   7   5   17.18    0.70 
  -6  -7   5    4.43    0.31 
  -5  -7   5    5.93    0.41 
  -4   7   5   12.46    0.77 
  -3  -7   5   13.67    0.66 
   2  -7  -5   23.05    1.25 
  -1  -7   5   40.39    1.81 
   1  -7  -5   38.31    1.84 
  -1  -7   5   37.92    1.81 
   0  -7   5   98.50    4.51 
  -2  -7  -5   23.05    1.29 
  -2  -7  -5   24.59    0.88 
  -2  -7  -5   24.92    0.88 
  -3  -7  -5    2.44    0.30 
  -3   7  -5    1.99    0.23 
  -4  -7  -5    1.85    0.28 
  -5  -7  -5    1.40    0.26 
  -6   7  -5    0.32    0.28 
  -7  -7  -5   10.22    0.55 
  -7   7  -5    8.71    0.42 
  -7   7  -5    8.85    0.40 
  -7   7  -5    8.14    0.85 
  -7   7  -5    9.40    0.43 
  -8  -7  -5   11.53    0.66 
  -8   7  -5   12.51    0.51 
  -8   7  -5   11.92    0.53 
  -8   7  -5   11.67    0.49 
  -8   7  -5   12.47    0.53 
  -9   7  -5    8.91    0.40 
  -9   7  -5    8.77    0.42 
  -9   7  -5    8.90    0.42 
 -10   7  -5    1.77    0.18 
 -10   7  -5    1.83    0.16 
 -10   7  -5    1.91    0.18 
 -11   7  -5    0.51    0.09 
 -11   7  -5    0.74    0.12 
 -11   7  -5    0.60    0.10 
 -11   8   5    0.00    0.06 
 -11   8   5    0.04    0.07 
 -10   8   5    2.21    0.17 
 -10   8   5    2.31    0.18 
 -10   8   5    2.27    0.18 
  -9   8   5    1.84    0.26 
  -9   8   5    1.68    0.24 
  -9   8   5    1.53    0.24 
  -8   8   5    1.46    0.18 
  -8   8   5    1.41    0.18 
  -8   8   5    1.26    0.15 
  -8   8   5    1.61    0.19 
  -7  -8   5    7.91    0.45 
  -7   8   5    8.01    0.39 
  -7   8   5    6.91    0.37 
  -7   8   5    7.84    0.38 
  -6  -8   5    7.87    0.46 
  -5  -8   5    0.83    0.24 
  -4  -8   5    0.81    0.16 
  -3  -8   5    0.69    0.13 
  -2  -8   5   22.69    1.13 
   2  -8  -5   26.09    1.35 
   1  -8  -5    8.91    0.50 
   0  -8   5    2.71    0.27 
  -2  -8  -5   30.11    1.05 
  -2  -8  -5   28.60    1.05 
  -3  -8  -5    7.19    0.54 
  -3   8  -5    6.65    0.47 
  -4  -8  -5   17.97    1.00 
  -5  -8  -5    2.92    0.37 
  -7  -8  -5    4.99    0.38 
  -7   8  -5    5.46    0.31 
  -7   8  -5    5.51    0.31 
  -7   8  -5    5.45    0.28 
  -8  -8  -5    2.34    0.25 
  -8   8  -5    2.38    0.18 
  -8   8  -5    2.75    0.22 
  -8   8  -5    2.44    0.29 
  -9   8  -5    8.48    0.40 
  -9   8  -5    8.42    0.39 
  -9   8  -5    9.00    0.41 
 -10   8  -5    0.20    0.09 
 -10   8  -5    0.13    0.08 
 -10   8  -5    0.16    0.09 
 -11   8  -5    1.15    0.12 
 -11   8  -5    1.07    0.13 
 -11   9   5    3.99    0.20 
 -10   9   5    6.91    0.31 
 -10   9   5    6.79    0.31 
 -10   9   5    6.68    0.31 
  -9   9   5    2.14    0.22 
  -9   9   5    1.61    0.21 
  -9   9   5    1.97    0.22 
  -9   9   5    1.91    0.13 
  -8  -9   5    6.86    0.43 
  -8   9   5    6.10    0.33 
  -8   9   5    6.30    0.32 
  -8   9   5    6.22    0.33 
  -7  -9   5   13.50    0.66 
  -7   9   5   11.69    0.53 
  -7   9   5   12.55    0.57 
  -6  -9   5    4.91    0.34 
  -6   9   5    4.78    0.30 
  -5  -9   5    2.31    0.29 
  -4  -9   5    0.11    0.10 
  -3  -9   5    7.39    0.31 
  -3  -9   5    6.77    0.41 
  -2  -9   5    2.74    0.25 
   2  -9  -5    3.17    0.14 
   2  -9  -5    2.88    0.33 
  -1  -9   5   13.66    0.66 
   0  -9   5    9.05    0.53 
  -1  -9  -5    3.84    0.26 
  -2  -9  -5    3.39    0.24 
  -2  -9  -5    2.58    0.13 
  -2  -9  -5    3.08    0.13 
  -3  -9  -5    8.59    0.61 
  -3   9  -5    8.21    0.55 
  -3   9  -5    7.37    0.31 
  -4  -9  -5    3.19    0.37 
  -5  -9  -5    1.86    0.31 
  -6  -9  -5    1.38    0.22 
  -6   9  -5    1.31    0.18 
  -6   9  -5    1.56    0.17 
  -7  -9  -5    6.92    0.46 
  -7   9  -5    7.44    0.37 
  -7   9  -5    7.41    0.35 
  -8  -9  -5    5.87    0.39 
  -8   9  -5    5.20    0.36 
  -8   9  -5    5.08    0.23 
  -8   9  -5    5.48    0.31 
  -8   9  -5    4.99    0.27 
  -9  -9  -5    1.55    0.22 
  -9   9  -5    1.74    0.19 
  -9   9  -5    1.70    0.18 
 -10   9  -5    0.72    0.13 
 -10   9  -5    0.58    0.10 
 -11   9  -5    0.63    0.10 
 -10  10   5    0.07    0.07 
 -10  10   5    0.14    0.07 
  -9  10   5    1.37    0.21 
  -9  10   5    1.86    0.12 
  -9  10   5    1.78    0.22 
  -8  10   5   -0.12    0.08 
  -8  10   5    0.08    0.07 
  -8  10   5    0.13    0.09 
  -7 -10   5    8.74    0.48 
  -7  10   5    8.02    0.40 
  -7  10   5    6.97    0.39 
  -6 -10   5    0.90    0.20 
  -6  10   5    1.19    0.16 
  -5 -10   5   13.21    0.73 
  -4 -10   5    3.92    0.30 
   4  10  -5    3.60    0.25 
   3 -10  -5    9.40    0.37 
  -3 -10   5    9.29    0.37 
  -3 -10   5    9.58    0.51 
  -2 -10   5   13.85    0.73 
  -1 -10   5    7.22    0.40 
   0 -10   5    1.26    0.16 
   1 -10   5   10.28    0.66 
   1 -10   5   10.76    0.42 
  -1 -10  -5   11.12    0.55 
  -1 -10  -5   10.98    0.43 
  -2 -10  -5    9.93    0.38 
  -2 -10  -5   10.41    0.38 
  -2 -10  -5   10.09    0.52 
  -3 -10  -5    5.34    0.50 
  -3  10  -5    4.83    0.21 
  -4 -10  -5   22.36    1.24 
  -5 -10  -5   10.54    0.68 
  -5 -10  -5    9.23    0.75 
  -6 -10  -5    0.48    0.14 
  -6  10  -5    0.80    0.13 
  -6  10  -5    0.80    0.15 
  -7 -10  -5    2.09    0.25 
  -7  10  -5    1.83    0.17 
  -7  10  -5    2.04    0.21 
  -8 -10  -5    2.94    0.28 
  -8  10  -5    3.04    0.16 
  -8  10  -5    3.01    0.24 
  -8  10  -5    3.32    0.20 
  -9 -10  -5    0.17    0.11 
  -9  10  -5    0.32    0.10 
 -10  10  -5    0.54    0.09 
 -10  11   5    2.51    0.15 
  -9  11   5    8.34    0.39 
  -9  11   5    8.85    0.36 
  -9  11   5    8.89    0.40 
  -8  11   5    0.96    0.16 
  -8  11   5    0.70    0.13 
  -7 -11   5    3.56    0.29 
  -7  11   5    3.24    0.24 
  -6 -11   5    4.17    0.32 
  -6  11   5    3.28    0.26 
  -5 -11   5    2.37    0.30 
   4 -11  -5    1.62    0.11 
  -4 -11   5    1.82    0.23 
   4  11  -5    1.66    0.18 
  -3 -11   5    5.34    0.25 
  -3 -11   5    6.00    0.38 
  -3  11   5    6.30    0.34 
   3  11  -5    6.72    0.36 
  -2 -11   5   16.79    0.84 
  -1 -11   5    8.95    0.48 
   0 -11  -5    3.24    0.25 
   0 -11   5    3.26    0.24 
  -1 -11  -5   55.26    1.96 
  -1 -11  -5   54.96    2.39 
  -2 -11  -5   22.46    0.81 
   2 -11   5   22.71    0.86 
  -2 -11  -5   23.80    0.82 
  -2 -11  -5   22.27    1.05 
  -3 -11  -5    3.40    0.44 
  -3  11  -5    3.16    0.16 
  -4 -11  -5    6.02    0.40 
  -4 -11  -5    5.75    0.52 
  -5 -11  -5   12.41    0.93 
  -5 -11  -5   13.44    0.83 
  -5  11  -5   14.13    0.70 
  -6 -11  -5    0.47    0.14 
  -6  11  -5    0.54    0.11 
  -6  11  -5    0.80    0.14 
  -7 -11  -5    0.99    0.20 
  -7  11  -5    0.92    0.18 
  -7  11  -5    1.25    0.15 
  -8 -11  -5    8.81    0.54 
  -8  11  -5    9.36    0.39 
  -8  11  -5   10.09    0.42 
  -8  11  -5    9.37    0.42 
  -9 -11  -5    8.27    0.47 
  -9  11  -5    8.08    0.36 
 -10  11  -5    2.86    0.17 
  -9  12   5    0.31    0.16 
   8 -12  -5    2.02    0.12 
  -8  12   5    2.42    0.19 
  -8  12   5    2.22    0.17 
  -7 -12   5   14.53    0.74 
   7 -12  -5   15.02    0.58 
  -7  12   5   14.85    0.65 
  -6 -12   5    8.14    0.48 
   6 -12  -5    7.92    0.33 
  -6  12   5    7.82    0.42 
   5 -12  -5    7.69    0.32 
  -5 -12   5    8.30    0.52 
  -4 -12   5    6.40    0.43 
   4  12  -5    7.82    0.41 
  -3 -12   5    9.08    0.50 
  -3 -12   5    8.36    0.34 
  -3  12   5    8.11    0.44 
   3  12  -5    8.59    0.46 
  -2 -12   5    5.50    0.40 
  -2  12   5    5.95    0.37 
   2  12  -5    5.28    0.38 
   1 -12  -5    2.37    0.23 
  -1 -12   5    2.17    0.23 
   1  12  -5    2.40    0.21 
  -1  12   5    2.56    0.21 
   0 -12   5    0.18    0.10 
   0 -12  -5    0.26    0.11 
   0  12   5    0.45    0.10 
   0  12  -5    0.37    0.10 
  -1 -12  -5    1.77    0.21 
  -1 -12  -5    1.48    0.11 
  -1 -12  -5    1.69    0.11 
  -1  12  -5    1.75    0.18 
   1  12   5    1.81    0.18 
   2 -12   5    8.58    0.33 
   2 -12   5    8.63    0.33 
  -2 -12  -5    8.48    0.47 
   2  12   5    8.49    0.45 
  -3 -12  -5   45.98    2.19 
  -3 -12  -5   46.09    2.38 
   3 -12   5   45.49    1.71 
  -3  12  -5   47.69    1.70 
  -4 -12  -5   14.12    0.91 
  -4 -12  -5   13.77    0.75 
  -5 -12  -5    1.24    0.24 
  -5  12  -5    1.30    0.21 
  -6 -12  -5    0.01    0.11 
  -6  12  -5    0.22    0.09 
  -7 -12  -5    1.29    0.21 
  -7  12  -5    1.22    0.17 
  -7  12  -5    1.21    0.15 
  -8 -12  -5    2.50    0.24 
  -8  12  -5    2.01    0.17 
  -8  12  -5    2.04    0.18 
  -8  12  -5    2.12    0.13 
  -9 -12  -5    6.88    0.39 
  -9  12  -5    6.26    0.30 
  -8  13   5    1.47    0.14 
  -8  13   5    1.35    0.16 
  -7 -13   5    3.64    0.28 
  -7  13   5    3.71    0.24 
  -6 -13   5    2.58    0.27 
   6 -13  -5    2.69    0.26 
  -6  13   5    3.14    0.24 
  -5 -13   5    3.20    0.36 
   5  13  -5    2.68    0.30 
   4 -13  -5    5.78    0.39 
  -4 -13   5    5.54    0.38 
   4  13  -5    5.67    0.34 
  -3 -13   5   10.28    0.56 
   3 -13  -5    9.64    0.54 
   3 -13  -5    9.41    0.48 
   3  13  -5    9.68    0.51 
  -3  13   5    9.46    0.49 
  -2 -13   5    7.46    0.47 
   2 -13  -5    7.19    0.39 
   2 -13  -5    6.92    0.46 
  -2  13   5    6.95    0.42 
   2  13  -5    7.37    0.45 
  -1 -13   5   15.53    0.78 
   1 -13  -5   15.42    0.78 
   1  13  -5   16.24    0.76 
  -1  13   5   15.57    0.75 
   0 -13   5    3.09    0.26 
   0 -13  -5    3.04    0.27 
   0  13  -5    3.28    0.25 
   0  13   5    3.52    0.25 
  -1 -13  -5   34.25    1.20 
  -1 -13  -5   30.84    1.50 
  -1 -13  -5   32.97    1.20 
   1  13   5   34.35    1.47 
  -1  13  -5   33.65    1.47 
  -2 -13  -5    1.89    0.22 
   2  13   5    1.81    0.19 
   3 -13   5    0.24    0.04 
   3 -13   5    0.20    0.04 
  -3 -13  -5    0.02    0.18 
  -3 -13  -5    0.33    0.12 
  -3  13  -5    0.25    0.05 
  -4 -13  -5    6.23    0.43 
   4 -13   5    6.61    0.28 
  -5 -13  -5    2.92    0.33 
  -5  13  -5    3.10    0.29 
  -6 -13  -5    9.78    0.56 
  -6  13  -5    8.92    0.45 
  -7 -13  -5    1.38    0.21 
  -7  13  -5    1.50    0.15 
  -8 -13  -5    3.18    0.26 
  -8  13  -5    2.90    0.18 
  -8  13  -5    2.87    0.14 
  -8  13  -5    2.59    0.18 
  -9 -13  -5    1.71    0.17 
  -9  13  -5    1.93    0.13 
  -8  14   5    0.24    0.08 
  -8  14   5    0.21    0.07 
  -7  14   5    4.55    0.26 
  -7  14   5    4.69    0.26 
  -6 -14   5    5.36    0.35 
  -6  14   5    5.05    0.30 
   6  14  -5    4.65    0.30 
   5 -14  -5   17.27    0.88 
  -5 -14   5   18.88    0.89 
   5  14  -5   15.91    0.84 
   4 -14  -5    4.19    0.32 
  -4 -14   5    4.52    0.34 
   4  14  -5    4.05    0.29 
  -3 -14   5   -0.01    0.12 
   3 -14  -5    0.04    0.10 
   3 -14  -5    0.12    0.11 
   3  14  -5    0.25    0.10 
   2 -14  -5    3.80    0.30 
  -2 -14   5    4.06    0.36 
   2 -14  -5    3.24    0.34 
  -2  14   5    3.97    0.33 
   2  14  -5    3.76    0.34 
  -1 -14   5    4.33    0.33 
  -1 -14   5    4.68    0.27 
   1 -14  -5    4.55    0.27 
   1 -14  -5    4.12    0.33 
   1  14  -5    4.63    0.31 
  -1  14   5    4.85    0.30 
   0 -14  -5   26.35    1.05 
   0 -14   5   26.03    1.20 
   0 -14   5   26.22    1.07 
   0 -14  -5   25.46    1.21 
   0  14   5   26.42    1.18 
   0  14  -5   25.44    1.18 
  -1 -14  -5    9.22    0.53 
   1 -14   5   10.18    0.48 
  -1 -14  -5    9.98    0.37 
  -1 -14  -5   10.10    0.37 
  -1 -14  -5   10.03    0.42 
   1  14   5    9.40    0.51 
  -1  14  -5    9.18    0.51 
  -2 -14  -5    8.79    0.48 
   2  14   5    8.16    0.45 
  -3 -14  -5   17.07    0.89 
  -4 -14  -5    0.46    0.14 
   5 -14   5    2.88    0.16 
  -5 -14  -5    2.50    0.32 
  -5  14  -5    3.05    0.28 
   6 -14   5    9.08    0.34 
  -6 -14  -5    8.84    0.51 
  -6  14  -5    6.92    0.40 
  -7 -14  -5    3.01    0.27 
   7 -14   5    3.19    0.15 
  -7  14  -5    3.43    0.21 
  -7  14  -5    3.04    0.19 
  -8 -14  -5    0.34    0.10 
  -8  14  -5    0.64    0.11 
  -8  15   5    4.66    0.22 
  -7  15   5    1.91    0.16 
  -7  15   5    2.05    0.17 
  -6 -15   5    2.44    0.23 
  -6  15   5    2.18    0.20 
  -5 -15   5    2.29    0.30 
   5 -15  -5    2.62    0.30 
  -4 -15   5    1.07    0.22 
   4 -15  -5    1.31    0.21 
   4 -15  -5    1.36    0.18 
   4  15  -5    1.10    0.17 
  -3 -15   5    7.17    0.43 
   3 -15  -5    6.27    0.35 
   3 -15  -5    6.19    0.42 
   3  15  -5    6.46    0.38 
  -2 -15   5   12.98    0.78 
   2 -15  -5   14.46    0.78 
  -2 -15   5   16.15    0.57 
   2 -15  -5   14.07    0.67 
   2  15  -5   15.32    0.75 
  -2  15   5   14.61    0.75 
   1 -15  -5   11.48    0.53 
  -1 -15   5   11.62    0.63 
   1 -15  -5   11.02    0.63 
  -1 -15   5   11.90    0.52 
   1  15  -5   12.16    0.60 
  -1  15   5   12.42    0.60 
   0 -15   5   15.84    0.68 
   0 -15  -5   15.77    0.78 
   0 -15  -5   16.28    0.65 
   0 -15   5   15.33    0.77 
   0  15  -5   15.39    0.75 
   0  15   5   14.96    0.74 
   1 -15   5    7.27    0.36 
  -1 -15  -5    6.43    0.40 
   1  15   5    5.65    0.36 
  -1  15  -5    5.80    0.36 
  -2 -15  -5   15.02    0.76 
   2 -15   5   14.35    0.68 
  -2  15  -5   15.63    0.60 
   2  15   5   15.95    0.73 
   3  15   5    2.41    0.21 
  -4 -15  -5    0.19    0.12 
  -5 -15  -5    0.37    0.15 
  -5  15  -5    0.50    0.16 
  -6 -15  -5    3.44    0.28 
  -6  15  -5    3.64    0.23 
  -7 -15  -5    7.26    0.44 
  -7  15  -5    7.77    0.34 
  -7  15  -5    7.86    0.35 
  -8 -15  -5    0.25    0.08 
  -7  16   5    0.46    0.08 
  -7  16   5    0.26    0.07 
  -6  16   5    5.21    0.29 
  -5 -16   5    8.71    0.50 
   5 -16  -5    7.73    0.44 
   4 -16  -5    4.42    0.32 
  -4 -16   5    4.40    0.32 
   4 -16  -5    4.53    0.27 
   4  16  -5    3.97    0.28 
  -3 -16   5    0.13    0.12 
   3 -16  -5    0.11    0.12 
   3 -16  -5    0.26    0.09 
   3  16  -5    0.21    0.10 
   2 -16  -5    3.07    0.34 
  -2 -16   5    2.94    0.35 
   2 -16  -5    3.64    0.26 
   2  16  -5    3.30    0.32 
  -2  16   5    3.41    0.31 
   1 -16  -5    1.99    0.24 
  -1 -16   5    1.98    0.16 
  -1 -16   5    1.96    0.23 
   1 -16  -5    2.03    0.16 
  -1  16   5    2.02    0.20 
   1  16  -5    1.87    0.20 
   0 -16   5    2.95    0.27 
   0 -16  -5    3.34    0.18 
   0 -16   5    3.49    0.22 
   0 -16  -5    3.12    0.28 
   0  16   5    2.79    0.24 
   0  16  -5    2.81    0.24 
  -1 -16  -5    0.55    0.13 
   1 -16   5    0.37    0.10 
  -1  16  -5    0.80    0.16 
   1  16   5    0.54    0.12 
  -2 -16  -5   14.83    0.74 
   2 -16   5   14.75    0.66 
  -2  16  -5   15.17    0.57 
   2  16   5   14.15    0.71 
   3 -16   5    7.45    0.38 
   3  16   5    6.79    0.39 
  -4 -16  -5    8.56    0.50 
  -5 -16  -5    2.12    0.26 
  -5  16  -5    1.96    0.22 
  -6 -16  -5    3.40    0.26 
  -6  16  -5    3.43    0.22 
  -6  16  -5    3.04    0.20 
  -7 -16  -5    1.01    0.16 
  -7  16  -5    1.15    0.10 
  -7  16  -5    1.29    0.13 
   6 -17  -5    0.01    0.07 
  -6  17   5    0.08    0.06 
   5 -17  -5    0.24    0.17 
  -4 -17   5    0.90    0.19 
   4 -17  -5    0.75    0.13 
   4  17  -5    1.08    0.15 
   3 -17  -5    2.36    0.19 
   3 -17  -5    3.01    0.25 
  -3 -17   5    3.03    0.26 
   3  17  -5    2.52    0.22 
   2 -17  -5    1.00    0.20 
   2 -17  -5    1.02    0.14 
  -2 -17   5    1.03    0.21 
   2  17  -5    1.06    0.21 
  -2  17   5    0.74    0.18 
   1 -17  -5    9.97    0.54 
   1 -17  -5    9.14    0.42 
  -1 -17   5   10.13    0.54 
   1  17  -5   10.38    0.51 
  -1  17   5    9.83    0.50 
   0 -17   5    7.65    0.37 
   0 -17  -5    8.63    0.47 
   0  17   5    7.96    0.43 
   0  17  -5    7.76    0.43 
  -1 -17  -5    3.66    0.28 
   1 -17   5    3.49    0.23 
   1  17   5    3.27    0.25 
   2 -17   5    6.10    0.32 
  -2 -17  -5    5.82    0.36 
   2  17   5    5.75    0.34 
   3 -17   5    0.76    0.15 
   3  17   5    1.20    0.15 
   4 -17   5    2.41    0.19 
   4  17   5    1.99    0.17 
  -5 -17  -5    0.74    0.17 
  -5  17  -5    0.88    0.15 
  -5  17  -5    0.91    0.17 
  -6 -17  -5    2.50    0.21 
  -6  17  -5    2.95    0.17 
  -6  17  -5    2.69    0.18 
   5 -18  -5    4.21    0.25 
   4 -18  -5    8.39    0.38 
   3 -18  -5    6.18    0.30 
   3  18  -5    6.36    0.35 
   2 -18  -5    1.22    0.12 
   1 -18  -5    1.85    0.21 
  -1  18   5    1.99    0.18 
   1  18  -5    2.07    0.18 
   0 -18  -5    3.74    0.28 
   0  18   5    4.36    0.27 
   0  18  -5    4.06    0.26 
  -1 -18  -5    1.05    0.17 
   1 -18   5    1.10    0.13 
   1  18   5    0.95    0.15 
  -1  18  -5    0.75    0.08 
   2 -18   5    3.70    0.27 
   2  18   5    3.51    0.24 
   3 -18   5    8.43    0.40 
   3  18   5    8.94    0.44 
   4 -18   5    8.56    0.39 
   4  18   5    8.49    0.42 
   5 -18   5    1.80    0.17 
  -5  18  -5    1.86    0.17 
  -5  18  -5    1.98    0.19 
   4 -19  -5    3.30    0.17 
   3 -19  -5    3.94    0.19 
  -1  19   5    1.92    0.16 
   0  19   5    1.77    0.16 
   1  19   5    5.03    0.29 
   2 -19   5    4.77    0.24 
   2  19   5    4.86    0.27 
   3 -19   5    1.83    0.14 
   3  19   5    1.70    0.15 
   4 -19   5    0.19    0.06 
 -11   0   6    1.54    0.19 
 -10   0   6    5.95    0.31 
 -10   0   6    5.80    0.31 
  -9   0   6   17.59    0.72 
  -9   0   6   17.71    0.71 
  -7   0   6   -0.06    0.21 
  -7   0   6    0.19    0.11 
  -6   0   6    1.28    0.36 
  -6   0   6    1.66    0.19 
  -5   0   6    7.46    0.66 
  -5   0   6    7.73    0.41 
  -4   0   6   18.44    1.28 
  -3   0   6   -0.06    0.07 
  -3   0   6   -0.03    0.08 
  -3   0   6    0.08    0.19 
  -2   0   6   31.52    1.54 
   0   0  -6    0.61    0.22 
   0   0  -6    0.11    0.09 
  -1   0  -6    2.99    0.36 
  -1   0  -6    2.84    0.22 
  -1   0  -6    2.72    0.22 
  -2   0  -6   19.19    1.07 
   3   0   6   16.94    0.97 
  -3   0  -6   14.29    0.89 
  -3   0  -6   15.32    0.57 
   4   0   6    8.11    0.61 
  -4   0  -6    7.25    0.56 
  -5   0  -6  136.78    6.15 
  -6   0  -6   12.85    1.02 
  -7   0  -6    0.17    0.09 
  -7   0  -6    0.11    0.16 
  -8   0  -6    0.09    0.16 
  -8   0  -6    0.01    0.10 
  -8   0  -6    0.05    0.08 
  -9   0  -6    6.74    0.35 
  -9   0  -6    6.73    0.34 
 -10   0  -6    0.33    0.10 
 -11   0  -6   -0.03    0.07 
 -11  -1   6    4.83    0.28 
 -11   1   6    5.17    0.28 
 -11   1   6    4.97    0.29 
 -10  -1   6    5.87    0.30 
 -10   1   6    5.67    0.30 
 -10   1   6    5.65    0.30 
  -9  -1   6    2.02    0.19 
  -9  -1   6    1.80    0.20 
  -9   1   6    2.29    0.20 
  -9   1   6    1.81    0.20 
  -8   1   6    4.27    0.71 
  -7  -1   6    5.25    0.34 
  -7   1   6    5.25    0.34 
  -7   1   6    5.62    0.63 
  -6  -1   6   -0.05    0.09 
  -6   1   6    0.05    0.09 
  -6   1   6   -0.02    0.19 
  -5  -1   6    9.49    0.52 
  -5   1   6   11.25    0.53 
  -5   1   6   11.19    0.81 
  -4   1   6   35.84    1.87 
  -3  -1   6   22.36    1.14 
  -3  -1   6   24.79    1.15 
  -3   1   6   25.27    1.20 
  -2  -1   6    2.63    0.26 
  -2   1   6    2.85    0.29 
   0  -1  -6    2.21    0.33 
   0  -1  -6    1.90    0.21 
   0   1  -6    1.68    0.22 
  -1  -1  -6    7.19    0.40 
  -1  -1  -6    8.18    0.40 
  -1  -1  -6    7.61    0.56 
  -1   1  -6    7.79    0.45 
  -1   1  -6    8.06    0.59 
  -1   1  -6    6.85    0.44 
  -2  -1  -6    8.91    0.58 
   2   1   6    6.83    0.55 
  -2   1  -6    7.68    0.57 
  -3  -1  -6   13.47    0.51 
  -3  -1  -6   14.42    0.83 
   3   1   6   13.83    0.84 
  -3   1  -6   13.59    0.84 
  -4  -1  -6  103.18    4.89 
  -4   1  -6  107.20    4.94 
   4   1   6  114.85    5.04 
  -5  -1  -6   44.96    2.20 
  -5   1  -6   45.70    2.25 
  -6  -1  -6    3.02    0.46 
  -6   1  -6    3.30    0.52 
  -7  -1  -6    8.77    0.62 
  -7  -1  -6    9.07    0.40 
  -7   1  -6    8.45    0.68 
  -7   1  -6    8.09    0.39 
  -8  -1  -6    0.50    0.19 
  -8  -1  -6    0.68    0.13 
  -8  -1  -6    0.46    0.11 
  -8   1  -6    0.47    0.11 
  -8   1  -6    0.60    0.22 
  -9  -1  -6    0.12    0.10 
  -9   1  -6    0.15    0.10 
  -9   1  -6    0.14    0.09 
 -10  -1  -6    1.15    0.16 
 -10   1  -6    1.26    0.17 
 -11  -1  -6    0.63    0.10 
 -11   1  -6    0.42    0.10 
 -12   2   6    0.20    0.07 
 -11   2   6    2.59    0.21 
 -11   2   6    2.89    0.21 
 -10  -2   6    0.83    0.14 
 -10   2   6    0.71    0.12 
 -10   2   6    1.24    0.16 
  -9  -2   6    1.28    0.17 
  -9   2   6    1.63    0.18 
  -9   2   6    1.41    0.19 
  -8  -2   6    0.58    0.26 
  -8   2   6    0.66    0.62 
  -7  -2   6    0.53    0.13 
  -7   2   6    0.32    0.27 
  -6  -2   6    6.29    0.37 
  -6   2   6    5.58    0.62 
  -6   2   6    6.07    0.37 
  -5  -2   6    9.78    0.51 
  -5   2   6   10.22    0.51 
  -5   2   6    9.76    0.79 
  -4   2   6    8.50    0.46 
  -4   2   6    8.52    0.46 
  -3   2   6    6.50    0.44 
  -2  -2   6   24.02    1.19 
   1  -2  -6   21.18    1.10 
  -1  -2   6   20.31    1.10 
   0  -2  -6    9.70    0.66 
   0  -2  -6    9.66    0.54 
   0   2  -6    9.69    0.58 
  -1  -2  -6   34.16    1.72 
  -1   2  -6   34.10    1.63 
  -2  -2  -6   66.91    3.02 
  -2   2  -6   60.60    2.92 
  -2   2  -6   68.26    2.93 
   2   2   6   63.44    3.09 
  -2   2  -6   64.99    3.05 
  -3  -2  -6   19.25    1.09 
  -3  -2  -6   18.84    0.72 
   3   2   6   23.09    1.14 
  -3   2  -6   20.57    1.16 
  -4  -2  -6   46.30    2.29 
  -4   2  -6   49.88    2.38 
  -5  -2  -6    4.05    0.40 
  -5   2  -6    5.92    0.53 
  -6  -2  -6    0.26    0.18 
  -6   2  -6    0.21    0.24 
  -7  -2  -6   19.04    1.06 
  -7  -2  -6   20.07    0.77 
  -7   2  -6   19.49    0.77 
  -7   2  -6   19.69    1.20 
  -8  -2  -6    2.12    0.25 
  -8   2  -6    2.94    0.23 
  -8   2  -6    2.64    0.41 
  -8   2  -6    2.52    0.23 
  -8   2  -6    2.40    0.21 
  -9   2  -6    7.49    0.36 
  -9   2  -6    7.52    0.38 
  -9   2  -6    7.16    0.37 
 -10   2  -6    4.08    0.24 
 -10   2  -6    3.74    0.25 
 -11   2  -6    3.44    0.21 
 -11   3   6    1.79    0.20 
 -11   3   6    1.76    0.19 
 -10   3   6    2.99    0.21 
 -10   3   6    2.87    0.21 
  -9   3   6    4.64    0.28 
  -9   3   6    4.47    0.28 
  -8  -3   6    6.77    0.46 
  -8   3   6    5.82    0.40 
  -8   3   6    7.27    0.31 
  -7  -3   6    2.30    0.23 
  -7   3   6    3.31    0.53 
  -6  -3   6   13.86    0.68 
  -6   3   6   13.42    1.00 
  -5  -3   6   19.63    0.91 
  -5   3   6   19.28    0.91 
  -4   3   6   14.80    0.78 
  -3   3   6   25.75    1.31 
  -2  -3   6    3.68    0.29 
   1  -3  -6   14.16    0.88 
  -1  -3   6   15.28    0.88 
   0  -3  -6   13.56    0.73 
   0  -3  -6   14.53    0.73 
   0  -3  -6   14.62    0.87 
  -1  -3  -6   14.45    0.84 
  -1   3  -6   13.28    0.75 
  -2  -3  -6    0.20    0.16 
  -2  -3  -6    0.34    0.06 
  -2   3  -6    0.28    0.10 
  -2   3  -6    0.43    0.23 
  -2   3  -6    0.28    0.10 
   2   3   6    0.28    0.15 
  -3  -3  -6   19.95    0.70 
  -3  -3  -6   18.98    1.05 
  -3   3  -6   17.83    1.12 
   3   3   6   19.73    1.09 
  -4  -3  -6    0.49    0.15 
  -4   3  -6    0.42    0.21 
  -5  -3  -6    4.50    0.40 
  -5   3  -6    5.41    0.55 
  -6  -3  -6    2.63    0.38 
  -6   3  -6    2.70    0.54 
  -7  -3  -6    2.80    0.29 
  -7   3  -6    2.25    0.42 
  -8   3  -6    3.40    0.24 
  -8   3  -6    2.88    0.22 
  -8   3  -6    3.21    0.25 
  -9   3  -6    0.71    0.13 
  -9   3  -6    0.58    0.13 
  -9   3  -6    0.96    0.16 
 -10   3  -6    1.36    0.17 
 -10   3  -6    1.24    0.17 
 -10   3  -6    1.04    0.15 
 -11   3  -6    0.02    0.08 
 -11   4   6    0.37    0.16 
 -11   4   6    0.29    0.15 
 -10   4   6    0.61    0.11 
 -10   4   6    0.81    0.15 
  -9   4   6    0.89    0.17 
  -9   4   6    0.43    0.11 
  -8  -4   6    2.59    0.31 
  -8   4   6    1.97    0.18 
  -8   4   6    2.28    0.26 
  -8   4   6    2.08    0.27 
  -7  -4   6   27.19    1.24 
  -6  -4   6   28.61    1.30 
  -5  -4   6    7.53    0.42 
  -4  -4   6    7.61    0.44 
  -2  -4   6    7.07    0.40 
  -2  -4   6    6.03    0.38 
  -1  -4   6   32.84    1.56 
   1  -4  -6   29.30    1.56 
   0  -4  -6   40.37    1.87 
  -1  -4  -6   10.01    0.63 
  -1   4  -6    7.06    0.50 
  -2  -4  -6    3.62    0.38 
  -2  -4  -6    3.43    0.16 
  -2   4  -6    3.95    0.30 
   2   4   6    4.10    0.40 
  -2   4  -6    4.06    0.47 
  -3  -4  -6   20.48    1.12 
  -3  -4  -6   20.95    0.74 
  -3   4  -6   19.21    1.20 
   3   4   6   21.50    1.15 
  -4  -4  -6    0.23    0.14 
  -4   4  -6    0.22    0.21 
  -5  -4  -6    3.55    0.34 
  -5   4  -6    3.79    0.48 
  -6  -4  -6    3.19    0.39 
  -6   4  -6    2.87    0.57 
  -7  -4  -6    1.61    0.20 
  -7   4  -6    1.69    0.39 
  -8   4  -6    7.22    0.37 
  -8   4  -6    7.18    0.35 
  -8   4  -6    7.24    0.37 
  -9   4  -6    4.31    0.28 
  -9   4  -6    4.33    0.26 
  -9   4  -6    4.23    0.27 
 -10   4  -6    1.63    0.16 
 -10   4  -6    1.95    0.19 
 -10   4  -6    1.88    0.18 
 -11   4  -6    1.77    0.15 
 -11   4  -6    2.06    0.17 
 -11   5   6    1.84    0.18 
 -11   5   6    1.73    0.19 
 -10   5   6    4.31    0.25 
 -10   5   6    3.91    0.25 
  -9   5   6    3.22    0.24 
  -9   5   6    3.68    0.25 
  -8  -5   6    3.10    0.42 
  -8   5   6    3.11    0.36 
  -8   5   6    2.06    0.28 
  -8   5   6    2.03    0.35 
  -7  -5   6    5.65    0.39 
  -7   5   6    6.82    0.33 
  -7   5   6    7.02    0.34 
  -7   5   6    6.53    0.35 
  -6  -5   6   22.97    1.07 
  -5  -5   6   10.14    0.53 
  -4  -5   6   11.61    0.58 
  -2  -5   6    9.56    0.48 
   1  -5  -6   30.31    1.58 
  -1  -5   6   32.46    1.58 
   0  -5  -6   51.43    2.30 
   0  -5  -6   49.14    2.30 
   0  -5  -6   52.33    2.49 
  -1  -5  -6   17.19    1.01 
  -2  -5  -6   18.45    1.06 
  -2  -5  -6   17.54    0.68 
  -2   5  -6   20.46    0.99 
  -3  -5  -6    9.41    0.34 
  -3  -5  -6    8.71    0.62 
  -3   5  -6    9.83    0.49 
  -3   5  -6    9.56    0.48 
  -3   5  -6    8.18    0.74 
  -4  -5  -6    5.89    0.46 
  -4   5  -6    5.21    0.56 
  -5  -5  -6   10.55    0.67 
  -5   5  -6   11.92    0.89 
  -6  -5  -6    7.48    0.60 
  -6   5  -6    7.81    0.94 
  -7   5  -6   15.44    1.09 
  -7   5  -6   14.67    0.63 
  -7   5  -6   15.15    0.61 
  -7   5  -6   15.28    0.62 
  -8   5  -6    3.56    0.25 
  -8   5  -6    3.38    0.26 
  -9   5  -6    1.04    0.18 
  -9   5  -6    1.07    0.16 
  -9   5  -6    1.00    0.18 
 -10   5  -6    0.02    0.07 
 -10   5  -6   -0.04    0.08 
 -10   5  -6    0.12    0.09 
 -11   5  -6    0.32    0.08 
 -11   5  -6    0.34    0.09 
 -11   6   6    0.80    0.14 
 -11   6   6    0.85    0.15 
 -10   6   6    5.42    0.28 
 -10   6   6    5.39    0.28 
  -9   6   6    3.88    0.25 
  -9   6   6    3.75    0.25 
  -8  -6   6    6.20    0.44 
  -8   6   6    5.80    0.38 
  -8   6   6    5.45    0.32 
  -8   6   6    5.35    0.36 
  -7  -6   6    2.05    0.24 
  -7   6   6    2.02    0.18 
  -7   6   6    2.25    0.21 
  -7   6   6    1.87    0.20 
  -6  -6   6    7.58    0.44 
  -5  -6   6    6.12    0.37 
  -4  -6   6    7.94    0.48 
  -4   6   6   10.48    0.68 
  -1  -6   6   14.85    0.86 
   1  -6  -6   17.11    0.87 
   0  -6   6   28.88    1.42 
   0  -6  -6   23.83    1.42 
  -1  -6  -6   11.78    0.79 
  -2  -6  -6   18.10    1.04 
  -2  -6  -6   17.84    0.65 
  -3  -6  -6   25.47    1.42 
  -3   6  -6   28.57    1.32 
  -4  -6  -6    8.58    0.60 
  -5  -6  -6    0.37    0.15 
  -5   6  -6    0.44    0.27 
  -6  -6  -6    1.23    0.23 
  -6   6  -6    1.47    0.51 
  -7  -6  -6    1.25    0.21 
  -7   6  -6    1.00    0.37 
  -7   6  -6    1.17    0.18 
  -7   6  -6    0.89    0.13 
  -7   6  -6    1.12    0.11 
  -7   6  -6    0.91    0.15 
  -8   6  -6    2.98    0.24 
  -8   6  -6    2.55    0.23 
  -9   6  -6    7.19    0.36 
  -9   6  -6    7.15    0.36 
 -10   6  -6    3.19    0.21 
 -10   6  -6    2.96    0.21 
 -10   6  -6    3.15    0.20 
 -11   6  -6    3.40    0.20 
 -11   6  -6    3.35    0.19 
 -11   7   6    4.69    0.25 
 -11   7   6    4.62    0.25 
 -10   7   6    4.98    0.27 
 -10   7   6    5.10    0.26 
  -9   7   6    3.41    0.17 
  -9   7   6    3.64    0.23 
  -9   7   6    3.66    0.24 
  -8  -7   6   23.95    1.09 
  -8   7   6   21.90    0.91 
  -8   7   6   23.08    0.91 
  -8   7   6   22.51    0.94 
  -7  -7   6    6.16    0.41 
  -7   7   6    6.82    0.35 
  -7   7   6    6.76    0.35 
  -7   7   6    6.90    0.35 
  -6  -7   6   11.50    0.60 
  -5  -7   6    2.32    0.23 
  -4  -7   6   17.54    0.86 
  -3  -7   6   40.49    1.77 
   2  -7  -6   11.07    0.68 
  -2  -7   6   11.36    0.56 
   1  -7  -6    4.90    0.38 
   0  -7   6   22.42    1.23 
   0  -7  -6   26.61    1.39 
  -1  -7  -6   17.36    1.05 
  -2  -7  -6   34.47    1.78 
  -2  -7  -6   34.30    1.23 
  -3  -7  -6   13.11    0.85 
  -3   7  -6   13.88    0.75 
  -4  -7  -6   25.01    1.33 
  -5  -7  -6    4.51    0.39 
  -6  -7  -6    0.81    0.19 
  -7  -7  -6   12.66    0.65 
  -7   7  -6   11.31    0.51 
  -7   7  -6   11.24    0.49 
  -7   7  -6   11.00    0.48 
  -7   7  -6   10.96    0.50 
  -7   7  -6   10.10    0.95 
  -8  -7  -6    1.35    0.22 
  -8   7  -6    1.62    0.20 
  -8   7  -6    1.09    0.13 
  -8   7  -6    1.08    0.18 
  -9   7  -6    1.19    0.17 
  -9   7  -6    0.98    0.17 
 -10   7  -6    3.38    0.22 
 -10   7  -6    3.41    0.22 
 -11   7  -6    0.47    0.08 
 -11   7  -6    0.70    0.11 
 -11   8   6    0.67    0.13 
 -10   8   6    1.36    0.14 
 -10   8   6    1.20    0.14 
  -9   8   6    6.02    0.30 
  -9   8   6    5.80    0.29 
  -9   8   6    5.53    0.25 
  -8  -8   6    7.52    0.48 
  -8   8   6    7.96    0.39 
  -8   8   6    7.66    0.40 
  -8   8   6    7.81    0.41 
  -7  -8   6    0.79    0.18 
  -7   8   6    0.65    0.12 
  -7   8   6    0.87    0.14 
  -7   8   6    0.92    0.16 
  -6  -8   6    3.02    0.27 
  -6   8   6    3.10    0.22 
  -6   8   6    3.19    0.24 
  -5  -8   6   32.18    1.46 
  -4  -8   6    4.67    0.35 
  -3  -8   6    2.28    0.22 
  -2  -8   6    1.03    0.16 
   2  -8  -6    1.39    0.23 
   1  -8  -6   22.88    1.03 
   1  -8  -6   22.56    1.05 
  -1  -8   6   18.85    1.00 
  -1  -8   6   21.76    1.04 
  -1  -8   6   21.77    1.03 
   0  -8  -6    1.48    0.34 
   0  -8   6    1.40    0.23 
   0  -8   6    1.51    0.23 
  -1  -8  -6    4.89    0.51 
  -2  -8  -6   21.91    0.78 
  -2  -8  -6   21.45    1.24 
  -2  -8  -6   21.35    0.78 
  -3  -8  -6   21.18    1.21 
  -4  -8  -6   14.81    0.90 
  -5  -8  -6   13.01    0.78 
  -6  -8  -6    1.72    0.27 
  -6  -8  -6    1.71    0.21 
  -6   8  -6    1.35    0.21 
  -6   8  -6    1.56    0.19 
  -6   8  -6    1.42    0.21 
  -7  -8  -6    1.01    0.19 
  -7   8  -6    0.86    0.15 
  -7   8  -6    0.80    0.12 
  -7   8  -6    0.81    0.14 
  -7   8  -6    1.02    0.14 
  -8  -8  -6    1.73    0.23 
  -8   8  -6    1.80    0.15 
  -8   8  -6    1.95    0.21 
  -8   8  -6    1.85    0.19 
  -9   8  -6    4.26    0.26 
  -9   8  -6    4.52    0.26 
 -10   8  -6    3.86    0.22 
 -10   8  -6    3.95    0.22 
 -11   8  -6    0.45    0.08 
 -10   9   6    9.59    0.40 
 -10   9   6    9.92    0.40 
  -9   9   6    0.76    0.14 
  -9   9   6    0.78    0.08 
  -9   9   6    0.78    0.14 
  -8  -9   6    2.32    0.30 
  -8   9   6    1.83    0.24 
  -8   9   6    1.44    0.24 
  -8   9   6    1.84    0.21 
  -7  -9   6    6.81    0.43 
  -7   9   6    6.82    0.35 
  -7   9   6    7.10    0.37 
  -6  -9   6    5.51    0.38 
  -6   9   6    5.66    0.33 
  -5  -9   6    5.64    0.37 
   5   9  -6    5.68    0.34 
  -4  -9   6    1.29    0.21 
   4   9  -6    2.17    0.25 
  -3  -9   6   23.86    1.11 
   3  -9  -6   24.33    0.90 
  -2  -9   6    8.94    0.48 
  -1  -9   6    9.46    0.53 
   0  -9  -6    2.52    0.42 
   0  -9   6    2.68    0.26 
  -1  -9  -6    4.67    0.52 
  -2  -9  -6    3.57    0.45 
  -2  -9  -6    4.15    0.18 
  -2  -9  -6    4.33    0.18 
  -3  -9  -6    4.16    0.45 
  -3   9  -6    3.70    0.16 
  -4  -9  -6    8.95    0.66 
  -5  -9  -6   22.14    1.19 
  -5  -9  -6   22.13    1.12 
  -6  -9  -6    1.63    0.27 
  -6   9  -6    1.69    0.20 
  -6   9  -6    1.52    0.23 
  -7  -9  -6    6.44    0.42 
  -7   9  -6    5.81    0.30 
  -7   9  -6    6.30    0.34 
  -7   9  -6    6.27    0.34 
  -7   9  -6    6.06    0.32 
  -8  -9  -6    5.06    0.36 
  -8   9  -6    5.40    0.30 
  -8   9  -6    4.82    0.28 
  -8   9  -6    4.67    0.25 
  -9  -9  -6    0.06    0.10 
  -9   9  -6    0.06    0.08 
  -9   9  -6    0.13    0.09 
 -10   9  -6    0.84    0.13 
 -10   9  -6    0.87    0.13 
 -10  10   6    1.81    0.14 
  -9  10   6    6.58    0.28 
  -9  10   6    6.38    0.31 
  -9  10   6    6.57    0.31 
  -8 -10   6    7.74    0.50 
  -8  10   6    8.75    0.41 
  -8  10   6    8.93    0.41 
  -8  10   6    8.02    0.42 
  -7 -10   6    7.29    0.44 
  -7  10   6    7.24    0.38 
  -6 -10   6    2.91    0.27 
  -6  10   6    1.96    0.22 
  -5 -10   6    5.64    0.38 
   5  10  -6    5.50    0.34 
   4 -10  -6    8.91    0.36 
  -4 -10   6    7.06    0.49 
   4  10  -6   10.10    0.50 
  -3 -10   6    1.29    0.19 
   3 -10  -6    1.26    0.08 
   3 -10  -6    1.28    0.08 
   3  10  -6    1.19    0.17 
  -3  10   6    1.08    0.15 
  -2 -10   6    7.88    0.45 
  -1 -10   6    6.32    0.40 
   0 -10  -6    4.31    0.54 
  -1 -10  -6   14.63    0.70 
   1 -10   6   14.04    0.54 
  -1 -10  -6   13.85    0.99 
  -2 -10  -6   33.99    1.84 
  -2 -10  -6   33.66    1.21 
  -2 -10  -6   34.58    1.21 
  -3 -10  -6   19.72    1.21 
  -3  10  -6   20.38    0.75 
  -4 -10  -6    3.01    0.40 
  -5 -10  -6    0.16    0.11 
  -5 -10  -6    0.24    0.17 
  -5  10  -6    0.17    0.10 
  -5  10  -6    0.25    0.10 
  -6 -10  -6    0.09    0.12 
  -6  10  -6    0.10    0.09 
  -6  10  -6    0.07    0.10 
  -7 -10  -6    0.92    0.20 
  -7  10  -6    0.46    0.12 
  -7  10  -6    0.49    0.11 
  -7  10  -6    0.44    0.09 
  -8 -10  -6    1.37    0.23 
  -8  10  -6    1.91    0.16 
  -8  10  -6    1.72    0.19 
  -9 -10  -6    0.53    0.12 
  -9  10  -6    0.37    0.09 
 -10  10  -6    2.47    0.16 
  -9  11   6    3.07    0.19 
  -9  11   6    3.05    0.19 
  -8 -11   6    1.74    0.30 
  -8  11   6    1.21    0.22 
  -8  11   6    1.36    0.25 
  -7 -11   6    2.63    0.26 
  -7  11   6    2.25    0.20 
   6 -11  -6    7.37    0.32 
  -6 -11   6    7.00    0.45 
  -6  11   6    7.70    0.40 
   5 -11  -6    7.97    0.33 
  -5 -11   6    7.43    0.47 
   5  11  -6    8.04    0.43 
   4 -11  -6    1.13    0.08 
   4 -11  -6    1.03    0.07 
  -4 -11   6    0.68    0.22 
   4  11  -6    0.48    0.22 
  -3 -11   6    1.69    0.22 
  -3 -11   6    1.62    0.12 
   3  11  -6    1.32    0.18 
  -3  11   6    1.50    0.18 
  -2 -11   6   16.25    0.77 
   2  11  -6   14.92    0.73 
  -2  11   6   14.75    0.72 
  -1 -11   6    8.94    0.52 
  -1  11   6    8.34    0.49 
   1  11  -6    8.74    0.50 
   0 -11  -6    5.89    0.68 
   0 -11  -6    7.76    0.43 
   0  11  -6    7.48    0.41 
   0  11   6    7.70    0.41 
  -1 -11  -6   11.63    0.89 
  -1 -11  -6   11.10    0.44 
  -1 -11  -6   10.86    0.57 
  -1 -11  -6   11.54    0.44 
   1  11   6   10.69    0.55 
  -1  11  -6   11.21    0.56 
   2 -11   6   16.36    0.62 
  -2 -11  -6   16.06    1.08 
   2  11   6   15.78    0.76 
  -3 -11  -6    0.61    0.27 
  -4 -11  -6    0.78    0.27 
  -4 -11  -6    0.59    0.15 
  -5 -11  -6    3.16    0.29 
  -5  11  -6    3.05    0.23 
  -5  11  -6    2.98    0.23 
  -6 -11  -6    4.85    0.43 
  -6  11  -6    4.80    0.33 
  -6  11  -6    4.47    0.33 
  -7 -11  -6    4.34    0.34 
  -7  11  -6    4.47    0.27 
  -7  11  -6    4.57    0.27 
  -7  11  -6    4.68    0.25 
  -8 -11  -6    7.70    0.45 
  -8  11  -6    7.37    0.34 
  -8  11  -6    7.11    0.34 
  -9 -11  -6    6.39    0.37 
  -9  11  -6    6.09    0.29 
 -10  11  -6    0.19    0.06 
  -9  12   6    0.49    0.09 
  -8  12   6    1.09    0.17 
  -8  12   6    1.11    0.21 
  -7 -12   6   14.70    0.76 
   7 -12  -6   16.31    0.59 
  -7  12   6   15.16    0.67 
   6 -12  -6   11.48    0.51 
  -6 -12   6   14.71    0.70 
   6 -12  -6   14.11    0.51 
  -6  12   6   14.61    0.62 
  -5 -12   6    2.83    0.27 
   5  12  -6    2.56    0.22 
  -4 -12   6    1.41    0.25 
   4  12  -6    2.34    0.29 
  -3 -12   6   24.35    1.14 
  -3  12   6   23.75    1.09 
   3  12  -6   24.80    1.11 
  -2 -12   6    5.23    0.37 
  -2  12   6    5.78    0.34 
   2  12  -6    6.15    0.35 
  -1 -12   6    6.64    0.43 
   1 -12  -6    5.77    0.41 
  -1  12   6    6.36    0.40 
   1  12  -6    6.44    0.41 
   0 -12  -6   18.36    0.91 
   0  12   6   19.76    0.89 
   0  12  -6   18.89    0.89 
  -1 -12  -6   31.31    1.08 
  -1 -12  -6   28.02    1.73 
  -1 -12  -6   29.69    1.35 
  -1 -12  -6   28.71    1.08 
  -1  12  -6   30.14    1.33 
   1  12   6   29.46    1.32 
  -2 -12  -6   17.02    0.94 
   2 -12   6   18.77    0.68 
  -2 -12  -6   18.47    0.88 
  -2 -12  -6   18.84    1.21 
   2  12   6   19.01    0.85 
   3 -12   6   16.33    0.63 
  -3 -12  -6   16.32    1.09 
  -3 -12  -6   16.37    0.86 
  -4 -12  -6    0.61    0.16 
  -5 -12  -6    1.78    0.23 
  -5  12  -6    1.59    0.19 
  -6 -12  -6    1.25    0.24 
  -6  12  -6    1.32    0.19 
  -6  12  -6    1.18    0.19 
  -7 -12  -6    0.19    0.12 
  -7  12  -6    0.19    0.07 
  -7  12  -6    0.21    0.09 
  -7  12  -6    0.30    0.10 
  -8 -12  -6   12.56    0.64 
  -8  12  -6   11.39    0.49 
  -8  12  -6   12.19    0.49 
  -9 -12  -6    2.38    0.20 
  -9  12  -6    2.26    0.16 
  -8  13   6    2.13    0.21 
  -8  13   6    2.14    0.20 
  -7 -13   6    1.48    0.20 
  -7  13   6    1.51    0.16 
   6 -13  -6    2.35    0.25 
  -6 -13   6    2.80    0.26 
  -6  13   6    2.10    0.21 
  -5 -13   6    3.65    0.30 
   5 -13  -6    3.28    0.28 
   5  13  -6    2.92    0.25 
  -4 -13   6   12.03    0.64 
   3 -13  -6    1.01    0.20 
   3 -13  -6    0.92    0.15 
  -3 -13   6    0.78    0.17 
   3  13  -6    0.93    0.17 
   2 -13  -6    4.95    0.30 
  -2 -13   6    4.92    0.35 
   2 -13  -6    4.92    0.35 
  -2  13   6    5.03    0.32 
   2  13  -6    5.24    0.33 
  -1 -13   6   11.42    0.55 
  -1 -13   6    9.96    0.64 
   1 -13  -6   10.95    0.54 
   1  13  -6   10.89    0.61 
  -1  13   6   11.53    0.61 
   0 -13   6    7.27    0.38 
   0 -13  -6    7.24    0.35 
   0 -13  -6    6.61    0.43 
   0  13   6    7.35    0.41 
   0  13  -6    7.26    0.41 
  -1 -13  -6   25.77    1.21 
  -1 -13  -6   22.98    1.58 
  -1 -13  -6   27.66    0.95 
  -1 -13  -6   25.38    1.03 
  -1 -13  -6   25.87    0.95 
   1 -13   6   26.05    1.09 
  -1  13  -6   27.34    1.19 
   1  13   6   26.64    1.18 
  -2 -13  -6    6.24    0.38 
  -2 -13  -6    6.83    0.67 
   2  13   6    5.82    0.34 
  -2  13  -6    5.36    0.26 
  -3 -13  -6    4.16    0.40 
  -4 -13  -6    2.13    0.24 
   4 -13   6    2.00    0.12 
   5 -13   6    0.75    0.09 
  -5 -13  -6    0.71    0.15 
  -5  13  -6    0.62    0.12 
  -6 -13  -6    5.40    0.45 
  -6  13  -6    5.72    0.36 
  -6  13  -6    5.25    0.36 
  -7 -13  -6    8.59    0.50 
  -7  13  -6    8.88    0.39 
  -7  13  -6    8.32    0.40 
  -8 -13  -6    2.24    0.22 
  -8  13  -6    2.45    0.15 
  -8  13  -6    2.45    0.17 
  -8  14   6    1.62    0.15 
  -7  14   6    0.95    0.14 
  -7  14   6    0.77    0.14 
   6 -14  -6    3.01    0.25 
  -6 -14   6    3.12    0.26 
  -6  14   6    3.32    0.23 
  -5 -14   6    4.03    0.31 
   5 -14  -6    4.09    0.30 
   5  14  -6    3.53    0.27 
  -4 -14   6    7.66    0.52 
   4 -14  -6    9.43    0.52 
   3 -14  -6    0.72    0.13 
   3 -14  -6    0.86    0.16 
  -3 -14   6    0.51    0.15 
   3  14  -6    0.60    0.13 
   2 -14  -6    0.24    0.10 
   2 -14  -6    0.29    0.12 
  -2 -14   6    0.41    0.13 
   2  14  -6    1.07    0.17 
  -2  14   6    0.95    0.16 
   1 -14  -6   10.24    0.62 
   1 -14  -6    9.83    0.53 
  -1 -14   6    9.12    0.64 
  -1  14   6   11.68    0.61 
   1  14  -6   11.31    0.61 
   0 -14  -6    4.45    0.24 
   0 -14   6    4.11    0.27 
   0 -14  -6    4.37    0.32 
   0  14   6    4.35    0.29 
   0  14  -6    4.05    0.29 
  -1 -14  -6   20.62    0.97 
  -1 -14  -6   20.25    0.80 
   1 -14   6   20.43    0.87 
  -1  14  -6   20.02    0.94 
   1  14   6   20.18    0.94 
  -2 -14  -6    1.79    0.21 
   2  14   6    1.64    0.18 
  -2  14  -6    1.36    0.11 
  -3 -14  -6    6.65    0.42 
   3  14   6    5.95    0.43 
  -4 -14  -6    2.41    0.26 
  -5 -14  -6    2.98    0.29 
  -5  14  -6    3.98    0.25 
  -6 -14  -6    0.14    0.12 
   6 -14   6    0.23    0.06 
   6 -14   6    0.17    0.06 
  -6  14  -6    0.20    0.10 
  -6  14  -6    0.17    0.09 
  -7 -14  -6    1.27    0.18 
  -7  14  -6    1.35    0.12 
  -7  14  -6    1.55    0.15 
  -8 -14  -6    5.23    0.32 
  -8  14  -6    5.22    0.23 
  -8  15   6    0.12    0.06 
  -7  15   6    0.67    0.11 
  -7  15   6    0.71    0.12 
  -6  15   6    0.16    0.08 
   5 -15  -6    1.27    0.20 
   5 -15  -6    1.15    0.17 
  -5 -15   6    1.11    0.19 
  -4 -15   6    6.04    0.45 
   4 -15  -6    9.37    0.52 
   4 -15  -6    8.55    0.44 
   3 -15  -6   38.37    1.67 
  -3 -15   6   36.97    1.66 
   3 -15  -6   35.96    1.48 
   3  15  -6   35.99    1.62 
   2 -15  -6    5.04    0.35 
  -2 -15   6    4.51    0.35 
   2 -15  -6    4.99    0.29 
   2  15  -6    4.49    0.31 
  -2  15   6    4.92    0.31 
  -1 -15   6    3.73    0.36 
   1 -15  -6    4.43    0.27 
   1 -15  -6    4.03    0.34 
  -1  15   6    3.77    0.32 
   1  15  -6    3.88    0.33 
   0 -15   6    6.91    0.35 
   0 -15  -6    6.38    0.30 
   0 -15  -6    6.64    0.41 
   0 -15  -6    6.92    0.28 
   0 -15  -6    6.52    0.27 
   0  15  -6    6.14    0.38 
   0  15   6    6.38    0.38 
  -1 -15  -6    0.30    0.13 
   1 -15   6    0.38    0.10 
   1  15   6    0.35    0.10 
  -2 -15  -6    1.92    0.22 
   2 -15   6    2.19    0.21 
   2  15   6    1.95    0.20 
  -2  15  -6    2.10    0.12 
   3  15   6    4.95    0.31 
  -4 -15  -6    2.45    0.25 
  -5 -15  -6    2.46    0.24 
  -5  15  -6    1.94    0.19 
  -5  15  -6    1.90    0.20 
  -6 -15  -6    2.50    0.27 
  -6  15  -6    2.52    0.21 
  -6  15  -6    2.83    0.24 
  -7 -15  -6    7.22    0.41 
  -7  15  -6    7.05    0.32 
  -7  15  -6    6.97    0.31 
  -7  16   6    0.08    0.06 
   6 -16  -6    0.21    0.08 
  -6  16   6    0.16    0.08 
   5 -16  -6    7.69    0.38 
   4 -16  -6    9.80    0.57 
   4 -16  -6    8.79    0.48 
  -3 -16   6    1.31    0.22 
   3 -16  -6    1.47    0.21 
   3 -16  -6    1.21    0.16 
   3  16  -6    1.17    0.17 
   2 -16  -6    2.12    0.18 
   2 -16  -6    2.55    0.25 
  -2 -16   6    2.32    0.25 
  -2  16   6    2.48    0.21 
   2  16  -6    2.29    0.22 
   1 -16  -6   11.62    0.49 
  -1 -16   6    9.12    0.62 
   1 -16  -6   11.61    0.61 
  -1  16   6   10.71    0.58 
   0 -16  -6    3.90    0.30 
   0 -16  -6    3.42    0.18 
   0 -16   6    3.85    0.23 
   0  16   6    3.69    0.26 
   0  16  -6    3.84    0.26 
   1 -16   6    1.54    0.18 
  -1 -16  -6    2.11    0.22 
   1  16   6    1.79    0.19 
   2 -16   6    1.05    0.16 
  -2 -16  -6    1.09    0.18 
   2  16   6    1.10    0.16 
   3 -16   6    2.30    0.21 
   3  16   6    2.46    0.20 
  -4 -16  -6    8.57    0.50 
  -4  16  -6    8.56    0.42 
   4  16   6    9.26    0.45 
  -5 -16  -6    6.40    0.38 
  -5  16  -6    6.30    0.32 
  -5  16  -6    5.92    0.31 
  -6 -16  -6    2.15    0.24 
  -6  16  -6    2.11    0.20 
  -6  16  -6    2.15    0.18 
  -7 -16  -6    0.55    0.12 
  -7  16  -6    0.23    0.05 
   6 -17  -6    2.72    0.17 
  -6  17   6    2.55    0.17 
   5 -17  -6    0.78    0.12 
   4 -17  -6    0.08    0.14 
   3 -17  -6   14.07    0.60 
   3 -17  -6   14.17    0.70 
   2 -17  -6    5.91    0.28 
   2 -17  -6    6.42    0.37 
  -2 -17   6    5.25    0.36 
  -2  17   6    5.41    0.33 
   2  17  -6    5.56    0.33 
   1 -17  -6    1.21    0.23 
   1 -17  -6    0.85    0.11 
  -1 -17   6    0.90    0.22 
  -1  17   6    0.80    0.18 
   0 -17  -6    8.96    0.49 
   0  17   6    8.62    0.46 
   1 -17   6    0.96    0.14 
  -1 -17  -6    0.93    0.17 
  -1  17  -6    0.92    0.09 
   1  17   6    0.87    0.15 
  -2 -17  -6    0.46    0.12 
   2 -17   6    0.41    0.09 
   2  17   6    0.37    0.10 
   3 -17   6    0.37    0.09 
   3  17   6    0.33    0.09 
   4 -17   6    3.44    0.22 
  -4  17  -6    3.44    0.24 
  -4  17  -6    3.09    0.21 
   4  17   6    3.44    0.22 
  -5 -17  -6    4.98    0.31 
  -5  17  -6    4.89    0.25 
  -5  17  -6    4.83    0.26 
  -6  17  -6    3.42    0.20 
   5 -18  -6    1.78    0.13 
   4 -18  -6    5.14    0.27 
   3 -18  -6    1.01    0.11 
   2 -18  -6   10.50    0.43 
  -1  18   6    1.48    0.19 
   0  18  -6    5.53    0.25 
   0  18   6    5.95    0.32 
   1 -18   6    4.05    0.22 
   1  18   6    4.10    0.26 
   2 -18   6    5.43    0.28 
   2  18   6    5.35    0.30 
   3 -18   6    6.92    0.33 
   3  18   6    6.68    0.35 
   4 -18   6    4.93    0.25 
  -4  18  -6    4.40    0.24 
  -5  18  -6    1.75    0.13 
   0  19   6    2.86    0.19 
   1  19   6    0.24    0.07 
   2  19   6    4.90    0.27 
 -11   0   7    7.83    0.34 
 -11   0   7    7.92    0.34 
 -10   0   7   12.74    0.57 
 -10   0   7   13.50    0.56 
  -9   0   7    0.02    0.09 
  -9   0   7    0.22    0.10 
  -8   0   7    5.81    0.32 
  -8   0   7    5.57    0.32 
  -8   0   7    5.43    0.37 
  -7   0   7    7.19    0.48 
  -6   0   7   -0.05    0.10 
  -5   0   7    0.17    0.10 
  -4   0   7    5.23    0.31 
  -3   0   7   45.43    2.17 
  -2   0   7    7.81    0.52 
   0   0  -7   55.27    2.64 
  -1   0  -7    0.16    0.08 
  -1   0  -7    0.25    0.09 
  -1   0  -7    0.36    0.20 
  -2   0  -7    0.70    0.23 
  -3   0  -7   34.71    1.79 
  -4   0  -7   21.86    1.26 
  -4   0  -7   22.77    0.81 
  -5   0  -7    0.70    0.26 
  -6   0  -7    1.38    0.33 
  -7   0  -7   32.79    2.00 
  -7   0  -7   32.14    1.28 
  -8   0  -7   27.97    1.07 
  -8   0  -7   28.41    1.08 
  -9   0  -7    9.82    0.45 
 -10   0  -7    0.86    0.16 
 -11   0  -7    9.27    0.39 
 -11  -1   7    1.06    0.13 
 -11   1   7    1.04    0.13 
 -11   1   7    1.08    0.14 
 -10  -1   7    0.89    0.18 
 -10   1   7    0.84    0.18 
 -10   1   7    0.68    0.18 
  -9  -1   7    4.11    0.26 
  -9  -1   7    3.84    0.25 
  -9   1   7    3.94    0.26 
  -9   1   7    4.29    0.26 
  -8  -1   7    5.42    0.35 
  -8  -1   7    4.77    0.29 
  -8  -1   7    4.95    0.29 
  -8   1   7    5.22    0.30 
  -8   1   7    4.81    0.29 
  -7  -1   7    2.58    0.32 
  -7   1   7    3.25    0.34 
  -6  -1   7    5.13    0.33 
  -6   1   7    5.89    0.65 
  -6   1   7    5.27    0.34 
  -5  -1   7    3.14    0.24 
  -5   1   7    2.91    0.24 
  -4  -1   7   11.38    0.56 
  -4   1   7   11.10    0.56 
  -3  -1   7   30.92    1.47 
  -3   1   7   30.81    1.52 
  -2  -1   7   10.06    0.61 
   0  -1  -7   14.81    0.85 
   0   1  -7   16.85    0.89 
  -1  -1  -7    4.66    0.27 
  -1  -1  -7    4.84    0.46 
  -1  -1  -7    4.41    0.27 
  -1   1  -7    4.10    0.31 
  -1   1  -7    3.77    0.46 
  -2  -1  -7   52.52    2.49 
  -2   1  -7   49.27    2.49 
  -3  -1  -7    3.77    0.17 
  -3  -1  -7    3.67    0.42 
  -3   1  -7    3.19    0.40 
  -4  -1  -7    4.59    0.19 
  -4  -1  -7    4.19    0.44 
  -4   1  -7    5.06    0.21 
  -4   1  -7    5.77    0.53 
  -5  -1  -7   34.06    1.78 
  -5   1  -7   34.12    1.81 
  -6  -1  -7   13.68    0.89 
  -6   1  -7   13.71    0.94 
  -7  -1  -7   20.04    1.35 
  -7   1  -7   18.69    1.42 
  -8  -1  -7   14.71    0.62 
  -8   1  -7   14.71    0.63 
  -8   1  -7   15.21    0.61 
  -9  -1  -7   15.20    0.63 
  -9   1  -7   15.42    0.64 
 -10  -1  -7    5.20    0.27 
 -10   1  -7    4.46    0.27 
 -11   1  -7    0.49    0.09 
 -11   2   7    6.25    0.29 
 -11   2   7    6.36    0.29 
 -10  -2   7    3.67    0.26 
 -10   2   7    4.53    0.28 
 -10   2   7    4.25    0.29 
  -9  -2   7    1.91    0.19 
  -9   2   7    1.60    0.19 
  -9   2   7    1.47    0.18 
  -8  -2   7    0.54    0.12 
  -8  -2   7    0.34    0.13 
  -8  -2   7    0.53    0.12 
  -8   2   7    0.39    0.11 
  -8   2   7    0.42    0.12 
  -8   2   7    0.43    0.07 
  -7  -2   7    0.47    0.23 
  -6  -2   7    4.52    0.31 
  -6   2   7    4.44    0.31 
  -5  -2   7    7.56    0.42 
  -5   2   7    7.59    0.42 
  -4  -2   7    8.58    0.44 
  -4   2   7    8.31    0.47 
  -4   2   7    8.15    0.47 
  -4   2   7    8.07    0.44 
  -3  -2   7    6.00    0.35 
  -3  -2   7    6.04    0.35 
  -3   2   7    6.67    0.52 
  -2  -2   7   18.77    0.99 
   1  -2  -7   28.44    1.43 
   0  -2  -7   25.67    1.60 
   0  -2  -7   30.10    1.41 
  -1  -2  -7   29.16    1.51 
  -1   2  -7   27.91    1.39 
  -2  -2  -7   33.57    1.85 
  -2   2  -7   35.23    1.89 
  -2   2  -7   39.50    1.68 
  -2   2  -7   37.13    1.68 
  -3  -2  -7   19.71    0.70 
  -3  -2  -7   18.86    1.09 
  -3   2  -7   17.76    1.14 
  -4  -2  -7    0.94    0.24 
  -4   2  -7    1.69    0.35 
  -5  -2  -7    9.75    0.68 
  -5   2  -7    9.26    0.75 
  -6  -2  -7    0.72    0.23 
  -6   2  -7    0.66    0.26 
  -7  -2  -7    3.84    0.51 
  -7   2  -7    3.92    0.63 
  -8  -2  -7    4.86    0.28 
  -8   2  -7    4.40    0.28 
  -8   2  -7    4.13    0.28 
  -8   2  -7    5.22    0.27 
  -9   2  -7    2.85    0.23 
  -9   2  -7    3.17    0.21 
  -9   2  -7    2.60    0.23 
 -10   2  -7    2.05    0.19 
 -11   2  -7    0.46    0.09 
 -11   3   7    1.76    0.15 
 -11   3   7    1.67    0.15 
 -10   3   7    0.58    0.18 
 -10   3   7    0.58    0.17 
  -9   3   7    1.01    0.17 
  -9   3   7    1.02    0.17 
  -8  -3   7    2.56    0.25 
  -8  -3   7    2.88    0.22 
  -8   3   7    2.28    0.16 
  -8   3   7    2.17    0.21 
  -8   3   7    2.29    0.21 
  -7  -3   7    1.03    0.29 
  -7   3   7    1.68    0.20 
  -6  -3   7    2.55    0.24 
  -5  -3   7   19.56    0.92 
  -4  -3   7   64.46    2.74 
  -4   3   7   64.37    2.96 
  -4   3   7   62.47    2.73 
  -2  -3   7    1.02    0.19 
   1  -3  -7   40.74    1.97 
   0  -3  -7    6.42    0.61 
   0  -3  -7    6.36    0.42 
  -1  -3  -7   29.97    1.61 
  -1   3  -7   31.04    1.51 
  -2  -3  -7    4.57    0.45 
  -2   3  -7    4.15    0.29 
  -2   3  -7    4.56    0.30 
  -2   3  -7    4.13    0.48 
  -3  -3  -7   24.40    0.86 
  -3  -3  -7   24.19    1.31 
  -3   3  -7   22.94    1.38 
  -4  -3  -7    7.14    0.56 
  -4   3  -7    6.54    0.62 
  -5  -3  -7    0.93    0.23 
  -5   3  -7    0.79    0.29 
  -6  -3  -7    6.59    0.53 
  -6   3  -7    7.43    0.69 
  -7  -3  -7    0.50    0.22 
  -7   3  -7    0.57    0.18 
  -7   3  -7    0.70    0.35 
  -7   3  -7    0.79    0.19 
  -8   3  -7    3.56    0.26 
  -8   3  -7    4.22    0.27 
  -9   3  -7    2.79    0.23 
  -9   3  -7    2.60    0.20 
  -9   3  -7    2.42    0.21 
 -10   3  -7    2.73    0.19 
 -10   3  -7    2.63    0.21 
 -11   3  -7    3.05    0.19 
 -11   4   7    0.45    0.08 
 -11   4   7    0.51    0.09 
 -10   4   7    1.98    0.21 
 -10   4   7    1.65    0.20 
  -9   4   7    5.50    0.30 
  -9   4   7    5.24    0.30 
  -8  -4   7    0.72    0.15 
  -8   4   7    0.82    0.13 
  -8   4   7    1.21    0.18 
  -8   4   7    0.80    0.12 
  -7  -4   7   11.62    0.67 
  -7   4   7   12.60    0.56 
  -6  -4   7    2.55    0.24 
  -5  -4   7    3.61    0.27 
  -4  -4   7    5.36    0.32 
  -4   4   7    4.93    0.38 
  -3  -4   7   20.94    0.97 
  -2  -4   7   33.76    1.62 
  -1  -4   7    2.73    0.30 
   1  -4  -7    3.28    0.30 
   0  -4  -7    0.69    0.21 
   0  -4  -7    1.37    0.47 
   0  -4  -7    1.06    0.22 
  -1  -4  -7   11.19    0.79 
  -1   4  -7   12.74    0.72 
  -2  -4  -7    0.84    0.24 
  -2  -4  -7    1.20    0.09 
  -2   4  -7    1.01    0.18 
  -3  -4  -7    0.32    0.05 
  -3  -4  -7    0.30    0.19 
  -3   4  -7    0.43    0.25 
  -4  -4  -7    1.97    0.31 
  -4   4  -7    1.55    0.39 
  -5  -4  -7    9.29    0.67 
  -5   4  -7   11.54    0.86 
  -6  -4  -7    6.89    0.52 
  -6   4  -7    7.11    0.70 
  -7  -4  -7    0.89    0.25 
  -7   4  -7    1.02    0.19 
  -7   4  -7    0.96    0.42 
  -7   4  -7    1.25    0.21 
  -8   4  -7   10.80    0.48 
  -8   4  -7   10.43    0.48 
  -9   4  -7    1.80    0.20 
  -9   4  -7    1.74    0.19 
 -10   4  -7    1.29    0.15 
 -10   4  -7    1.20    0.16 
 -11   4  -7    3.90    0.21 
 -11   4  -7    3.40    0.19 
 -11   5   7    2.41    0.16 
 -11   5   7    2.45    0.16 
 -10   5   7    0.59    0.17 
 -10   5   7    0.51    0.17 
  -9   5   7    2.33    0.21 
  -9   5   7    2.11    0.20 
  -8  -5   7    6.20    0.39 
  -8   5   7    6.08    0.33 
  -8   5   7    5.97    0.30 
  -8   5   7    6.45    0.33 
  -7  -5   7   10.16    0.60 
  -7   5   7   11.18    0.50 
  -6  -5   7   25.89    1.20 
  -5  -5   7   39.20    1.74 
  -4  -5   7   21.85    1.01 
  -4   5   7   21.69    1.18 
  -3  -5   7    2.88    0.32 
  -2  -5   7    4.72    0.29 
  -2  -5   7    3.88    0.28 
  -1  -5   7    9.21    0.59 
   1  -5  -7   10.02    0.58 
   0  -5  -7   22.74    1.38 
  -1  -5  -7    5.74    0.54 
  -2  -5  -7   10.84    0.38 
  -2  -5  -7   10.08    0.71 
  -2   5  -7    8.21    0.58 
  -3  -5  -7   21.70    0.78 
  -3  -5  -7   22.38    1.24 
  -4  -5  -7   12.02    0.77 
  -4   5  -7   10.86    0.90 
  -5  -5  -7    9.64    0.66 
  -5   5  -7    9.69    0.85 
  -6  -5  -7    2.75    0.32 
  -6   5  -7    1.88    0.46 
  -6   5  -7    3.00    0.20 
  -7   5  -7    2.34    0.58 
  -7   5  -7    2.41    0.26 
  -7   5  -7    2.41    0.25 
  -7   5  -7    2.20    0.19 
  -8   5  -7    1.55    0.20 
  -8   5  -7    1.67    0.20 
  -9   5  -7    0.18    0.10 
  -9   5  -7    0.06    0.09 
 -10   5  -7    0.58    0.10 
 -10   5  -7    0.58    0.10 
 -11   5  -7    1.32    0.13 
 -11   5  -7    1.40    0.14 
 -11   6   7    1.67    0.13 
 -11   6   7    1.68    0.13 
 -10   6   7    3.39    0.24 
 -10   6   7    3.24    0.24 
  -9   6   7    7.94    0.38 
  -9   6   7    8.11    0.38 
  -8  -6   7    3.48    0.29 
  -8   6   7    3.47    0.22 
  -8   6   7    3.92    0.25 
  -8   6   7    3.85    0.25 
  -7  -6   7   12.93    0.71 
  -7   6   7   12.55    0.60 
  -6  -6   7    3.99    0.30 
  -5  -6   7   38.92    1.73 
  -4  -6   7   13.94    0.69 
  -3  -6   7   10.87    0.59 
  -2  -6   7   14.45    0.69 
   1  -6  -7   25.29    1.25 
  -1  -6   7   25.11    1.27 
   0  -6  -7   29.65    1.73 
  -1  -6  -7   75.38    3.60 
  -2  -6  -7    8.31    0.33 
  -2  -6  -7    9.41    0.68 
  -2   6  -7    8.41    0.55 
  -3  -6  -7    4.40    0.46 
  -3   6  -7    5.08    0.30 
  -4  -6  -7    4.46    0.44 
  -5  -6  -7    0.18    0.16 
  -6  -6  -7    0.47    0.16 
  -6  -6  -7    0.40    0.14 
  -6   6  -7    0.18    0.09 
  -6   6  -7    0.00    0.24 
  -7  -6  -7    1.85    0.27 
  -7   6  -7    1.76    0.18 
  -7   6  -7    1.94    0.23 
  -7   6  -7    2.09    0.24 
  -7   6  -7    1.86    0.13 
  -8   6  -7   16.77    0.67 
  -8   6  -7   16.39    0.68 
  -9   6  -7    1.82    0.19 
  -9   6  -7    1.81    0.19 
 -10   6  -7    2.47    0.19 
 -10   6  -7    3.09    0.20 
 -11   6  -7    0.42    0.08 
 -11   6  -7    0.60    0.11 
 -11   7   7    0.11    0.06 
 -10   7   7    1.11    0.18 
 -10   7   7    1.14    0.17 
  -9   7   7    0.24    0.09 
  -9   7   7    0.24    0.09 
  -8  -7   7    2.05    0.23 
  -8   7   7    1.77    0.16 
  -8   7   7    1.55    0.19 
  -8   7   7    1.52    0.18 
  -7  -7   7    8.34    0.59 
  -7   7   7    8.30    0.47 
  -7   7   7    6.23    0.47 
  -7   7   7    8.91    0.48 
  -6  -7   7    5.43    0.37 
  -6   7   7    6.08    0.31 
  -6   7   7    5.34    0.32 
  -6   7   7    5.32    0.31 
  -5  -7   7    8.32    0.47 
  -4  -7   7    2.28    0.22 
  -3  -7   7   26.00    1.21 
  -2  -7   7    2.29    0.21 
   2  -7  -7    2.13    0.11 
   2  -7  -7    2.23    0.28 
   1  -7  -7    7.36    0.43 
  -1  -7   7    7.97    0.48 
  -1  -7   7    6.86    0.39 
  -1  -7   7    7.20    0.46 
   1  -7  -7    7.33    0.42 
   0  -7  -7   12.11    1.07 
  -1  -7  -7    4.26    0.49 
  -2  -7  -7   21.30    1.26 
  -2  -7  -7   20.91    0.77 
  -2   7  -7   21.16    1.13 
  -3  -7  -7    3.81    0.44 
  -4  -7  -7    4.46    0.46 
  -5  -7  -7    9.65    0.67 
  -5   7  -7   10.07    0.46 
  -6  -7  -7    0.83    0.18 
  -6  -7  -7    1.16    0.20 
  -6   7  -7    0.73    0.13 
  -6   7  -7    0.60    0.13 
  -6   7  -7    0.82    0.15 
  -6   7  -7    0.78    0.13 
  -7  -7  -7    4.63    0.42 
  -7   7  -7    4.54    0.30 
  -7   7  -7    5.10    0.35 
  -7   7  -7    4.83    0.34 
  -7   7  -7    4.79    0.26 
  -8  -7  -7    0.13    0.11 
  -8   7  -7    0.23    0.10 
  -8   7  -7    0.04    0.10 
  -9   7  -7    2.32    0.20 
  -9   7  -7    2.44    0.20 
 -10   7  -7    7.02    0.32 
 -10   7  -7    6.65    0.32 
 -10   8   7    1.75    0.18 
 -10   8   7    1.63    0.17 
  -9   8   7   -0.04    0.07 
  -9   8   7   -0.16    0.07 
  -8  -8   7    3.98    0.30 
  -8   8   7    3.40    0.24 
  -8   8   7    3.66    0.22 
  -8   8   7    3.89    0.24 
  -7  -8   7    4.13    0.39 
  -7   8   7    3.93    0.32 
  -7   8   7    4.28    0.31 
  -7   8   7    4.04    0.32 
  -6  -8   7    0.51    0.14 
  -6   8   7    0.68    0.12 
  -6   8   7    0.81    0.16 
  -5  -8   7    7.11    0.43 
  -4  -8   7   27.96    1.28 
  -3  -8   7   12.64    0.66 
   3  -8  -7   12.53    0.49 
  -2  -8   7    3.58    0.26 
  -1  -8   7    3.00    0.24 
  -1  -8   7    3.26    0.23 
   0  -8  -7   22.62    1.55 
   0  -8   7   23.73    0.89 
   0  -8   7   24.36    1.30 
  -1  -8  -7    4.45    0.52 
  -2  -8  -7    2.64    0.13 
  -2  -8  -7    2.87    0.43 
  -2  -8  -7    2.62    0.13 
  -2   8  -7    2.15    0.13 
  -3  -8  -7    3.70    0.45 
  -4  -8  -7   31.74    1.68 
  -5  -8  -7    6.11    0.41 
  -5  -8  -7    5.59    0.49 
  -5   8  -7    5.99    0.32 
  -6  -8  -7    4.39    0.35 
  -6  -8  -7    4.18    0.34 
  -6   8  -7    4.74    0.26 
  -6   8  -7    4.20    0.28 
  -6   8  -7    4.77    0.28 
  -6   8  -7    5.24    0.29 
  -7  -8  -7    8.43    0.59 
  -7   8  -7    7.93    0.46 
  -7   8  -7    8.11    0.44 
  -7   8  -7    8.19    0.40 
  -7   8  -7    8.15    0.47 
  -8  -8  -7    4.46    0.32 
  -8   8  -7    3.87    0.26 
  -8   8  -7    4.04    0.21 
  -8   8  -7    4.65    0.27 
  -9   8  -7    3.75    0.23 
  -9   8  -7    3.78    0.23 
 -10   8  -7    0.83    0.12 
 -10   8  -7    0.87    0.13 
 -10   9   7    0.42    0.14 
  -9   9   7    1.52    0.16 
  -9   9   7    1.36    0.14 
  -8  -9   7    9.67    0.53 
  -8   9   7    9.89    0.44 
  -8   9   7    9.85    0.43 
  -7  -9   7    4.43    0.37 
  -7   9   7    3.74    0.28 
  -7   9   7    3.28    0.28 
  -6  -9   7    0.09    0.11 
  -6   9   7    0.26    0.10 
  -5  -9   7    4.28    0.32 
   4  -9  -7    2.84    0.16 
  -4  -9   7    3.29    0.27 
   3  -9  -7    0.96    0.07 
  -3  -9   7    0.81    0.25 
  -2  -9   7    0.50    0.13 
  -1  -9   7    3.16    0.24 
   0  -9  -7    2.32    0.59 
   1  -9   7    6.83    0.29 
  -1  -9  -7    7.09    0.67 
  -2  -9  -7   11.13    0.40 
  -2  -9  -7    9.52    0.80 
  -2  -9  -7   10.88    0.40 
  -2   9  -7   10.01    0.42 
  -3  -9  -7    8.46    0.70 
  -4  -9  -7    4.14    0.46 
  -5  -9  -7    0.21    0.16 
  -5  -9  -7    0.22    0.12 
  -5   9  -7    0.26    0.10 
  -5   9  -7    0.28    0.11 
  -5   9  -7    0.08    0.09 
  -6  -9  -7    4.81    0.35 
  -6   9  -7    4.38    0.28 
  -6   9  -7    4.51    0.26 
  -6   9  -7    4.14    0.27 
  -7  -9  -7    4.18    0.39 
  -7   9  -7    4.66    0.27 
  -7   9  -7    4.18    0.31 
  -7   9  -7    4.35    0.30 
  -7   9  -7    4.41    0.33 
  -8  -9  -7    0.33    0.13 
  -8   9  -7    0.31    0.10 
  -8   9  -7    0.40    0.08 
  -8   9  -7    0.61    0.12 
  -9  -9  -7    4.71    0.31 
  -9   9  -7    4.79    0.26 
  -9   9  -7    4.59    0.25 
 -10   9  -7    1.89    0.14 
 -10   9  -7    2.08    0.15 
  -9  10   7    5.09    0.25 
  -8 -10   7    1.96    0.22 
  -8  10   7    2.32    0.17 
  -8  10   7    1.80    0.17 
  -7 -10   7    0.34    0.26 
  -7  10   7    0.35    0.20 
  -6 -10   7    3.24    0.28 
  -6  10   7    2.99    0.24 
  -5 -10   7    8.43    0.50 
   5 -10  -7    8.64    0.36 
   4 -10  -7   15.70    0.62 
  -4 -10   7   16.55    0.81 
   4  10  -7   16.90    0.78 
  -3 -10   7    4.91    0.41 
  -2 -10   7    5.14    0.36 
  -2  10   7    5.92    0.34 
   2  10  -7    6.24    0.35 
  -1 -10   7    3.92    0.29 
  -1  10   7    4.35    0.28 
   1  10  -7    4.65    0.29 
   0  10   7   21.41    1.00 
  -1 -10  -7   24.50    1.13 
  -1 -10  -7   25.33    1.52 
   1 -10   7   25.04    0.91 
   1  10   7   23.86    1.10 
  -2 -10  -7    7.09    0.27 
  -2 -10  -7    7.38    0.68 
  -2 -10  -7    7.24    0.27 
   2  10   7    6.90    0.38 
  -2  10  -7    6.71    0.30 
  -3 -10  -7    2.32    0.41 
  -4 -10  -7    2.14    0.25 
  -4 -10  -7    1.94    0.36 
  -5 -10  -7    0.83    0.21 
  -5  10  -7    1.02    0.17 
  -5  10  -7    1.08    0.17 
  -5  10  -7    0.96    0.14 
  -6 -10  -7    3.56    0.32 
  -6  10  -7    4.10    0.26 
  -6  10  -7    4.36    0.27 
  -6  10  -7    4.57    0.26 
  -7 -10  -7    7.66    0.56 
  -7  10  -7    8.03    0.45 
  -7  10  -7    7.99    0.43 
  -7  10  -7    8.06    0.40 
  -8 -10  -7    2.89    0.25 
  -8  10  -7    2.33    0.20 
  -8  10  -7    2.52    0.16 
  -9 -10  -7    0.99    0.16 
  -9  10  -7    0.60    0.10 
 -10  10  -7    0.31    0.07 
   8 -11  -7    3.97    0.17 
  -8  11   7    4.19    0.23 
  -7 -11   7    9.23    0.55 
   7 -11  -7    9.22    0.37 
  -7  11   7    9.18    0.46 
   6 -11  -7    3.99    0.19 
  -6 -11   7    4.42    0.33 
  -6  11   7    4.23    0.29 
   5 -11  -7    7.78    0.30 
  -5 -11   7    8.22    0.47 
   5 -11  -7    7.34    0.30 
  -4 -11   7   32.57    1.50 
   4  11  -7   33.17    1.46 
  -3 -11   7    2.48    0.30 
  -2 -11   7    1.12    0.19 
   2  11  -7    1.19    0.17 
  -2  11   7    0.92    0.16 
  -1 -11   7    1.99    0.22 
  -1  11   7    2.25    0.20 
   1  11  -7    1.71    0.20 
   0  11   7    6.91    0.41 
  -1 -11  -7    4.84    0.62 
  -1 -11  -7    5.21    0.33 
  -1 -11  -7    5.39    0.24 
  -1 -11  -7    5.36    0.24 
   1  11   7    5.43    0.32 
  -2 -11  -7    1.05    0.33 
   2 -11   7    0.99    0.08 
  -2 -11  -7    0.94    0.19 
  -2  11  -7    0.88    0.09 
   2  11   7    1.11    0.16 
  -3 -11  -7   56.37    2.68 
  -3 -11  -7   58.31    2.90 
  -4 -11  -7   10.69    0.85 
  -4 -11  -7   10.67    0.62 
  -4  11  -7   11.22    0.53 
  -5 -11  -7    0.55    0.15 
  -5  11  -7    0.09    0.09 
  -5  11  -7    0.23    0.10 
  -5  11  -7    0.10    0.09 
  -6 -11  -7    9.46    0.55 
  -6  11  -7    9.50    0.45 
  -6  11  -7    9.19    0.43 
  -6  11  -7    9.50    0.44 
  -7 -11  -7    0.25    0.13 
  -7  11  -7    0.25    0.08 
  -7  11  -7    0.37    0.14 
  -7  11  -7    0.33    0.12 
  -8 -11  -7    0.76    0.17 
  -8  11  -7    0.12    0.08 
  -8  11  -7    0.48    0.08 
  -9 -11  -7    0.82    0.14 
  -9  11  -7    0.86    0.13 
  -8  12   7    0.41    0.08 
  -8  12   7    0.30    0.09 
  -7 -12   7    2.09    0.28 
  -7  12   7    2.00    0.22 
  -6 -12   7    2.99    0.27 
  -6  12   7    3.10    0.24 
  -5 -12   7    0.63    0.15 
  -4 -12   7    2.50    0.27 
   4  12  -7    2.75    0.23 
  -3 -12   7    7.05    0.46 
   3 -12  -7    5.84    0.36 
  -2 -12   7   10.74    0.57 
   2 -12  -7    9.83    0.49 
  -2  12   7   10.71    0.53 
   2  12  -7   10.17    0.54 
   1 -12  -7    0.10    0.08 
  -1 -12   7    0.07    0.11 
  -1 -12   7    0.14    0.09 
   1  12  -7    0.21    0.10 
  -1  12   7    0.18    0.09 
   0 -12   7    0.83    0.19 
   0 -12  -7    0.68    0.15 
   0  12   7    0.82    0.19 
  -1 -12  -7    5.63    0.37 
  -1 -12  -7    6.04    0.25 
  -1 -12  -7    5.27    0.66 
  -1 -12  -7    5.94    0.28 
  -1 -12  -7    6.42    0.26 
   1  12   7    5.36    0.34 
  -2 -12  -7    8.54    0.50 
  -2 -12  -7    7.95    0.76 
  -2  12  -7    7.93    0.34 
   2  12   7    8.00    0.43 
  -3 -12  -7    6.15    0.42 
   3 -12   7    6.38    0.27 
  -4 -12  -7    5.59    0.38 
  -4  12  -7    5.22    0.33 
  -5 -12  -7    9.42    0.56 
  -5  12  -7    8.77    0.45 
  -5  12  -7    9.70    0.46 
  -6 -12  -7    5.15    0.36 
  -6  12  -7    4.42    0.27 
  -6  12  -7    4.64    0.28 
  -6  12  -7    4.58    0.27 
  -7 -12  -7    0.37    0.18 
  -7  12  -7    0.38    0.11 
  -7  12  -7    0.31    0.10 
  -7  12  -7    0.39    0.11 
  -8 -12  -7    0.95    0.17 
  -8  12  -7    0.69    0.10 
  -8  12  -7    0.78    0.13 
  -9 -12  -7    0.59    0.13 
  -9  12  -7    0.28    0.07 
  -8  13   7    1.46    0.12 
  -7  13   7    2.60    0.22 
   6 -13  -7    5.94    0.38 
  -6 -13   7    5.91    0.38 
  -6  13   7    6.04    0.33 
  -5 -13   7    6.70    0.42 
  -4 -13   7   12.10    0.64 
   4 -13  -7   11.63    0.56 
  -3 -13   7    1.32    0.36 
   3 -13  -7    1.00    0.24 
   2 -13  -7    0.60    0.12 
   2 -13  -7    0.53    0.14 
  -2 -13   7    0.80    0.16 
   2  13  -7    0.70    0.16 
  -2  13   7    0.71    0.13 
   1 -13  -7    9.87    0.46 
   1 -13  -7    9.97    0.55 
  -1 -13   7    9.99    0.47 
  -1 -13   7    9.85    0.54 
   1  13  -7    9.95    0.52 
  -1  13   7    9.84    0.52 
   0 -13  -7    4.07    0.25 
   0 -13   7    4.11    0.30 
   0 -13  -7    3.59    0.33 
   0  13   7    3.96    0.31 
  -1 -13  -7    2.71    0.13 
  -1 -13  -7    2.62    0.25 
   1 -13   7    2.22    0.22 
  -1 -13  -7    2.57    0.15 
  -1 -13  -7    2.54    0.12 
   1  13   7    2.40    0.22 
   2  13   7   14.42    0.70 
  -2  13  -7   14.49    0.56 
  -3 -13  -7    6.01    0.42 
   3  13   7    6.24    0.36 
   4 -13   7    2.99    0.14 
  -4 -13  -7    2.78    0.28 
  -4  13  -7    2.99    0.33 
  -4  13  -7    2.97    0.25 
   5 -13   7    1.43    0.11 
  -5 -13  -7    1.45    0.22 
  -5  13  -7    1.99    0.20 
  -5  13  -7    1.99    0.19 
   6 -13   7    4.73    0.21 
  -6 -13  -7    4.71    0.34 
  -6  13  -7    4.21    0.27 
  -6  13  -7    4.33    0.25 
  -7 -13  -7    2.31    0.27 
   7 -13   7    2.34    0.15 
  -7  13  -7    2.48    0.21 
  -7  13  -7    2.53    0.18 
  -7  13  -7    2.48    0.20 
  -8 -13  -7    3.38    0.23 
  -8  13  -7    2.71    0.15 
  -8  13  -7    2.89    0.17 
  -8  14   7    3.86    0.18 
  -7  14   7    0.12    0.16 
  -6 -14   7    1.19    0.18 
  -6  14   7    1.06    0.16 
  -5 -14   7    7.08    0.44 
   5 -14  -7    8.24    0.45 
  -4 -14   7    3.76    0.32 
   4 -14  -7    4.27    0.28 
   4 -14  -7    4.50    0.33 
   3 -14  -7   12.41    0.70 
   3 -14  -7   13.93    0.62 
  -2 -14   7    4.69    0.34 
   2 -14  -7    4.52    0.28 
   2 -14  -7    5.01    0.35 
  -2  14   7    4.50    0.30 
   2  14  -7    4.84    0.31 
   1 -14  -7    1.59    0.22 
  -1 -14   7    1.02    0.21 
   1 -14  -7    1.29    0.16 
   1  14  -7    2.00    0.20 
  -1  14   7    2.03    0.19 
   0 -14  -7    3.17    0.33 
   0 -14  -7    3.25    0.23 
   0  14   7    3.72    0.31 
  -1 -14  -7   11.80    0.63 
   1 -14   7   11.74    0.57 
   1  14   7   12.94    0.61 
  -2  14  -7   24.33    0.89 
   2  14   7   23.77    1.09 
  -3 -14  -7    6.88    0.43 
   3  14   7    6.29    0.37 
  -4 -14  -7    6.35    0.41 
  -4  14  -7    5.74    0.34 
  -4  14  -7    5.88    0.40 
  -5 -14  -7    8.33    0.50 
  -5  14  -7    9.04    0.42 
  -5  14  -7    8.02    0.41 
  -6 -14  -7    1.37    0.19 
  -6  14  -7    1.12    0.16 
  -6  14  -7    1.01    0.14 
  -7 -14  -7    0.71    0.17 
  -7  14  -7    0.77    0.13 
  -7  14  -7    0.86    0.10 
  -8 -14  -7    2.30    0.18 
  -7  15   7    0.52    0.14 
   6 -15  -7    5.68    0.30 
  -6  15   7    5.74    0.30 
  -5 -15   7    4.80    0.33 
   5 -15  -7    5.04    0.28 
   4 -15  -7    0.57    0.11 
   4 -15  -7    0.40    0.12 
  -4 -15   7    0.24    0.12 
   3 -15  -7    3.11    0.26 
   3 -15  -7    2.47    0.30 
  -3 -15   7    3.88    0.37 
   2 -15  -7    3.48    0.22 
   2 -15  -7    3.30    0.29 
  -2 -15   7    3.22    0.28 
  -2  15   7    2.97    0.23 
   1 -15  -7    7.46    0.36 
   1 -15  -7    7.76    0.46 
  -1 -15   7    7.40    0.47 
  -1  15   7    7.83    0.42 
   0 -15  -7    1.19    0.13 
   0 -15  -7    1.23    0.25 
   0  15   7    1.02    0.22 
  -1 -15  -7   12.25    0.65 
   1 -15   7   12.68    0.58 
  -1  15  -7   13.39    0.51 
   1  15   7   12.99    0.63 
   2 -15   7   11.07    0.50 
   2  15   7    9.76    0.52 
  -3 -15  -7    2.79    0.26 
   3  15   7    2.21    0.20 
  -4 -15  -7    3.37    0.29 
   4  15   7    3.32    0.23 
  -4  15  -7    3.49    0.24 
  -4  15  -7    3.94    0.34 
  -5 -15  -7    0.73    0.17 
  -5  15  -7    1.07    0.14 
  -5  15  -7    0.77    0.12 
  -6 -15  -7    1.68    0.19 
  -6  15  -7    1.98    0.17 
  -6  15  -7    1.81    0.15 
  -7 -15  -7    3.71    0.28 
  -7  15  -7    3.30    0.16 
  -7  15  -7    3.52    0.21 
   6 -16  -7    0.10    0.06 
  -6  16   7    0.17    0.06 
  -6  16   7    0.18    0.07 
   5 -16  -7    0.91    0.14 
   4 -16  -7    4.21    0.25 
   3 -16  -7   10.86    0.58 
   3 -16  -7   10.54    0.49 
   2 -16  -7    3.09    0.20 
  -2 -16   7    3.20    0.27 
   2 -16  -7    3.27    0.27 
  -2  16   7    2.79    0.22 
   1 -16  -7    2.14    0.15 
   1 -16  -7    2.16    0.23 
  -1  16   7    2.17    0.20 
   0 -16  -7    1.75    0.28 
   0  16   7    1.61    0.25 
  -1 -16  -7    5.26    0.34 
   1 -16   7    5.02    0.30 
   1  16   7    5.16    0.32 
  -1  16  -7    5.61    0.23 
   2 -16   7    0.32    0.10 
   2  16   7    0.19    0.09 
   3 -16   7    1.53    0.18 
   3  16   7    1.80    0.17 
  -4 -16  -7    8.07    0.46 
   4  16   7    8.40    0.41 
  -4  16  -7    7.39    0.38 
  -4  16  -7    8.35    0.44 
  -5 -16  -7    4.51    0.29 
  -5  16  -7    4.29    0.24 
  -5  16  -7    4.12    0.25 
  -6 -16  -7    1.22    0.15 
  -6  16  -7    1.30    0.11 
  -6  16  -7    1.22    0.13 
   5 -17  -7    8.77    0.38 
   4 -17  -7    0.46    0.08 
   3 -17  -7    0.50    0.14 
   2 -17  -7    0.05    0.05 
   1 -17  -7    2.55    0.23 
  -1  17   7    2.08    0.19 
   0 -17  -7    1.52    0.24 
   0  17  -7    2.31    0.15 
   0  17   7    2.27    0.23 
   1 -17   7    5.02    0.28 
   1  17   7    5.69    0.32 
   2 -17   7    9.49    0.45 
   2  17   7   10.31    0.49 
   3 -17   7    5.89    0.30 
   3  17   7    5.71    0.32 
   4 -17   7    2.35    0.18 
   4  17   7    2.54    0.18 
  -4  17  -7    2.93    0.19 
  -4  17  -7    3.01    0.27 
  -5 -17  -7    1.30    0.15 
  -5  17  -7    1.69    0.14 
  -5  17  -7    1.64    0.14 
   4 -18  -7    0.62    0.08 
   3 -18  -7    3.33    0.16 
  -1  18   7    3.77    0.23 
   0  18   7    3.15    0.24 
   1  18   7    6.61    0.35 
   2  18   7    2.98    0.20 
   3 -18   7    0.27    0.07 
   3  18   7    0.15    0.07 
   4 -18   7    0.80    0.11 
  -4  18  -7    0.57    0.11 
 -11   0   8    2.80    0.17 
 -11   0   8    2.64    0.17 
 -10   0   8    7.30    0.34 
 -10   0   8    7.53    0.34 
  -9   0   8    2.25    0.24 
  -9   0   8    2.21    0.24 
  -8   0   8    0.22    0.10 
  -8   0   8    0.25    0.11 
  -7   0   8    0.48    0.14 
  -7   0   8    0.55    0.11 
  -6   0   8    2.96    0.31 
  -5   0   8    0.38    0.12 
  -4   0   8    0.40    0.11 
  -3   0   8   10.16    0.53 
  -3   0   8   11.27    0.64 
   0   0  -8    0.58    0.15 
  -1   0  -8    9.97    0.55 
  -1   0  -8   10.34    0.56 
  -3   0  -8    0.01    0.18 
  -4   0  -8    3.34    0.16 
  -5   0  -8    3.28    0.45 
  -6   0  -8    0.43    0.24 
  -7   0  -8   44.91    1.65 
  -7   0  -8   45.46    2.31 
  -8   0  -8   15.24    0.71 
  -9   0  -8   14.76    0.61 
 -10   0  -8    1.25    0.17 
 -11   0  -8    0.81    0.13 
 -11  -1   8    1.10    0.12 
 -11   1   8    0.89    0.12 
 -11   1   8    1.09    0.12 
 -10  -1   8    2.77    0.19 
 -10  -1   8    2.76    0.19 
 -10   1   8    2.73    0.19 
 -10   1   8    2.75    0.20 
  -9  -1   8   12.45    0.54 
  -9  -1   8   11.96    0.56 
  -9   1   8   12.08    0.56 
  -9   1   8   12.94    0.55 
  -8  -1   8   25.07    1.16 
  -8  -1   8   24.59    0.96 
  -8  -1   8   24.64    0.95 
  -8   1   8   24.59    0.96 
  -8   1   8   25.14    0.96 
  -7  -1   8    3.01    0.27 
  -7  -1   8    2.90    0.17 
  -7   1   8    2.99    0.19 
  -7   1   8    2.61    0.26 
  -6  -1   8    0.23    0.22 
  -6   1   8    0.12    0.22 
  -5  -1   8    8.48    0.46 
  -5   1   8    7.99    0.46 
  -4  -1   8    0.50    0.12 
  -4   1   8    0.65    0.13 
  -3  -1   8    0.25    0.10 
  -3  -1   8    0.45    0.14 
  -3   1   8    0.35    0.10 
  -3   1   8    0.30    0.13 
  -2  -1   8   18.06    0.99 
   0  -1  -8    6.38    0.41 
   0   1  -8    5.26    0.42 
  -1  -1  -8    4.06    0.60 
  -1   1  -8    4.85    0.38 
  -2  -1  -8   14.37    0.95 
  -2   1  -8   14.61    0.97 
  -3  -1  -8    6.69    0.29 
  -3  -1  -8    7.54    0.62 
  -3   1  -8    7.28    0.63 
  -4  -1  -8    5.08    0.52 
  -4  -1  -8    5.32    0.21 
  -4   1  -8    5.14    0.23 
  -4   1  -8    5.01    0.55 
  -5  -1  -8    0.89    0.29 
  -5   1  -8    0.57    0.26 
  -6  -1  -8    8.82    0.69 
  -6   1  -8    7.77    0.72 
  -7  -1  -8    3.42    0.44 
  -7  -1  -8    3.62    0.26 
  -7   1  -8    3.86    0.25 
  -7   1  -8    4.39    0.52 
  -8  -1  -8    0.54    0.19 
  -8   1  -8    0.55    0.19 
  -9  -1  -8    0.32    0.11 
  -9   1  -8    0.24    0.11 
 -10  -1  -8    0.85    0.15 
 -10   1  -8    0.68    0.12 
 -11   1  -8    1.08    0.13 
 -11   2   8    5.23    0.24 
 -11   2   8    4.84    0.24 
 -10  -2   8    2.59    0.18 
 -10   2   8    2.36    0.18 
 -10   2   8    2.83    0.19 
  -9  -2   8    2.55    0.25 
  -9   2   8    2.97    0.26 
  -9   2   8    3.39    0.26 
  -8  -2   8    1.12    0.18 
  -8  -2   8    1.08    0.21 
  -8  -2   8    1.14    0.17 
  -8   2   8    1.10    0.18 
  -8   2   8    1.08    0.18 
  -8   2   8    0.96    0.11 
  -7  -2   8    4.57    0.23 
  -7  -2   8    4.54    0.34 
  -7   2   8    5.58    0.27 
  -6  -2   8    1.67    0.25 
  -5  -2   8    9.60    0.52 
  -5   2   8    9.77    0.52 
  -4  -2   8    8.82    0.47 
  -4   2   8    8.79    0.47 
  -3  -2   8   16.80    0.78 
  -3  -2   8   16.66    0.83 
  -3  -2   8   17.54    0.83 
  -3   2   8   15.93    0.93 
  -3   2   8   16.10    0.78 
  -2  -2   8    8.08    0.62 
   1  -2  -8   13.65    0.81 
   0  -2  -8    0.67    0.16 
  -1  -2  -8    1.02    0.45 
  -1   2  -8    0.99    0.27 
  -2  -2  -8   16.30    1.02 
  -2   2  -8   15.42    1.02 
  -3  -2  -8   10.07    0.74 
  -3  -2  -8    9.72    0.39 
  -3   2  -8   10.80    0.81 
  -4  -2  -8   17.82    0.66 
  -4  -2  -8   18.66    1.12 
  -4   2  -8   19.70    1.20 
  -5  -2  -8    6.88    0.58 
  -5   2  -8    5.61    0.62 
  -6  -2  -8    9.77    0.74 
  -6   2  -8   11.23    0.86 
  -7  -2  -8    1.70    0.20 
  -7  -2  -8    1.53    0.32 
  -7   2  -8    2.07    0.20 
  -7   2  -8    2.14    0.20 
  -7   2  -8    2.38    0.43 
  -8  -2  -8    0.98    0.20 
  -8   2  -8    1.02    0.20 
  -8   2  -8    0.93    0.19 
  -9   2  -8    7.11    0.37 
  -9   2  -8    7.30    0.35 
 -10   2  -8    0.55    0.11 
 -11   2  -8    3.61    0.20 
 -11   3   8    0.09    0.07 
 -11   3   8    0.19    0.07 
 -10   3   8    4.39    0.24 
 -10   3   8    4.42    0.24 
  -9   3   8    2.28    0.24 
  -9   3   8    2.89    0.25 
  -8  -3   8    1.15    0.16 
  -8  -3   8    0.97    0.21 
  -8   3   8    1.13    0.18 
  -8   3   8    0.71    0.12 
  -8   3   8    0.73    0.13 
  -7  -3   8    1.20    0.21 
  -7   3   8    1.71    0.16 
  -6  -3   8    2.72    0.29 
  -5  -3   8    0.83    0.17 
  -4  -3   8    4.06    0.28 
  -3  -3   8   15.27    0.73 
  -2  -3   8   12.57    0.80 
   1  -3  -8    1.89    0.25 
   0  -3  -8    1.01    0.16 
   0  -3  -8    1.18    0.17 
  -1  -3  -8   14.02    1.03 
  -1   3  -8   14.42    0.85 
  -2  -3  -8    7.90    0.69 
  -2   3  -8    9.76    0.51 
  -2   3  -8   10.35    0.51 
  -3  -3  -8    0.51    0.07 
  -3  -3  -8    0.60    0.23 
  -3   3  -8    0.94    0.32 
  -4  -3  -8    0.29    0.20 
  -4   3  -8    0.57    0.27 
  -5  -3  -8    7.04    0.58 
  -5   3  -8    6.07    0.66 
  -6  -3  -8    3.87    0.44 
  -6   3  -8    4.74    0.59 
  -6   3  -8    4.38    0.23 
  -7   3  -8    1.50    0.19 
  -7   3  -8    1.63    0.19 
  -8   3  -8    2.30    0.24 
  -8   3  -8    2.39    0.25 
  -9   3  -8    1.68    0.20 
  -9   3  -8    1.96    0.19 
 -10   3  -8    1.54    0.17 
 -10   3  -8    1.40    0.15 
 -11   3  -8    0.83    0.13 
 -11   4   8    0.78    0.10 
 -11   4   8    0.77    0.10 
 -10   4   8    0.02    0.07 
 -10   4   8    0.01    0.07 
  -9   4   8    0.97    0.20 
  -9   4   8    0.79    0.21 
  -8  -4   8    2.00    0.24 
  -8   4   8    2.11    0.21 
  -8   4   8    1.84    0.15 
  -8   4   8    2.40    0.21 
  -7  -4   8    4.39    0.33 
  -7   4   8    4.87    0.27 
  -7   4   8    4.75    0.29 
  -6  -4   8    1.59    0.32 
  -5  -4   8   22.94    1.07 
  -4  -4   8   75.37    3.23 
  -3  -4   8    7.99    0.43 
  -2  -4   8    9.97    0.55 
  -2  -4   8   10.38    0.60 
   1  -4  -8    1.73    0.24 
  -1  -4  -8    4.54    0.65 
  -1   4  -8    6.18    0.51 
  -2  -4  -8   17.58    1.10 
  -2   4  -8   18.02    0.91 
  -3  -4  -8   19.82    1.19 
  -3  -4  -8   20.12    0.73 
  -4  -4  -8    0.98    0.27 
  -4   4  -8    1.32    0.36 
  -5  -4  -8    1.07    0.28 
  -5   4  -8    0.95    0.34 
  -6  -4  -8    1.26    0.29 
  -6   4  -8    1.31    0.19 
  -6   4  -8    1.37    0.15 
  -6   4  -8    1.63    0.41 
  -7   4  -8    5.46    0.31 
  -7   4  -8    5.29    0.31 
  -8   4  -8    2.44    0.25 
  -8   4  -8    2.59    0.26 
  -9   4  -8    0.31    0.10 
  -9   4  -8    0.46    0.11 
 -10   4  -8    2.85    0.19 
 -10   4  -8    2.67    0.20 
 -11   4  -8    0.58    0.09 
 -11   5   8    0.64    0.10 
 -11   5   8    0.90    0.10 
 -10   5   8    1.86    0.16 
 -10   5   8    1.88    0.15 
  -9   5   8    3.85    0.29 
  -9   5   8    4.19    0.29 
  -8  -5   8    2.35    0.25 
  -8   5   8    2.28    0.21 
  -8   5   8    2.57    0.22 
  -8   5   8    2.57    0.18 
  -7  -5   8    4.14    0.30 
  -7   5   8    3.09    0.25 
  -7   5   8    3.67    0.25 
  -7   5   8    3.26    0.23 
  -6  -5   8   29.05    1.09 
  -6  -5   8   26.08    1.33 
  -6   5   8   28.05    1.17 
  -5  -5   8    6.19    0.39 
  -4  -5   8   16.13    0.78 
  -3  -5   8   10.34    0.53 
  -2  -5   8    6.46    0.38 
  -2  -5   8    5.60    0.38 
  -1  -5   8    0.79    0.19 
   1  -5  -8    0.76    0.16 
  -1  -5  -8   15.74    1.18 
  -2  -5  -8   33.51    1.23 
  -2  -5  -8   34.06    1.84 
  -2   5  -8   35.24    1.66 
  -3  -5  -8    2.46    0.11 
  -3  -5  -8    2.62    0.39 
  -4  -5  -8    7.90    0.64 
  -5  -5  -8    1.17    0.27 
  -5   5  -8    0.85    0.35 
  -6  -5  -8    1.99    0.23 
  -6  -5  -8    1.34    0.28 
  -6   5  -8    1.14    0.18 
  -6   5  -8    1.24    0.19 
  -6   5  -8    1.22    0.16 
  -6   5  -8    1.40    0.13 
  -6   5  -8    1.15    0.39 
  -7   5  -8    7.31    0.36 
  -7   5  -8    6.83    0.32 
  -7   5  -8    7.33    0.37 
  -8   5  -8    4.45    0.33 
  -8   5  -8    4.79    0.34 
  -9   5  -8    2.84    0.22 
  -9   5  -8    3.43    0.23 
 -10   5  -8    2.59    0.19 
 -10   5  -8    2.60    0.18 
 -11   5  -8    0.88    0.11 
 -10   6   8    2.28    0.16 
 -10   6   8    2.08    0.17 
  -9   6   8    0.87    0.21 
  -9   6   8    0.97    0.20 
  -8  -6   8   10.46    0.56 
  -8   6   8   10.30    0.46 
  -8   6   8   10.38    0.47 
  -8   6   8   10.44    0.46 
  -7  -6   8    1.67    0.23 
  -7   6   8    1.99    0.20 
  -7   6   8    1.53    0.19 
  -7   6   8    1.76    0.18 
  -6  -6   8   13.76    0.76 
  -6   6   8   14.74    0.66 
  -5  -6   8    2.88    0.26 
  -4  -6   8   16.36    0.79 
  -3  -6   8   13.99    0.69 
   2  -6  -8   22.91    0.85 
  -2  -6   8   23.02    1.09 
  -1  -6   8    0.78    0.19 
  -1  -6  -8    0.77    0.44 
  -2  -6  -8   17.04    0.68 
  -2  -6  -8   18.06    1.15 
  -2   6  -8   18.85    0.68 
  -2   6  -8   19.31    0.68 
  -3  -6  -8    7.80    0.66 
  -4  -6  -8   16.25    1.02 
  -5  -6  -8    1.69    0.31 
  -5   6  -8    1.90    0.19 
  -6  -6  -8   25.88    1.30 
  -6  -6  -8   25.04    1.36 
  -6   6  -8   26.22    1.04 
  -6   6  -8   27.61    1.00 
  -6   6  -8   26.35    1.01 
  -6   6  -8   25.98    1.02 
  -7  -6  -8    1.69    0.22 
  -7   6  -8    1.48    0.15 
  -7   6  -8    1.77    0.20 
  -7   6  -8    1.86    0.20 
  -8   6  -8    0.55    0.17 
  -8   6  -8    0.54    0.18 
  -9   6  -8    0.31    0.10 
  -9   6  -8    0.38    0.10 
 -10   6  -8    0.09    0.08 
 -10   6  -8    0.24    0.08 
 -10   7   8    1.82    0.15 
 -10   7   8    1.74    0.14 
  -9   7   8    2.89    0.23 
  -9   7   8    2.57    0.22 
  -8  -7   8   13.59    0.69 
  -8   7   8   13.77    0.57 
  -8   7   8   13.29    0.58 
  -8   7   8   13.70    0.57 
  -7  -7   8    2.69    0.26 
  -7   7   8    3.03    0.23 
  -7   7   8    2.62    0.21 
  -7   7   8    3.05    0.23 
  -6  -7   8   14.07    0.73 
  -6   7   8   13.40    0.64 
  -5  -7   8   16.32    0.78 
  -5  -7   8   15.13    0.64 
  -4  -7   8   11.20    0.59 
   3  -7  -8    0.90    0.09 
  -3  -7   8    0.84    0.17 
   2  -7  -8    6.89    0.25 
  -2  -7   8    6.18    0.41 
   2  -7  -8    6.29    0.25 
  -1  -7  -8   13.22    1.04 
  -2  -7  -8   22.50    0.81 
  -2  -7  -8   20.45    1.31 
  -2   7  -8   22.76    0.83 
  -3  -7  -8    6.48    0.61 
  -4  -7  -8   16.12    1.00 
  -4   7  -8   14.59    0.66 
  -5  -7  -8    1.36    0.29 
  -5  -7  -8    1.14    0.31 
  -5   7  -8    0.87    0.15 
  -5   7  -8    0.89    0.16 
  -6  -7  -8    2.13    0.27 
  -6   7  -8    2.66    0.19 
  -6   7  -8    2.95    0.21 
  -6   7  -8    2.39    0.23 
  -6   7  -8    3.10    0.23 
  -7  -7  -8    2.10    0.26 
  -7   7  -8    2.57    0.14 
  -7   7  -8    2.15    0.23 
  -7   7  -8    2.82    0.22 
  -7   7  -8    2.65    0.18 
  -8  -7  -8    1.03    0.22 
  -8   7  -8    1.04    0.19 
  -8   7  -8    1.20    0.20 
  -9   7  -8    1.64    0.17 
  -9   7  -8    1.70    0.17 
 -10   7  -8    3.38    0.20 
 -10   7  -8    3.59    0.20 
 -10   8   8    3.43    0.18 
 -10   8   8    3.37    0.19 
  -9   8   8    0.82    0.16 
  -9   8   8    0.88    0.17 
  -8  -8   8    2.87    0.26 
  -8   8   8    2.59    0.18 
  -8   8   8    2.81    0.21 
  -8   8   8    2.62    0.21 
  -7  -8   8    0.69    0.15 
  -7   8   8    0.65    0.11 
  -7   8   8    0.72    0.12 
  -7   8   8    0.65    0.12 
  -6  -8   8    3.94    0.37 
  -6   8   8    4.38    0.33 
  -6   8   8    3.69    0.31 
  -5  -8   8    1.33    0.11 
  -5  -8   8    1.18    0.20 
  -4  -8   8    2.53    0.24 
   4  -8  -8    2.31    0.14 
   3  -8  -8   17.46    0.66 
  -3  -8   8   17.58    0.85 
  -2  -8   8    3.59    0.31 
   0  -8   8    0.37    0.06 
  -1  -8  -8    0.64    0.45 
  -2  -8  -8    1.64    0.39 
  -2  -8  -8    1.77    0.10 
  -2  -8  -8    1.75    0.10 
  -2   8  -8    1.57    0.10 
  -3  -8  -8    2.15    0.40 
  -4  -8  -8    6.78    0.61 
  -4  -8  -8    6.82    0.46 
  -4   8  -8    7.81    0.38 
  -5  -8  -8    8.05    0.56 
  -5  -8  -8    7.06    0.60 
  -5   8  -8    8.74    0.41 
  -5   8  -8    8.32    0.45 
  -5   8  -8    8.70    0.41 
  -6  -8  -8    6.41    0.44 
  -6   8  -8    6.94    0.34 
  -6   8  -8    6.54    0.35 
  -6   8  -8    7.05    0.36 
  -6   8  -8    6.91    0.35 
  -7  -8  -8    1.50    0.22 
  -7   8  -8    1.58    0.19 
  -7   8  -8    1.55    0.12 
  -7   8  -8    1.81    0.16 
  -7   8  -8    2.09    0.20 
  -8  -8  -8    0.62    0.19 
  -8   8  -8    0.67    0.17 
  -8   8  -8    0.61    0.17 
  -9   8  -8    0.77    0.11 
  -9   8  -8    0.85    0.14 
 -10   8  -8    1.62    0.14 
 -10   8  -8    1.88    0.14 
  -9   9   8    6.90    0.34 
  -8  -9   8    8.79    0.49 
  -8   9   8    9.06    0.40 
  -8   9   8    8.89    0.39 
  -7  -9   8   14.90    0.75 
  -7   9   8   15.13    0.65 
  -7   9   8   14.25    0.60 
  -6  -9   8    3.10    0.34 
  -6   9   8    2.83    0.28 
  -5  -9   8    4.82    0.22 
   5  -9  -8    5.19    0.23 
  -5  -9   8    5.08    0.36 
  -4  -9   8   11.52    0.61 
   4  -9  -8   11.12    0.44 
  -3  -9   8    1.79    0.22 
  -2  -9   8    1.12    0.26 
  -2   9   8    1.18    0.22 
  -1   9   8    6.68    0.37 
   0   9   8    6.02    0.35 
   1  -9   8   12.56    0.51 
  -1  -9  -8   13.29    1.10 
   1   9   8   12.87    0.65 
  -2  -9  -8    5.99    0.24 
  -2  -9  -8    5.37    0.24 
  -2  -9  -8    5.19    0.60 
   2   9   8    6.05    0.34 
  -2   9  -8    6.35    0.25 
  -3  -9  -8    0.34    0.22 
  -3  -9  -8    0.20    0.12 
  -3   9  -8    0.22    0.11 
  -4  -9  -8    2.51    0.40 
  -4  -9  -8    2.21    0.26 
  -4   9  -8    2.49    0.22 
  -4   9  -8    2.85    0.22 
  -4   9  -8    2.94    0.23 
  -5  -9  -8    1.54    0.23 
  -5   9  -8    1.70    0.19 
  -5   9  -8    1.31    0.27 
  -5   9  -8    1.57    0.18 
  -6  -9  -8    0.13    0.12 
  -6   9  -8    0.34    0.09 
  -6   9  -8    0.37    0.11 
  -6   9  -8    0.33    0.10 
  -7  -9  -8    9.69    0.57 
  -7   9  -8    9.96    0.44 
  -7   9  -8    9.96    0.42 
  -7   9  -8   10.80    0.46 
  -7   9  -8   10.09    0.45 
  -8  -9  -8    0.31    0.13 
  -8   9  -8    0.33    0.11 
  -8   9  -8    0.27    0.11 
  -9   9  -8    5.81    0.28 
  -9   9  -8    6.32    0.29 
 -10   9  -8    0.24    0.07 
  -9  10   8    0.45    0.14 
   8 -10  -8    0.48    0.07 
  -8  10   8    0.51    0.09 
  -8  10   8    0.41    0.08 
  -7 -10   8    1.86    0.22 
   7 -10  -8    1.67    0.11 
  -7  10   8    1.34    0.17 
  -6 -10   8    1.31    0.28 
   6 -10  -8    1.59    0.11 
  -6  10   8    1.74    0.25 
   5 -10  -8   11.03    0.44 
  -5 -10   8   10.86    0.60 
   5 -10  -8   11.86    0.43 
  -4 -10   8    3.33    0.29 
  -3 -10   8    5.71    0.37 
  -2 -10   8    9.18    0.60 
  -2  10   8   11.40    0.57 
  -1  10   8    1.54    0.18 
   0  10   8    5.34    0.33 
   1 -10   8    1.16    0.09 
  -1 -10  -8    1.03    0.52 
   1 -10   8    1.14    0.09 
   1  10   8    1.50    0.22 
  -2 -10  -8    2.80    0.48 
   2 -10   8    2.89    0.16 
  -2 -10  -8    2.82    0.29 
  -2  10  -8    3.02    0.14 
   2  10   8    3.04    0.23 
  -3 -10  -8    7.56    0.47 
  -3 -10  -8    8.14    0.70 
  -3  10  -8    7.00    0.40 
  -4 -10  -8   15.05    0.83 
  -4  10  -8   15.16    0.63 
  -4  10  -8   15.82    0.69 
  -4  10  -8   16.14    0.68 
  -5 -10  -8    3.43    0.29 
  -5  10  -8    2.65    0.31 
  -5  10  -8    2.56    0.29 
  -5  10  -8    2.73    0.22 
  -6 -10  -8    5.55    0.40 
  -6  10  -8    5.87    0.31 
  -6  10  -8    5.98    0.30 
  -6  10  -8    5.46    0.31 
  -7 -10  -8   12.28    0.69 
  -7  10  -8   13.27    0.54 
  -7  10  -8   13.00    0.53 
  -7  10  -8   12.40    0.52 
  -8 -10  -8    0.39    0.17 
  -8  10  -8    0.36    0.11 
  -9 -10  -8    0.45    0.10 
  -9  10  -8    0.40    0.09 
  -8  11   8    0.21    0.07 
  -7 -11   8    3.70    0.28 
  -7  11   8    3.75    0.24 
  -6 -11   8    7.91    0.52 
  -6  11   8    7.81    0.46 
  -5 -11   8    4.11    0.32 
  -4 -11   8    1.63    0.22 
  -3 -11   8   10.54    0.56 
   3 -11  -8    9.88    0.50 
  -2 -11   8    1.45    0.27 
   2 -11  -8    1.43    0.23 
  -2  11   8    1.07    0.23 
   1 -11  -8    0.59    0.11 
  -1  11   8    0.89    0.16 
   0 -11   8    6.82    0.38 
   0 -11  -8    6.99    0.35 
   0 -11  -8    6.75    0.42 
   0  11   8    7.64    0.40 
  -1 -11  -8   21.05    0.81 
  -1 -11  -8   19.55    1.58 
  -1 -11  -8   20.90    0.88 
  -1 -11  -8   21.98    0.81 
   1  11   8   22.67    1.02 
  -2 -11  -8    4.35    0.60 
  -2 -11  -8    4.63    0.36 
   2 -11   8    4.78    0.21 
   2  11   8    5.29    0.31 
  -2  11  -8    5.33    0.21 
  -3 -11  -8   13.20    0.70 
   3 -11   8   12.54    0.50 
   3  11   8   11.63    0.61 
  -4 -11  -8    5.83    0.39 
  -4  11  -8    5.51    0.31 
  -4  11  -8    5.04    0.33 
  -4  11  -8    5.56    0.33 
  -5 -11  -8    2.09    0.24 
  -5  11  -8    2.15    0.28 
  -5  11  -8    2.17    0.29 
  -5  11  -8    2.61    0.21 
  -6 -11  -8    0.44    0.14 
  -6  11  -8    0.88    0.14 
  -6  11  -8    0.63    0.12 
  -6  11  -8    0.77    0.12 
  -7 -11  -8    0.56    0.13 
  -7  11  -8    0.69    0.10 
  -7  11  -8    0.72    0.13 
  -7  11  -8    0.62    0.11 
  -8 -11  -8    4.67    0.37 
  -8  11  -8    4.94    0.29 
  -9  11  -8    2.75    0.16 
  -8  12   8    1.55    0.12 
  -7  12   8    0.49    0.09 
  -6 -12   8    1.38    0.25 
  -6  12   8    1.29    0.24 
  -5 -12   8   26.85    1.24 
  -4 -12   8   37.84    1.70 
  -3 -12   8    5.80    0.40 
   3 -12  -8    6.66    0.36 
   2 -12  -8    3.57    0.31 
  -2 -12   8    3.83    0.37 
  -2  12   8    4.15    0.34 
   1 -12  -8    2.42    0.21 
   1 -12  -8    2.82    0.26 
  -1  12   8    2.85    0.23 
   0 -12  -8    3.29    0.28 
   0 -12  -8    3.65    0.22 
   0 -12   8    3.57    0.26 
   0  12   8    4.39    0.28 
  -1 -12  -8    2.60    0.18 
  -1 -12  -8    2.97    0.15 
  -1 -12  -8    2.69    0.14 
   1  12   8    2.35    0.25 
  -2 -12  -8    4.07    0.34 
   2  12   8    4.75    0.30 
  -2  12  -8    4.84    0.19 
   3 -12   8   19.55    0.73 
  -3 -12  -8   19.88    1.00 
  -3  12  -8   18.71    0.82 
   3  12   8   19.30    0.89 
  -4 -12  -8    4.64    0.34 
   4 -12   8    4.38    0.21 
  -4  12  -8    4.31    0.29 
  -4  12  -8    4.64    0.29 
  -5 -12  -8    1.55    0.35 
  -5  12  -8    1.44    0.30 
  -5  12  -8    1.61    0.18 
  -6 -12  -8   10.52    0.61 
  -6  12  -8   11.11    0.46 
  -6  12  -8   11.51    0.49 
  -6  12  -8   10.51    0.49 
  -7 -12  -8    1.33    0.20 
  -7  12  -8    1.24    0.15 
  -7  12  -8    1.45    0.11 
  -7  12  -8    1.49    0.16 
  -8 -12  -8    3.02    0.27 
  -8  12  -8    3.53    0.22 
  -8  13   8    0.04    0.05 
  -7  13   8    0.20    0.07 
  -6 -13   8   10.15    0.57 
  -6  13   8    9.33    0.49 
  -5 -13   8    1.33    0.21 
  -4 -13   8    0.00    0.11 
  -3 -13   8    1.80    0.23 
   3 -13  -8    1.68    0.19 
  -2 -13   8    5.07    0.40 
   2 -13  -8    5.47    0.34 
  -2  13   8    5.31    0.37 
   1 -13  -8    3.98    0.32 
   1 -13  -8    4.57    0.26 
  -1  13   8    4.87    0.31 
   0 -13  -8    6.16    0.31 
   0 -13   8    6.41    0.35 
   0 -13  -8    5.79    0.38 
   0  13   8    6.29    0.37 
   1 -13   8   11.13    0.57 
   1  13   8   10.44    0.60 
  -1  13  -8   11.23    0.46 
  -2 -13  -8    8.12    0.49 
   2  13   8    7.97    0.43 
  -3 -13  -8   15.45    0.82 
   3  13   8   15.45    0.74 
  -3  13  -8   16.05    0.69 
  -4 -13  -8    1.35    0.22 
  -4  13  -8    1.83    0.19 
  -4  13  -8    1.98    0.21 
   5 -13   8    5.24    0.22 
  -5 -13  -8    5.37    0.43 
   5 -13   8    5.19    0.22 
  -5  13  -8    5.39    0.35 
  -5  13  -8    5.42    0.30 
   6 -13   8    3.59    0.16 
  -6 -13  -8    3.62    0.28 
  -6  13  -8    3.48    0.22 
  -6  13  -8    3.02    0.20 
  -7 -13  -8    1.23    0.18 
  -7  13  -8    1.40    0.14 
  -7  13  -8    1.60    0.10 
  -7  13  -8    1.49    0.14 
  -8 -13  -8    4.45    0.31 
  -7  14   8    1.60    0.14 
  -6  14   8    0.51    0.18 
   5 -14  -8    2.52    0.21 
   5 -14  -8    2.50    0.23 
  -5 -14   8    2.53    0.23 
  -4 -14   8    5.36    0.35 
   4 -14  -8    5.01    0.30 
   4 -14  -8    4.89    0.35 
  -3 -14   8    9.01    0.51 
   3 -14  -8    8.98    0.51 
   3 -14  -8    9.17    0.44 
   2 -14  -8   14.69    0.67 
  -2 -14   8   13.97    0.77 
  -2  14   8   14.79    0.73 
   1 -14  -8    1.03    0.14 
   1 -14  -8    1.19    0.20 
  -1  14   8    1.06    0.16 
   0 -14  -8    0.61    0.14 
   0 -14  -8    0.58    0.10 
   0 -14   8    0.87    0.16 
   0  14   8    0.81    0.16 
   1  14   8    1.60    0.23 
  -1  14  -8    2.14    0.13 
   2  14   8    0.94    0.16 
  -3 -14  -8    6.81    0.42 
   3  14   8    6.56    0.37 
  -4 -14  -8    0.18    0.12 
  -4  14  -8   -0.01    0.08 
  -4  14  -8    0.14    0.09 
   4  14   8    0.09    0.08 
  -5 -14  -8    7.34    0.50 
  -5  14  -8    6.96    0.35 
  -5  14  -8    7.28    0.41 
  -6 -14  -8    7.05    0.43 
  -6  14  -8    7.40    0.34 
  -6  14  -8    7.57    0.35 
  -7 -14  -8    1.66    0.17 
  -7  14  -8    2.12    0.13 
  -7  15   8    0.19    0.06 
   6 -15  -8    0.29    0.15 
  -6  15   8    0.57    0.16 
   5 -15  -8    4.38    0.25 
   4 -15  -8    0.80    0.15 
  -4 -15   8    0.76    0.17 
   4 -15  -8    1.04    0.18 
   3 -15  -8    0.19    0.11 
  -3 -15   8    0.05    0.10 
   3 -15  -8    0.08    0.08 
   2 -15  -8    2.07    0.29 
  -2 -15   8    2.02    0.28 
   2 -15  -8    1.81    0.20 
  -2  15   8    1.71    0.23 
   1 -15  -8   17.05    0.70 
   1 -15  -8   16.43    0.83 
  -1  15   8   17.71    0.80 
   0 -15  -8   11.22    0.47 
   0 -15  -8   12.43    0.62 
   0  15   8   12.26    0.59 
   1  15   8    7.10    0.48 
  -1  15  -8    9.73    0.35 
   2 -15   8    8.94    0.42 
   2  15   8    7.68    0.43 
  -3 -15  -8    1.50    0.20 
   3  15   8    1.73    0.18 
  -4 -15  -8    5.37    0.35 
  -4  15  -8    4.72    0.29 
   4  15   8    5.29    0.30 
  -4  15  -8    5.08    0.30 
  -5 -15  -8    4.97    0.34 
  -5  15  -8    5.41    0.28 
  -5  15  -8    5.45    0.33 
  -6 -15  -8    1.54    0.17 
  -6  15  -8    1.43    0.14 
  -6  15  -8    1.27    0.12 
   5 -16  -8    0.24    0.07 
   4 -16  -8    0.08    0.07 
   3 -16  -8    9.87    0.44 
   2 -16  -8    6.06    0.31 
   2 -16  -8    5.61    0.42 
   1 -16  -8    2.86    0.25 
   1 -16  -8    2.82    0.16 
  -1  16   8    3.30    0.22 
   0 -16  -8    1.83    0.20 
   0  16  -8    1.59    0.11 
   0  16   8    1.92    0.19 
   1  16   8    2.75    0.24 
   2 -16   8    2.41    0.19 
   2  16   8    2.52    0.20 
   3 -16   8    0.59    0.11 
   3  16   8    0.61    0.13 
  -4 -16  -8    0.09    0.09 
   4  16   8    0.11    0.07 
  -4  16  -8   -0.04    0.08 
  -4  16  -8   -0.05    0.07 
  -5 -16  -8    6.06    0.34 
  -5  16  -8    5.84    0.28 
  -5  16  -8    5.67    0.28 
  -6  16  -8    4.34    0.20 
   5 -17  -8    3.10    0.17 
   4 -17  -8    2.99    0.17 
   3 -17  -8    0.52    0.09 
   2 -17  -8    1.16    0.09 
  -1  17   8    3.01    0.21 
   0  17   8    2.27    0.18 
   1  17   8    0.26    0.13 
   2  17   8    5.16    0.29 
   3 -17   8    2.18    0.16 
   3  17   8    1.41    0.15 
   4 -17   8    1.86    0.15 
  -4  17  -8    1.34    0.15 
  -4  17  -8    1.44    0.14 
  -5  17  -8    1.05    0.10 
   0  18   8    9.15    0.44 
   1  18   8    0.16    0.13 
 -10   0   9    0.34    0.09 
 -10   0   9    0.60    0.10 
  -9   0   9    3.26    0.22 
  -9   0   9    3.11    0.22 
  -7   0   9   10.25    0.57 
  -7   0   9   10.50    0.45 
  -6   0   9    7.58    0.36 
  -6   0   9    6.72    0.43 
  -5   0   9   12.88    0.69 
  -4   0   9    0.07    0.10 
  -3   0   9    0.82    0.16 
  -2   0   9    2.33    0.20 
   0   0  -9    0.18    0.13 
  -2   0  -9   67.80    3.44 
  -3   0  -9    0.15    0.21 
  -4   0  -9    7.88    0.70 
  -4   0  -9    7.47    0.31 
  -5   0  -9    3.07    0.46 
  -6   0  -9   14.26    0.59 
  -6   0  -9   13.20    0.98 
  -7   0  -9   24.10    0.94 
  -8   0  -9    4.34    0.28 
  -9   0  -9    1.46    0.20 
 -10   0  -9    1.78    0.16 
 -10  -1   9    2.27    0.17 
 -10  -1   9    2.66    0.17 
 -10   1   9    2.64    0.18 
 -10   1   9    2.65    0.18 
  -9  -1   9    0.83    0.15 
  -9  -1   9    1.00    0.15 
  -9   1   9    0.63    0.11 
  -9   1   9    0.56    0.11 
  -7  -1   9    3.52    0.20 
  -7  -1   9    3.43    0.30 
  -7   1   9    3.28    0.21 
  -6  -1   9    2.11    0.17 
  -6  -1   9    1.65    0.22 
  -6   1   9    1.82    0.23 
  -6   1   9    2.09    0.18 
  -5  -1   9    1.36    0.22 
  -5   1   9    1.32    0.21 
  -4  -1   9   10.51    0.56 
  -4   1   9   10.84    0.56 
  -3  -1   9    4.66    0.30 
  -3   1   9    4.89    0.31 
  -2  -1   9    8.83    0.46 
  -2   1   9    8.69    0.46 
   0  -1  -9   17.32    0.91 
   0   1  -9   17.08    0.95 
  -1   1  -9    5.42    0.35 
  -2  -1  -9    1.79    0.48 
  -3  -1  -9    2.99    0.44 
  -3   1  -9    2.84    0.46 
  -4  -1  -9   12.31    0.91 
  -4  -1  -9   13.34    0.49 
  -4   1  -9   13.10    0.51 
  -4   1  -9   13.10    0.98 
  -5  -1  -9    0.78    0.29 
  -5   1  -9    0.62    0.28 
  -6  -1  -9    7.66    0.39 
  -6  -1  -9    7.46    0.68 
  -6   1  -9    7.91    0.38 
  -6   1  -9    7.60    0.38 
  -6   1  -9    7.67    0.72 
  -7  -1  -9   23.39    0.94 
  -7   1  -9   25.21    0.95 
  -8  -1  -9   10.46    0.46 
  -8   1  -9    9.97    0.46 
  -9  -1  -9    4.55    0.31 
  -9   1  -9    3.89    0.30 
 -10  -1  -9    3.36    0.21 
 -10   1  -9    3.70    0.22 
 -10  -2   9    1.16    0.13 
 -10   2   9    0.89    0.13 
 -10   2   9    0.99    0.14 
  -9  -2   9    6.90    0.33 
  -9  -2   9    6.39    0.32 
  -9   2   9    6.43    0.33 
  -9   2   9    6.60    0.33 
  -8  -2   9   10.78    0.63 
  -8   2   9   11.33    0.46 
  -7  -2   9    0.71    0.16 
  -7  -2   9    1.05    0.11 
  -7   2   9    1.23    0.14 
  -6  -2   9    0.29    0.12 
  -6  -2   9    0.19    0.08 
  -6   2   9    0.17    0.08 
  -5  -2   9    0.45    0.16 
  -4  -2   9    2.18    0.22 
  -4   2   9    2.48    0.23 
  -3  -2   9    9.30    0.50 
  -3   2   9   10.02    0.51 
  -2  -2   9    2.05    0.30 
  -2  -2   9    2.19    0.19 
   0  -2  -9   11.95    0.65 
  -1   2  -9   27.19    1.35 
  -2  -2  -9   17.55    1.21 
  -3  -2  -9   24.31    1.40 
  -3  -2  -9   22.43    0.84 
  -3   2  -9   22.54    1.43 
  -4  -2  -9   12.00    0.43 
  -4  -2  -9   11.67    0.87 
  -4   2  -9   11.10    0.91 
  -5  -2  -9    4.94    0.54 
  -5   2  -9    4.27    0.24 
  -5   2  -9    4.41    0.59 
  -6  -2  -9    1.56    0.20 
  -6  -2  -9    1.81    0.36 
  -6   2  -9    1.66    0.20 
  -6   2  -9    1.61    0.19 
  -6   2  -9    1.78    0.43 
  -7  -2  -9   11.79    0.52 
  -7   2  -9   11.53    0.52 
  -7   2  -9   12.24    0.51 
  -8  -2  -9    4.10    0.26 
  -8   2  -9    4.00    0.27 
  -8   2  -9    3.85    0.25 
  -9   2  -9    0.78    0.18 
 -10   2  -9   11.82    0.48 
 -10   3   9    2.46    0.18 
 -10   3   9    2.61    0.17 
  -9   3   9    4.48    0.26 
  -9   3   9    4.34    0.25 
  -8  -3   9    1.96    0.29 
  -8   3   9    2.11    0.17 
  -7  -3   9    0.56    0.16 
  -7   3   9    0.79    0.13 
  -6  -3   9    1.30    0.21 
  -6  -3   9    1.35    0.14 
  -6   3   9    1.35    0.17 
  -5  -3   9    2.12    0.25 
  -4  -3   9    6.30    0.38 
  -3  -3   9    6.08    0.36 
  -2  -3   9   39.55    1.70 
  -2  -3   9   38.04    1.93 
   1  -3  -9   26.63    0.97 
   1  -3  -9   26.03    1.37 
  -1  -3  -9   14.50    0.97 
  -1   3  -9   12.43    0.47 
  -1   3  -9   12.39    0.73 
  -2  -3  -9    0.61    0.41 
  -3  -3  -9    0.24    0.06 
  -3  -3  -9    0.16    0.21 
  -4  -3  -9    0.92    0.28 
  -4   3  -9    0.32    0.27 
  -5  -3  -9    3.94    0.47 
  -5   3  -9    2.81    0.51 
  -5   3  -9    3.35    0.22 
  -6  -3  -9    5.18    0.51 
  -6   3  -9    4.06    0.23 
  -6   3  -9    4.56    0.28 
  -6   3  -9    4.28    0.27 
  -6   3  -9    4.25    0.59 
  -7   3  -9    2.53    0.22 
  -7   3  -9    2.49    0.23 
  -8   3  -9    5.74    0.30 
  -8   3  -9    5.46    0.31 
  -9   3  -9    0.37    0.12 
  -9   3  -9    0.18    0.14 
 -10   3  -9    1.40    0.16 
 -10   4   9    0.23    0.08 
 -10   4   9    0.21    0.07 
  -9  -4   9    2.20    0.22 
  -9   4   9    1.97    0.18 
  -9   4   9    1.89    0.18 
  -8  -4   9    1.21    0.25 
  -8   4   9    1.25    0.15 
  -8   4   9    1.20    0.21 
  -7  -4   9    3.42    0.30 
  -7   4   9    3.82    0.23 
  -6  -4   9    0.18    0.13 
  -6  -4   9    0.17    0.07 
  -6   4   9    0.15    0.09 
  -5  -4   9    3.33    0.29 
  -4  -4   9   13.14    0.67 
  -3  -4   9    9.63    0.51 
   2  -4  -9    4.71    0.21 
  -2  -4   9    4.53    0.30 
  -1  -4  -9    9.57    0.77 
  -1   4  -9    8.27    0.56 
  -1   4  -9    8.19    0.33 
  -2  -4  -9    5.39    0.67 
  -3  -4  -9    9.50    0.36 
  -3  -4  -9    8.93    0.75 
  -4  -4  -9    0.58    0.25 
  -5  -4  -9    1.43    0.22 
  -5  -4  -9    1.57    0.33 
  -5   4  -9    1.21    0.41 
  -5   4  -9    1.23    0.16 
  -6  -4  -9    8.62    0.51 
  -6  -4  -9    8.29    0.66 
  -6   4  -9    8.59    0.40 
  -6   4  -9    8.39    0.41 
  -6   4  -9    8.18    0.35 
  -6   4  -9    7.94    0.37 
  -6   4  -9    7.33    0.78 
  -7   4  -9    9.51    0.44 
  -7   4  -9    8.85    0.43 
  -8   4  -9    2.18    0.21 
  -8   4  -9    1.99    0.20 
  -9   4  -9    0.24    0.14 
  -9   4  -9    0.26    0.11 
 -10   4  -9    2.86    0.18 
 -10   4  -9    3.32    0.20 
 -10   5   9    0.75    0.12 
 -10   5   9    0.75    0.12 
  -9   5   9    3.78    0.23 
  -9   5   9    4.01    0.24 
  -8  -5   9    4.61    0.38 
  -8   5   9    4.59    0.27 
  -8   5   9    5.11    0.31 
  -8   5   9    4.74    0.30 
  -7  -5   9    2.35    0.25 
  -7   5   9    2.53    0.21 
  -7   5   9    2.14    0.19 
  -7   5   9    2.39    0.22 
  -6  -5   9    2.76    0.17 
  -6  -5   9    3.06    0.27 
  -6   5   9    3.19    0.23 
  -5  -5   9    8.74    0.55 
  -5  -5   9   10.42    0.46 
  -4  -5   9    6.61    0.40 
  -3  -5   9   26.62    1.21 
   2  -5  -9   22.20    0.81 
  -2  -5   9   20.80    0.99 
  -1  -5  -9    2.13    0.43 
  -1   5  -9    2.90    0.14 
  -2  -5  -9   10.47    0.91 
  -3  -5  -9    9.51    0.77 
  -3  -5  -9    9.40    0.36 
  -4  -5  -9    1.67    0.35 
  -4   5  -9    1.50    0.18 
  -5  -5  -9    8.09    0.48 
  -5  -5  -9    8.03    0.66 
  -5   5  -9    7.42    0.37 
  -5   5  -9    7.77    0.36 
  -5   5  -9    7.66    0.38 
  -5   5  -9    7.02    0.37 
  -6  -5  -9    6.39    0.44 
  -6   5  -9    7.14    0.36 
  -6   5  -9    6.78    0.31 
  -6   5  -9    6.85    0.36 
  -6   5  -9    6.63    0.34 
  -7   5  -9    9.62    0.44 
  -7   5  -9    9.69    0.45 
  -8   5  -9    3.86    0.26 
  -8   5  -9    3.94    0.25 
  -9   5  -9    0.23    0.14 
  -9   5  -9    0.10    0.10 
 -10   5  -9    0.95    0.14 
 -10   5  -9    0.75    0.12 
 -10   6   9    2.27    0.15 
 -10   6   9    1.89    0.15 
  -9   6   9    1.43    0.15 
  -9   6   9    1.42    0.16 
  -8  -6   9    2.42    0.28 
  -8   6   9    2.54    0.24 
  -8   6   9    2.69    0.24 
  -8   6   9    2.22    0.19 
  -7  -6   9    7.73    0.46 
  -7   6   9    7.77    0.38 
  -7   6   9    7.52    0.37 
  -7   6   9    7.46    0.37 
  -6  -6   9    7.96    0.34 
  -6  -6   9    8.49    0.48 
  -6   6   9    8.06    0.41 
  -5  -6   9   11.98    0.67 
  -5  -6   9   13.09    0.56 
  -4  -6   9   10.49    0.57 
  -3  -6   9   31.82    1.41 
   3  -6  -9   30.75    1.16 
  -2  -6   9   10.02    0.52 
  -1  -6   9    4.37    0.18 
  -1  -6  -9   20.93    1.35 
  -1   6  -9   21.35    0.80 
  -2  -6  -9   22.95    0.85 
  -2  -6  -9   22.00    1.50 
  -3  -6  -9   10.44    0.82 
  -4  -6  -9    4.12    0.49 
  -4  -6  -9    4.26    0.33 
  -4   6  -9    4.52    0.28 
  -5  -6  -9    5.00    0.36 
  -5  -6  -9    4.60    0.48 
  -5   6  -9    4.62    0.29 
  -5   6  -9    4.77    0.26 
  -5   6  -9    4.44    0.28 
  -5   6  -9    4.71    0.28 
  -6  -6  -9    0.31    0.13 
  -6   6  -9    0.54    0.20 
  -6   6  -9    0.48    0.12 
  -6   6  -9    0.60    0.13 
  -6   6  -9    0.55    0.11 
  -7  -6  -9    0.30    0.12 
  -7   6  -9    0.31    0.11 
  -7   6  -9    0.44    0.12 
  -7   6  -9    0.31    0.07 
  -8   6  -9    1.20    0.17 
  -8   6  -9    1.28    0.18 
  -9   6  -9    0.68    0.15 
  -9   6  -9    0.67    0.16 
 -10   6  -9    2.86    0.18 
 -10   6  -9    2.66    0.17 
 -10   7   9    1.50    0.12 
 -10   7   9    1.38    0.12 
  -9   7   9    0.35    0.09 
  -9   7   9    0.42    0.09 
  -8  -7   9    4.00    0.32 
  -8   7   9    3.32    0.22 
  -8   7   9    3.29    0.26 
  -8   7   9    3.19    0.26 
  -7  -7   9    0.32    0.13 
  -7   7   9    0.41    0.10 
  -7   7   9    0.45    0.11 
  -7   7   9    0.37    0.10 
  -6  -7   9    2.64    0.26 
  -6   7   9    2.51    0.22 
  -6   7   9    2.87    0.23 
  -5  -7   9   33.19    1.25 
  -5  -7   9   29.64    1.46 
  -4  -7   9    6.07    0.38 
   4  -7  -9    5.91    0.26 
   3  -7  -9   12.24    0.48 
  -3  -7   9   13.14    0.64 
  -2  -7   9    0.20    0.10 
  -2   7   9    0.34    0.09 
  -1   7   9   15.10    0.75 
   0   7   9    9.92    0.50 
  -1  -7  -9    3.86    0.56 
  -1   7  -9    5.11    0.23 
   1   7   9    5.00    0.31 
  -2  -7  -9    2.46    0.59 
  -2  -7  -9    2.81    0.17 
   2   7   9    2.82    0.26 
  -3  -7  -9    3.66    0.50 
  -3   7  -9    3.83    0.26 
  -4  -7  -9   12.64    0.69 
  -4  -7  -9   12.21    0.90 
  -4   7  -9   12.85    0.57 
  -4   7  -9   11.87    0.55 
  -4   7  -9   12.68    0.56 
  -4   7  -9   12.78    0.54 
  -5  -7  -9    1.28    0.22 
  -5   7  -9    1.43    0.16 
  -5   7  -9    1.43    0.19 
  -5   7  -9    1.45    0.19 
  -5   7  -9    1.27    0.18 
  -6  -7  -9    8.44    0.53 
  -6   7  -9    8.54    0.39 
  -6   7  -9    8.66    0.42 
  -6   7  -9    9.17    0.45 
  -6   7  -9    8.56    0.41 
  -7  -7  -9   10.39    0.60 
  -7   7  -9   11.08    0.48 
  -7   7  -9   10.56    0.45 
  -7   7  -9   11.03    0.48 
  -8   7  -9    0.10    0.09 
  -8   7  -9    0.07    0.09 
  -9   7  -9    0.49    0.14 
  -9   7  -9    0.57    0.14 
 -10   7  -9    0.10    0.07 
 -10   7  -9    0.18    0.07 
  -9   8   9    1.22    0.13 
  -9   8   9    1.29    0.14 
  -8  -8   9    1.34    0.24 
  -8   8   9    0.99    0.18 
  -8   8   9    1.31    0.16 
  -8   8   9    1.42    0.19 
  -7  -8   9    0.25    0.13 
  -7   8   9    0.21    0.09 
  -7   8   9    0.04    0.09 
  -7   8   9    0.16    0.09 
  -6  -8   9   21.31    0.99 
  -6   8   9   19.99    0.87 
  -6   8   9   19.90    0.79 
   5  -8  -9   12.16    0.48 
  -5  -8   9   12.87    0.50 
  -5  -8   9   10.60    0.65 
  -4  -8   9    0.66    0.15 
   4  -8  -9    0.75    0.08 
  -3  -8   9    2.16    0.23 
  -2  -8   9    7.26    0.42 
  -2   8   9    7.15    0.39 
  -1   8   9    2.26    0.27 
   0  -8   9    0.09    0.03 
   0  -8   9    0.04    0.03 
   0   8   9   -0.03    0.08 
  -1  -8  -9    1.02    0.35 
  -1   8  -9    1.51    0.11 
   1   8   9    1.46    0.18 
  -2  -8  -9   22.12    0.80 
  -2  -8  -9   20.62    0.80 
  -2  -8  -9   21.16    1.52 
   2   8   9   22.59    1.02 
  -3  -8  -9    1.72    0.39 
  -3  -8  -9    1.20    0.21 
   3   8   9    0.98    0.16 
  -3   8  -9    1.29    0.19 
  -4  -8  -9    5.02    0.53 
  -4  -8  -9    4.32    0.33 
  -4   8  -9    3.93    0.26 
  -4   8  -9    3.71    0.26 
  -4   8  -9    3.19    0.24 
  -5  -8  -9    1.86    0.24 
  -5   8  -9    1.70    0.20 
  -5   8  -9    1.23    0.19 
  -5   8  -9    1.49    0.17 
  -5   8  -9    1.80    0.19 
  -6  -8  -9    1.80    0.22 
  -6   8  -9    1.41    0.20 
  -6   8  -9    1.15    0.28 
  -6   8  -9    1.22    0.24 
  -6   8  -9    1.54    0.14 
  -7  -8  -9    3.16    0.28 
  -7   8  -9    3.07    0.23 
  -7   8  -9    2.85    0.19 
  -7   8  -9    3.08    0.23 
  -8  -8  -9    3.13    0.25 
  -8   8  -9    2.86    0.21 
  -8   8  -9    2.95    0.21 
  -9   8  -9    1.26    0.16 
  -9   8  -9    1.20    0.16 
  -9   9   9    1.71    0.14 
   8  -9  -9    1.48    0.10 
  -8   9   9    1.12    0.15 
  -8   9   9    1.06    0.17 
   7  -9  -9    2.00    0.11 
  -7  -9   9    1.83    0.23 
  -7   9   9    1.54    0.17 
  -7   9   9    1.52    0.17 
  -6  -9   9    7.45    0.45 
   6  -9  -9    7.37    0.30 
  -6   9   9    7.24    0.39 
  -5  -9   9    0.30    0.06 
  -5  -9   9    0.23    0.19 
   5  -9  -9    0.26    0.05 
   5  -9  -9    0.22    0.05 
  -4  -9   9    3.47    0.29 
  -3  -9   9    6.74    0.41 
   2  -9  -9    1.61    0.20 
  -2  -9   9    1.75    0.20 
  -2   9   9    1.88    0.19 
  -1   9   9    1.30    0.22 
   0   9   9    4.83    0.31 
   1  -9   9    3.97    0.17 
  -1  -9  -9    4.32    0.32 
  -1  -9  -9    3.34    0.54 
  -1   9  -9    3.00    0.18 
   1   9   9    3.48    0.26 
  -2  -9  -9    2.92    0.31 
  -2  -9  -9    3.15    0.15 
  -2  -9  -9    2.50    0.60 
  -2  -9  -9    3.12    0.15 
   2   9   9    3.07    0.28 
  -3  -9  -9    0.96    0.20 
  -3  -9  -9    0.85    0.33 
  -3   9  -9    0.79    0.13 
  -3   9  -9    1.02    0.19 
   3   9   9    0.81    0.15 
  -3   9  -9    0.82    0.14 
  -4  -9  -9    3.85    0.31 
  -4   9  -9    3.16    0.25 
  -4   9  -9    3.64    0.25 
  -4   9  -9    3.58    0.25 
  -5  -9  -9    0.87    0.20 
  -5   9  -9    1.00    0.14 
  -5   9  -9    0.78    0.15 
  -5   9  -9    1.15    0.17 
  -6  -9  -9    3.89    0.32 
  -6   9  -9    4.21    0.32 
  -6   9  -9    4.60    0.24 
  -6   9  -9    4.60    0.27 
  -7  -9  -9    4.09    0.32 
  -7   9  -9    4.63    0.24 
  -7   9  -9    4.67    0.27 
  -7   9  -9    4.67    0.27 
  -8  -9  -9    2.39    0.22 
  -8   9  -9    1.74    0.17 
  -8   9  -9    2.03    0.18 
  -9   9  -9    2.73    0.19 
  -9   9  -9    2.46    0.18 
  -8  10   9    3.57    0.21 
  -7 -10   9    3.73    0.28 
  -7  10   9    3.46    0.23 
  -6 -10   9   14.16    0.71 
  -6  10   9   13.37    0.62 
  -5 -10   9    3.01    0.30 
  -4 -10   9    3.97    0.22 
  -4 -10   9    3.95    0.30 
  -3 -10   9    9.07    0.51 
   3 -10  -9    8.95    0.46 
   2 -10  -9    3.90    0.26 
  -2 -10   9    3.81    0.29 
  -2  10   9    3.22    0.26 
   1 -10  -9    0.52    0.19 
  -1  10   9    0.53    0.23 
   0 -10  -9    5.92    0.31 
   0  10   9    5.81    0.35 
  -1 -10  -9    5.40    0.39 
  -1 -10  -9    5.60    0.25 
  -1 -10  -9    5.36    0.28 
  -1 -10  -9    5.50    0.25 
  -1 -10  -9    5.29    0.66 
   1  10   9    6.30    0.35 
  -1  10  -9    6.00    0.26 
   2 -10   9    7.40    0.32 
  -2 -10  -9    6.04    0.85 
  -2 -10  -9    6.92    0.52 
   2  10   9    7.47    0.44 
  -3 -10  -9   12.47    0.70 
  -3  10  -9   13.00    0.58 
  -3  10  -9   12.20    0.53 
   3  10   9   12.56    0.62 
  -4 -10  -9    6.41    0.42 
  -4  10  -9    6.28    0.34 
  -4  10  -9    5.17    0.31 
  -4  10  -9    5.67    0.33 
  -5 -10  -9    3.66    0.32 
  -5  10  -9    4.12    0.26 
  -5  10  -9    4.08    0.27 
  -5  10  -9    4.04    0.25 
  -6 -10  -9    8.01    0.49 
  -6  10  -9    7.96    0.39 
  -6  10  -9    8.13    0.38 
  -6  10  -9    8.40    0.38 
  -7 -10  -9    0.36    0.12 
  -7  10  -9    0.24    0.08 
  -7  10  -9    0.30    0.09 
  -8 -10  -9    1.64    0.19 
  -8  10  -9    1.81    0.16 
  -9  10  -9    0.71    0.12 
  -8  11   9    1.29    0.13 
  -7  11   9    0.89    0.13 
  -6 -11   9    6.86    0.41 
  -6  11   9    6.63    0.36 
  -5 -11   9    3.43    0.31 
  -4 -11   9    4.73    0.33 
  -4 -11   9    4.18    0.22 
   3 -11  -9    8.77    0.44 
  -3 -11   9    8.84    0.50 
   2 -11  -9   12.31    0.54 
  -2 -11   9   11.42    0.61 
  -2  11   9   11.16    0.58 
   1 -11  -9    2.41    0.26 
  -1  11   9    2.48    0.29 
   0 -11  -9   -0.13    0.06 
   0 -11  -9    0.08    0.10 
   0  11   9    0.30    0.10 
  -1 -11  -9    1.59    0.22 
  -1 -11  -9    1.37    0.13 
  -1 -11  -9    1.57    0.10 
  -1 -11  -9    1.60    0.10 
   1  11   9    1.54    0.19 
  -1  11  -9    1.38    0.11 
  -2 -11  -9    0.54    0.24 
   2  11   9    0.50    0.18 
  -3 -11  -9    5.05    0.36 
   3 -11   9    4.49    0.21 
   3  11   9    4.04    0.28 
  -3  11  -9    3.98    0.29 
  -4 -11  -9    1.77    0.23 
  -4  11  -9    1.63    0.19 
  -4  11  -9    1.52    0.18 
  -4  11  -9    1.40    0.20 
  -5 -11  -9    5.63    0.38 
  -5  11  -9    5.25    0.30 
  -5  11  -9    5.32    0.29 
  -5  11  -9    4.92    0.30 
  -6 -11  -9    5.95    0.39 
  -6  11  -9    6.34    0.31 
  -6  11  -9    6.30    0.32 
  -6  11  -9    5.99    0.30 
  -7 -11  -9    0.92    0.17 
  -7  11  -9    1.00    0.12 
  -7  11  -9    0.92    0.14 
  -8 -11  -9    3.66    0.25 
  -8  11  -9    3.26    0.20 
  -8  12   9    1.58    0.12 
  -7  12   9   10.40    0.46 
  -6 -12   9    0.43    0.12 
  -6  12   9    0.38    0.10 
  -5 -12   9    1.01    0.21 
  -4 -12   9    8.04    0.46 
   4 -12  -9    7.32    0.40 
   3 -12  -9    3.90    0.27 
  -3 -12   9    3.95    0.30 
   2 -12  -9    1.59    0.18 
  -2 -12   9    1.07    0.20 
  -2  12   9    1.47    0.18 
   1 -12  -9    9.48    0.47 
  -1  12   9    9.60    0.53 
   0 -12  -9   12.68    0.64 
   0 -12  -9   13.35    0.54 
   0  12   9   11.48    0.62 
  -1 -12  -9    1.52    0.12 
   1  12   9    1.48    0.18 
  -1  12  -9    1.74    0.11 
  -2 -12  -9    0.07    0.21 
   2  12   9    0.09    0.17 
  -3 -12  -9    5.86    0.38 
   3  12   9    5.23    0.32 
  -3  12  -9    5.09    0.32 
  -4 -12  -9    4.11    0.32 
   4 -12   9    4.32    0.19 
  -4  12  -9    4.08    0.27 
  -4  12  -9    4.06    0.28 
  -5 -12  -9    6.80    0.44 
   5 -12   9    7.21    0.30 
  -5  12  -9    6.78    0.36 
  -5  12  -9    7.32    0.36 
  -5  12  -9    7.02    0.34 
  -6 -12  -9    6.40    0.40 
   6 -12   9    6.01    0.26 
  -6  12  -9    6.21    0.30 
  -6  12  -9    6.64    0.32 
  -6  12  -9    5.83    0.30 
  -7 -12  -9    4.47    0.30 
  -7  12  -9    4.37    0.22 
  -7  12  -9    4.37    0.23 
  -8 -12  -9    2.63    0.20 
  -7  13   9    0.92    0.11 
  -6  13   9    1.49    0.16 
  -5 -13   9    3.55    0.28 
   5 -13  -9    3.93    0.28 
   5 -13  -9    2.70    0.28 
  -4 -13   9    2.99    0.27 
   4 -13  -9    3.42    0.24 
   3 -13  -9    8.01    0.41 
  -3 -13   9    8.30    0.47 
   3 -13  -9    8.18    0.48 
  -2 -13   9    7.88    0.47 
   2 -13  -9    8.70    0.41 
   2 -13  -9    8.74    0.49 
  -2  13   9    7.94    0.44 
   1 -13  -9    1.78    0.21 
  -1  13   9    1.59    0.25 
   0 -13  -9    1.03    0.12 
   0 -13  -9    1.03    0.19 
   0  13   9    0.78    0.14 
   1 -13   9    0.18    0.10 
   1  13   9    0.00    0.08 
  -1  13  -9   -0.06    0.04 
  -2 -13  -9    0.40    0.24 
   2  13   9    0.39    0.19 
  -3 -13  -9    2.66    0.25 
   3  13   9    2.44    0.21 
  -3  13  -9    2.03    0.22 
  -4 -13  -9    4.02    0.31 
   4  13   9    3.81    0.25 
  -4  13  -9    3.86    0.26 
  -4  13  -9    3.82    0.26 
  -5 -13  -9    8.16    0.47 
  -5  13  -9    7.84    0.38 
  -5  13  -9    7.84    0.38 
  -6 -13  -9    3.31    0.27 
  -6  13  -9    3.85    0.20 
  -6  13  -9    3.55    0.22 
  -7 -13  -9    1.30    0.16 
  -7  13  -9    1.45    0.12 
  -7  14   9    3.03    0.17 
   6 -14  -9    2.29    0.18 
  -6  14   9    2.37    0.17 
   5 -14  -9    1.30    0.19 
  -4 -14   9    1.66    0.20 
   4 -14  -9    1.71    0.20 
   4 -14  -9    1.34    0.17 
   3 -14  -9    3.52    0.28 
  -3 -14   9    3.37    0.27 
   3 -14  -9    3.31    0.23 
   2 -14  -9    0.13    0.11 
   2 -14  -9    0.20    0.08 
  -2  14   9    0.08    0.08 
   1 -14  -9    1.17    0.13 
   1 -14  -9    0.90    0.28 
  -1  14   9    1.20    0.24 
   0 -14  -9    3.95    0.20 
   0 -14  -9    4.17    0.30 
   0  14   9    4.46    0.29 
   0  14  -9    4.38    0.20 
   1  14   9    4.81    0.30 
   2  14   9    3.72    0.30 
  -3 -14  -9    9.14    0.53 
   3  14   9    9.49    0.48 
  -3  14  -9    9.96    0.46 
  -4 -14  -9    2.56    0.24 
  -4  14  -9    2.36    0.21 
  -4  14  -9    2.66    0.20 
   4  14   9    2.65    0.20 
  -5 -14  -9    4.57    0.31 
  -5  14  -9    4.34    0.24 
  -5  14  -9    4.16    0.25 
  -6 -14  -9    2.71    0.22 
  -6  14  -9    2.64    0.15 
  -6  14  -9    2.79    0.17 
   6 -15  -9    3.59    0.20 
  -6  15   9    3.38    0.19 
   5 -15  -9    0.53    0.15 
   4 -15  -9    6.80    0.33 
   3 -15  -9    2.84    0.19 
   2 -15  -9    0.50    0.09 
   2 -15  -9    0.45    0.12 
   1 -15  -9    4.39    0.37 
   1 -15  -9    4.32    0.21 
  -1  15   9    4.08    0.32 
   0 -15  -9    7.96    0.45 
   0  15   9    8.39    0.43 
   0  15  -9    8.17    0.33 
   1  15   9    4.55    0.29 
   2  15   9    2.17    0.22 
  -3 -15  -9    0.19    0.10 
   3 -15   9    0.20    0.09 
  -3  15  -9    0.35    0.10 
   3  15   9    0.19    0.08 
  -4 -15  -9    4.79    0.32 
  -4  15  -9    5.57    0.28 
   4  15   9    5.01    0.28 
  -4  15  -9    5.02    0.27 
  -5 -15  -9    0.92    0.15 
  -5  15  -9    0.81    0.11 
  -5  15  -9    0.65    0.13 
  -6 -15  -9    0.60    0.12 
  -6  15  -9    0.44    0.07 
   5 -16  -9    4.11    0.21 
   4 -16  -9    0.06    0.06 
   3 -16  -9    0.50    0.09 
   2 -16  -9    0.34    0.06 
   1  16  -9    0.82    0.09 
  -1  16   9    1.20    0.19 
   0  16   9    0.08    0.07 
   1  16   9    2.19    0.18 
   2  16   9    5.39    0.33 
   3  16   9    3.96    0.24 
  -3  16  -9    4.01    0.24 
  -4 -16  -9    0.43    0.10 
  -4  16  -9    0.40    0.08 
  -4  16  -9    0.35    0.08 
  -5  16  -9    0.75    0.09 
   0  17   9    3.10    0.20 
   1  17   9    0.98    0.12 
   2  17   9    0.80    0.15 
  -3  17  -9    1.40    0.13 
 -10   0  10    0.66    0.11 
 -10   0  10    0.34    0.08 
  -9   0  10    3.70    0.23 
  -9   0  10    3.71    0.22 
  -8   0  10   21.02    0.82 
  -8   0  10   20.92    0.82 
  -7   0  10    7.29    0.37 
  -6   0  10    3.09    0.28 
  -6   0  10    3.18    0.22 
  -5   0  10   -0.06    0.08 
  -5   0  10   -0.01    0.10 
  -4   0  10    3.64    0.34 
  -3   0  10    0.13    0.10 
  -2   0  10   11.79    0.59 
   1   0 -10    8.79    0.36 
  -3   0 -10    0.75    0.44 
  -4   0 -10    1.08    0.15 
  -4   0 -10    1.30    0.10 
  -4   0 -10    1.34    0.39 
  -5   0 -10    0.35    0.27 
  -5   0 -10    0.20    0.07 
  -5   0 -10    0.25    0.11 
  -6   0 -10   18.56    0.75 
  -7   0 -10    8.30    0.41 
  -8   0 -10    0.33    0.11 
  -9   0 -10    4.96    0.27 
 -10   0 -10    4.07    0.24 
 -10  -1  10    2.11    0.15 
 -10  -1  10    2.07    0.15 
 -10   1  10    2.28    0.15 
 -10   1  10    2.19    0.15 
  -9  -1  10    1.67    0.16 
  -9  -1  10    1.84    0.16 
  -9   1  10    1.62    0.17 
  -9   1  10    1.64    0.17 
  -8  -1  10    0.12    0.09 
  -8  -1  10    0.19    0.10 
  -8   1  10    0.18    0.10 
  -8   1  10    0.22    0.10 
  -7  -1  10    6.57    0.32 
  -7  -1  10    7.81    0.46 
  -7   1  10    5.95    0.33 
  -6  -1  10   25.42    1.01 
  -6  -1  10   24.42    1.16 
  -6   1  10   24.54    1.02 
  -5  -1  10    1.95    0.19 
  -5  -1  10    1.97    0.24 
  -5   1  10    1.90    0.23 
  -5   1  10    1.88    0.19 
  -4  -1  10    1.30    0.24 
  -4   1  10    1.43    0.24 
  -3  -1  10    0.06    0.10 
  -3   1  10    0.09    0.10 
  -2  -1  10    4.50    0.29 
  -2   1  10    4.01    0.28 
   1  -1 -10    8.30    0.33 
   0   1 -10    4.97    0.20 
   0   1 -10    5.06    0.21 
  -3  -1 -10    3.37    0.60 
  -4  -1 -10    9.66    0.35 
  -4  -1 -10    8.93    0.40 
  -4  -1 -10    9.61    0.81 
  -4   1 -10    9.12    0.84 
  -4   1 -10    9.16    0.37 
  -4   1 -10    8.20    0.41 
  -5  -1 -10    1.03    0.18 
  -5  -1 -10    1.05    0.34 
  -5   1 -10    0.64    0.13 
  -5   1 -10    0.84    0.13 
  -5   1 -10    0.54    0.08 
  -5   1 -10    0.54    0.13 
  -5   1 -10    0.73    0.32 
  -6  -1 -10    8.95    0.43 
  -6   1 -10    8.73    0.43 
  -6   1 -10    8.88    0.41 
  -7  -1 -10    4.01    0.27 
  -7   1 -10    3.83    0.27 
  -8  -1 -10    3.41    0.24 
  -8   1 -10    2.80    0.23 
  -9  -1 -10    0.17    0.09 
  -9   1 -10    0.21    0.10 
 -10   1 -10    2.09    0.18 
 -10  -2  10    3.42    0.19 
 -10   2  10    3.55    0.19 
 -10   2  10    4.06    0.24 
  -9  -2  10    1.82    0.16 
  -9  -2  10    1.80    0.16 
  -9   2  10    1.68    0.17 
  -9   2  10    1.83    0.17 
  -8  -2  10   10.22    0.45 
  -8  -2  10   10.10    0.45 
  -8   2  10    9.98    0.45 
  -8   2  10    9.88    0.45 
  -8   2  10    9.90    0.41 
  -7  -2  10   10.81    0.62 
  -7  -2  10   10.33    0.45 
  -7   2  10   10.34    0.49 
  -6  -2  10    2.41    0.26 
  -6  -2  10    2.66    0.19 
  -6   2  10    2.77    0.21 
  -5  -2  10    4.42    0.34 
  -5  -2  10    4.99    0.28 
  -5   2  10    4.81    0.29 
  -4  -2  10    0.42    0.24 
  -3  -2  10    9.36    0.50 
   2  -2 -10    5.43    0.25 
  -2  -2  10    5.84    0.34 
   1  -2 -10   10.85    0.41 
   1  -2 -10   10.81    0.41 
   0   2 -10    5.07    0.22 
  -2  -2 -10    6.73    0.68 
  -3  -2 -10    5.46    0.74 
  -3  -2 -10    5.71    0.28 
  -4  -2 -10    2.89    0.46 
  -4  -2 -10    2.65    0.18 
  -4   2 -10    2.31    0.52 
  -4   2 -10    2.24    0.19 
  -5  -2 -10    1.11    0.19 
  -5  -2 -10    1.46    0.37 
  -5   2 -10    1.28    0.18 
  -5   2 -10    1.24    0.12 
  -5   2 -10    1.06    0.18 
  -5   2 -10    1.44    0.40 
  -5   2 -10    1.18    0.15 
  -6  -2 -10    4.48    0.30 
  -6   2 -10    5.96    0.31 
  -6   2 -10    5.53    0.32 
  -7  -2 -10    5.70    0.31 
  -7   2 -10    5.33    0.29 
  -7   2 -10    4.71    0.31 
  -8  -2 -10    0.47    0.11 
  -8   2 -10    0.43    0.12 
  -8   2 -10    0.61    0.12 
  -9   2 -10    0.10    0.09 
 -10   2 -10    0.27    0.09 
 -10   3  10    0.35    0.08 
 -10   3  10    0.37    0.08 
  -9   3  10    0.05    0.08 
  -9   3  10    0.10    0.08 
  -8  -3  10    5.26    0.35 
  -8  -3  10    5.00    0.28 
  -8  -3  10    4.96    0.28 
  -8   3  10    4.74    0.28 
  -8   3  10    5.21    0.29 
  -8   3  10    5.15    0.24 
  -7  -3  10    3.26    0.31 
  -7   3  10    2.11    0.21 
  -6  -3  10    0.11    0.07 
  -6  -3  10    0.07    0.12 
  -6   3  10    0.15    0.09 
  -5  -3  10    2.00    0.18 
  -5  -3  10    1.83    0.23 
  -5   3  10    1.73    0.19 
  -4  -3  10    0.47    0.24 
  -3  -3  10    1.79    0.20 
   2  -3 -10   17.08    0.65 
  -2  -3  10   17.35    0.81 
   0   3 -10    1.36    0.10 
  -2  -3 -10    5.06    0.60 
  -3  -3 -10    5.91    0.75 
  -3  -3 -10    6.69    0.29 
  -4  -3 -10   14.43    1.07 
  -4  -3 -10   16.04    0.84 
  -4   3 -10   15.73    0.65 
  -5  -3 -10    2.38    0.25 
  -5  -3 -10    2.11    0.40 
  -5   3 -10    2.52    0.22 
  -5   3 -10    2.53    0.22 
  -5   3 -10    2.14    0.18 
  -5   3 -10    2.17    0.15 
  -5   3 -10    1.74    0.46 
  -6   3 -10    0.84    0.14 
  -6   3 -10    1.12    0.19 
  -6   3 -10    0.89    0.12 
  -7   3 -10    1.99    0.21 
  -7   3 -10    2.13    0.20 
  -8   3 -10    3.12    0.22 
  -8   3 -10    2.78    0.23 
  -9   3 -10    0.23    0.09 
  -9   3 -10    0.09    0.08 
 -10   3 -10    0.89    0.14 
 -10   4  10    2.13    0.14 
 -10   4  10    2.12    0.14 
  -9   4  10    2.77    0.19 
  -9   4  10    2.79    0.19 
  -8  -4  10    0.02    0.10 
  -8   4  10    0.09    0.09 
  -8   4  10    0.00    0.08 
  -8   4  10    0.13    0.06 
  -7  -4  10    2.50    0.30 
  -7   4  10    1.94    0.20 
  -6  -4  10    0.65    0.16 
  -6  -4  10    0.77    0.12 
  -6   4  10    0.84    0.16 
  -5  -4  10    5.76    0.39 
  -5  -4  10    6.00    0.31 
  -5   4  10    5.85    0.34 
  -4  -4  10   13.41    0.70 
   3  -4 -10    5.35    0.25 
  -3  -4  10    5.49    0.34 
  -2  -4  10   11.18    0.59 
   2  -4 -10   11.54    0.45 
  -2   4  10   12.61    0.58 
   0   4 -10   16.50    0.64 
   1   4  10    4.52    0.28 
  -2  -4 -10    0.67    0.28 
  -3  -4 -10    3.68    0.19 
  -3  -4 -10    3.45    0.64 
  -3   4 -10    3.60    0.28 
  -4  -4 -10    0.49    0.15 
  -4  -4 -10    0.47    0.25 
  -4   4 -10    0.31    0.11 
  -4   4 -10    0.47    0.13 
  -4   4 -10    0.23    0.10 
  -5  -4 -10    4.69    0.53 
  -5  -4 -10    4.30    0.33 
  -5   4 -10    4.52    0.29 
  -5   4 -10    4.13    0.27 
  -5   4 -10    4.37    0.25 
  -5   4 -10    4.39    0.24 
  -6  -4 -10   -0.02    0.11 
  -6   4 -10    0.27    0.12 
  -6   4 -10    0.12    0.07 
  -6   4 -10    0.06    0.10 
  -7   4 -10    5.56    0.31 
  -7   4 -10    6.07    0.33 
  -8   4 -10    2.37    0.20 
  -8   4 -10    2.42    0.21 
  -9   4 -10    1.50    0.15 
  -9   4 -10    1.19    0.16 
 -10   4 -10    0.65    0.12 
 -10   5  10    0.05    0.06 
 -10   5  10    0.05    0.06 
  -9   5  10    2.07    0.17 
  -9   5  10    1.92    0.17 
  -8  -5  10    1.17    0.19 
  -8   5  10    0.56    0.11 
  -8   5  10    0.61    0.11 
  -8   5  10    0.69    0.12 
  -7  -5  10    3.15    0.34 
  -7   5  10    3.09    0.25 
  -6  -5  10    0.74    0.11 
  -6  -5  10    0.86    0.16 
  -6   5  10    1.08    0.17 
  -5  -5  10    3.80    0.23 
  -5  -5  10    4.20    0.32 
  -5   5  10    3.94    0.28 
  -4  -5  10   35.96    1.61 
  -4  -5  10   34.70    1.43 
  -3  -5  10   26.76    1.21 
   3  -5 -10   26.02    0.99 
  -2  -5  10   15.26    0.75 
  -2   5  10   15.74    0.73 
  -1   5  10   21.99    0.99 
   0   5 -10    3.23    0.18 
   0   5  10    3.67    0.29 
   1   5  10    2.39    0.21 
  -2  -5 -10    3.47    0.54 
   2   5  10    4.40    0.28 
  -3  -5 -10   14.89    0.53 
  -3  -5 -10   14.25    1.12 
  -3   5 -10   13.31    0.64 
  -4  -5 -10    9.32    0.56 
  -4  -5 -10    9.29    0.80 
  -4   5 -10    9.78    0.45 
  -4   5 -10    9.43    0.45 
  -4   5 -10    9.70    0.45 
  -4   5 -10    9.62    0.44 
  -5  -5 -10   13.80    0.75 
  -5   5 -10   13.88    0.59 
  -5   5 -10   13.96    0.59 
  -5   5 -10   13.86    0.60 
  -5   5 -10   14.08    0.59 
  -6  -5 -10    1.80    0.22 
  -6   5 -10    1.84    0.16 
  -6   5 -10    1.69    0.12 
  -6   5 -10    1.87    0.21 
  -6   5 -10    1.87    0.21 
  -7   5 -10    0.35    0.11 
  -7   5 -10    0.60    0.12 
  -8   5 -10    0.06    0.09 
  -8   5 -10    0.11    0.10 
  -9   5 -10    0.03    0.08 
  -9   5 -10    0.06    0.08 
 -10   5 -10    1.32    0.14 
  -9   6  10    2.51    0.17 
  -9   6  10    2.26    0.17 
  -8  -6  10    2.95    0.26 
  -8   6  10    3.11    0.18 
  -8   6  10    3.26    0.21 
  -8   6  10    3.15    0.21 
  -7  -6  10    2.84    0.32 
  -7   6  10    3.18    0.25 
  -6  -6  10   17.31    0.70 
  -6  -6  10   17.85    0.87 
  -6   6  10   18.59    0.77 
  -5  -6  10    0.09    0.07 
  -5  -6  10    0.01    0.11 
  -5   6  10    0.05    0.10 
   4  -6 -10    6.84    0.29 
  -4  -6  10    6.33    0.49 
  -4  -6  10    7.32    0.41 
   3  -6 -10    6.33    0.25 
   3  -6 -10    6.21    0.25 
  -3  -6  10    6.53    0.40 
  -2  -6  10   11.15    0.56 
  -2   6  10    9.98    0.52 
  -1   6  10    5.17    0.32 
   0   6  10   24.00    1.11 
   1   6  10   12.12    0.60 
  -1   6 -10   12.49    0.46 
  -1   6 -10   11.78    0.46 
  -2  -6 -10   12.08    0.46 
  -2  -6 -10   11.50    0.94 
  -2   6 -10   11.75    0.53 
   2   6  10   11.44    0.58 
  -3  -6 -10    5.96    0.51 
  -3  -6 -10    5.97    0.83 
   3   6  10    6.74    0.41 
  -3   6 -10    6.13    0.41 
  -4  -6 -10    9.15    0.79 
  -4  -6 -10    9.23    0.56 
  -4   6 -10    9.67    0.44 
  -4   6 -10    9.91    0.46 
  -4   6 -10   10.06    0.46 
  -4   6 -10    9.61    0.45 
  -5  -6 -10    0.20    0.13 
  -5   6 -10    0.26    0.08 
  -5   6 -10    0.35    0.10 
  -5   6 -10    0.17    0.11 
  -5   6 -10    0.39    0.11 
  -6  -6 -10    1.53    0.23 
  -6   6 -10    1.28    0.20 
  -6   6 -10    1.84    0.16 
  -6   6 -10    1.62    0.12 
  -6   6 -10    1.66    0.20 
  -7  -6 -10    3.21    0.28 
  -7   6 -10    3.27    0.24 
  -7   6 -10    3.37    0.25 
  -8   6 -10    2.23    0.19 
  -8   6 -10    2.02    0.18 
  -9   6 -10    0.67    0.13 
  -9   6 -10    0.72    0.12 
  -9   7  10    3.20    0.19 
  -9   7  10    3.07    0.18 
   8  -7 -10    0.14    0.05 
  -8   7  10    0.28    0.07 
  -8   7  10    0.22    0.08 
  -8   7  10    0.19    0.08 
  -7  -7  10    3.06    0.30 
  -7   7  10    2.82    0.23 
  -7   7  10    2.56    0.23 
  -7   7  10    2.70    0.24 
   6  -7 -10    2.97    0.17 
  -6  -7  10    3.24    0.29 
  -6   7  10    3.18    0.23 
  -6   7  10    3.26    0.23 
   5  -7 -10    2.88    0.15 
  -5  -7  10    2.74    0.27 
  -5  -7  10    2.80    0.18 
   4  -7 -10    1.62    0.10 
   4  -7 -10    1.63    0.10 
  -4  -7  10    1.64    0.26 
  -4  -7  10    0.94    0.33 
  -3  -7  10    9.74    0.54 
  -2  -7  10    2.19    0.22 
  -2   7  10    1.43    0.18 
  -1   7  10   16.72    0.79 
   0   7  10    4.71    0.39 
  -1  -7 -10    5.59    0.40 
  -1   7 -10    5.85    0.24 
  -1   7 -10    5.99    0.24 
   1   7  10    5.47    0.34 
  -2  -7 -10    5.56    0.38 
  -2  -7 -10    5.49    0.23 
  -2  -7 -10    5.13    0.63 
   2   7  10    4.75    0.32 
  -2   7 -10    5.45    0.32 
  -3  -7 -10    0.40    0.23 
  -3  -7 -10    0.03    0.42 
  -3   7 -10    0.09    0.18 
   3   7  10    0.16    0.17 
  -3   7 -10    0.27    0.19 
  -3   7 -10    0.01    0.19 
  -3   7 -10    0.20    0.20 
  -4  -7 -10    4.68    0.37 
  -4   7 -10    5.24    0.30 
  -4   7 -10    4.73    0.29 
  -4   7 -10    5.02    0.30 
  -4   7 -10    5.24    0.29 
  -5  -7 -10    3.68    0.33 
  -5   7 -10    4.10    0.27 
  -5   7 -10    4.13    0.27 
  -5   7 -10    4.09    0.26 
  -5   7 -10    4.08    0.24 
  -6  -7 -10    6.60    0.44 
  -6   7 -10    7.07    0.33 
  -6   7 -10    6.76    0.35 
  -6   7 -10    6.54    0.35 
  -6   7 -10    6.77    0.31 
  -7  -7 -10    0.81    0.18 
  -7   7 -10    0.51    0.11 
  -7   7 -10    0.68    0.11 
  -7   7 -10    0.60    0.12 
  -8   7 -10    0.37    0.10 
  -8   7 -10    0.35    0.10 
  -9   7 -10    0.58    0.09 
  -9   7 -10    1.23    0.13 
  -9   8  10    3.52    0.20 
  -9   8  10    4.08    0.19 
  -8   8  10    7.33    0.33 
  -8   8  10    7.47    0.32 
  -8   8  10    7.01    0.32 
   7  -8 -10    2.15    0.13 
  -7  -8  10    2.44    0.27 
  -7   8  10    2.18    0.22 
  -7   8  10    2.32    0.22 
  -7   8  10    2.06    0.22 
  -6  -8  10    0.70    0.16 
   6  -8 -10    0.83    0.08 
  -6   8  10    0.87    0.16 
  -6   8  10    0.49    0.11 
  -5  -8  10    3.01    0.27 
  -5  -8  10    2.76    0.17 
   5  -8 -10    2.71    0.13 
   5  -8 -10    2.96    0.13 
  -4  -8  10    4.86    0.40 
  -4  -8  10    5.41    0.32 
  -3  -8  10    1.13    0.19 
   2  -8 -10    2.53    0.22 
  -2  -8  10    2.48    0.24 
  -2   8  10    2.90    0.22 
   1  -8 -10   21.71    0.90 
  -1   8  10   20.84    0.97 
   0  -8 -10    9.19    0.56 
   0   8  10    8.34    0.49 
  -1  -8 -10    2.73    0.18 
   1  -8  10    2.36    0.14 
  -1  -8 -10    2.95    0.28 
  -1   8 -10    2.17    0.12 
   1   8  10    2.64    0.22 
  -1   8 -10    2.20    0.12 
  -2  -8 -10    3.08    0.14 
  -2  -8 -10    2.99    0.14 
  -2  -8 -10    2.68    0.29 
  -2  -8 -10    2.75    0.49 
  -2  -8 -10    2.69    0.16 
   2   8  10    3.43    0.24 
  -2   8 -10    3.29    0.25 
  -3  -8 -10    3.71    0.34 
   3   8  10    3.81    0.30 
  -3   8 -10    4.32    0.30 
  -3   8 -10    3.87    0.30 
  -3   8 -10    4.14    0.31 
  -4  -8 -10    2.41    0.28 
  -4   8 -10    2.80    0.23 
  -4   8 -10    2.61    0.22 
  -4   8 -10    2.25    0.21 
  -4   8 -10    2.89    0.23 
  -5  -8 -10    0.47    0.14 
  -5   8 -10    0.36    0.11 
  -5   8 -10    0.30    0.09 
  -5   8 -10    0.46    0.11 
  -5   8 -10    0.20    0.11 
  -6  -8 -10   11.96    0.69 
  -6   8 -10   12.67    0.53 
  -6   8 -10   12.87    0.54 
  -6   8 -10   12.69    0.54 
  -6   8 -10   13.16    0.54 
  -7  -8 -10    6.32    0.40 
  -7   8 -10    6.50    0.32 
  -7   8 -10    6.46    0.28 
  -7   8 -10    6.01    0.32 
  -8  -8 -10    3.21    0.25 
  -8   8 -10    3.83    0.22 
  -8   8 -10    3.79    0.21 
  -9   8 -10    1.91    0.14 
  -9   8 -10    2.07    0.15 
  -8   9  10    2.42    0.17 
  -8   9  10    2.53    0.15 
  -7  -9  10    1.97    0.24 
  -7   9  10    1.38    0.19 
  -6  -9  10   16.85    0.84 
  -6   9  10   17.52    0.74 
  -5  -9  10   19.74    0.79 
  -5  -9  10   21.38    0.98 
  -4  -9  10    2.96    0.23 
  -4  -9  10    2.72    0.32 
   3  -9 -10    0.56    0.12 
  -3  -9  10    0.42    0.13 
   2  -9 -10    8.38    0.42 
  -2   9  10    7.94    0.44 
   1  -9 -10    0.21    0.09 
  -1   9  10    0.21    0.10 
   0  -9 -10    2.61    0.23 
   0  -9 -10    2.60    0.33 
   0   9  10    2.06    0.25 
  -1  -9 -10   12.07    0.53 
   1  -9  10   12.26    0.47 
  -1  -9 -10   12.39    0.69 
   1  -9  10   12.44    0.47 
  -1   9 -10   12.62    0.48 
   1   9  10   12.87    0.62 
  -1   9 -10   12.24    0.47 
  -2  -9 -10    6.82    0.44 
  -2  -9 -10    6.45    0.28 
   2  -9  10    6.11    0.28 
   2   9  10    6.78    0.37 
  -2   9 -10    5.61    0.35 
  -3  -9 -10    0.27    0.23 
   3   9  10    0.21    0.17 
  -3   9 -10    0.40    0.21 
  -3   9 -10    0.26    0.18 
  -4  -9 -10    7.09    0.44 
  -4   9 -10    6.50    0.35 
  -4   9 -10    6.58    0.35 
   4   9  10    6.16    0.37 
  -4   9 -10    6.72    0.36 
  -5  -9 -10    2.90    0.28 
  -5   9 -10    2.40    0.22 
  -5   9 -10    2.73    0.20 
  -5   9 -10    2.68    0.22 
  -6  -9 -10    0.21    0.12 
  -6   9 -10    0.19    0.07 
  -6   9 -10    0.27    0.10 
  -6   9 -10    0.36    0.09 
  -6   9 -10    0.43    0.11 
  -7  -9 -10    2.19    0.21 
  -7   9 -10    1.91    0.17 
  -7   9 -10    2.03    0.18 
  -7   9 -10    2.03    0.14 
  -8  -9 -10    2.33    0.20 
  -8   9 -10    2.33    0.17 
  -8   9 -10    2.24    0.17 
  -8  10  10    3.44    0.17 
  -7  10  10    0.54    0.16 
  -6 -10  10    1.75    0.22 
  -6  10  10    1.76    0.18 
  -5 -10  10    1.86    0.23 
  -4 -10  10    1.27    0.27 
  -4 -10  10    1.01    0.17 
  -3 -10  10    4.75    0.33 
   3 -10 -10    4.81    0.30 
   2 -10 -10    9.32    0.46 
  -2  10  10    9.77    0.50 
   1 -10 -10    1.55    0.17 
  -1  10  10    1.74    0.19 
   0 -10 -10    0.42    0.17 
   0  10  10    0.31    0.20 
  -1 -10 -10    0.93    0.12 
  -1 -10 -10    1.06    0.10 
  -1 -10 -10    0.80    0.17 
  -1  10 -10    1.07    0.07 
   1  10  10    1.24    0.17 
  -1  10 -10    1.27    0.08 
  -2 -10 -10    7.15    0.47 
   2 -10  10    7.28    0.30 
  -2  10 -10    7.21    0.40 
   2  10  10    7.97    0.42 
  -3 -10 -10    1.38    0.30 
   3 -10  10    1.52    0.16 
  -3  10 -10    1.52    0.25 
   3  10  10    1.49    0.23 
  -3  10 -10    1.14    0.26 
  -4 -10 -10    0.13    0.12 
  -4  10 -10    0.07    0.09 
  -4  10 -10    0.08    0.09 
   4  10  10   -0.01    0.08 
  -4  10 -10   -0.11    0.09 
  -5 -10 -10    0.49    0.13 
  -5  10 -10    0.49    0.11 
  -5  10 -10    0.37    0.09 
  -5  10 -10    0.38    0.11 
  -6 -10 -10    3.03    0.27 
  -6  10 -10    2.91    0.20 
  -6  10 -10    3.36    0.22 
  -6  10 -10    2.84    0.18 
  -7 -10 -10    0.71    0.16 
  -7  10 -10    0.61    0.10 
  -7  10 -10    0.54    0.10 
  -8 -10 -10    2.31    0.19 
  -8  10 -10    2.39    0.16 
  -8  11  10    1.40    0.09 
  -7  11  10    2.87    0.22 
  -6 -11  10    1.62    0.21 
  -6  11  10    1.23    0.16 
  -5 -11  10    9.66    0.53 
  -4 -11  10    9.66    0.39 
   4 -11 -10    7.97    0.45 
  -4 -11  10    9.40    0.56 
  -3 -11  10    4.35    0.31 
   3 -11 -10    4.15    0.27 
   2 -11 -10   11.83    0.54 
  -2  11  10   11.60    0.58 
   1 -11 -10    5.16    0.29 
  -1  11  10    4.93    0.32 
   0 -11 -10    6.63    0.32 
   0  11  10    5.58    0.38 
   0  11 -10    5.66    0.27 
  -1 -11 -10    0.70    0.16 
  -1 -11 -10    0.62    0.09 
  -1 -11 -10    0.53    0.06 
  -1 -11 -10    0.45    0.06 
   1  11  10    0.78    0.16 
  -2 -11 -10    7.61    0.48 
   2  11  10    7.96    0.43 
  -3 -11 -10    8.88    0.61 
   3 -11  10   10.18    0.38 
   3 -11  10    8.89    0.38 
  -3  11 -10    9.95    0.52 
   3  11  10   10.41    0.53 
  -3  11 -10    9.55    0.51 
  -4 -11 -10    5.37    0.38 
   4 -11  10    5.82    0.25 
   4  11  10    5.26    0.32 
  -4  11 -10    5.90    0.32 
  -4  11 -10    5.56    0.32 
   5 -11  10   10.82    0.42 
  -5 -11 -10   10.29    0.58 
  -5  11 -10   10.27    0.47 
  -5  11 -10   10.30    0.47 
  -6 -11 -10    5.06    0.33 
  -6  11 -10    4.59    0.23 
  -6  11 -10    4.78    0.26 
  -6  11 -10    4.76    0.26 
  -7 -11 -10    1.09    0.17 
  -7  11 -10    1.18    0.11 
  -7  12  10    0.54    0.13 
  -6  12  10    7.63    0.37 
  -5 -12  10    0.35    0.12 
   5 -12 -10    0.21    0.09 
  -4 -12  10    1.65    0.27 
   4 -12 -10    1.39    0.19 
  -3 -12  10    5.12    0.34 
   3 -12 -10    5.25    0.30 
   2 -12 -10   11.52    0.51 
  -2  12  10   10.62    0.55 
   1 -12 -10    4.15    0.24 
   1 -12 -10    4.10    0.31 
  -1  12  10    3.91    0.28 
   0 -12 -10    4.81    0.24 
   0  12 -10    4.81    0.22 
   0  12  10    4.20    0.36 
   1  12  10    2.30    0.21 
  -2 -12 -10    2.74    0.26 
   2  12  10    2.38    0.21 
  -3 -12 -10    1.49    0.25 
   3  12  10    1.15    0.19 
  -3  12 -10    1.21    0.23 
  -3  12 -10    1.56    0.21 
  -4 -12 -10    0.99    0.18 
  -4  12 -10    0.87    0.15 
  -4  12 -10    0.72    0.12 
   4  12  10    0.87    0.15 
  -5 -12 -10    1.07    0.19 
  -5  12 -10    1.42    0.16 
  -5  12 -10    1.64    0.15 
  -6 -12 -10    0.14    0.10 
  -6  12 -10    0.33    0.06 
  -6  12 -10    0.22    0.08 
  -7 -12 -10    0.41    0.10 
  -7  13  10    2.51    0.16 
   6 -13 -10    0.40    0.09 
  -6  13  10    0.34    0.08 
   5 -13 -10    0.19    0.08 
   4 -13 -10    7.92    0.40 
  -3 -13  10    3.49    0.18 
   3 -13 -10    3.71    0.29 
  -3 -13  10    3.78    0.27 
   3 -13 -10    3.72    0.23 
   2 -13 -10    5.30    0.36 
   2 -13 -10    5.52    0.29 
  -2  13  10    5.87    0.34 
   1 -13 -10    0.92    0.18 
   1 -13 -10    0.76    0.12 
  -1  13  10    1.06    0.17 
   0 -13 -10    4.02    0.20 
   0  13 -10    3.97    0.18 
   0  13  10    3.87    0.31 
   1  13  10    0.62    0.12 
  -2 -13 -10    0.24    0.11 
   2  13  10    0.16    0.09 
  -3 -13 -10   11.62    0.66 
   3  13  10   11.71    0.59 
  -3  13 -10   11.27    0.55 
  -3  13 -10   10.99    0.56 
  -4 -13 -10    1.36    0.19 
  -4  13 -10    1.08    0.17 
   4  13  10    1.34    0.15 
  -4  13 -10    1.24    0.15 
  -5 -13 -10   10.06    0.55 
  -5  13 -10   10.34    0.44 
  -5  13 -10    9.71    0.44 
  -6 -13 -10    2.53    0.21 
  -6  13 -10    2.63    0.17 
  -6  13 -10    2.77    0.14 
   6 -14 -10    2.93    0.18 
  -6  14  10    3.02    0.17 
   5 -14 -10    1.12    0.13 
   4 -14 -10    0.34    0.12 
   3 -14 -10    0.47    0.09 
   2 -14 -10    3.49    0.26 
   2 -14 -10    3.26    0.20 
   1 -14 -10    7.31    0.41 
   1 -14 -10    7.42    0.32 
   1  14 -10    6.99    0.30 
  -1  14  10    6.91    0.38 
   0  14  10    9.88    0.52 
   1  14  10    3.44    0.24 
   2  14  10    7.36    0.39 
  -3 -14 -10    0.72    0.19 
  -3  14 -10    0.43    0.17 
  -3  14 -10    0.46    0.17 
   3  14  10    0.63    0.16 
  -4 -14 -10    1.20    0.18 
  -4  14 -10    1.12    0.14 
  -4  14 -10    1.45    0.16 
   4  14  10    1.54    0.15 
  -5 -14 -10    3.81    0.26 
  -5  14 -10    3.34    0.21 
  -5  14 -10    3.44    0.19 
  -6 -14 -10    0.01    0.07 
   5 -15 -10    0.42    0.07 
   4 -15 -10    0.25    0.13 
   3 -15 -10    5.21    0.25 
   2 -15 -10    0.47    0.07 
   1  15 -10    1.10    0.08 
  -1  15  10    1.13    0.14 
   0  15  10    2.14    0.23 
   1  15  10    1.06    0.14 
   2  15  10   11.88    0.57 
  -3  15 -10    1.89    0.20 
   3  15  10    1.65    0.19 
  -3  15 -10    2.03    0.21 
  -4 -15 -10    9.20    0.51 
  -4  15 -10    9.91    0.42 
  -4  15 -10    9.99    0.42 
  -5  15 -10    0.16    0.05 
   4 -16 -10    2.38    0.13 
   3 -16 -10   -0.02    0.04 
   0  16  10   13.65    0.65 
   1  16  10    2.34    0.18 
   2  16  10    0.81    0.12 
  -3  16 -10    0.23    0.12 
  -4  16 -10    1.07    0.10 
  -9   0  11    0.07    0.07 
  -9   0  11    0.19    0.08 
  -8   0  11   -0.06    0.08 
  -8   0  11    0.16    0.09 
  -7   0  11    0.56    0.11 
  -6   0  11    2.93    0.24 
  -5   0  11    9.31    0.45 
  -5   0  11    9.63    0.54 
  -4   0  11    2.27    0.21 
  -4   0  11    2.27    0.24 
  -3   0  11    9.05    0.54 
  -2   0  11    0.19    0.11 
   2   0 -11    0.25    0.06 
   1   0 -11    1.57    0.09 
   1   0 -11    1.37    0.09 
   0   0  11    4.62    0.29 
  -2   0 -11   10.93    0.50 
  -3   0 -11    7.80    0.37 
  -4   0 -11   15.02    0.61 
  -4   0 -11   13.64    0.64 
  -4   0 -11   13.30    1.24 
  -4   0 -11   14.48    0.62 
  -5   0 -11    0.11    0.10 
  -5   0 -11    0.02    0.07 
  -6   0 -11    1.26    0.20 
  -7   0 -11    1.11    0.19 
  -8   0 -11    2.58    0.20 
  -9   0 -11    5.04    0.26 
  -9  -1  11    3.27    0.20 
  -9  -1  11    3.48    0.20 
  -9   1  11    3.37    0.21 
  -9   1  11    3.56    0.21 
  -8  -1  11    2.06    0.18 
  -8  -1  11    2.35    0.19 
  -8   1  11    2.12    0.19 
  -8   1  11    2.50    0.20 
  -7  -1  11    0.65    0.10 
  -7   1  11    0.48    0.08 
  -6  -1  11   10.10    0.62 
  -6  -1  11   11.17    0.52 
  -6   1  11   11.44    0.53 
  -5  -1  11   11.49    0.64 
  -5  -1  11   12.45    0.55 
  -5   1  11   12.49    0.56 
  -4  -1  11    3.75    0.29 
  -4  -1  11    3.86    0.25 
  -4   1  11    3.42    0.26 
  -3  -1  11    8.54    0.51 
  -2  -1  11    0.75    0.16 
   2  -1 -11    1.10    0.10 
   1   1 -11   14.83    0.56 
  -1   1  11   14.43    0.69 
   0  -1  11    8.96    0.46 
   0   1  11    9.11    0.47 
  -2  -1 -11   10.99    0.50 
  -2   1 -11   11.43    0.51 
  -3  -1 -11    2.80    0.51 
  -3  -1 -11    3.31    0.21 
  -3   1 -11    2.67    0.21 
  -4  -1 -11    5.19    0.42 
  -4  -1 -11    5.04    0.34 
  -4  -1 -11    4.75    0.73 
  -4  -1 -11    5.20    0.26 
  -4   1 -11    5.13    0.28 
  -4   1 -11    4.99    0.77 
  -4   1 -11    5.28    0.31 
  -4   1 -11    4.75    0.33 
  -5  -1 -11    0.48    0.13 
  -5   1 -11    0.56    0.09 
  -5   1 -11    0.54    0.13 
  -6  -1 -11    1.92    0.20 
  -6   1 -11    1.57    0.20 
  -7  -1 -11    3.09    0.23 
  -7   1 -11    2.98    0.23 
  -8  -1 -11    1.23    0.17 
  -8   1 -11    1.06    0.16 
  -9  -1 -11    7.03    0.33 
  -9   1 -11    7.75    0.34 
  -9  -2  11    0.27    0.08 
  -9  -2  11    0.22    0.08 
  -9   2  11    0.29    0.08 
  -9   2  11    0.27    0.08 
  -8  -2  11    2.54    0.20 
  -8  -2  11    2.51    0.20 
  -8   2  11    2.96    0.20 
  -8   2  11    2.47    0.20 
  -7  -2  11    0.53    0.08 
  -7  -2  11    0.58    0.15 
  -7   2  11    0.38    0.08 
  -6  -2  11   10.26    0.49 
  -6  -2  11   10.24    0.61 
  -6   2  11   11.01    0.52 
  -5  -2  11    0.68    0.15 
  -5  -2  11    1.27    0.16 
  -5   2  11    0.95    0.17 
  -4  -2  11   -0.06    0.10 
  -4  -2  11   -0.03    0.08 
  -3  -2  11    0.78    0.24 
  -2  -2  11   12.23    0.46 
   2  -2 -11   12.14    0.47 
   1   2 -11   21.36    0.81 
  -1   2  11   21.65    0.97 
   0   2  11    8.65    0.46 
  -2  -2 -11    3.99    0.25 
  -2   2 -11    3.38    0.25 
  -3  -2 -11    5.04    0.28 
  -3  -2 -11    5.03    0.36 
  -3  -2 -11    4.51    0.59 
  -3  -2 -11    5.27    0.23 
  -3   2 -11    4.97    0.29 
  -3   2 -11    4.88    0.29 
  -3   2 -11    5.04    0.31 
  -4  -2 -11    3.94    0.30 
  -4  -2 -11    3.18    0.63 
  -4  -2 -11    3.35    0.34 
  -4   2 -11    3.44    0.29 
  -4   2 -11    3.85    0.24 
  -4   2 -11    3.49    0.26 
  -5  -2 -11    4.17    0.27 
  -5   2 -11    4.12    0.27 
  -5   2 -11    3.71    0.26 
  -5   2 -11    3.93    0.19 
  -5   2 -11    4.15    0.23 
  -6  -2 -11    9.24    0.43 
  -6   2 -11    8.86    0.43 
  -6   2 -11    9.08    0.42 
  -7  -2 -11    3.73    0.25 
  -7   2 -11    3.75    0.25 
  -7   2 -11    3.96    0.26 
  -8  -2 -11    0.05    0.09 
  -8   2 -11    0.11    0.09 
  -9   2 -11    4.90    0.25 
  -9   3  11    0.50    0.09 
  -9   3  11    0.33    0.08 
  -8  -3  11    1.55    0.17 
  -8  -3  11    1.65    0.16 
  -8   3  11    2.01    0.17 
  -8   3  11    1.77    0.17 
  -7  -3  11    8.35    0.45 
  -7   3  11    6.81    0.35 
  -6  -3  11    4.73    0.28 
  -6  -3  11    4.30    0.37 
  -6   3  11    5.50    0.33 
  -5  -3  11    1.12    0.21 
  -5  -3  11    0.78    0.15 
  -5   3  11    0.90    0.17 
  -4  -3  11    1.08    0.20 
  -4  -3  11    1.10    0.16 
  -3  -3  11    6.65    0.43 
   3  -3 -11    6.69    0.29 
   1  -3 -11    3.98    0.27 
  -1   3  11    4.15    0.27 
   1   3 -11    4.08    0.20 
   0  -3 -11   35.88    1.40 
   0   3  11   36.00    1.57 
   1   3  11   15.72    0.78 
  -2  -3 -11    0.29    0.09 
  -2   3 -11    0.37    0.11 
  -3  -3 -11    1.63    0.14 
  -3  -3 -11    1.33    0.21 
  -3  -3 -11    1.49    0.41 
  -3  -3 -11    1.87    0.11 
  -3  -3 -11    1.82    0.23 
  -3   3 -11    1.35    0.19 
  -3   3 -11    1.53    0.18 
  -3   3 -11    1.66    0.17 
  -4  -3 -11    0.63    0.50 
  -4  -3 -11    0.52    0.23 
  -4  -3 -11    0.64    0.27 
  -4   3 -11    0.72    0.17 
  -4   3 -11    0.62    0.22 
  -4   3 -11    0.72    0.23 
  -4   3 -11    0.70    0.20 
  -5  -3 -11    1.49    0.23 
  -5  -3 -11    1.93    0.21 
  -5   3 -11    1.93    0.17 
  -5   3 -11    1.93    0.14 
  -5   3 -11    2.11    0.21 
  -5   3 -11    1.75    0.20 
  -6   3 -11    0.33    0.12 
  -6   3 -11    0.14    0.10 
  -7   3 -11    2.08    0.20 
  -7   3 -11    2.17    0.21 
  -8   3 -11    4.52    0.26 
  -9   3 -11    2.59    0.18 
  -9   4  11    3.78    0.21 
  -9   4  11    3.51    0.20 
  -8   4  11    0.15    0.08 
  -8   4  11    0.25    0.06 
  -8   4  11    0.11    0.08 
  -7  -4  11    0.26    0.12 
  -7   4  11    0.39    0.09 
  -7   4  11    0.32    0.10 
  -6  -4  11    0.95    0.21 
  -6  -4  11    0.72    0.14 
  -6   4  11    0.81    0.19 
  -5  -4  11    4.43    0.26 
  -5  -4  11    4.24    0.33 
  -5   4  11    4.40    0.29 
   4  -4 -11    0.21    0.06 
  -4  -4  11    0.19    0.10 
  -4  -4  11    0.37    0.13 
  -3  -4  11    8.88    0.53 
   3  -4 -11    8.68    0.35 
  -1   4  11   26.54    1.19 
   0   4 -11   10.15    0.38 
   0   4 -11    9.93    0.38 
   0   4  11    9.58    0.51 
   1   4  11    8.73    0.51 
  -1   4 -11    7.46    0.48 
  -2  -4 -11   15.24    0.81 
  -2   4 -11   15.05    0.66 
   2   4  11   15.12    0.72 
  -3  -4 -11    0.33    0.27 
  -3  -4 -11    0.09    0.12 
  -3  -4 -11    0.26    0.05 
  -3  -4 -11    0.26    0.06 
  -3   4 -11    0.20    0.11 
  -3   4 -11    0.53    0.11 
  -3   4 -11    0.46    0.11 
  -4  -4 -11    3.74    0.37 
  -4   4 -11    3.55    0.31 
  -4   4 -11    4.10    0.30 
  -4   4 -11    4.12    0.27 
  -4   4 -11    3.64    0.31 
  -5  -4 -11    5.70    0.39 
  -5   4 -11    5.40    0.30 
  -5   4 -11    5.69    0.32 
  -5   4 -11    5.96    0.28 
  -5   4 -11    5.94    0.33 
  -6  -4 -11    4.31    0.33 
  -6   4 -11    4.41    0.27 
  -6   4 -11    4.23    0.28 
  -6   4 -11    4.23    0.23 
  -7   4 -11    0.28    0.10 
  -7   4 -11    0.26    0.11 
  -8   4 -11    2.39    0.19 
  -8   4 -11    2.82    0.20 
  -9   4 -11    0.45    0.09 
  -9   5  11    0.32    0.08 
  -9   5  11    0.43    0.17 
  -8   5  11    0.48    0.09 
  -8   5  11    0.50    0.08 
  -8   5  11    0.47    0.10 
  -7  -5  11    6.63    0.40 
  -7   5  11    6.21    0.32 
  -7   5  11    6.12    0.32 
  -7   5  11    6.04    0.31 
  -6  -5  11    1.93    0.15 
  -6  -5  11    1.77    0.25 
  -6   5  11    1.98    0.23 
  -5  -5  11    0.09    0.11 
   5  -5 -11    0.03    0.05 
  -5  -5  11    0.09    0.07 
  -5   5  11    0.22    0.11 
   4  -5 -11    6.19    0.26 
  -4  -5  11    6.54    0.34 
  -4  -5  11    5.88    0.38 
  -3  -5  11    0.44    0.29 
  -1   5  11    3.29    0.25 
   0   5 -11    9.70    0.39 
   0   5  11   10.01    0.51 
  -1   5 -11   17.14    0.82 
   1   5  11   19.95    0.89 
  -2  -5 -11    1.45    0.14 
  -2  -5 -11    1.27    0.24 
  -2  -5 -11    0.99    0.35 
   2   5  11    2.00    0.20 
  -2   5 -11    1.79    0.21 
  -2   5 -11    1.56    0.21 
  -2   5 -11    1.85    0.20 
  -3  -5 -11   13.12    0.52 
  -3  -5 -11   12.25    1.00 
  -3  -5 -11   13.78    0.72 
  -3   5 -11   13.05    0.58 
   3   5  11   12.25    0.63 
  -3   5 -11   12.59    0.58 
  -3   5 -11   13.04    0.56 
  -4  -5 -11    0.49    0.23 
  -4   5 -11    0.33    0.17 
  -4   5 -11    0.40    0.21 
  -4   5 -11    0.45    0.21 
  -4   5 -11    0.24    0.19 
  -5  -5 -11    4.07    0.33 
  -5   5 -11    4.30    0.27 
  -5   5 -11    3.95    0.22 
  -5   5 -11    4.13    0.27 
  -5   5 -11    4.15    0.25 
  -6  -5 -11    1.48    0.23 
  -6   5 -11    1.93    0.16 
  -6   5 -11    1.98    0.21 
  -6   5 -11    1.84    0.20 
  -7   5 -11    0.12    0.10 
  -7   5 -11    0.05    0.09 
  -8   5 -11    1.72    0.17 
  -8   5 -11    1.70    0.17 
  -9   5 -11    1.57    0.14 
  -9   6  11    0.15    0.16 
  -9   6  11    0.32    0.15 
  -8   6  11    1.51    0.11 
  -8   6  11    1.34    0.15 
  -8   6  11    1.49    0.14 
   7  -6 -11    0.89    0.09 
  -7  -6  11    0.86    0.19 
  -7   6  11    1.04    0.16 
  -7   6  11    0.86    0.15 
  -7   6  11    0.85    0.13 
   6  -6 -11    2.20    0.14 
  -6  -6  11    1.84    0.24 
  -6   6  11    1.53    0.21 
   5  -6 -11   10.81    0.41 
  -5  -6  11   10.54    0.57 
  -5  -6  11   10.14    0.46 
  -5   6  11   10.23    0.51 
  -4  -6  11   12.30    0.65 
  -4  -6  11   13.16    0.57 
  -3  -6  11   17.08    0.86 
   2  -6 -11   14.10    0.63 
  -2   6  11   13.22    0.65 
   1  -6 -11   11.21    0.54 
  -1   6  11   12.18    0.59 
   0  -6 -11   10.21    0.59 
   0  -6 -11    9.95    0.47 
   0   6 -11   10.20    0.40 
   0   6 -11    9.46    0.46 
   0   6  11   10.12    0.52 
  -1  -6 -11    3.89    0.30 
   1   6  11    2.61    0.34 
  -1   6 -11    3.57    0.37 
  -1   6 -11    3.80    0.33 
  -2  -6 -11    0.23    0.27 
  -2  -6 -11    0.19    0.13 
  -2  -6 -11    0.40    0.08 
  -2  -6 -11    0.37    0.08 
  -2   6 -11    0.39    0.11 
  -2   6 -11    0.44    0.13 
   2   6  11    0.36    0.11 
  -2   6 -11    0.25    0.11 
  -3  -6 -11    3.85    0.32 
  -3   6 -11    4.00    0.27 
  -3   6 -11    3.48    0.26 
   3   6  11    3.68    0.27 
  -3   6 -11    3.48    0.25 
  -4  -6 -11    3.98    0.39 
  -4   6 -11    4.35    0.33 
  -4   6 -11    4.97    0.31 
   4   6  11    4.95    0.33 
  -4   6 -11    4.34    0.33 
  -4   6 -11    4.94    0.33 
  -5  -6 -11    5.52    0.41 
  -5   6 -11    6.58    0.34 
  -5   6 -11    6.31    0.30 
  -5   6 -11    6.31    0.34 
   5   6  11    6.30    0.35 
  -5   6 -11    5.73    0.31 
  -6  -6 -11    6.61    0.43 
  -6   6 -11    7.06    0.35 
  -6   6 -11    6.50    0.31 
  -6   6 -11    6.87    0.35 
  -7  -6 -11    5.95    0.38 
  -7   6 -11    6.19    0.31 
  -7   6 -11    6.10    0.31 
  -8   6 -11    1.37    0.16 
  -8   6 -11    1.54    0.15 
  -9   6 -11    0.28    0.08 
  -8   7  11    3.88    0.21 
  -8   7  11    3.54    0.18 
  -8   7  11    3.93    0.21 
  -7  -7  11    1.11    0.18 
  -7   7  11    1.04    0.14 
  -7   7  11    1.11    0.14 
  -7   7  11    1.13    0.14 
  -6  -7  11    7.04    0.46 
  -6   7  11    7.58    0.42 
  -5  -7  11    6.52    0.40 
  -5  -7  11    6.31    0.30 
  -5   7  11    5.98    0.35 
  -4  -7  11    2.89    0.21 
  -4  -7  11    3.05    0.27 
  -3  -7  11   28.27    1.31 
   2  -7 -11    6.88    0.37 
  -2   7  11    6.14    0.36 
   1  -7 -11   13.20    0.73 
   1  -7 -11   14.09    0.61 
  -1   7  11   13.36    0.66 
   0  -7 -11   -0.03    0.08 
   0  -7 -11   -0.06    0.11 
   0   7 -11    0.06    0.05 
   0   7  11    0.01    0.09 
  -1  -7 -11   10.35    0.64 
  -1  -7 -11   10.98    0.49 
   1   7  11    9.62    0.55 
  -2  -7 -11   26.51    1.06 
  -2  -7 -11   27.01    1.34 
  -2  -7 -11   27.32    0.97 
  -2   7 -11   26.92    1.12 
  -2   7 -11   26.87    1.03 
  -2   7 -11   27.78    1.09 
   2   7  11   26.57    1.21 
  -3  -7 -11    4.57    0.36 
  -3   7 -11    4.86    0.29 
  -3   7 -11    5.26    0.31 
  -3   7 -11    4.93    0.29 
   3   7  11    4.46    0.30 
  -4  -7 -11    5.90    0.48 
   4   7  11    6.61    0.39 
  -4   7 -11    5.98    0.37 
  -4   7 -11    6.89    0.38 
  -4   7 -11    6.14    0.37 
  -5  -7 -11    3.74    0.31 
  -5   7 -11    3.87    0.26 
  -5   7 -11    3.41    0.22 
  -5   7 -11    3.48    0.24 
  -5   7 -11    3.73    0.25 
  -6  -7 -11    1.72    0.22 
  -6   7 -11    1.75    0.11 
  -6   7 -11    1.45    0.19 
  -6   7 -11    2.06    0.19 
  -6   7 -11    1.54    0.15 
  -7  -7 -11    1.95    0.21 
  -7   7 -11    1.79    0.18 
  -7   7 -11    2.26    0.19 
  -8   7 -11    3.31    0.20 
  -8   8  11    0.63    0.11 
  -8   8  11    0.51    0.08 
  -8   8  11    0.64    0.08 
  -7   8  11    2.00    0.16 
  -7   8  11    2.20    0.17 
  -6  -8  11    0.83    0.19 
  -6   8  11    0.63    0.18 
  -5  -8  11    0.42    0.07 
  -5  -8  11    0.56    0.14 
  -4  -8  11    5.85    0.38 
  -4  -8  11    5.72    0.30 
  -3  -8  11    6.33    0.43 
   2  -8 -11    2.28    0.21 
  -2   8  11    2.40    0.21 
   1  -8 -11    0.79    0.13 
  -1   8  11    0.89    0.16 
   0  -8 -11    9.45    0.44 
   0  -8 -11    8.67    0.54 
   0   8  11    9.35    0.49 
   0   8 -11    9.43    0.37 
   1  -8  11    2.61    0.15 
  -1  -8 -11    2.44    0.34 
  -1  -8 -11    2.46    0.18 
   1   8  11    2.27    0.27 
  -2  -8 -11    2.86    0.15 
  -2  -8 -11    2.85    0.29 
   2   8  11    2.62    0.23 
  -2   8 -11    2.33    0.23 
  -2   8 -11    2.74    0.24 
  -3  -8 -11    0.01    0.12 
  -3   8 -11    0.01    0.10 
   3   8  11    0.07    0.08 
  -3   8 -11    0.05    0.09 
  -4  -8 -11    2.16    0.33 
   4   8  11    2.78    0.25 
  -4   8 -11    3.02    0.25 
  -4   8 -11    2.93    0.27 
  -4   8 -11    3.28    0.28 
  -5  -8 -11    0.13    0.11 
  -5   8 -11    0.14    0.10 
  -5   8 -11    0.14    0.10 
  -5   8 -11   -0.02    0.08 
  -5   8 -11    0.15    0.08 
  -6  -8 -11    2.22    0.23 
  -6   8 -11    2.51    0.18 
  -6   8 -11    2.20    0.20 
  -6   8 -11    2.19    0.13 
  -6   8 -11    2.19    0.20 
  -7  -8 -11    1.80    0.20 
  -7   8 -11    1.99    0.18 
  -7   8 -11    1.88    0.17 
  -8   8 -11    0.55    0.09 
  -8   9  11    2.53    0.13 
  -7   9  11    2.28    0.17 
  -6  -9  11    5.84    0.39 
  -6   9  11    6.09    0.35 
  -5  -9  11    7.27    0.43 
  -4  -9  11   11.33    0.50 
  -4  -9  11   12.10    0.61 
  -3  -9  11    0.72    0.26 
   3  -9 -11    0.86    0.23 
   2  -9 -11    4.10    0.27 
  -2   9  11    4.30    0.28 
   1  -9 -11    4.64    0.29 
  -1   9  11    5.44    0.32 
   0  -9 -11    6.53    0.43 
   0  -9 -11    6.26    0.33 
   0   9 -11    6.66    0.28 
   0   9  11    6.47    0.38 
  -1  -9 -11    2.24    0.16 
  -1  -9 -11    2.45    0.33 
   1   9  11    2.39    0.27 
   2  -9  11    5.43    0.24 
  -2  -9 -11    5.51    0.40 
   2   9  11    5.56    0.34 
  -2   9 -11    5.59    0.34 
  -3  -9 -11    4.60    0.34 
   3  -9  11    4.16    0.21 
  -3   9 -11    4.29    0.27 
   3   9  11    3.97    0.28 
  -3   9 -11    4.53    0.29 
  -4  -9 -11    4.92    0.41 
   4   9  11    4.25    0.32 
  -4   9 -11    4.48    0.33 
  -4   9 -11    4.53    0.31 
  -5  -9 -11    0.84    0.19 
   5   9  11    1.00    0.17 
  -5   9 -11    0.82    0.13 
  -5   9 -11    0.84    0.16 
  -6  -9 -11    3.25    0.26 
  -6   9 -11    2.75    0.20 
  -6   9 -11    2.94    0.19 
  -6   9 -11    2.88    0.15 
  -7  -9 -11   -0.06    0.08 
  -7   9 -11    0.01    0.08 
  -7  10  11    0.38    0.08 
  -6  10  11    1.29    0.18 
  -5 -10  11    2.84    0.26 
  -4 -10  11    7.41    0.41 
  -4 -10  11    6.33    0.30 
   4 -10 -11    6.32    0.36 
   3 -10 -11    3.39    0.27 
   2 -10 -11    9.28    0.44 
  -2  10  11    8.70    0.47 
   1 -10 -11    4.87    0.28 
  -1  10  11    4.80    0.31 
   0 -10 -11    1.48    0.14 
   0  10  11    1.05    0.17 
   0  10 -11    1.08    0.09 
  -1 -10 -11    2.38    0.15 
  -1 -10 -11    2.40    0.13 
  -1 -10 -11    2.00    0.31 
   1  10  11    3.17    0.28 
  -2 -10 -11    3.24    0.30 
   2  10  11    3.12    0.24 
  -2  10 -11    3.06    0.26 
  -3 -10 -11    3.52    0.31 
   3 -10  11    3.61    0.17 
  -3  10 -11    3.49    0.26 
   3  10  11    3.48    0.25 
  -3  10 -11    3.27    0.24 
   4 -10  11    0.30    0.10 
  -4 -10 -11    0.23    0.22 
  -4  10 -11    0.30    0.19 
  -4  10 -11    0.23    0.16 
   4  10  11    0.03    0.16 
  -5 -10 -11    3.62    0.28 
  -5  10 -11    3.33    0.20 
  -5  10 -11    3.10    0.22 
   5  10  11    3.31    0.23 
  -6 -10 -11   12.22    0.63 
  -6  10 -11   11.90    0.49 
  -6  10 -11   11.61    0.47 
  -7 -10 -11    4.52    0.29 
  -7  11  11   13.48    0.55 
  -6  11  11    0.17    0.15 
   5 -11 -11    0.40    0.10 
  -4 -11  11    0.75    0.08 
   4 -11 -11    0.75    0.16 
  -4 -11  11    0.58    0.13 
   3 -11 -11    0.46    0.22 
   2 -11 -11    3.04    0.22 
   1 -11 -11    1.30    0.15 
   1  11 -11    1.56    0.12 
  -1  11  11    1.43    0.18 
   0 -11 -11   11.89    0.49 
   0  11  11   11.73    0.57 
   0  11 -11   10.67    0.43 
   0  11 -11   11.54    0.43 
  -1 -11 -11    5.70    0.45 
   1  11  11    4.93    0.38 
  -2 -11 -11    0.42    0.13 
   2  11  11    0.39    0.10 
  -2  11 -11    0.27    0.12 
  -3 -11 -11    3.52    0.29 
  -3  11 -11    2.96    0.23 
  -3  11 -11    3.64    0.25 
   3  11  11    2.80    0.23 
  -4 -11 -11    0.71    0.23 
   4  11  11    0.82    0.18 
  -4  11 -11    0.71    0.18 
  -4  11 -11    0.72    0.20 
   5 -11  11    1.22    0.08 
   5 -11  11    1.38    0.08 
  -5 -11 -11    1.35    0.19 
   5  11  11    1.28    0.15 
  -5  11 -11    1.12    0.13 
  -5  11 -11    1.31    0.17 
  -6 -11 -11    3.55    0.26 
  -6  11 -11    3.43    0.19 
  -7 -11 -11    1.12    0.14 
   6 -12 -11    2.22    0.19 
  -6  12  11    2.15    0.19 
   5 -12 -11   11.14    0.50 
   4 -12 -11    0.44    0.10 
   3 -12 -11    0.92    0.19 
  -3 -12  11    1.07    0.14 
   2 -12 -11   11.73    0.52 
   2 -12 -11   12.01    0.61 
   1 -12 -11   24.84    1.04 
   1  12 -11   26.70    0.98 
  -1  12  11   26.61    1.17 
   0 -12 -11    3.44    0.18 
   0  12  11    3.63    0.25 
   1  12  11    2.23    0.25 
  -2 -12 -11   17.16    0.83 
  -2  12 -11   14.73    0.68 
   2  12  11   15.78    0.75 
  -3 -12 -11    0.73    0.17 
  -3  12 -11    0.53    0.10 
   3  12  11    0.61    0.13 
  -3  12 -11    0.47    0.11 
  -4 -12 -11    1.09    0.22 
   4  12  11    1.14    0.17 
  -4  12 -11    1.27    0.20 
  -4  12 -11    1.51    0.18 
  -5 -12 -11    5.47    0.35 
  -5  12 -11    5.53    0.28 
  -5  12 -11    5.48    0.27 
   5  12  11    5.71    0.30 
  -6 -12 -11    3.53    0.25 
  -6  12 -11    3.56    0.19 
   5 -13 -11    0.09    0.07 
   4 -13 -11    0.99    0.13 
   3 -13 -11    0.26    0.16 
   2 -13 -11    0.58    0.11 
   2 -13 -11    0.54    0.12 
   2  13 -11    0.51    0.08 
   1 -13 -11    4.57    0.22 
  -1  13  11    4.74    0.28 
   1  13 -11    4.29    0.19 
   0  13  11    5.75    0.33 
   1  13  11    0.57    0.19 
  -2 -13 -11    0.70    0.16 
   2  13  11    0.62    0.11 
  -3 -13 -11    1.66    0.20 
  -3  13 -11    1.82    0.17 
  -3  13 -11    1.63    0.17 
   3  13  11    1.92    0.17 
  -4 -13 -11    0.51    0.20 
   4  13  11    0.52    0.16 
  -4  13 -11    0.58    0.18 
  -4  13 -11    0.57    0.15 
  -5 -13 -11    8.68    0.45 
  -5  13 -11    8.28    0.36 
  -5  13 -11    8.13    0.37 
  -6 -13 -11    5.15    0.31 
   5 -14 -11    3.03    0.17 
   4 -14 -11    4.64    0.24 
   3 -14 -11    0.38    0.13 
  -2 -14  11    0.46    0.09 
   2 -14 -11    0.60    0.09 
  -1  14  11    3.70    0.23 
   0  14  11    1.60    0.16 
   1  14  11    2.80    0.26 
   2  14  11    0.85    0.14 
  -3 -14 -11    1.97    0.20 
   3  14  11    2.11    0.17 
  -3  14 -11    2.27    0.19 
  -3  14 -11    2.29    0.17 
  -4 -14 -11    2.74    0.25 
  -4  14 -11    3.46    0.21 
  -4  14 -11    3.22    0.23 
  -5  14 -11    2.51    0.13 
   4 -15 -11    2.19    0.12 
   3 -15 -11    0.07    0.04 
   0  15  11    0.50    0.09 
   1  15  11    0.56    0.16 
   2  15  11    7.16    0.37 
  -2  15 -11    7.70    0.37 
  -3  15 -11    2.09    0.15 
  -4  15 -11    6.21    0.29 
  -9   0  12   -0.01    0.15 
  -9   0  12   -0.03    0.15 
  -8   0  12   -0.06    0.07 
  -7   0  12    0.85    0.10 
  -6   0  12   26.33    1.06 
  -5   0  12   17.48    0.77 
  -4   0  12    3.34    0.25 
   3   0 -12    9.26    0.39 
   2   0 -12    0.21    0.05 
   1   0 -12    0.20    0.11 
   0   0  12    2.44    0.21 
   0   0 -12    2.52    0.22 
   0   0 -12    2.40    0.23 
   0   0 -12    2.41    0.22 
  -1   0 -12    5.58    0.32 
  -1   0 -12    5.87    0.33 
  -1   0 -12    5.44    0.31 
  -2   0 -12    1.26    0.26 
  -2   0 -12    1.52    0.23 
  -2   0 -12    1.67    0.26 
  -3   0 -12    2.07    0.21 
  -3   0 -12    1.78    0.16 
  -3   0 -12    2.23    0.19 
  -4   0 -12    4.36    0.24 
  -4   0 -12    4.26    0.21 
  -4   0 -12    3.96    0.28 
  -5   0 -12   11.75    0.57 
  -6   0 -12   -0.08    0.09 
  -7   0 -12    4.07    0.25 
  -8   0 -12   13.26    0.53 
  -9   0 -12    2.27    0.16 
  -9  -1  12    0.41    0.16 
  -9  -1  12    0.47    0.16 
  -9   1  12    0.42    0.16 
  -9   1  12    0.33    0.16 
  -8  -1  12    3.88    0.22 
  -8  -1  12    3.31    0.26 
  -8   1  12    3.89    0.22 
  -8   1  12    3.69    0.27 
  -7  -1  12    1.39    0.10 
  -7   1  12    1.10    0.12 
  -6  -1  12    0.47    0.09 
  -6   1  12    0.47    0.10 
  -5  -1  12    0.61    0.20 
  -5   1  12    0.45    0.22 
  -4  -1  12    9.02    0.44 
  -4  -1  12    8.21    0.49 
  -4   1  12    8.76    0.44 
   3  -1 -12    8.02    0.34 
  -3  -1  12    8.16    0.47 
   2   1 -12    3.59    0.18 
   1  -1 -12    2.12    0.23 
   1   1 -12    2.10    0.24 
   0  -1 -12    5.69    0.33 
   0  -1 -12    6.36    0.34 
   0  -1  12    6.56    0.35 
   0  -1 -12    6.13    0.34 
   0   1 -12    5.20    0.33 
   0   1  12    5.67    0.35 
   0   1 -12    5.66    0.34 
  -1  -1 -12    5.46    0.32 
  -1  -1 -12    5.66    0.31 
  -1  -1 -12    6.02    0.32 
  -1   1 -12    5.52    0.32 
   1   1  12    5.16    0.33 
  -1   1 -12    5.44    0.32 
  -1   1 -12    5.56    0.32 
  -2  -1 -12    0.79    0.25 
  -2  -1 -12    0.87    0.24 
  -2  -1 -12    1.17    0.21 
  -2   1 -12    1.10    0.23 
  -2   1 -12    0.75    0.25 
  -2   1 -12    1.04    0.26 
  -3  -1 -12    0.97    0.15 
  -3  -1 -12    0.92    0.13 
  -3  -1 -12    0.72    0.17 
  -3  -1 -12    0.89    0.16 
  -3   1 -12    0.75    0.12 
  -3   1 -12    0.96    0.15 
  -3   1 -12    0.86    0.14 
  -4  -1 -12    2.37    0.25 
  -4  -1 -12    2.50    0.23 
  -4  -1 -12    2.25    0.17 
  -4  -1 -12    2.01    0.12 
  -4   1 -12    1.97    0.18 
  -4   1 -12    1.77    0.22 
  -4   1 -12    1.95    0.15 
  -5  -1 -12    0.66    0.20 
  -5   1 -12    0.67    0.21 
  -6  -1 -12    3.52    0.25 
  -6   1 -12    3.54    0.25 
  -7  -1 -12    1.35    0.17 
  -7   1 -12    0.95    0.17 
  -8  -1 -12    2.51    0.19 
  -8   1 -12    2.59    0.19 
  -9   1 -12    4.82    0.24 
  -9   2  12    0.23    0.14 
  -9   2  12    0.19    0.15 
  -8  -2  12    1.03    0.19 
  -8   2  12    0.76    0.13 
  -8   2  12    1.01    0.14 
  -7   2  12    6.10    0.29 
  -6  -2  12   10.24    0.46 
  -6   2  12   10.57    0.48 
  -5  -2  12    7.39    0.52 
  -5  -2  12    8.51    0.43 
  -5   2  12    7.39    0.44 
  -4  -2  12    0.18    0.10 
  -4  -2  12    0.11    0.11 
   4  -2 -12    0.19    0.06 
  -4   2  12    0.42    0.11 
  -3  -2  12    3.48    0.28 
   3  -2 -12    3.32    0.16 
  -3  -2  12    3.77    0.27 
   2   2 -12    6.39    0.28 
   1  -2 -12   11.21    0.53 
  -1   2  12   10.96    0.55 
   0  -2 -12    6.01    0.34 
   0  -2 -12    6.37    0.35 
   0  -2 -12    6.20    0.34 
   0   2 -12    5.79    0.34 
   0   2  12    5.94    0.35 
   0   2 -12    5.88    0.35 
  -1  -2 -12    5.73    0.33 
  -1  -2 -12    6.06    0.32 
  -1  -2 -12    5.87    0.33 
   1   2  12    5.30    0.34 
  -1   2 -12    6.10    0.33 
  -1   2 -12    5.77    0.34 
  -1   2 -12    6.03    0.32 
  -2  -2 -12    0.60    0.24 
  -2  -2 -12    0.63    0.20 
  -2   2 -12    0.48    0.24 
  -2   2 -12    0.52    0.22 
  -2   2 -12    0.63    0.26 
  -3  -2 -12    2.81    0.20 
  -3  -2 -12    2.53    0.23 
  -3  -2 -12    2.89    0.28 
  -3  -2 -12    2.85    0.15 
  -3  -2 -12    2.83    0.17 
  -3   2 -12    2.24    0.19 
  -3   2 -12    1.97    0.22 
  -3   2 -12    2.00    0.21 
  -4  -2 -12    8.17    0.51 
  -4  -2 -12    8.90    0.42 
  -4   2 -12    8.57    0.38 
  -4   2 -12    8.16    0.39 
  -4   2 -12    8.57    0.42 
  -5  -2 -12    5.11    0.33 
  -5   2 -12    4.90    0.28 
  -5   2 -12    5.20    0.35 
  -6  -2 -12    5.79    0.31 
  -6   2 -12    5.29    0.31 
  -7  -2 -12    0.25    0.10 
  -7   2 -12    0.35    0.11 
  -8   2 -12    2.70    0.19 
  -9   2 -12    2.19    0.16 
  -9   3  12    4.18    0.23 
  -9   3  12    4.20    0.23 
  -8  -3  12    1.91    0.16 
  -8  -3  12    2.07    0.16 
  -8   3  12    2.31    0.17 
  -8   3  12    2.19    0.17 
  -7   3  12    0.21    0.09 
  -7   3  12    0.26    0.07 
  -6  -3  12    4.07    0.31 
  -6  -3  12    4.01    0.22 
  -6   3  12    4.07    0.25 
   5  -3 -12    2.28    0.16 
  -5  -3  12    2.65    0.29 
  -5  -3  12    2.08    0.22 
  -5   3  12    2.21    0.24 
  -4  -3  12    0.02    0.08 
   4  -3 -12    0.03    0.05 
  -4  -3  12    0.18    0.11 
  -3  -3  12    0.27    0.11 
  -3  -3  12    0.25    0.12 
   2   3 -12    8.62    0.36 
   1  -3 -12    2.30    0.22 
   1   3 -12    2.22    0.12 
   1   3 -12    2.41    0.12 
  -1   3  12    2.21    0.20 
   0  -3 -12   13.68    0.59 
   0   3  12   12.76    0.64 
   0   3 -12   12.66    0.57 
  -1  -3 -12    5.20    0.29 
  -1  -3 -12    5.53    0.31 
   1   3  12    5.21    0.32 
  -1   3 -12    4.74    0.30 
  -1   3 -12    4.56    0.30 
  -1   3 -12    5.11    0.32 
  -2  -3 -12    5.43    0.33 
  -2  -3 -12    5.11    0.36 
  -2   3 -12    5.98    0.38 
  -2   3 -12    5.90    0.38 
  -2   3 -12    5.89    0.36 
   2   3  12    6.07    0.39 
  -3  -3 -12   -0.01    0.10 
  -3  -3 -12    0.08    0.06 
  -3  -3 -12    0.05    0.12 
  -3  -3 -12    0.11    0.05 
  -3   3 -12    0.03    0.09 
  -3   3 -12    0.04    0.08 
  -3   3 -12    0.06    0.10 
  -4  -3 -12    1.12    0.22 
  -4  -3 -12    0.98    0.15 
  -4   3 -12    1.35    0.17 
  -4   3 -12    1.16    0.14 
  -4   3 -12    1.38    0.20 
  -5  -3 -12    0.49    0.21 
  -5  -3 -12    0.68    0.21 
  -5   3 -12    0.73    0.15 
  -5   3 -12    0.81    0.22 
  -5   3 -12    1.09    0.09 
  -6   3 -12    4.62    0.28 
  -7   3 -12    1.10    0.17 
  -8   3 -12    0.89    0.14 
  -9   3 -12    1.41    0.13 
  -9   4  12    0.69    0.14 
  -8   4  12    0.73    0.13 
  -8   4  12    0.81    0.13 
  -7  -4  12    2.67    0.24 
   7  -4 -12    2.67    0.14 
  -7   4  12    2.51    0.19 
  -7   4  12    2.56    0.20 
  -7   4  12    2.38    0.17 
  -6  -4  12    3.10    0.19 
  -6  -4  12    3.55    0.28 
   6  -4 -12    3.43    0.17 
  -6   4  12    3.56    0.23 
   5  -4 -12    1.69    0.11 
  -5  -4  12    1.16    0.18 
  -5  -4  12    1.30    0.26 
  -5   4  12    1.42    0.22 
  -4  -4  12    3.35    0.23 
  -4  -4  12    3.24    0.28 
   4  -4 -12    3.28    0.15 
   4  -4 -12    3.34    0.15 
  -3  -4  12    1.32    0.20 
  -3  -4  12    2.17    0.20 
   1  -4 -12    0.09    0.09 
   1   4 -12    0.04    0.05 
  -1   4  12    0.00    0.08 
   0  -4 -12    0.34    0.10 
   0   4 -12    0.47    0.13 
   0   4  12    0.64    0.12 
   0   4 -12    0.38    0.13 
  -1  -4 -12    2.64    0.19 
  -1  -4 -12    2.27    0.23 
   1   4  12    2.54    0.22 
  -1   4 -12    2.22    0.23 
  -1   4 -12    1.85    0.21 
  -1   4 -12    2.36    0.23 
  -2  -4 -12   16.46    0.70 
  -2   4 -12   14.90    0.71 
  -2   4 -12   16.48    0.75 
  -2   4 -12   17.10    0.75 
   2   4  12   16.36    0.82 
  -3  -4 -12    3.38    0.31 
  -3  -4 -12    3.15    0.17 
  -3   4 -12    3.41    0.25 
  -3   4 -12    3.53    0.26 
  -3   4 -12    3.40    0.23 
   3   4  12    3.74    0.26 
  -4  -4 -12    4.79    0.36 
  -4   4 -12    4.76    0.28 
  -4   4 -12    4.58    0.26 
  -4   4 -12    4.72    0.30 
  -5  -4 -12    2.26    0.32 
  -5   4 -12    2.61    0.22 
  -5   4 -12    2.58    0.28 
  -5   4 -12    2.50    0.17 
  -6  -4 -12    1.57    0.21 
  -6   4 -12    1.94    0.20 
  -7   4 -12    2.54    0.20 
  -8   4 -12    1.04    0.14 
  -9   4 -12    0.28    0.08 
  -8   5  12    0.92    0.12 
  -8   5  12    0.89    0.13 
  -7   5  12    0.50    0.09 
  -7   5  12    0.34    0.09 
  -7   5  12    0.60    0.11 
   6  -5 -12    1.05    0.08 
  -6  -5  12    1.10    0.10 
   6  -5 -12    1.02    0.07 
  -6  -5  12    1.33    0.20 
  -6   5  12    0.86    0.15 
  -5  -5  12    5.60    0.31 
  -5  -5  12    6.22    0.42 
  -5   5  12    5.44    0.37 
  -4  -5  12    1.79    0.22 
  -4  -5  12    1.75    0.18 
  -3  -5  12    1.94    0.22 
  -3  -5  12    2.01    0.20 
   2  -5 -12   32.20    1.32 
   1  -5 -12   20.63    0.87 
   1   5 -12   20.49    0.77 
  -1   5  12   19.86    0.93 
   0  -5 -12   21.38    0.91 
   0   5  12   22.06    1.01 
   0   5 -12   22.50    0.87 
  -1  -5 -12    4.24    0.25 
  -1  -5 -12    3.95    0.33 
   1   5  12    4.15    0.28 
  -1   5 -12    3.70    0.28 
  -1   5 -12    4.03    0.28 
  -2  -5 -12    1.30    0.14 
  -2  -5 -12    1.48    0.30 
  -2   5 -12    1.37    0.23 
  -2   5 -12    1.49    0.25 
  -2   5 -12    1.17    0.24 
   2   5  12    1.28    0.22 
  -3  -5 -12    0.37    0.15 
   3   5  12    0.83    0.16 
  -3   5 -12    0.98    0.15 
  -3   5 -12    0.83    0.14 
  -3   5 -12    0.60    0.13 
  -4  -5 -12    1.15    0.20 
  -4   5 -12    1.14    0.18 
  -4   5 -12    1.06    0.19 
  -4   5 -12    1.19    0.15 
   4   5  12    1.02    0.17 
  -5  -5 -12    3.69    0.34 
  -5   5 -12    3.05    0.24 
   5   5  12    2.86    0.25 
  -5   5 -12    3.07    0.20 
  -5   5 -12    3.35    0.28 
  -6  -5 -12    3.31    0.27 
  -6   5 -12    3.03    0.17 
   6   5  12    2.53    0.21 
  -6   5 -12    3.08    0.23 
  -7   5 -12    1.55    0.17 
  -8   5 -12    3.27    0.20 
  -8   6  12    0.06    0.07 
  -8   6  12    0.02    0.17 
  -7   6  12    1.52    0.15 
  -7   6  12    1.21    0.15 
  -7   6  12    1.56    0.14 
  -6  -6  12    2.20    0.23 
  -6   6  12    2.10    0.18 
  -6   6  12    1.99    0.18 
  -5  -6  12    3.26    0.22 
  -5  -6  12    3.46    0.33 
  -5   6  12    3.60    0.29 
  -4  -6  12    4.08    0.30 
  -4  -6  12    3.91    0.25 
  -3  -6  12    3.64    0.29 
  -3  -6  12    3.67    0.25 
   2  -6 -12    8.45    0.46 
   1  -6 -12    6.18    0.42 
   1  -6 -12    6.31    0.34 
  -1   6  12    6.23    0.36 
   1   6 -12    6.38    0.27 
   0  -6 -12    4.27    0.26 
   0  -6 -12    4.48    0.35 
   0   6  12    4.05    0.29 
   0   6 -12    3.97    0.28 
  -1  -6 -12    1.56    0.24 
  -1  -6 -12    2.12    0.17 
  -1   6 -12    1.16    0.20 
  -1   6 -12    1.52    0.20 
   1   6  12    1.28    0.19 
  -2  -6 -12   10.75    0.47 
  -2  -6 -12   11.24    0.67 
  -2  -6 -12   11.43    0.44 
  -2   6 -12   11.48    0.55 
  -2   6 -12   11.56    0.55 
  -2   6 -12   11.20    0.53 
   2   6  12   11.51    0.59 
  -3  -6 -12    4.61    0.36 
  -3   6 -12    4.53    0.28 
  -3   6 -12    4.86    0.30 
   3   6  12    5.20    0.31 
  -3   6 -12    4.75    0.30 
  -4  -6 -12    8.43    0.49 
  -4   6 -12    7.39    0.38 
   4   6  12    7.87    0.42 
  -4   6 -12    7.88    0.38 
  -4   6 -12    7.71    0.39 
  -5  -6 -12    4.47    0.41 
  -5   6 -12    5.27    0.28 
   5   6  12    5.02    0.35 
  -5   6 -12    5.46    0.34 
  -5   6 -12    5.26    0.31 
  -6  -6 -12    2.81    0.25 
  -6   6 -12    2.39    0.21 
   6   6  12    2.76    0.21 
  -6   6 -12    2.92    0.17 
  -7  -6 -12    0.35    0.10 
  -7   6 -12    0.38    0.10 
  -8   6 -12    0.01    0.07 
  -7   7  12    6.03    0.28 
  -7   7  12    5.29    0.27 
  -7   7  12    5.69    0.27 
  -6  -7  12    1.08    0.19 
  -6   7  12    0.88    0.14 
  -6   7  12    0.88    0.13 
  -6   7  12    0.88    0.14 
  -5  -7  12    1.99    0.16 
  -5  -7  12    2.32    0.28 
  -5   7  12    1.99    0.25 
  -4  -7  12    1.83    0.17 
  -4  -7  12    1.64    0.22 
   3  -7 -12    2.97    0.24 
  -3  -7  12    3.28    0.23 
   2  -7 -12    6.16    0.43 
   1  -7 -12   16.54    0.68 
   1  -7 -12   15.19    0.82 
  -1   7  12   14.63    0.72 
   1   7 -12   14.98    0.59 
   0  -7 -12    8.57    0.52 
   0  -7 -12    8.60    0.40 
   0   7  12    7.84    0.45 
  -1  -7 -12    4.98    0.26 
   1  -7  12    4.59    0.21 
  -1  -7 -12    5.08    0.37 
  -1   7 -12    4.92    0.30 
  -1   7 -12    4.98    0.31 
   1   7  12    4.44    0.31 
  -2  -7 -12    2.66    0.37 
  -2  -7 -12    2.35    0.14 
   2   7  12    2.65    0.29 
  -2   7 -12    2.85    0.29 
  -2   7 -12    2.90    0.32 
  -2   7 -12    2.85    0.30 
  -3  -7 -12    3.11    0.30 
   3   7  12    3.56    0.26 
  -3   7 -12    3.36    0.25 
  -3   7 -12    4.09    0.26 
  -3   7 -12    3.49    0.24 
  -4  -7 -12    1.14    0.22 
  -4   7 -12    1.36    0.18 
  -4   7 -12    1.25    0.15 
  -4   7 -12    1.12    0.18 
   4   7  12    1.37    0.17 
  -5  -7 -12    0.40    0.22 
  -5   7 -12    0.29    0.13 
  -5   7 -12    0.30    0.20 
   5   7  12    0.39    0.16 
  -5   7 -12    0.49    0.17 
  -6  -7 -12    1.29    0.18 
  -6   7 -12    0.91    0.12 
  -6   7 -12    0.98    0.16 
   6   7  12    1.11    0.14 
  -7  -7 -12    2.95    0.23 
  -7   7 -12    3.21    0.20 
  -8   7 -12    2.25    0.15 
  -7   8  12    4.53    0.23 
  -6   8  12   10.33    0.47 
  -5  -8  12    3.43    0.31 
  -5  -8  12    3.21    0.17 
  -5   8  12    2.76    0.26 
  -4  -8  12    0.52    0.13 
  -4  -8  12    0.44    0.09 
  -3  -8  12    3.80    0.25 
   3  -8 -12    4.47    0.27 
   2  -8 -12    1.10    0.24 
   1  -8 -12    4.11    0.25 
   1  -8 -12    3.90    0.32 
  -1   8  12    3.55    0.26 
   1   8 -12    3.74    0.18 
   0  -8 -12    1.89    0.24 
   0  -8 -12    2.25    0.18 
   0   8  12    2.16    0.21 
  -1  -8 -12   11.36    0.63 
  -1  -8 -12   10.32    0.43 
  -1  -8 -12   10.99    0.46 
   1   8  12   10.31    0.55 
  -1   8 -12   10.74    0.51 
  -2  -8 -12    7.04    0.48 
  -2   8 -12    6.58    0.39 
   2   8  12    6.31    0.41 
  -2   8 -12    6.78    0.41 
  -3  -8 -12    4.53    0.34 
  -3   8 -12    4.45    0.28 
  -3   8 -12    4.60    0.27 
   3   8  12    3.74    0.28 
  -4  -8 -12    2.21    0.26 
  -4   8 -12    2.87    0.22 
   4   8  12    2.37    0.21 
  -4   8 -12    2.88    0.20 
  -4   8 -12    2.92    0.22 
  -5  -8 -12    0.24    0.20 
   5   8  12    0.42    0.17 
  -5   8 -12    0.34    0.17 
  -5   8 -12    0.28    0.12 
  -5   8 -12    0.14    0.18 
  -6  -8 -12    1.77    0.19 
  -6   8 -12    1.56    0.13 
  -6   8 -12    1.24    0.16 
  -7  -8 -12    1.83    0.18 
  -7   8 -12    1.85    0.16 
  -7   9  12    0.76    0.10 
  -6   9  12    3.02    0.20 
  -5   9  12    0.87    0.19 
  -4  -9  12    8.46    0.44 
  -4  -9  12    7.42    0.35 
   4  -9 -12    7.89    0.40 
  -3  -9  12    5.25    0.29 
   3  -9 -12    5.21    0.30 
   2  -9 -12    3.43    0.28 
   1  -9 -12    5.22    0.30 
   1   9 -12    5.67    0.24 
  -1   9  12    5.60    0.33 
   0  -9 -12    1.30    0.21 
   0  -9 -12    1.17    0.14 
   0   9  12    1.73    0.19 
  -1  -9 -12    0.45    0.09 
  -1  -9 -12    0.40    0.13 
   1   9  12    0.43    0.11 
  -2  -9 -12    1.67    0.28 
  -2   9 -12    1.48    0.26 
  -2   9 -12    1.47    0.24 
   2   9  12    1.52    0.23 
   3  -9  12    2.97    0.15 
  -3  -9 -12    2.68    0.28 
   3   9  12    3.05    0.23 
  -3   9 -12    3.43    0.24 
  -3   9 -12    3.15    0.23 
  -4  -9 -12    0.05    0.10 
   4  -9  12    0.04    0.05 
  -4   9 -12    0.20    0.09 
   4   9  12    0.14    0.09 
  -4   9 -12    0.13    0.08 
  -5  -9 -12    0.65    0.21 
  -5   9 -12    0.67    0.17 
  -5   9 -12    0.74    0.13 
   5   9  12    0.85    0.17 
  -6  -9 -12    1.88    0.19 
  -6   9 -12    1.57    0.13 
  -7  -9 -12    2.48    0.19 
  -7  10  12    3.49    0.18 
  -6  10  12    3.35    0.21 
   5 -10 -12    2.26    0.19 
  -5  10  12    2.38    0.22 
  -4 -10  12    4.27    0.20 
   4 -10 -12    4.36    0.26 
  -3 -10  12    3.00    0.21 
   3 -10 -12    3.86    0.24 
   2 -10 -12    3.16    0.27 
   2  10 -12    2.97    0.16 
   1 -10 -12    1.32    0.14 
  -1  10  12    1.21    0.17 
   1  10 -12    1.20    0.08 
   1  10 -12    1.25    0.09 
   0 -10 -12    4.58    0.35 
   0 -10 -12    4.66    0.24 
   0  10  12    5.15    0.31 
  -1 -10 -12    1.06    0.21 
   1  10  12    1.17    0.17 
  -2 -10 -12    2.30    0.33 
  -2  10 -12    2.02    0.27 
  -2  10 -12    1.92    0.30 
   2  10  12    1.71    0.25 
  -3 -10 -12    2.12    0.23 
   3  10  12    1.68    0.18 
  -3  10 -12    1.85    0.20 
  -3  10 -12    1.99    0.18 
  -4 -10 -12    4.33    0.35 
  -4  10 -12    5.48    0.28 
  -4  10 -12    5.70    0.30 
   4  10  12    5.79    0.31 
  -5 -10 -12    1.22    0.25 
  -5  10 -12    1.44    0.16 
   5  10  12    1.39    0.20 
  -5  10 -12    1.95    0.21 
  -6 -10 -12    1.97    0.18 
  -6  10 -12    1.52    0.12 
   6 -11 -12    1.88    0.15 
  -6  11  12    1.83    0.14 
   5 -11 -12    3.79    0.25 
  -5  11  12    4.37    0.27 
   4 -11 -12    0.12    0.08 
  -3 -11  12    2.83    0.17 
   3 -11 -12    2.89    0.20 
   2 -11 -12   11.16    0.51 
   2  11 -12   11.09    0.44 
   1 -11 -12    2.14    0.16 
  -1  11  12    2.26    0.20 
   0 -11 -12    9.30    0.39 
   0  11  12    9.40    0.48 
  -1 -11 -12    4.43    0.32 
   1  11  12    4.33    0.28 
  -2 -11 -12    1.73    0.27 
  -2  11 -12    1.23    0.22 
  -2  11 -12    1.54    0.25 
   2  11  12    1.22    0.21 
  -3 -11 -12    1.66    0.22 
  -3  11 -12    2.29    0.18 
   3  11  12    2.27    0.19 
  -3  11 -12    2.22    0.20 
  -4 -11 -12    2.87    0.24 
  -4  11 -12    3.28    0.21 
   4  11  12    2.80    0.20 
  -4  11 -12    2.72    0.19 
  -5 -11 -12    3.00    0.29 
  -5  11 -12    3.35    0.20 
   5  11  12    3.33    0.24 
  -5  11 -12    3.94    0.24 
  -6 -11 -12    1.15    0.15 
   5 -12 -12    0.47    0.11 
  -5  12  12    0.55    0.14 
   4 -12 -12    4.27    0.24 
   3 -12 -12    0.14    0.07 
  -3 -12  12    0.19    0.05 
   2 -12 -12    2.78    0.20 
   2  12 -12    2.80    0.14 
   1 -12 -12    1.40    0.12 
  -1  12  12    1.30    0.15 
   0  12  12    4.45    0.28 
   1  12  12    2.52    0.21 
  -2 -12 -12    6.71    0.44 
  -2  12 -12    6.91    0.39 
  -2  12 -12    5.89    0.37 
   2  12  12    6.47    0.39 
  -3 -12 -12    1.22    0.17 
   3  12  12    1.26    0.15 
  -3  12 -12    1.15    0.14 
  -3  12 -12    1.37    0.17 
  -4 -12 -12    1.29    0.17 
  -4  12 -12    1.10    0.13 
   4  12  12    1.06    0.13 
  -4  12 -12    0.84    0.14 
  -5 -12 -12    1.13    0.19 
  -5  12 -12    1.64    0.10 
  -5  12 -12    1.25    0.16 
   5 -13 -12    1.24    0.12 
   4 -13 -12    0.12    0.06 
   3 -13 -12    0.47    0.08 
   2 -13 -12    5.24    0.24 
  -2 -13  12    5.14    0.26 
   0  13  12    8.39    0.42 
   1  13  12    3.60    0.24 
  -2 -13 -12    0.56    0.21 
  -2  13 -12    0.55    0.20 
   2  13  12    0.70    0.17 
  -2  13 -12    0.60    0.18 
  -3 -13 -12    0.23    0.10 
  -3  13 -12    0.53    0.09 
   3  13  12    0.27    0.08 
  -3  13 -12    0.19    0.09 
  -4 -13 -12    0.29    0.09 
  -4  13 -12    0.45    0.08 
  -4  13 -12    0.35    0.07 
   3 -14 -12    3.38    0.16 
   0  14  12    2.03    0.16 
   1  14  12    1.50    0.14 
   2  14  12    3.35    0.23 
  -2  14 -12    3.00    0.23 
  -3  14 -12    1.05    0.11 
  -4  14 -12    7.23    0.31 
  -8   0  13    1.56    0.18 
  -8   0  13    2.39    0.20 
  -6   0  13    0.56    0.09 
   5   0 -13    4.44    0.21 
  -5   0  13    4.06    0.26 
  -4   0  13    2.24    0.28 
   0   0 -13    2.60    0.24 
   0   0 -13    2.07    0.21 
   0   0 -13    2.48    0.22 
   0   0  13    2.17    0.21 
  -1   0 -13    9.44    0.47 
  -1   0 -13   10.22    0.48 
   1   0  13   10.20    0.52 
  -1   0 -13   10.40    0.48 
  -2   0 -13    1.67    0.17 
  -2   0 -13    1.68    0.21 
  -2   0 -13    1.87    0.19 
  -3   0 -13    0.12    0.25 
  -3   0 -13    0.12    0.07 
  -4   0 -13    4.55    0.28 
  -4   0 -13    4.26    0.24 
  -5   0 -13    0.06    0.10 
  -6   0 -13    5.82    0.35 
  -7   0 -13    0.07    0.09 
  -8   0 -13    2.82    0.18 
  -8  -1  13    0.99    0.17 
  -8  -1  13    0.68    0.15 
  -8   1  13    0.89    0.16 
  -8   1  13    0.60    0.16 
  -7   1  13    1.25    0.10 
  -6  -1  13    3.82    0.22 
   6  -1 -13    4.19    0.19 
  -6   1  13    3.94    0.23 
   5  -1 -13    0.09    0.05 
  -5  -1  13    0.13    0.08 
  -5   1  13    0.07    0.09 
  -4  -1  13    6.59    0.38 
   4  -1 -13    6.69    0.27 
   4   1 -13    6.60    0.28 
  -4   1  13    5.47    0.37 
   3   1 -13   12.77    0.49 
   1  -1 -13   13.94    0.65 
   1   1 -13   13.37    0.64 
   0  -1 -13    2.01    0.20 
   0  -1 -13    2.26    0.22 
   0   1 -13    1.98    0.22 
   0   1 -13    1.63    0.19 
   0   1  13    1.55    0.19 
   0   1 -13    1.74    0.21 
  -1  -1 -13    2.38    0.22 
  -1  -1 -13    2.07    0.22 
   1  -1  13    2.33    0.21 
  -1  -1 -13    2.26    0.20 
  -1   1 -13    2.65    0.23 
  -1   1 -13    2.82    0.21 
   1   1  13    2.73    0.23 
  -1   1 -13    2.48    0.23 
  -2  -1 -13    0.28    0.12 
  -2  -1 -13    0.43    0.11 
  -2  -1 -13    0.26    0.09 
   2   1  13    0.32    0.10 
  -2   1 -13    0.51    0.12 
  -2   1 -13    0.48    0.11 
  -2   1 -13    0.37    0.10 
  -3  -1 -13    1.26    0.24 
  -3  -1 -13    1.08    0.12 
  -3   1 -13    0.91    0.22 
  -3   1 -13    1.05    0.14 
  -3   1 -13    0.82    0.25 
  -4  -1 -13    6.64    0.41 
  -4  -1 -13    6.05    0.33 
  -4   1 -13    5.85    0.27 
  -4   1 -13    5.66    0.30 
  -4   1 -13    5.70    0.33 
  -5  -1 -13    3.90    0.26 
  -5   1 -13    3.61    0.26 
  -6  -1 -13    4.37    0.30 
  -6   1 -13    4.16    0.30 
  -7  -1 -13    2.36    0.18 
  -7   1 -13    2.15    0.18 
  -8  -1 -13    1.91    0.15 
  -8   1 -13    1.79    0.15 
  -8  -2  13    2.53    0.20 
  -8  -2  13    2.50    0.19 
  -8   2  13    2.57    0.19 
  -8   2  13    2.73    0.19 
  -7   2  13    1.38    0.11 
  -7   2  13    1.46    0.16 
   6  -2 -13    1.16    0.09 
  -6  -2  13    1.06    0.13 
  -6   2  13    1.05    0.14 
   5  -2 -13    5.92    0.24 
   5  -2 -13    5.17    0.24 
  -5  -2  13    5.93    0.30 
  -5   2  13    5.86    0.32 
  -4  -2  13    8.37    0.45 
  -4   2  13    7.95    0.46 
  -3  -2  13    0.90    0.17 
   3   2 -13    0.77    0.09 
   1  -2 -13    0.44    0.21 
   1   2 -13    0.83    0.25 
   0  -2 -13    9.37    0.46 
   0   2 -13    9.40    0.47 
   0   2 -13    9.73    0.46 
   0   2  13    9.89    0.50 
   0   2 -13    9.39    0.47 
  -1  -2 -13    5.02    0.29 
   1  -2  13    5.04    0.31 
  -1  -2 -13    5.16    0.32 
  -1   2 -13    4.86    0.30 
  -1   2 -13    5.01    0.31 
   1   2  13    4.99    0.32 
  -1   2 -13    4.85    0.30 
  -2  -2 -13    7.72    0.50 
  -2  -2 -13    7.85    0.40 
  -2  -2 -13    7.87    0.38 
  -2   2 -13    8.60    0.41 
  -2   2 -13    8.46    0.41 
   2   2  13    8.49    0.45 
  -2   2 -13    8.41    0.40 
  -3  -2 -13    1.16    0.27 
  -3  -2 -13    1.41    0.10 
  -3  -2 -13    1.54    0.12 
   3   2  13    1.41    0.26 
  -3   2 -13    1.44    0.29 
  -3   2 -13    1.38    0.24 
  -3   2 -13    1.50    0.15 
  -4  -2 -13    1.85    0.24 
  -4  -2 -13    2.10    0.21 
  -4   2 -13    2.19    0.14 
  -4   2 -13    2.20    0.22 
  -4   2 -13    1.69    0.17 
  -5  -2 -13    0.39    0.12 
  -5   2 -13    0.36    0.08 
  -5   2 -13    0.40    0.12 
  -6  -2 -13    0.81    0.19 
  -6   2 -13    0.62    0.19 
  -7  -2 -13    1.32    0.15 
  -7   2 -13    1.79    0.17 
  -8   2 -13    2.33    0.17 
  -8   3  13    0.48    0.17 
  -8   3  13    0.49    0.17 
  -7  -3  13    0.99    0.13 
  -7   3  13    1.17    0.14 
  -7   3  13    1.18    0.11 
  -7   3  13    1.31    0.14 
  -6  -3  13    2.03    0.14 
  -6   3  13    2.27    0.17 
  -5  -3  13    5.61    0.29 
  -5   3  13    5.70    0.32 
  -4  -3  13    3.01    0.31 
  -4  -3  13    2.76    0.24 
  -3  -3  13    0.50    0.12 
   3   3 -13    0.33    0.06 
   1  -3 -13    3.79    0.30 
   0  -3 -13    2.52    0.22 
   0   3  13    2.65    0.23 
   0   3 -13    2.92    0.25 
   0   3 -13    3.08    0.25 
  -1  -3 -13    2.16    0.23 
  -1  -3 -13    2.25    0.19 
  -1   3 -13    2.21    0.23 
  -1   3 -13    2.33    0.21 
  -1   3 -13    2.22    0.22 
   1   3  13    2.60    0.22 
  -2  -3 -13    3.77    0.33 
  -2  -3 -13    3.82    0.22 
  -2  -3 -13    4.03    0.27 
  -2   3 -13    4.10    0.27 
   2   3  13    3.55    0.27 
  -2   3 -13    3.74    0.25 
  -2   3 -13    4.11    0.27 
  -3  -3 -13    5.84    0.27 
  -3  -3 -13    6.23    0.46 
  -3  -3 -13    6.20    0.37 
  -3   3 -13    6.45    0.34 
  -3   3 -13    6.36    0.38 
   3   3  13    6.53    0.39 
  -3   3 -13    6.43    0.36 
  -4  -3 -13    1.81    0.21 
  -4  -3 -13    1.31    0.22 
  -4   3 -13    1.89    0.21 
  -4   3 -13    1.82    0.17 
   4   3  13    1.51    0.18 
  -4   3 -13    1.72    0.14 
  -5  -3 -13    3.16    0.22 
  -5  -3 -13    3.07    0.27 
  -5   3 -13    2.46    0.22 
  -5   3 -13    2.63    0.17 
  -6   3 -13    0.21    0.18 
  -7   3 -13    3.49    0.23 
   7   3  13    3.81    0.23 
  -8   3 -13    1.23    0.13 
  -8   4  13    1.10    0.16 
  -8   4  13    1.24    0.15 
  -7   4  13    2.32    0.14 
  -7   4  13    2.39    0.17 
  -7   4  13    2.23    0.17 
  -6  -4  13    2.34    0.13 
  -6   4  13    1.87    0.16 
  -5  -4  13    0.45    0.13 
  -5  -4  13    0.37    0.08 
  -5   4  13    0.54    0.11 
  -4  -4  13    0.17    0.21 
  -4  -4  13    0.36    0.18 
  -3  -4  13    7.38    0.39 
   3   4 -13    7.48    0.32 
   2  -4 -13    1.89    0.20 
   2   4 -13    2.13    0.11 
   2   4 -13    1.86    0.11 
   1  -4 -13   10.26    0.52 
   0  -4 -13   10.21    0.48 
   0   4  13   10.24    0.53 
   0   4 -13   10.93    0.50 
   0   4 -13   10.32    0.48 
  -1  -4 -13    5.65    0.31 
  -1  -4 -13    5.92    0.41 
  -1   4 -13    5.84    0.35 
  -1   4 -13    6.48    0.34 
   1   4  13    5.91    0.35 
  -1   4 -13    6.22    0.34 
  -2  -4 -13    3.87    0.33 
  -2  -4 -13    3.96    0.22 
  -2  -4 -13    3.39    0.26 
  -2  -4 -13    4.06    0.19 
  -2   4 -13    4.25    0.27 
  -2   4 -13    4.00    0.27 
   2   4  13    3.75    0.28 
  -2   4 -13    4.09    0.26 
  -3  -4 -13    5.48    0.46 
  -3   4 -13    6.35    0.39 
  -3   4 -13    6.16    0.36 
  -3   4 -13    6.08    0.38 
   3   4  13    5.77    0.39 
  -4  -4 -13    1.60    0.22 
  -4   4 -13    1.15    0.16 
  -4   4 -13    1.33    0.19 
   4   4  13    1.42    0.18 
  -4   4 -13    1.49    0.14 
  -5  -4 -13    1.01    0.20 
   5   4  13    1.23    0.16 
  -5   4 -13    1.16    0.18 
  -5   4 -13    1.27    0.13 
   6   4  13   -0.03    0.15 
  -6   4 -13   -0.10    0.16 
  -7   4 -13    2.54    0.19 
   7   4  13    2.45    0.18 
  -8   4 -13    0.85    0.12 
  -7   5  13    1.32    0.13 
  -7   5  13    0.96    0.13 
  -7   5  13    0.98    0.11 
  -6   5  13    1.13    0.14 
  -6   5  13    1.30    0.15 
  -5  -5  13    5.40    0.27 
  -5  -5  13    6.03    0.36 
  -5   5  13    5.43    0.31 
  -4  -5  13    4.71    0.37 
  -4  -5  13    4.52    0.29 
  -3  -5  13    4.11    0.27 
   3   5 -13    4.00    0.20 
  -2  -5  13    2.44    0.23 
   2  -5 -13    2.77    0.22 
   2   5 -13    2.54    0.13 
   1  -5 -13    8.59    0.49 
  -1   5  13    8.64    0.51 
   0  -5 -13    4.51    0.34 
   0  -5 -13    4.91    0.27 
   0   5 -13    4.08    0.28 
   0   5  13    3.97    0.29 
   0   5 -13    4.19    0.30 
  -1  -5 -13    8.18    0.51 
  -1  -5 -13    8.03    0.38 
  -1   5 -13    7.94    0.41 
  -1   5 -13    8.16    0.42 
  -1   5 -13    8.48    0.40 
   1   5  13    8.11    0.44 
  -2  -5 -13    3.38    0.20 
  -2  -5 -13    3.29    0.31 
  -2   5 -13    4.27    0.26 
  -2   5 -13    4.57    0.27 
  -2   5 -13    3.94    0.28 
   2   5  13    4.00    0.27 
  -3  -5 -13   14.90    0.86 
  -3   5 -13   16.81    0.70 
  -3   5 -13   15.50    0.68 
  -3   5 -13   16.76    0.71 
   3   5  13   16.50    0.78 
  -4  -5 -13    2.22    0.25 
   4   5  13    2.35    0.20 
  -4   5 -13    2.48    0.22 
  -4   5 -13    2.27    0.20 
  -4   5 -13    2.37    0.17 
  -5  -5 -13    4.28    0.31 
   5   5  13    4.11    0.26 
  -5   5 -13    3.77    0.21 
  -5   5 -13    3.71    0.25 
  -6  -5 -13    1.26    0.22 
   6   5  13    1.18    0.18 
  -6   5 -13    1.06    0.20 
  -7   5 -13    3.54    0.21 
  -8   5 -13    2.66    0.16 
  -7   6  13    0.89    0.10 
  -7   6  13    0.87    0.12 
  -7   6  13    1.12    0.12 
  -6   6  13    2.06    0.16 
  -6   6  13    2.03    0.16 
  -6   6  13    1.70    0.16 
  -5  -6  13    2.59    0.23 
  -5  -6  13    2.21    0.15 
  -5   6  13    2.36    0.20 
  -4  -6  13    0.61    0.17 
  -4  -6  13    0.47    0.22 
  -3  -6  13   13.21    0.59 
   3  -6 -13   13.07    0.60 
   3   6 -13   13.08    0.52 
   2  -6 -13    1.13    0.22 
   2  -6 -13    1.43    0.19 
   2   6 -13    1.91    0.11 
   1  -6 -13    8.75    0.46 
  -1   6  13    9.23    0.49 
   0  -6 -13    5.74    0.31 
   0  -6 -13    5.87    0.41 
   0   6 -13    6.35    0.39 
   0   6  13    5.60    0.35 
  -1  -6 -13    3.02    0.18 
   1  -6  13    2.89    0.13 
   1  -6  13    2.46    0.13 
  -1  -6 -13    2.86    0.28 
   1   6  13    2.37    0.23 
  -1   6 -13    2.35    0.22 
  -1   6 -13    3.09    0.25 
  -1   6 -13    2.77    0.23 
  -2  -6 -13    0.22    0.05 
  -2  -6 -13    0.21    0.13 
  -2   6 -13    0.27    0.10 
  -2   6 -13    0.13    0.10 
  -2   6 -13    0.01    0.10 
   2   6  13    0.15    0.10 
  -3  -6 -13    4.25    0.43 
  -3   6 -13    4.72    0.35 
  -3   6 -13    4.66    0.36 
  -3   6 -13    5.40    0.34 
   3   6  13    4.56    0.37 
  -4  -6 -13    2.82    0.27 
   4   6  13    2.95    0.22 
  -4   6 -13    2.96    0.21 
  -4   6 -13    2.62    0.19 
  -4   6 -13    3.16    0.23 
  -5  -6 -13    1.00    0.19 
  -5   6 -13    1.06    0.14 
  -5   6 -13    1.01    0.08 
   5   6  13    0.90    0.14 
  -5   6 -13    0.92    0.16 
  -6  -6 -13    0.62    0.18 
  -6   6 -13    0.32    0.17 
   6   6  13    0.65    0.15 
  -7   6 -13    1.14    0.13 
  -7   7  13    1.30    0.13 
  -7   7  13    1.57    0.11 
  -7   7  13    1.37    0.12 
  -6   7  13    4.18    0.22 
  -6   7  13    4.33    0.22 
  -6   7  13    4.23    0.24 
  -5  -7  13    1.10    0.10 
  -5   7  13    1.10    0.15 
  -4  -7  13    2.77    0.21 
  -3  -7  13    6.43    0.34 
   3  -7 -13    7.06    0.36 
   3   7 -13    6.52    0.29 
   2  -7 -13    0.86    0.16 
   2   7 -13    1.60    0.10 
   1  -7 -13   17.00    0.74 
   1  -7 -13   16.29    0.90 
  -1   7  13   17.81    0.81 
   0  -7 -13    8.62    0.40 
   0  -7 -13    8.54    0.52 
   0   7  13    8.64    0.45 
  -1  -7 -13    0.11    0.06 
  -1  -7 -13    0.16    0.13 
  -1   7 -13    0.08    0.10 
  -1   7 -13    0.17    0.10 
   1   7  13    0.06    0.09 
  -1   7 -13    0.13    0.11 
  -2  -7 -13    1.68    0.24 
   2  -7  13    2.04    0.11 
  -2   7 -13    2.10    0.20 
  -2   7 -13    1.65    0.19 
  -2   7 -13    2.04    0.21 
   2   7  13    1.70    0.19 
  -3  -7 -13    1.01    0.25 
  -3   7 -13    1.20    0.23 
  -3   7 -13    1.23    0.24 
   3   7  13    0.77    0.22 
  -3   7 -13    1.02    0.21 
  -4  -7 -13    8.35    0.50 
  -4   7 -13    8.83    0.40 
  -4   7 -13    8.81    0.39 
  -4   7 -13    8.19    0.38 
   4   7  13    8.55    0.44 
  -5  -7 -13    3.35    0.28 
  -5   7 -13    3.78    0.23 
   5   7  13    3.94    0.25 
  -5   7 -13    3.90    0.22 
  -5   7 -13    3.72    0.17 
  -6  -7 -13    1.35    0.21 
  -6   7 -13    1.39    0.19 
   6   7  13    1.49    0.18 
  -7   7 -13    1.78    0.14 
  -7   8  13    1.15    0.10 
  -6   8  13    2.49    0.17 
  -5   8  13    0.86    0.14 
  -4  -8  13    1.57    0.15 
   4  -8 -13    1.35    0.17 
  -3  -8  13    1.39    0.16 
   3  -8 -13    1.64    0.18 
   3   8 -13    1.83    0.12 
   2  -8 -13    2.74    0.20 
   2   8 -13    2.86    0.13 
   2   8 -13    2.55    0.13 
   1  -8 -13    9.48    0.47 
   1  -8 -13    9.34    0.58 
  -1   8  13   10.25    0.51 
   0  -8 -13    3.31    0.30 
   0  -8 -13    3.54    0.21 
   0   8  13    3.55    0.25 
  -1  -8 -13    3.20    0.17 
  -1  -8 -13    3.43    0.29 
  -1   8 -13    3.34    0.25 
  -1   8 -13    3.12    0.25 
   1   8  13    3.51    0.25 
  -2  -8 -13    3.19    0.29 
  -2   8 -13    3.46    0.24 
  -2   8 -13    3.60    0.25 
   2   8  13    3.54    0.25 
  -3  -8 -13   -0.08    0.24 
   3  -8  13    0.11    0.09 
  -3   8 -13    0.10    0.18 
   3   8  13    0.09    0.19 
  -3   8 -13    0.12    0.20 
   4  -8  13    3.54    0.16 
  -4  -8 -13    3.27    0.27 
  -4   8 -13    3.41    0.22 
  -4   8 -13    2.79    0.21 
  -4   8 -13    3.39    0.20 
   4   8  13    3.27    0.23 
  -5  -8 -13    0.90    0.17 
   5   8  13    1.23    0.14 
  -5   8 -13    1.07    0.13 
  -5   8 -13    1.14    0.09 
  -5   8 -13    1.13    0.14 
  -6  -8 -13    1.97    0.23 
  -6   8 -13    2.09    0.18 
  -6   9  13    4.72    0.24 
   5  -9 -13    1.69    0.16 
  -5   9  13    1.54    0.16 
   4  -9 -13    2.05    0.19 
  -4  -9  13    2.32    0.15 
   3  -9 -13   14.98    0.64 
  -3  -9  13   14.50    0.62 
   3   9 -13   15.06    0.57 
   2  -9 -13    8.35    0.39 
   1  -9 -13    1.14    0.18 
  -1   9  13    1.31    0.21 
   0  -9 -13    3.97    0.29 
   0  -9 -13    3.32    0.19 
   0   9  13    3.30    0.24 
  -1  -9 -13    5.50    0.39 
  -1   9 -13    5.66    0.33 
   1   9  13    6.29    0.34 
  -2  -9 -13    2.16    0.24 
   2   9  13    2.12    0.20 
  -2   9 -13    2.19    0.19 
  -2   9 -13    2.32    0.21 
  -3  -9 -13   -0.01    0.24 
  -3   9 -13    0.13    0.19 
  -3   9 -13    0.53    0.22 
   3   9  13    0.21    0.19 
  -4  -9 -13   11.85    0.64 
   4   9  13   11.86    0.58 
  -4   9 -13   12.31    0.51 
  -4   9 -13   12.86    0.52 
  -5  -9 -13    3.70    0.26 
  -5   9 -13    3.43    0.20 
   5   9  13    3.50    0.22 
  -6  -9 -13    1.80    0.20 
  -6  10  13    1.67    0.13 
   5 -10 -13    0.73    0.12 
  -5  10  13    0.66    0.12 
   4 -10 -13    0.53    0.14 
   3 -10 -13    0.83    0.13 
  -3 -10  13    0.86    0.11 
   3  10 -13    0.83    0.08 
   2 -10 -13    0.87    0.13 
  -2 -10  13    0.66    0.13 
   1 -10 -13    4.80    0.24 
   0 -10 -13    4.36    0.20 
   0 -10 -13    4.04    0.31 
   0  10  13    4.52    0.27 
  -1 -10 -13    1.57    0.21 
  -1  10 -13    1.79    0.20 
   1  10  13    2.10    0.19 
  -2 -10 -13    0.58    0.14 
  -2  10 -13    0.95    0.15 
   2  10  13    0.87    0.14 
  -2  10 -13    1.24    0.16 
  -3 -10 -13    1.64    0.27 
  -3  10 -13    2.74    0.25 
   3  10  13    2.30    0.23 
  -3  10 -13    2.13    0.17 
  -4 -10 -13    0.99    0.16 
  -4  10 -13    0.99    0.11 
  -4  10 -13    0.90    0.14 
   4  10  13    0.86    0.13 
  -5 -10 -13    1.69    0.17 
  -5  10 -13    1.76    0.13 
   5 -11 -13    6.92    0.31 
   4 -11 -13    0.21    0.13 
  -3 -11  13    0.23    0.05 
   3 -11 -13    0.33    0.07 
   2 -11 -13    3.61    0.20 
  -2 -11  13    3.79    0.21 
   1 -11 -13    2.28    0.14 
   0  11  13    7.63    0.39 
  -1 -11 -13    0.53    0.12 
   1  11  13    0.71    0.13 
  -2 -11 -13    3.25    0.25 
  -2  11 -13    3.26    0.22 
  -2  11 -13    2.92    0.20 
   2  11  13    3.00    0.21 
  -3 -11 -13    4.30    0.32 
  -3  11 -13    3.66    0.27 
   3  11  13    3.39    0.26 
  -3  11 -13    3.52    0.21 
  -4 -11 -13    1.52    0.17 
  -4  11 -13    1.80    0.12 
   4  11  13    1.53    0.14 
  -4  11 -13    1.73    0.15 
  -5 -11 -13    4.78    0.28 
   4 -12 -13    0.54    0.11 
   3 -12 -13    1.83    0.13 
  -2 -12  13    1.84    0.13 
   2 -12 -13    1.66    0.12 
   0  12  13    6.26    0.33 
   1  12  13    8.99    0.44 
  -2 -12 -13    4.62    0.29 
   2  12  13    4.30    0.26 
  -2  12 -13    4.46    0.26 
  -2  12 -13    4.56    0.24 
  -3 -12 -13    4.84    0.35 
  -3  12 -13    5.26    0.25 
  -3  12 -13    5.26    0.30 
   3  12  13    4.68    0.30 
  -4 -12 -13    4.84    0.28 
  -4  12 -13    4.60    0.21 
  -4  12 -13    4.28    0.24 
  -1 -13  13    1.78    0.16 
  -1  13 -13    0.55    0.11 
  -2  13 -13    3.58    0.20 
  -3  13 -13    0.89    0.10 
  -6   0  14    0.72    0.11 
  -5   0  14    0.18    0.08 
  -4   0  14   21.23    0.89 
   1   0 -14    5.00    0.31 
   1   0 -14    5.32    0.32 
   0   0 -14    0.44    0.23 
  -1   0 -14   -0.12    0.09 
  -1   0 -14    0.39    0.12 
  -1   0 -14   -0.05    0.07 
   1   0  14    0.01    0.08 
   2   0  14   -0.02    0.08 
  -2   0 -14    0.04    0.10 
  -2   0 -14   -0.03    0.07 
  -2   0 -14   -0.02    0.08 
  -3   0 -14    1.59    0.13 
  -3   0 -14    1.69    0.23 
   3   0  14    1.64    0.18 
  -3   0 -14    1.64    0.19 
  -4   0 -14    0.47    0.22 
  -5   0 -14    0.69    0.12 
  -6   0 -14    6.71    0.31 
  -7   0 -14    3.05    0.20 
  -6  -1  14    7.77    0.34 
  -6   1  14    8.26    0.36 
  -5  -1  14    1.45    0.15 
  -5   1  14    1.45    0.15 
  -4  -1  14    3.14    0.21 
  -4   1  14    2.41    0.21 
  -3  -1  14    3.93    0.32 
   1  -1 -14    8.16    0.42 
   1   1 -14    8.72    0.44 
   1   1 -14    8.48    0.43 
   0  -1 -14   -0.05    0.22 
   0   1 -14    0.11    0.22 
  -1  -1 -14    0.70    0.11 
   1  -1  14    0.75    0.16 
  -1   1 -14    1.38    0.16 
  -1   1 -14    1.08    0.18 
  -1   1 -14    1.66    0.21 
   1   1  14    1.17    0.17 
  -2  -1 -14    3.52    0.26 
  -2  -1 -14    3.72    0.21 
  -2  -1 -14    3.36    0.30 
   2  -1  14    3.32    0.25 
  -2   1 -14    3.67    0.26 
   2   1  14    3.50    0.25 
  -2   1 -14    3.45    0.22 
  -2   1 -14    3.20    0.24 
  -3  -1 -14    6.53    0.40 
  -3  -1 -14    5.70    0.32 
   3  -1  14    6.12    0.34 
  -3  -1 -14    5.90    0.26 
  -3   1 -14    5.31    0.28 
  -3   1 -14    6.06    0.33 
  -3   1 -14    5.73    0.30 
   3   1  14    6.34    0.35 
  -3   1 -14    5.74    0.39 
  -4  -1 -14    8.29    0.53 
  -4  -1 -14    8.01    0.44 
   4   1  14    8.50    0.47 
  -4   1 -14    8.10    0.43 
  -5  -1 -14    0.40    0.11 
   5   1  14    0.21    0.08 
  -5   1 -14    0.13    0.09 
  -6  -1 -14    0.12    0.09 
   6   1  14    0.18    0.08 
  -6   1 -14    0.17    0.09 
  -7  -1 -14    1.63    0.17 
  -7   1 -14    1.27    0.16 
  -6  -2  14    0.52    0.08 
  -6   2  14    0.42    0.08 
  -5  -2  14    3.09    0.19 
  -5   2  14    2.75    0.20 
  -4  -2  14    4.07    0.25 
  -4   2  14    3.69    0.25 
  -3  -2  14    4.25    0.30 
   2  -2 -14    1.14    0.18 
   1  -2 -14    2.13    0.21 
   1   2 -14    1.98    0.21 
   0  -2 -14    2.41    0.25 
   0   2 -14    2.23    0.26 
   0   2 -14    1.91    0.27 
  -1  -2 -14    1.71    0.16 
  -1   2 -14    1.33    0.19 
   1   2  14    1.56    0.18 
  -1   2 -14    1.68    0.21 
  -1   2 -14    1.87    0.19 
   2  -2  14    0.90    0.16 
  -2  -2 -14    0.68    0.13 
  -2  -2 -14    0.47    0.14 
  -2  -2 -14    0.57    0.11 
  -2   2 -14    0.62    0.11 
  -2   2 -14    0.67    0.13 
   2   2  14    0.47    0.11 
  -2   2 -14    0.51    0.11 
  -3  -2 -14    0.26    0.11 
  -3  -2 -14    0.18    0.12 
   3  -2  14    0.36    0.10 
  -3   2 -14    0.51    0.13 
   3   2  14    0.39    0.11 
  -3   2 -14    0.34    0.08 
  -3   2 -14    0.34    0.09 
  -4  -2 -14    1.45    0.27 
  -4  -2 -14    1.34    0.23 
  -4   2 -14    1.30    0.14 
   4   2  14    1.06    0.22 
  -4   2 -14    1.39    0.22 
  -5  -2 -14    2.90    0.20 
   5   2  14    2.61    0.20 
  -5   2 -14    2.40    0.20 
  -6  -2 -14    6.62    0.31 
   6   2  14    6.58    0.35 
  -6   2 -14    6.78    0.32 
  -7   2 -14    2.42    0.19 
  -7   3  14    8.60    0.37 
  -6   3  14   -0.01    0.06 
  -5  -3  14    2.19    0.16 
  -5   3  14    1.95    0.18 
   5   3 -14    1.98    0.10 
   5   3 -14    1.70    0.10 
  -4  -3  14    4.89    0.27 
  -4   3  14    4.66    0.29 
  -3  -3  14    1.25    0.20 
   2  -3 -14    1.16    0.17 
   1  -3 -14    3.62    0.25 
   1   3 -14    3.60    0.26 
   0  -3 -14    4.71    0.30 
   0   3 -14    3.88    0.33 
   0   3 -14    4.23    0.32 
   0   3  14    4.14    0.31 
  -1  -3 -14    0.17    0.08 
  -1  -3 -14    0.06    0.11 
  -1   3 -14    0.10    0.11 
  -1   3 -14    0.02    0.10 
  -1   3 -14    0.08    0.09 
   1   3  14    0.13    0.09 
  -2  -3 -14    0.50    0.10 
  -2  -3 -14    0.32    0.13 
   2  -3  14    0.39    0.10 
  -2   3 -14    0.25    0.10 
   2   3  14    0.42    0.11 
  -2   3 -14    0.43    0.12 
  -2   3 -14    0.46    0.10 
  -3  -3 -14   10.86    0.48 
  -3  -3 -14   10.62    0.61 
  -3   3 -14   10.77    0.48 
  -3   3 -14   10.39    0.48 
   3   3  14   10.76    0.54 
  -3   3 -14   10.75    0.46 
  -4  -3 -14    2.70    0.35 
  -4  -3 -14    2.67    0.30 
  -4   3 -14    3.47    0.16 
  -4   3 -14    3.52    0.27 
  -4   3 -14    2.72    0.29 
   4   3  14    2.97    0.31 
  -5  -3 -14    0.45    0.12 
   5   3  14    0.39    0.10 
  -5   3 -14    0.53    0.11 
   6   3  14    0.45    0.09 
  -6   3 -14    0.35    0.10 
  -7   3 -14    2.22    0.17 
  -7   4  14    0.27    0.14 
  -7   4  14    0.49    0.14 
  -6   4  14    1.08    0.12 
  -6   4  14    1.36    0.14 
  -5  -4  14    1.22    0.12 
   5   4 -14    1.11    0.08 
  -5   4  14    0.76    0.14 
  -4  -4  14    0.66    0.13 
  -4   4  14    0.60    0.12 
  -3  -4  14    3.67    0.25 
  -2  -4  14    3.38    0.25 
   2  -4 -14    3.10    0.23 
   1  -4 -14    0.70    0.12 
   0  -4 -14    2.97    0.26 
   0   4 -14    3.73    0.30 
   0   4 -14    3.11    0.30 
   0   4  14    3.50    0.28 
  -1  -4 -14    3.10    0.20 
  -1  -4 -14    3.06    0.29 
  -1   4 -14    3.32    0.25 
   1   4  14    3.34    0.24 
  -1   4 -14    3.07    0.24 
  -1   4 -14    3.31    0.24 
  -2  -4 -14    1.35    0.22 
  -2  -4 -14    1.27    0.11 
   2   4  14    1.42    0.18 
  -2   4 -14    1.85    0.20 
  -2   4 -14    1.32    0.18 
  -2   4 -14    1.70    0.17 
  -3  -4 -14    3.39    0.29 
  -3   4 -14    3.75    0.25 
  -3   4 -14    3.52    0.23 
  -3   4 -14    3.46    0.21 
   3   4  14    3.58    0.25 
  -4  -4 -14    1.52    0.26 
   4   4  14    1.72    0.23 
  -4   4 -14    1.30    0.23 
  -4   4 -14    1.20    0.20 
  -4   4 -14    1.42    0.11 
  -5  -4 -14    6.61    0.38 
   5   4  14    6.17    0.34 
  -5   4 -14    5.95    0.28 
  -5   4 -14    6.17    0.30 
  -6   4 -14    0.00    0.08 
   6   4  14    0.02    0.07 
  -7   4 -14    1.57    0.16 
  -6   5  14    0.09    0.06 
  -6   5  14   -0.04    0.06 
  -6   5  14   -0.10    0.06 
  -5  -5  14    2.05    0.13 
   5   5 -14    1.81    0.10 
  -5   5  14    1.71    0.17 
  -4  -5  14    0.32    0.08 
  -4   5  14    0.27    0.11 
   4   5 -14    0.44    0.06 
   3  -5 -14    2.74    0.26 
  -3  -5  14    2.77    0.23 
   2  -5 -14    0.34    0.13 
   2  -5 -14    0.39    0.10 
  -2  -5  14    0.32    0.10 
   1  -5 -14    0.05    0.08 
   1  -5 -14    0.18    0.12 
   0  -5 -14    7.64    0.40 
   0   5 -14    8.22    0.44 
   0   5  14    7.78    0.44 
   0   5 -14    8.56    0.44 
  -1  -5 -14    5.91    0.28 
  -1  -5 -14    6.13    0.40 
  -1   5 -14    5.77    0.33 
  -1   5 -14    6.04    0.33 
  -1   5 -14    5.70    0.33 
   1   5  14    5.92    0.35 
  -2  -5 -14    3.32    0.30 
  -2   5 -14    3.16    0.24 
  -2   5 -14    3.69    0.25 
  -2   5 -14    3.43    0.23 
   2   5  14    3.53    0.25 
  -3  -5 -14    5.59    0.37 
  -3   5 -14    5.18    0.29 
  -3   5 -14    4.90    0.27 
  -3   5 -14    5.02    0.28 
   3   5  14    5.21    0.31 
  -4  -5 -14    3.70    0.34 
  -4   5 -14    3.07    0.27 
  -4   5 -14    3.20    0.25 
  -4   5 -14    3.36    0.17 
   4   5  14    3.50    0.28 
  -5  -5 -14    0.14    0.10 
  -5   5 -14    0.33    0.09 
  -5   5 -14    0.17    0.06 
   5   5  14    0.27    0.09 
  -6  -5 -14    0.91    0.13 
   6   5  14    0.81    0.12 
  -6   5 -14    0.88    0.13 
  -6   6  14    0.94    0.11 
  -6   6  14    0.97    0.12 
  -6   6  14    0.85    0.11 
  -5  -6  14    1.80    0.11 
  -5   6  14    1.68    0.15 
  -5   6  14    1.77    0.16 
  -4  -6  14    3.11    0.19 
   4  -6 -14    2.80    0.21 
   3  -6 -14    6.76    0.37 
  -3  -6  14    6.84    0.35 
  -2  -6  14    8.21    0.40 
   2  -6 -14    7.93    0.39 
   2  -6 -14    7.79    0.47 
   1  -6 -14   12.56    0.54 
   1  -6 -14   12.09    0.67 
   0  -6 -14    1.78    0.19 
   0  -6 -14    2.00    0.30 
   0   6 -14    2.21    0.26 
   0   6  14    2.05    0.23 
  -1  -6 -14    6.08    0.41 
  -1  -6 -14    6.18    0.28 
  -1   6 -14    5.82    0.33 
   1   6  14    6.28    0.35 
  -1   6 -14    5.95    0.33 
  -2  -6 -14    1.27    0.21 
   2  -6  14    1.15    0.08 
  -2   6 -14    1.30    0.18 
  -2   6 -14    1.08    0.18 
  -2   6 -14    1.00    0.15 
   2   6  14    0.95    0.16 
  -3  -6 -14    1.40    0.20 
  -3   6 -14    1.49    0.18 
  -3   6 -14    1.31    0.14 
   3   6  14    1.54    0.18 
  -3   6 -14    1.24    0.16 
  -4  -6 -14    6.49    0.44 
  -4   6 -14    6.74    0.33 
  -4   6 -14    5.92    0.35 
  -4   6 -14    5.98    0.28 
   4   6  14    6.57    0.37 
  -5  -6 -14    7.25    0.40 
  -5   6 -14    6.58    0.29 
  -5   6 -14    6.59    0.32 
   5   6  14    7.22    0.36 
  -6  -6 -14    5.95    0.34 
  -6   6 -14    6.27    0.28 
  -6   7  14    7.53    0.33 
   5  -7 -14    2.49    0.18 
  -5   7  14    2.41    0.17 
  -4  -7  14    0.13    0.06 
   4  -7 -14    0.15    0.08 
  -3  -7  14    1.48    0.17 
   3  -7 -14    1.71    0.19 
   2  -7 -14    0.72    0.13 
  -2  -7  14    0.36    0.10 
   1  -7 -14    2.06    0.17 
   1  -7 -14    2.22    0.23 
   0  -7 -14   11.45    0.67 
   0  -7 -14   11.71    0.49 
   0   7  14   11.81    0.59 
   0   7 -14   10.85    0.56 
  -1  -7 -14    9.59    0.53 
  -1  -7 -14    9.38    0.37 
  -1   7 -14    8.74    0.44 
   1   7  14    9.17    0.46 
  -1   7 -14    8.27    0.43 
  -2  -7 -14    8.56    0.50 
  -2   7 -14    7.94    0.38 
   2   7  14    8.75    0.44 
  -2   7 -14    8.24    0.40 
  -2   7 -14    8.57    0.41 
  -3  -7 -14    3.29    0.28 
   3   7  14    3.43    0.23 
  -3   7 -14    3.34    0.22 
  -3   7 -14    3.04    0.20 
  -3   7 -14    2.93    0.21 
   4  -7  14    4.75    0.21 
  -4  -7 -14    4.93    0.38 
  -4   7 -14    5.44    0.30 
  -4   7 -14    5.05    0.23 
  -4   7 -14    5.19    0.30 
   4   7  14    5.27    0.33 
  -5  -7 -14    2.08    0.19 
  -5   7 -14    1.79    0.13 
   5   7  14    1.86    0.16 
  -5   7 -14    2.28    0.17 
  -6   7 -14   -0.02    0.07 
  -6   8  14    0.12    0.07 
   5  -8 -14    0.67    0.11 
  -5   8  14    0.79    0.12 
   4  -8 -14    8.09    0.37 
  -4  -8  14    8.04    0.34 
  -3  -8  14    1.97    0.16 
   3  -8 -14    1.78    0.19 
  -2  -8  14    0.01    0.07 
   2  -8 -14    0.16    0.08 
   1  -8 -14    0.72    0.17 
   1  -8 -14    0.84    0.12 
   0  -8 -14    1.53    0.12 
   0  -8 -14    1.44    0.26 
   0   8  14    1.06    0.20 
  -1  -8 -14    0.44    0.13 
  -1   8 -14    0.38    0.09 
  -1   8 -14    0.40    0.11 
   1   8  14    0.39    0.10 
  -2  -8 -14    1.47    0.21 
  -2   8 -14    1.62    0.17 
  -2   8 -14    1.72    0.16 
   2   8  14    1.77    0.17 
  -3  -8 -14    3.19    0.25 
  -3   8 -14    2.84    0.18 
  -3   8 -14    2.78    0.20 
  -3   8 -14    2.61    0.20 
   3   8  14    2.58    0.20 
  -4  -8 -14    3.05    0.29 
  -4   8 -14    3.08    0.16 
  -4   8 -14    2.84    0.22 
  -4   8 -14    2.94    0.23 
   4   8  14    2.72    0.24 
  -5  -8 -14   -0.02    0.07 
  -5   8 -14   -0.08    0.06 
  -5   8 -14   -0.02    0.05 
   5  -9 -14    1.26    0.12 
  -5   9  14    1.31    0.12 
   4  -9 -14    1.11    0.12 
  -3  -9  14    2.89    0.20 
   3  -9 -14    2.94    0.22 
  -2  -9  14    0.02    0.07 
   2  -9 -14    0.14    0.06 
   1  -9 -14    0.27    0.07 
   0  -9 -14    0.96    0.23 
   0   9  14    1.00    0.17 
  -1  -9 -14    1.42    0.20 
   1   9  14    1.63    0.16 
  -1   9 -14    1.58    0.16 
  -1   9 -14    1.66    0.18 
  -2  -9 -14    1.34    0.19 
   2   9  14    1.93    0.17 
  -2   9 -14    2.08    0.16 
  -2   9 -14    1.78    0.18 
  -3  -9 -14    2.07    0.21 
   3   9  14    2.49    0.18 
  -3   9 -14    2.59    0.19 
  -3   9 -14    2.43    0.17 
  -4  -9 -14    1.24    0.21 
   4   9  14    0.81    0.17 
  -4   9 -14    0.87    0.09 
  -4   9 -14    0.87    0.12 
  -5  -9 -14    0.76    0.12 
   4 -10 -14   -0.08    0.06 
  -3 -10  14    3.70    0.19 
   3 -10 -14    3.81    0.22 
  -2 -10  14    5.47    0.27 
   2 -10 -14    5.95    0.27 
   1 -10 -14    3.56    0.17 
  -1 -10  14    3.83    0.22 
   0  10  14    4.71    0.30 
  -1 -10 -14    1.24    0.17 
  -1  10 -14    0.94    0.15 
  -1  10 -14    0.80    0.13 
   1  10  14    0.94    0.13 
  -2 -10 -14    0.41    0.11 
  -2  10 -14    0.37    0.10 
   2  10  14    0.28    0.08 
  -2  10 -14    0.30    0.08 
  -3 -10 -14    0.83    0.14 
  -3  10 -14    0.88    0.11 
  -3  10 -14    0.86    0.13 
   3  10  14    0.69    0.12 
  -4 -10 -14    0.39    0.19 
  -4  10 -14    0.38    0.07 
  -4  10 -14    0.52    0.07 
   3 -11 -14    0.19    0.09 
  -2 -11  14    0.54    0.08 
   2 -11 -14    0.60    0.07 
  -1 -11  14    2.75    0.17 
  -1 -11 -14    0.08    0.08 
  -1  11 -14    0.21    0.08 
  -1  11 -14    0.07    0.07 
   1  11  14    0.00    0.07 
  -2 -11 -14    1.52    0.15 
  -2  11 -14    1.38    0.14 
  -2  11 -14    1.48    0.13 
  -3 -11 -14    5.50    0.31 
  -3  11 -14    5.22    0.26 
  -3  11 -14    5.26    0.24 
  -1 -12  14    0.89    0.09 
   0 -12  14    2.68    0.18 
  -1  12 -14    1.89    0.14 
  -2  12 -14    0.68    0.10 
  -5   0  15    0.00    0.07 
  -4   0  15    1.63    0.16 
  -3   0  15   13.44    0.59 
   2   0 -15    7.03    0.41 
   1   0 -15   12.08    0.55 
   0   0 -15    1.81    0.18 
   0   0  15    1.93    0.10 
  -1   0 -15    2.24    0.22 
   2   0  15    0.85    0.14 
  -2   0 -15    0.59    0.11 
  -2   0 -15    0.77    0.16 
  -3   0 -15    0.29    0.12 
  -3   0 -15    0.20    0.10 
   3   0  15    0.33    0.09 
   4   0  15    6.41    0.34 
  -4   0 -15    6.27    0.31 
   5   0  15    1.46    0.19 
  -5   0 -15    1.48    0.16 
  -6   0 -15    2.54    0.17 
  -6   1  15    1.67    0.13 
  -5  -1  15    0.37    0.07 
  -5   1  15    0.11    0.07 
  -4  -1  15    1.26    0.15 
  -4   1  15    1.28    0.16 
  -3  -1  15    0.09    0.08 
  -3   1  15    0.06    0.08 
   2  -1 -15    0.68    0.19 
   1  -1 -15   12.34    0.55 
   1   1 -15   12.49    0.56 
   0  -1 -15    2.33    0.19 
   0   1 -15    2.11    0.20 
   0   1 -15    2.17    0.19 
  -1  -1 -15    0.41    0.09 
  -1   1 -15    0.27    0.18 
   2  -1  15    3.55    0.23 
  -2  -1 -15    3.62    0.19 
  -2  -1 -15    4.03    0.30 
   2   1  15    3.23    0.23 
  -2   1 -15    3.37    0.24 
  -2   1 -15    3.13    0.20 
  -2   1 -15    3.32    0.28 
   3  -1  15    1.40    0.16 
  -3  -1 -15    1.16    0.18 
  -3  -1 -15    1.41    0.20 
  -3   1 -15    1.25    0.19 
  -3   1 -15    1.15    0.17 
  -3   1 -15    1.11    0.09 
   3   1  15    1.17    0.15 
   4  -1  15    0.26    0.09 
  -4  -1 -15    0.12    0.10 
  -4  -1 -15    0.17    0.10 
  -4   1 -15    0.29    0.10 
   4   1  15    0.25    0.09 
   5  -1  15    0.21    0.17 
  -5  -1 -15    0.28    0.09 
   5   1  15    0.13    0.17 
  -5   1 -15    0.27    0.19 
  -6  -1 -15    1.90    0.15 
  -6   1 -15    1.82    0.15 
  -6   2  15    2.41    0.15 
  -5  -2  15    1.28    0.12 
  -5   2  15    1.38    0.13 
  -4  -2  15    4.48    0.25 
  -4   2  15    4.61    0.26 
  -3  -2  15    6.58    0.33 
   3  -2 -15    6.27    0.34 
   2  -2 -15    5.02    0.32 
   1  -2 -15    1.71    0.17 
   1   2 -15    1.69    0.18 
   1   2 -15    1.64    0.19 
   0  -2 -15    5.66    0.29 
   0   2 -15    5.14    0.31 
   0   2 -15    5.23    0.30 
  -1  -2 -15    1.05    0.13 
   1   2  15    1.12    0.20 
  -1   2 -15    1.04    0.19 
  -2  -2 -15    0.67    0.09 
  -2  -2 -15    0.61    0.14 
  -2   2 -15    0.79    0.18 
  -2   2 -15    0.61    0.12 
   2   2  15    0.64    0.15 
  -2   2 -15    0.55    0.09 
  -2   2 -15    0.33    0.10 
  -3  -2 -15    4.26    0.32 
   3  -2  15    4.10    0.26 
   3   2  15    4.45    0.27 
  -3   2 -15    4.41    0.26 
  -3   2 -15    4.36    0.20 
   4  -2  15    7.93    0.41 
  -4  -2 -15    8.88    0.37 
  -4  -2 -15    8.10    0.46 
  -4   2 -15    8.34    0.38 
   4   2  15    8.07    0.41 
  -5  -2 -15    1.57    0.15 
   5  -2  15    1.26    0.19 
  -5   2 -15    1.39    0.22 
   5   2  15    1.35    0.20 
  -6   2 -15    0.17    0.07 
  -6   3  15    1.86    0.14 
  -5  -3  15    1.27    0.11 
  -5   3  15    1.23    0.13 
  -4  -3  15    0.36    0.08 
  -4   3  15    0.52    0.10 
  -3  -3  15    2.04    0.18 
   3  -3 -15    1.93    0.18 
  -2  -3  15    1.92    0.21 
   2  -3 -15    2.27    0.22 
   1  -3 -15    0.52    0.10 
   1   3 -15    0.65    0.11 
   1   3 -15    0.71    0.13 
   0  -3 -15    0.17    0.08 
   0  -3 -15    0.20    0.12 
   0   3 -15    0.26    0.09 
   0   3 -15    0.39    0.11 
  -1  -3 -15    1.02    0.25 
  -1  -3 -15    1.12    0.12 
   1   3  15    1.05    0.19 
  -1   3 -15    1.16    0.19 
  -2  -3 -15    0.88    0.20 
  -2   3 -15    0.98    0.17 
  -2   3 -15    1.07    0.13 
   2   3  15    1.26    0.16 
  -2   3 -15    0.78    0.16 
  -2   3 -15    1.17    0.19 
  -3  -3 -15    6.11    0.38 
  -3   3 -15    5.97    0.27 
   3   3  15    5.94    0.33 
  -3   3 -15    5.64    0.31 
  -3   3 -15    6.26    0.30 
  -4  -3 -15    0.13    0.10 
   4  -3  15    0.02    0.07 
  -4   3 -15    0.16    0.09 
   4   3  15    0.03    0.07 
   5  -3  15    1.86    0.16 
   5   3  15    2.11    0.20 
  -5   3 -15    2.13    0.21 
  -6   3 -15    0.08    0.07 
  -5  -4  15    2.75    0.15 
  -5   4  15    3.12    0.18 
   4  -4 -15    2.94    0.20 
  -4  -4  15    3.38    0.19 
  -4   4  15    2.99    0.21 
  -3  -4  15    2.09    0.17 
   3  -4 -15    2.13    0.21 
   3  -4 -15    2.22    0.18 
   2  -4 -15    1.06    0.18 
  -2  -4  15    1.13    0.18 
   1  -4 -15    4.14    0.31 
   1  -4 -15    3.87    0.23 
   1   4 -15    4.00    0.26 
   1   4 -15    4.13    0.26 
   0  -4 -15    1.55    0.22 
   0  -4 -15    1.65    0.15 
   0   4 -15    1.68    0.18 
   0   4 -15    1.89    0.18 
  -1  -4 -15    1.27    0.11 
  -1  -4 -15    1.06    0.26 
  -1   4 -15    1.16    0.20 
   1   4  15    1.32    0.20 
  -1   4 -15    0.96    0.22 
   2  -4  15    2.52    0.13 
  -2  -4 -15    2.97    0.27 
  -2   4 -15    3.10    0.21 
   2   4  15    3.39    0.22 
  -2   4 -15    3.11    0.21 
  -2   4 -15    3.00    0.19 
  -3  -4 -15    3.47    0.28 
  -3   4 -15    3.59    0.23 
  -3   4 -15    3.42    0.19 
  -3   4 -15    3.56    0.21 
   3   4  15    3.60    0.24 
   4  -4  15    5.19    0.32 
  -4  -4 -15    6.05    0.36 
   4   4  15    6.22    0.32 
  -4   4 -15    6.41    0.30 
  -5  -4 -15    4.49    0.29 
   5   4  15    4.79    0.26 
  -5   4 -15    5.04    0.25 
  -6   4 -15   -0.04    0.06 
   5  -5 -15   -0.01    0.06 
  -5   5  15   -0.04    0.06 
  -5   5  15    0.04    0.06 
  -4  -5  15    0.29    0.07 
   4  -5 -15    0.37    0.09 
  -4   5  15    0.43    0.10 
  -3  -5  15    2.90    0.19 
   3  -5 -15    2.87    0.19 
   2  -5 -15    1.96    0.19 
  -2  -5  15    2.02    0.19 
   1  -5 -15    0.50    0.09 
   1  -5 -15    0.58    0.13 
   1   5 -15    0.37    0.10 
   0  -5 -15    2.56    0.17 
   0  -5 -15    2.44    0.24 
   0   5 -15    2.75    0.20 
   0   5 -15    2.98    0.22 
  -1  -5 -15    9.35    0.58 
  -1  -5 -15    9.47    0.39 
  -1   5 -15    9.54    0.47 
   1   5  15   10.13    0.50 
  -1   5 -15    9.90    0.48 
  -2  -5 -15   11.38    0.61 
   2   5  15   11.25    0.54 
  -2   5 -15   10.89    0.49 
  -2   5 -15   11.78    0.49 
  -3  -5 -15   10.29    0.55 
  -3   5 -15   10.22    0.43 
  -3   5 -15   10.02    0.42 
  -3   5 -15    9.96    0.43 
   3   5  15   10.18    0.49 
  -4  -5 -15    0.95    0.17 
  -4   5 -15    1.27    0.15 
   4   5  15    1.24    0.14 
  -4   5 -15    1.14    0.12 
  -5  -5 -15    1.42    0.16 
  -5   5 -15    1.48    0.15 
  -5   6  15    0.48    0.10 
   4  -6 -15    3.62    0.21 
  -4  -6  15    3.50    0.18 
  -4   6  15    3.19    0.21 
  -3  -6  15    0.66    0.11 
   3  -6 -15    0.63    0.12 
   2  -6 -15    1.61    0.18 
  -2  -6  15    1.31    0.19 
   2  -6 -15    2.08    0.24 
   1  -6 -15    1.26    0.12 
  -1  -6  15    1.02    0.15 
   1  -6 -15    0.91    0.18 
   0  -6 -15    2.81    0.25 
   0  -6 -15    2.85    0.16 
   0   6 -15    2.37    0.20 
   0   6 -15    2.03    0.18 
  -1  -6 -15    2.06    0.28 
   1   6  15    2.28    0.22 
  -1   6 -15    2.26    0.25 
  -1   6 -15    2.89    0.23 
  -2  -6 -15    0.16    0.11 
  -2   6 -15    0.51    0.09 
  -2   6 -15    0.44    0.10 
   2   6  15    0.32    0.09 
  -3  -6 -15    1.14    0.18 
  -3   6 -15    1.07    0.14 
  -3   6 -15    1.17    0.15 
   3   6  15    1.31    0.15 
  -3   6 -15    1.12    0.11 
  -4  -6 -15    1.18    0.16 
  -4   6 -15    0.99    0.11 
  -4   6 -15    1.11    0.14 
   4   6  15    0.98    0.13 
  -5   6 -15    4.27    0.22 
   4  -7 -15    1.81    0.14 
  -4  -7  15    1.76    0.10 
  -4   7  15    2.19    0.15 
   3  -7 -15    0.34    0.08 
  -3  -7  15    0.20    0.07 
  -2  -7  15    4.05    0.25 
   2  -7 -15    4.76    0.25 
   1  -7 -15    2.81    0.24 
   1  -7 -15    3.08    0.17 
  -1  -7  15    3.07    0.21 
   0  -7 -15    4.40    0.19 
   0  -7 -15    4.14    0.30 
   0   7 -15    4.23    0.25 
   0   7 -15    4.12    0.25 
  -1  -7 -15    0.93    0.22 
  -1   7 -15    1.68    0.19 
   1   7  15    1.13    0.18 
  -1   7 -15    1.55    0.22 
  -2  -7 -15    2.88    0.24 
  -2   7 -15    2.57    0.18 
  -2   7 -15    2.80    0.20 
   2   7  15    3.04    0.20 
  -3  -7 -15    1.12    0.17 
   3   7  15    0.99    0.13 
  -3   7 -15    1.34    0.11 
  -3   7 -15    1.17    0.13 
  -4  -7 -15    0.70    0.14 
  -4   7 -15    0.76    0.10 
   4  -8 -15    4.72    0.23 
  -3  -8  15    2.56    0.15 
   3  -8 -15    2.66    0.16 
   2  -8 -15    0.33    0.12 
  -2  -8  15    0.20    0.12 
   1  -8 -15    5.27    0.32 
  -1  -8  15    5.28    0.28 
   1  -8 -15    5.35    0.24 
   0  -8  15    0.16    0.08 
   0  -8 -15    0.11    0.09 
   0   8 -15    0.10    0.08 
   0   8 -15   -0.02    0.08 
  -1  -8 -15    5.54    0.39 
  -1   8 -15    6.18    0.32 
   1   8  15    5.20    0.32 
  -1   8 -15    6.17    0.32 
  -2  -8 -15    1.69    0.19 
   2   8  15    1.59    0.14 
  -2   8 -15    1.56    0.15 
  -2   8 -15    1.74    0.14 
  -3  -8 -15    1.29    0.16 
  -3   8 -15    1.23    0.12 
  -3   8 -15    1.10    0.10 
  -4  -8 -15    1.69    0.15 
  -3  -9  15    0.12    0.04 
   3  -9 -15    0.20    0.05 
   2  -9 -15    4.13    0.19 
  -2  -9  15    3.84    0.21 
  -1  -9  15   11.70    0.50 
   0  -9  15    3.75    0.21 
   0  -9 -15    3.83    0.24 
   0   9 -15    3.35    0.21 
   0   9 -15    3.06    0.21 
  -1  -9 -15    2.94    0.26 
  -1   9 -15    3.02    0.22 
  -1   9 -15    3.27    0.23 
  -2  -9 -15    0.09    0.08 
  -2   9 -15    0.13    0.06 
  -2   9 -15    0.17    0.07 
  -3  -9 -15    3.22    0.22 
  -3   9 -15    3.47    0.16 
  -2 -10  15    4.39    0.21 
  -1 -10  15    0.10    0.06 
   0 -10  15    0.21    0.06 
   0  10 -15    0.26    0.07 
  -1  10 -15    2.66    0.19 
  -2  10 -15    2.50    0.15 
  -4   0  16    0.12    0.07 
  -3   0  16    0.56    0.10 
   3   0 -16    0.71    0.13 
   2   0 -16    2.63    0.19 
   1   0 -16    1.57    0.18 
   0   0 -16    2.60    0.24 
   0   0 -16    2.37    0.17 
  -1   0 -16    1.98    0.14 
  -1   0 -16    2.04    0.22 
  -2   0 -16    2.29    0.29 
   3   0  16    1.72    0.16 
  -3   0 -16    1.76    0.18 
  -4  -1  16    6.61    0.30 
  -4   1  16    6.17    0.30 
   3  -1 -16    4.30    0.25 
  -3  -1  16    4.54    0.25 
  -3   1  16    4.61    0.25 
   2  -1 -16    2.62    0.19 
   2   1 -16    2.93    0.20 
   1  -1 -16    1.97    0.20 
   1   1 -16    1.97    0.21 
   0  -1 -16    3.34    0.27 
   0  -1 -16    3.17    0.19 
   0   1 -16    3.13    0.20 
  -1  -1 -16    0.79    0.10 
  -1  -1 -16    0.72    0.14 
  -1   1 -16    0.71    0.11 
  -1   1 -16    0.97    0.18 
  -2  -1 -16    1.30    0.25 
  -2   1 -16    0.95    0.24 
  -2   1 -16    0.99    0.09 
  -3  -1 -16    1.19    0.17 
   3   1  16    1.36    0.14 
  -4  -2  16    0.24    0.07 
   4  -2 -16    0.29    0.08 
  -4   2  16    0.17    0.07 
   3  -2 -16   -0.04    0.08 
  -3  -2  16   -0.08    0.06 
   3  -2 -16    0.12    0.07 
  -3   2  16    0.25    0.08 
   2  -2 -16    0.03    0.07 
   2  -2 -16    0.17    0.10 
  -2  -2  16    0.13    0.07 
   2   2 -16    0.20    0.08 
   1  -2 -16    1.79    0.18 
   1   2 -16    1.57    0.19 
   0  -2 -16    0.74    0.18 
   0  -2 -16    0.90    0.12 
   0   2 -16    1.30    0.14 
  -1  -2 -16    0.10    0.05 
  -1  -2 -16    0.08    0.10 
  -1   2 -16   -0.01    0.09 
  -1   2 -16   -0.11    0.06 
  -2  -2 -16    0.27    0.23 
  -2   2 -16    0.50    0.21 
  -2   2 -16    0.36    0.06 
  -3  -2 -16    1.56    0.17 
   3   2  16    1.45    0.14 
   4  -3 -16    0.54    0.10 
  -4  -3  16    0.51    0.09 
  -4   3  16    0.63    0.11 
  -3  -3  16    3.00    0.18 
   3  -3 -16    2.84    0.18 
   3  -3 -16    2.84    0.22 
  -3   3  16    2.97    0.19 
  -2  -3  16    2.06    0.17 
   2  -3 -16    2.21    0.21 
   2  -3 -16    2.00    0.16 
   2   3 -16    2.36    0.17 
   1  -3 -16    3.82    0.24 
   1   3 -16    3.81    0.25 
   0  -3 -16    1.94    0.20 
   0  -3 -16    1.83    0.13 
   0   3 -16    1.79    0.16 
  -1  -3 -16    1.71    0.11 
  -1  -3 -16    1.86    0.20 
  -1   3 -16    2.28    0.16 
  -1   3 -16    2.31    0.21 
  -2  -3 -16    2.04    0.25 
  -2   3 -16    1.91    0.13 
  -3  -3 -16    0.85    0.15 
   4  -4 -16    0.15    0.06 
  -4  -4  16    0.09    0.05 
  -4   4  16    0.13    0.06 
   3  -4 -16    0.32    0.08 
   3  -4 -16    0.34    0.10 
  -3  -4  16    0.38    0.07 
  -2  -4  16    0.32    0.08 
   2  -4 -16    0.26    0.07 
   2  -4 -16    0.39    0.11 
   2   4 -16    0.28    0.08 
   1  -4 -16    2.39    0.25 
   1  -4 -16    2.52    0.18 
   1   4 -16    2.14    0.20 
   0  -4 -16    6.06    0.37 
   0  -4 -16    5.55    0.26 
   0   4 -16    6.31    0.31 
   0   4 -16    6.31    0.30 
  -1  -4 -16    2.15    0.21 
  -1   4 -16    2.11    0.20 
  -1   4 -16    2.05    0.17 
  -1   4 -16    2.21    0.16 
  -2  -4 -16    2.33    0.26 
  -2   4 -16    2.46    0.14 
  -3  -4 -16    2.97    0.22 
  -3  -5  16    0.64    0.10 
   3  -5 -16    0.77    0.11 
  -2  -5  16    4.08    0.22 
   2  -5 -16    4.02    0.27 
   2  -5 -16    4.41    0.21 
  -1  -5  16    1.04    0.16 
   1  -5 -16    0.81    0.20 
   1  -5 -16    1.11    0.14 
   1   5 -16    0.98    0.16 
   0  -5 -16    1.74    0.10 
   0  -5 -16    1.70    0.19 
   0   5 -16    1.58    0.15 
   0   5 -16    1.45    0.16 
  -1  -5 -16    1.19    0.17 
  -1   5 -16    1.19    0.14 
  -1   5 -16    1.14    0.12 
  -2  -5 -16    1.23    0.23 
  -2   5 -16    1.25    0.10 
  -3  -5 -16    1.77    0.17 
  -3  -6  16    1.92    0.12 
   3  -6 -16    1.96    0.13 
  -2  -6  16    1.95    0.14 
   2  -6 -16    1.93    0.13 
   1  -6 -16    2.51    0.23 
   1  -6 -16    2.42    0.13 
  -1  -6  16    2.25    0.18 
   1   6 -16    2.12    0.18 
   0  -6 -16    2.54    0.20 
   0   6 -16    1.95    0.17 
   0   6 -16    1.92    0.15 
  -1  -6 -16    6.89    0.37 
  -1   6 -16    6.09    0.30 
  -1   6 -16    6.12    0.29 
  -2  -6 -16    4.81    0.33 
  -2   6 -16    4.77    0.22 
  -3  -6 -16    5.73    0.33 
   2  -7 -16    1.25    0.09 
  -2  -7  16    1.15    0.11 
  -1  -7  16    0.53    0.13 
   1   7 -16    0.44    0.15 
   0  -7 -16    0.27    0.09 
   0  -7  16    0.31    0.07 
   0   7 -16    0.26    0.07 
  -1  -7 -16    0.20    0.09 
  -1   7 -16    0.41    0.07 
  -1   7 -16    0.26    0.08 
  -2   7 -16   12.85    0.51 
  -1  -8  16    5.79    0.27 
   0   8 -16    2.00    0.13 
  -1   8 -16    1.38    0.11 
   2   0 -17    0.15    0.06 
   2   0 -17    0.16    0.08 
   1   0 -17   11.52    0.47 
   1   0 -17   10.94    0.57 
   0   0 -17    2.48    0.14 
   0   0 -17    2.14    0.23 
  -1   0 -17    8.03    0.43 
   2  -1 -17    0.38    0.07 
   2  -1 -17    0.42    0.10 
   2   1 -17    0.20    0.06 
   2   1 -17    0.19    0.09 
   1  -1 -17    1.70    0.17 
   1  -1 -17    1.59    0.12 
   1   1 -17    1.48    0.12 
   1   1 -17    1.66    0.17 
   0  -1 -17    1.91    0.11 
   0  -1 -17    1.50    0.21 
   0   1 -17    1.39    0.14 
  -1  -1 -17    5.96    0.32 
  -1   1 -17    5.04    0.32 
   2  -2 -17    3.58    0.19 
   2   2 -17    3.99    0.20 
   1  -2 -17    2.61    0.20 
   1  -2 -17    2.40    0.14 
   1   2 -17    2.76    0.20 
   1   2 -17    2.74    0.16 
   0  -2 -17    4.20    0.29 
   0   2 -17    4.06    0.21 
  -1  -2 -17    0.84    0.13 
  -1   2 -17    0.80    0.08 
   2  -3 -17    0.25    0.05 
   1  -3 -17    0.42    0.07 
   1  -3 -17    0.16    0.09 
   1   3 -17    0.51    0.09 
   1   3 -17    0.42    0.10 
   0  -3 -17    0.33    0.16 
   0   3 -17    0.29    0.11 
  -1  -3 -17    0.36    0.09 
  -1   3 -17    0.36    0.07 
   1   4 -17    0.09    0.06 
   0   4 -17    2.57    0.16 
;
loop_
_symmetry_equiv_pos_as_xyz
x,y,z
-x,y+1/2,-z
loop_
_atom_site_label
_atom_site_type_symbol
_atom_site_fract_x
_atom_site_fract_y
_atom_site_fract_z
_atom_site_U_iso_or_equiv
_atom_site_occupancy
_atom_site_adp_type
_atom_site_refinement_flags_posn
Zn1 Zn 0.94299(4) 0.65663(4) 0.84832(3) 0.0183 1.0000 Uani .
O1 O 0.7782(3) 0.65566(19) 0.7563(2) 0.0306 1.0000 Uani .
C3 C 0.7382(8) 0.7190(4) 0.7062(7) 0.0921 1.0000 Uani .
C4 C 0.6073(5) 0.7032(3) 0.6680(4) 0.0417 1.0000 Uani .
C5 C 0.5896(5) 0.6190(3) 0.6857(4) 0.0453 1.0000 Uani .
C6 C 0.6759(6) 0.6056(3) 0.7684(4) 0.0499 1.0000 Uani .
N3 N 0.9050(3) 0.76209(18) 0.9047(2) 0.0187 1.0000 Uani .
C8 C 0.9384(4) 0.8309(2) 0.8676(3) 0.0206 1.0000 Uani .
C9 C 0.8763(4) 0.8920(2) 0.9165(3) 0.0222 1.0000 Uani .
C10 C 0.8055(4) 0.8604(2) 0.9832(3) 0.0228 1.0000 Uani .
C11 C 0.8217(4) 0.7784(2) 0.9767(3) 0.0209 1.0000 Uani .
C12 C 0.7653(4) 0.7238(2) 1.0350(3) 0.0208 1.0000 Uani .
C13 C 0.6674(4) 0.7480(2) 1.1039(3) 0.0201 1.0000 Uani .
C14 C 0.6929(4) 0.7980(2) 1.1791(3) 0.0224 1.0000 Uani .
C15 C 0.5977(4) 0.8165(2) 1.2425(3) 0.0249 1.0000 Uani .
C16 C 0.4757(4) 0.7870(2) 1.2339(3) 0.0237 1.0000 Uani .
C17 C 0.3722(4) 0.8082(3) 1.3041(3) 0.0292 1.0000 Uani .
C18 C 0.3509(5) 0.8946(3) 1.3014(4) 0.0397 1.0000 Uani .
C19 C 0.2457(4) 0.7690(3) 1.2823(3) 0.0365 1.0000 Uani .
C20 C 0.4131(5) 0.7839(3) 1.4034(3) 0.0399 1.0000 Uani .
C21 C 0.4520(4) 0.7387(2) 1.1586(3) 0.0242 1.0000 Uani .
C22 C 0.5468(4) 0.7194(2) 1.0954(3) 0.0230 1.0000 Uani .
C23 C 0.7895(4) 0.6429(2) 1.0305(3) 0.0228 1.0000 Uani .
N2 N 0.8545(3) 0.60799(17) 0.9615(2) 0.0196 1.0000 Uani .
C25 C 0.8477(4) 0.5308(2) 0.9817(3) 0.0181 1.0000 Uani .
C26 C 0.8960(4) 0.4722(2) 0.9247(3) 0.0203 1.0000 Uani .
C27 C 0.8649(4) 0.3956(2) 0.9523(3) 0.0204 1.0000 Uani .
C28 C 0.8347(4) 0.3333(2) 0.9786(3) 0.0228 1.0000 Uani .
C29 C 0.7963(4) 0.2607(2) 1.0130(3) 0.0215 1.0000 Uani .
C30 C 0.8479(4) 0.1931(2) 0.9795(3) 0.0231 1.0000 Uani .
C31 C 0.8047(4) 0.1232(2) 1.0118(3) 0.0255 1.0000 Uani .
C32 C 0.7107(4) 0.1199(2) 1.0790(3) 0.0218 1.0000 Uani .
S1 S 0.65082(10) 0.03090(6) 1.11943(7) 0.0261 1.0000 Uani .
C34 C 0.5638(4) 0.0005(2) 1.0169(3) 0.0253 1.0000 Uani .
O3 O 0.5666(3) 0.03404(19) 0.9442(2) 0.0373 1.0000 Uani .
C36 C 0.4898(4) -0.0712(3) 1.0352(4) 0.0335 1.0000 Uani .
C37 C 0.6613(4) 0.1869(3) 1.1155(3) 0.0257 1.0000 Uani .
C38 C 0.7034(4) 0.2561(2) 1.0834(3) 0.0244 1.0000 Uani .
C39 C 0.9697(4) 0.4822(2) 0.8430(3) 0.0197 1.0000 Uani .
N4 N 1.0091(3) 0.55083(18) 0.8089(2) 0.0197 1.0000 Uani .
C41 C 1.0811(4) 0.5347(2) 0.7308(3) 0.0203 1.0000 Uani .
C42 C 1.0834(4) 0.4530(2) 0.7161(3) 0.0222 1.0000 Uani .
C43 C 1.0161(4) 0.4213(2) 0.7857(3) 0.0218 1.0000 Uani .
C44 C 1.1434(4) 0.5885(2) 0.6759(3) 0.0211 1.0000 Uani .
C45 C 1.2155(4) 0.5626(2) 0.5919(3) 0.0208 1.0000 Uani .
C46 C 1.3165(4) 0.5119(2) 0.5991(3) 0.0227 1.0000 Uani .
C47 C 1.3809(4) 0.4860(2) 0.5197(3) 0.0249 1.0000 Uani .
C48 C 1.3473(4) 0.5113(2) 0.4308(3) 0.0232 1.0000 Uani .
C49 C 1.2472(4) 0.5627(2) 0.4241(3) 0.0254 1.0000 Uani .
C50 C 1.1824(4) 0.5880(2) 0.5026(3) 0.0234 1.0000 Uani .
C51 C 1.4151(4) 0.4835(3) 0.3417(3) 0.0317 1.0000 Uani .
C52 C 1.4775(5) 0.5532(3) 0.2948(4) 0.0416 1.0000 Uani .
C53 C 1.3191(5) 0.4488(3) 0.2740(4) 0.0455 1.0000 Uani .
C54 C 1.5160(6) 0.4229(3) 0.3625(4) 0.0470 1.0000 Uani .
C55 C 1.1423(3) 0.6699(2) 0.6927(2) 0.0200 1.0000 Uani .
N1 N 1.0650(3) 0.70488(18) 0.7547(2) 0.0197 1.0000 Uani .
C57 C 1.0885(4) 0.7813(2) 0.7449(3) 0.0193 1.0000 Uani .
C58 C 1.0253(4) 0.8413(2) 0.7928(3) 0.0198 1.0000 Uani .
C59 C 1.0500(4) 0.9170(2) 0.7620(3) 0.0223 1.0000 Uani .
C60 C 1.0698(4) 0.9796(2) 0.7302(3) 0.0240 1.0000 Uani .
C61 C 1.0966(4) 1.0529(2) 0.6895(3) 0.0243 1.0000 Uani .
C62 C 1.1698(5) 1.0566(3) 0.6076(4) 0.0350 1.0000 Uani .
C63 C 1.1965(5) 1.1257(3) 0.5677(4) 0.0396 1.0000 Uani .
C64 C 1.1533(4) 1.1923(3) 0.6086(3) 0.0281 1.0000 Uani .
S2 S 1.19578(10) 1.28124(7) 0.55727(8) 0.0322 1.0000 Uani .
C66 C 1.0438(4) 1.3166(3) 0.5212(3) 0.0276 1.0000 Uani .
O2 O 0.9476(3) 1.2830(2) 0.5350(2) 0.0432 1.0000 Uani .
C68 C 1.0541(5) 1.3926(3) 0.4735(3) 0.0392 1.0000 Uani .
C69 C 1.0798(4) 1.1894(3) 0.6877(3) 0.0304 1.0000 Uani .
C70 C 1.0509(4) 1.1194(3) 0.7279(3) 0.0296 1.0000 Uani .
C71 C 1.1861(4) 0.7933(2) 0.6755(3) 0.0234 1.0000 Uani .
C72 C 1.2184(4) 0.7237(2) 0.6424(3) 0.0244 1.0000 Uani .
C73 C 0.7760(4) 0.5197(2) 1.0660(3) 0.0217 1.0000 Uani .
C74 C 0.7388(4) 0.5888(2) 1.0960(3) 0.0235 1.0000 Uani .
H31 H 0.7332 0.7629 0.7476 0.1093 1.0000 Uiso R
H32 H 0.7956 0.7294 0.6547 0.1093 1.0000 Uiso R
H41 H 0.5431 0.7307 0.7028 0.0524 1.0000 Uiso R
H42 H 0.6002 0.7162 0.6011 0.0521 1.0000 Uiso R
H52 H 0.5018 0.6053 0.6985 0.0543 1.0000 Uiso R
H51 H 0.6196 0.5905 0.6325 0.0539 1.0000 Uiso R
H61 H 0.6313 0.6174 0.8276 0.0604 1.0000 Uiso R
H62 H 0.7093 0.5531 0.7682 0.0607 1.0000 Uiso R
H91 H 0.8845 0.9436 0.9047 0.0258 1.0000 Uiso R
H101 H 0.7565 0.8870 1.0262 0.0282 1.0000 Uiso R
H141 H 0.7742 0.8199 1.1862 0.0269 1.0000 Uiso R
H151 H 0.6165 0.8504 1.2924 0.0304 1.0000 Uiso R
H181 H 0.2853 0.9068 1.3444 0.0613 1.0000 Uiso R
H182 H 0.4288 0.9210 1.3198 0.0608 1.0000 Uiso R
H183 H 0.3271 0.9083 1.2392 0.0609 1.0000 Uiso R
H192 H 0.1840 0.7869 1.3261 0.0568 1.0000 Uiso R
H191 H 0.2534 0.7150 1.2867 0.0570 1.0000 Uiso R
H193 H 0.2156 0.7826 1.2202 0.0565 1.0000 Uiso R
H202 H 0.3441 0.7959 1.4444 0.0610 1.0000 Uiso R
H201 H 0.4885 0.8108 1.4230 0.0609 1.0000 Uiso R
H203 H 0.4278 0.7294 1.4037 0.0609 1.0000 Uiso R
H211 H 0.3703 0.7179 1.1502 0.0288 1.0000 Uiso R
H221 H 0.5283 0.6869 1.0456 0.0276 1.0000 Uiso R
H301 H 0.9132 0.1940 0.9362 0.0290 1.0000 Uiso R
H311 H 0.8401 0.0784 0.9892 0.0308 1.0000 Uiso R
H362 H 0.4940 -0.1061 0.9824 0.0524 1.0000 Uiso R
H361 H 0.5222 -0.0970 1.0883 0.0523 1.0000 Uiso R
H363 H 0.4036 -0.0586 1.0473 0.0521 1.0000 Uiso R
H371 H 0.6002 0.1840 1.1628 0.0313 1.0000 Uiso R
H381 H 0.6735 0.3024 1.1102 0.0293 1.0000 Uiso R
H421 H 1.1218 0.4266 0.6669 0.0281 1.0000 Uiso R
H431 H 1.0017 0.3701 0.7951 0.0257 1.0000 Uiso R
H461 H 1.3419 0.4950 0.6586 0.0282 1.0000 Uiso R
H471 H 1.4476 0.4507 0.5279 0.0298 1.0000 Uiso R
H491 H 1.2216 0.5790 0.3645 0.0297 1.0000 Uiso R
H501 H 1.1169 0.6217 0.4959 0.0292 1.0000 Uiso R
H522 H 1.5142 0.5372 0.2365 0.0646 1.0000 Uiso R
H521 H 1.5430 0.5723 0.3364 0.0646 1.0000 Uiso R
H523 H 1.4137 0.5917 0.2843 0.0652 1.0000 Uiso R
H532 H 1.3624 0.4349 0.2174 0.0682 1.0000 Uiso R
H531 H 1.2524 0.4859 0.2591 0.0679 1.0000 Uiso R
H533 H 1.2824 0.4035 0.3018 0.0682 1.0000 Uiso R
H541 H 1.5521 0.4064 0.3040 0.0789 1.0000 Uiso R
H543 H 1.5814 0.4429 0.4041 0.0792 1.0000 Uiso R
H542 H 1.4745 0.3798 0.3919 0.0787 1.0000 Uiso R
H621 H 1.2013 1.0108 0.5812 0.0426 1.0000 Uiso R
H631 H 1.2441 1.1293 0.5124 0.0466 1.0000 Uiso R
H681 H 0.9895 1.4253 0.4971 0.0602 1.0000 Uiso R
H682 H 1.1367 1.4133 0.4830 0.0603 1.0000 Uiso R
H683 H 1.0402 1.3818 0.4083 0.0599 1.0000 Uiso R
H691 H 1.0502 1.2339 0.7150 0.0347 1.0000 Uiso R
H701 H 1.0034 1.1181 0.7821 0.0355 1.0000 Uiso R
H711 H 1.2206 0.8413 0.6572 0.0282 1.0000 Uiso R
H721 H 1.2789 0.7125 0.5958 0.0299 1.0000 Uiso R
H731 H 0.7563 0.4725 1.0934 0.0262 1.0000 Uiso R
H741 H 0.6913 0.6001 1.1494 0.0273 1.0000 Uiso R
loop_
_atom_site_aniso_label
_atom_site_aniso_U_11
_atom_site_aniso_U_22
_atom_site_aniso_U_33
_atom_site_aniso_U_23
_atom_site_aniso_U_13
_atom_site_aniso_U_12
Zn1 0.0232(2) 0.0104(2) 0.0212(2) 0.00028(19) 0.00415(16) 0.00022(19)
O1 0.0298(14) 0.0210(12) 0.0411(15) 0.0047(14) -0.0078(11) -0.0046(14)
C3 0.097(6) 0.055(4) 0.124(7) 0.047(4) -0.077(6) -0.037(4)
C4 0.040(3) 0.046(3) 0.039(3) 0.005(2) -0.012(2) -0.000(2)
C5 0.037(3) 0.054(3) 0.045(3) 0.003(2) -0.008(2) -0.015(3)
C6 0.050(3) 0.039(3) 0.061(3) 0.013(3) -0.012(3) -0.018(2)
N3 0.0235(16) 0.0122(16) 0.0204(15) -0.0013(12) 0.0047(12) -0.0009(12)
C8 0.028(2) 0.0127(19) 0.0212(17) 0.0014(15) -0.0023(15) 0.0025(15)
C9 0.028(2) 0.0102(18) 0.028(2) -0.0023(15) -0.0013(16) 0.0012(15)
C10 0.026(2) 0.0149(19) 0.0278(19) -0.0009(16) 0.0007(15) 0.0049(16)
C11 0.0227(19) 0.0189(19) 0.0210(18) -0.0038(16) -0.0017(15) -0.0011(16)
C12 0.0222(19) 0.0150(19) 0.0253(18) -0.0031(15) 0.0006(15) 0.0049(15)
C13 0.028(2) 0.0085(16) 0.0243(18) 0.0020(14) 0.0021(15) 0.0006(15)
C14 0.0220(19) 0.0162(18) 0.0290(19) -0.0024(15) -0.0004(15) -0.0032(15)
C15 0.033(2) 0.0179(19) 0.0233(18) -0.0004(15) 0.0009(16) 0.0054(17)
C16 0.027(2) 0.0195(19) 0.0251(19) 0.0050(15) 0.0028(15) 0.0034(16)
C17 0.032(2) 0.027(2) 0.029(2) 0.0019(17) 0.0073(17) 0.0048(18)
C18 0.044(3) 0.030(3) 0.045(3) -0.007(2) 0.014(2) 0.008(2)
C19 0.031(2) 0.040(3) 0.039(2) 0.001(2) 0.0150(18) 0.000(2)
C20 0.045(3) 0.051(3) 0.024(2) -0.003(2) 0.0130(19) -0.000(2)
C21 0.0247(19) 0.0192(18) 0.029(2) 0.0019(16) 0.0005(15) -0.0019(15)
C22 0.026(2) 0.0190(18) 0.0242(18) -0.0016(15) 0.0004(15) 0.0014(15)
C23 0.0285(19) 0.021(2) 0.0187(16) 0.0047(15) 0.0006(14) -0.0007(16)
N2 0.0242(16) 0.0105(15) 0.0240(15) 0.0010(12) 0.0033(12) 0.0019(12)
C25 0.0191(18) 0.0148(17) 0.0205(17) 0.0024(15) 0.0006(14) -0.0000(15)
C26 0.0220(18) 0.0150(19) 0.0240(18) 0.0033(15) -0.0021(15) -0.0006(15)
C27 0.0231(18) 0.013(2) 0.0248(18) 0.0002(15) -0.0000(15) 0.0033(15)
C28 0.0244(19) 0.018(2) 0.0256(19) 0.0014(16) -0.0010(15) 0.0044(16)
C29 0.0232(19) 0.0194(19) 0.0220(18) 0.0051(15) -0.0032(14) 0.0004(15)
C30 0.025(2) 0.0189(19) 0.0253(18) -0.0013(16) 0.0007(15) -0.0040(16)
C31 0.031(2) 0.0183(18) 0.028(2) -0.0030(16) -0.0024(17) 0.0032(17)
C32 0.028(2) 0.0178(19) 0.0191(17) 0.0047(15) -0.0025(15) -0.0071(16)
S1 0.0377(5) 0.0162(4) 0.0243(4) 0.0045(4) -0.0014(4) -0.0068(4)
C34 0.025(2) 0.0203(19) 0.030(2) -0.0014(17) -0.0017(15) 0.0012(16)
O3 0.0489(19) 0.0345(17) 0.0286(15) 0.0085(14) -0.0065(13) -0.0099(15)
C36 0.029(2) 0.027(2) 0.044(2) 0.0047(18) -0.0062(18) -0.0057(18)
C37 0.026(2) 0.026(2) 0.0253(19) 0.0039(16) 0.0019(16) -0.0017(17)
C38 0.030(2) 0.0155(19) 0.028(2) 0.0005(16) 0.0022(16) 0.0061(16)
C39 0.0224(18) 0.0120(18) 0.0247(19) 0.0031(14) -0.0010(15) 0.0018(15)
N4 0.0249(16) 0.0115(15) 0.0229(15) 0.0002(12) 0.0039(13) -0.0008(13)
C41 0.0237(19) 0.0158(19) 0.0215(18) -0.0036(15) 0.0005(14) 0.0009(16)
C42 0.028(2) 0.0103(18) 0.028(2) -0.0055(15) 0.0036(16) 0.0012(15)
C43 0.024(2) 0.0118(18) 0.029(2) 0.0016(16) 0.0014(15) 0.0015(15)
C44 0.026(2) 0.0157(19) 0.0220(18) -0.0004(15) 0.0031(15) -0.0020(15)
C45 0.030(2) 0.0100(16) 0.0223(18) -0.0004(14) 0.0042(15) -0.0044(15)
C46 0.028(2) 0.0187(18) 0.0212(17) 0.0004(15) 0.0027(14) 0.0006(15)
C47 0.0232(19) 0.0213(19) 0.030(2) -0.0023(16) 0.0043(15) 0.0029(16)
C48 0.028(2) 0.0149(18) 0.0271(19) -0.0065(15) 0.0077(15) -0.0054(15)
C49 0.035(2) 0.0204(19) 0.0204(18) 0.0012(15) 0.0034(16) -0.0019(17)
C50 0.026(2) 0.0147(18) 0.029(2) -0.0005(15) 0.0014(15) 0.0015(15)
C51 0.032(2) 0.038(3) 0.025(2) -0.0035(18) 0.0059(17) -0.001(2)
C52 0.046(3) 0.045(3) 0.034(2) 0.002(2) 0.011(2) -0.006(2)
C53 0.050(3) 0.051(3) 0.035(3) -0.019(2) 0.011(2) -0.007(3)
C54 0.056(3) 0.050(3) 0.035(2) -0.005(2) 0.017(2) 0.018(3)
C55 0.0198(17) 0.018(2) 0.0216(16) -0.0031(14) -0.0007(13) -0.0061(14)
N1 0.0260(16) 0.0131(16) 0.0201(14) -0.0005(12) 0.0009(12) -0.0024(13)
C57 0.0224(19) 0.0165(18) 0.0191(17) 0.0000(15) 0.0003(14) -0.0013(16)
C58 0.0264(19) 0.0117(17) 0.0214(17) 0.0015(14) 0.0002(15) 0.0012(15)
C59 0.025(2) 0.017(2) 0.0243(19) -0.0009(16) -0.0020(15) -0.0001(16)
C60 0.028(2) 0.018(2) 0.0259(19) -0.0007(16) -0.0017(16) 0.0014(16)
C61 0.029(2) 0.0115(18) 0.033(2) -0.0009(16) -0.0032(16) -0.0066(16)
C62 0.037(2) 0.018(2) 0.050(3) -0.0033(19) 0.016(2) 0.0041(18)
C63 0.042(3) 0.029(2) 0.048(3) 0.007(2) 0.021(2) 0.003(2)
C64 0.030(2) 0.0176(19) 0.037(2) 0.0055(18) 0.0033(18) -0.0018(17)
S2 0.0297(5) 0.0174(5) 0.0493(6) 0.0093(4) 0.0039(4) -0.0040(4)
C66 0.032(2) 0.029(2) 0.0216(18) 0.0026(17) -0.0014(16) -0.0063(18)
O2 0.0363(18) 0.051(2) 0.0419(18) 0.0160(16) -0.0008(14) -0.0085(17)
C68 0.049(3) 0.032(2) 0.036(2) 0.011(2) -0.009(2) -0.004(2)
C69 0.038(2) 0.0152(18) 0.038(2) -0.0018(18) 0.0000(19) 0.0009(18)
C70 0.036(2) 0.025(2) 0.028(2) 0.0020(18) 0.0039(17) -0.0013(19)
C71 0.029(2) 0.0171(18) 0.0240(18) 0.0045(15) 0.0049(16) -0.0026(15)
C72 0.029(2) 0.023(2) 0.0217(18) -0.0003(15) 0.0043(16) -0.0033(16)
C73 0.0255(19) 0.0159(18) 0.0238(18) 0.0063(15) 0.0001(15) 0.0004(15)
C74 0.031(2) 0.0216(19) 0.0183(18) 0.0011(15) 0.0047(15) -0.0012(16)
loop_
_atom_type_symbol
_atom_type_scat_dispersion_real
_atom_type_scat_dispersion_imag
_atom_type_scat_Cromer_Mann_a1
_atom_type_scat_Cromer_Mann_b1
_atom_type_scat_Cromer_Mann_a2
_atom_type_scat_Cromer_Mann_b2
_atom_type_scat_Cromer_Mann_a3
_atom_type_scat_Cromer_Mann_b3
_atom_type_scat_Cromer_Mann_a4
_atom_type_scat_Cromer_Mann_b4
_atom_type_scat_Cromer_Mann_c
_atom_type_scat_source
C 0.0181 0.0091 2.3100 20.8439 1.0200 10.2075 1.5886 0.5687 0.8650 51.6512
0.2156 'International Tables Vol C 4.2.6.8 and 6.1.1.4'
H 0.0000 0.0000 0.4930 10.5109 0.3229 26.1257 0.1402 3.1424 0.0408 57.7998
0.0030 'International Tables Vol C 4.2.6.8 and 6.1.1.4'
N 0.0311 0.0180 12.2126 0.0057 3.1322 9.8933 2.0125 28.9975 1.1663 0.5826
-11.5290 'International Tables Vol C 4.2.6.8 and 6.1.1.4'
O 0.0492 0.0322 3.0485 13.2771 2.2868 5.7011 1.5463 0.3239 0.8670 32.9089
0.2508 'International Tables Vol C 4.2.6.8 and 6.1.1.4'
S 0.3331 0.5567 6.9053 1.4679 5.2034 22.2151 1.4379 0.2536 1.5863 56.1720
0.8669 'International Tables Vol C 4.2.6.8 and 6.1.1.4'
Zn -1.5491 0.6778 14.0743 3.2655 7.0318 0.2333 5.1652 10.3163 2.4100 58.7097
1.3041 'International Tables Vol C 4.2.6.8 and 6.1.1.4'
loop_
_geom_angle_atom_site_label_1
_geom_angle_atom_site_label_2
_geom_angle_atom_site_label_3
_geom_angle
_geom_angle_publ_flag
O1 Zn1 N3 94.97(13) yes
O1 Zn1 N2 96.09(12) yes
N3 Zn1 N2 88.67(12) yes
O1 Zn1 N4 95.69(13) yes
N3 Zn1 N4 169.33(13) yes
N2 Zn1 N4 89.74(13) yes
O1 Zn1 N1 96.53(12) yes
N3 Zn1 N1 90.40(12) yes
N2 Zn1 N1 167.38(13) yes
N4 Zn1 N1 88.85(13) yes
Zn1 O1 C3 123.2(3) yes
Zn1 O1 C6 123.1(3) yes
C3 O1 C6 109.3(4) yes
O1 C3 C4 108.5(5) yes
O1 C3 H31 109.7 no
C4 C3 H31 108.3 no
O1 C3 H32 110.5 no
C4 C3 H32 109.5 no
H31 C3 H32 110.2 no
C3 C4 C5 103.4(5) yes
C3 C4 H41 111.4 no
C5 C4 H41 108.3 no
C3 C4 H42 112.1 no
C5 C4 H42 112.3 no
H41 C4 H42 109.2 no
C4 C5 C6 102.0(4) yes
C4 C5 H52 112.9 no
C6 C5 H52 112.9 no
C4 C5 H51 109.6 no
C6 C5 H51 109.8 no
H52 C5 H51 109.5 no
C5 C6 O1 105.7(4) yes
C5 C6 H61 110.4 no
O1 C6 H61 110.0 no
C5 C6 H62 111.0 no
O1 C6 H62 107.9 no
H61 C6 H62 111.6 no
Zn1 N3 C8 126.4(3) yes
Zn1 N3 C11 126.9(3) yes
C8 N3 C11 105.7(3) yes
N3 C8 C9 110.6(4) yes
N3 C8 C58 125.0(4) yes
C9 C8 C58 124.3(4) yes
C8 C9 C10 107.1(4) yes
C8 C9 H91 126.8 no
C10 C9 H91 126.1 no
C9 C10 C11 107.4(4) yes
C9 C10 H101 125.3 no
C11 C10 H101 127.3 no
C10 C11 N3 109.1(4) yes
C10 C11 C12 126.1(4) yes
N3 C11 C12 124.8(4) yes
C11 C12 C13 119.6(3) yes
C11 C12 C23 124.7(4) yes
C13 C12 C23 115.6(4) yes
C12 C13 C14 123.1(4) yes
C12 C13 C22 118.9(3) yes
C14 C13 C22 118.0(4) yes
C13 C14 C15 120.1(4) yes
C13 C14 H141 120.4 no
C15 C14 H141 119.5 no
C14 C15 C16 121.6(4) yes
C14 C15 H151 118.9 no
C16 C15 H151 119.5 no
C15 C16 C17 120.9(4) yes
C15 C16 C21 117.4(4) yes
C17 C16 C21 121.7(4) yes
C16 C17 C18 109.2(4) yes
C16 C17 C19 112.4(4) yes
C18 C17 C19 108.1(4) yes
C16 C17 C20 109.6(4) yes
C18 C17 C20 109.7(4) yes
C19 C17 C20 107.8(4) yes
C17 C18 H181 108.2 no
C17 C18 H182 109.6 no
H181 C18 H182 109.5 no
C17 C18 H183 108.1 no
H181 C18 H183 110.7 no
H182 C18 H183 110.6 no
C17 C19 H192 108.3 no
C17 C19 H191 111.0 no
H192 C19 H191 110.0 no
C17 C19 H193 110.9 no
H192 C19 H193 107.0 no
H191 C19 H193 109.5 no
C17 C20 H202 106.7 no
C17 C20 H201 111.2 no
H202 C20 H201 110.1 no
C17 C20 H203 108.7 no
H202 C20 H203 109.6 no
H201 C20 H203 110.4 no
C16 C21 C22 121.4(4) yes
C16 C21 H211 119.8 no
C22 C21 H211 118.9 no
C21 C22 C13 121.5(4) yes
C21 C22 H221 119.5 no
C13 C22 H221 119.0 no
C12 C23 N2 124.7(4) yes
C12 C23 C74 123.7(4) yes
N2 C23 C74 111.4(4) yes
C23 N2 Zn1 128.2(3) yes
C23 N2 C25 105.4(3) yes
Zn1 N2 C25 126.4(3) yes
N2 C25 C26 125.0(4) yes
N2 C25 C73 109.5(3) yes
C26 C25 C73 125.3(4) yes
C25 C26 C27 116.2(4) yes
C25 C26 C39 125.9(4) yes
C27 C26 C39 117.9(4) yes
C26 C27 C28 176.6(4) yes
C27 C28 C29 177.6(4) yes
C28 C29 C30 122.1(4) yes
C28 C29 C38 119.8(4) yes
C30 C29 C38 118.1(4) yes
C29 C30 C31 120.6(4) yes
C29 C30 H301 120.5 no
C31 C30 H301 118.9 no
C30 C31 C32 120.3(4) yes
C30 C31 H311 119.9 no
C32 C31 H311 119.8 no
C31 C32 S1 121.1(3) yes
C31 C32 C37 119.7(4) yes
S1 C32 C37 119.2(3) yes
C32 S1 C34 100.18(18) yes
S1 C34 O3 123.1(3) yes
S1 C34 C36 111.7(3) yes
O3 C34 C36 125.2(4) yes
C34 C36 H362 111.5 no
C34 C36 H361 110.6 no
H362 C36 H361 107.6 no
C34 C36 H363 109.6 no
H362 C36 H363 109.4 no
H361 C36 H363 108.1 no
C32 C37 C38 120.1(4) yes
C32 C37 H371 118.9 no
C38 C37 H371 121.0 no
C29 C38 C37 121.1(4) yes
C29 C38 H381 118.0 no
C37 C38 H381 120.8 no
C26 C39 N4 125.0(4) yes
C26 C39 C43 124.6(4) yes
N4 C39 C43 110.4(3) yes
C39 N4 Zn1 126.4(3) yes
C39 N4 C41 106.1(3) yes
Zn1 N4 C41 126.3(3) yes
N4 C41 C42 109.2(4) yes
N4 C41 C44 125.3(4) yes
C42 C41 C44 125.5(4) yes
C41 C42 C43 107.0(4) yes
C41 C42 H421 127.4 no
C43 C42 H421 125.6 no
C39 C43 C42 107.3(3) yes
C39 C43 H431 125.9 no
C42 C43 H431 126.8 no
C41 C44 C45 119.2(3) yes
C41 C44 C55 124.8(4) yes
C45 C44 C55 116.0(3) yes
C44 C45 C46 121.8(3) yes
C44 C45 C50 120.6(4) yes
C46 C45 C50 117.6(4) yes
C45 C46 C47 121.4(4) yes
C45 C46 H461 119.1 no
C47 C46 H461 119.5 no
C46 C47 C48 120.8(4) yes
C46 C47 H471 118.4 no
C48 C47 H471 120.7 no
C47 C48 C49 117.5(4) yes
C47 C48 C51 122.3(4) yes
C49 C48 C51 120.2(4) yes
C48 C49 C50 121.8(4) yes
C48 C49 H491 118.5 no
C50 C49 H491 119.6 no
C45 C50 C49 120.8(4) yes
C45 C50 H501 119.5 no
C49 C50 H501 119.7 no
C48 C51 C52 107.9(4) yes
C48 C51 C53 109.8(4) yes
C52 C51 C53 109.0(4) yes
C48 C51 C54 112.6(4) yes
C52 C51 C54 109.6(4) yes
C53 C51 C54 107.9(4) yes
C51 C52 H522 108.5 no
C51 C52 H521 108.2 no
H522 C52 H521 110.0 no
C51 C52 H523 108.8 no
H522 C52 H523 110.7 no
H521 C52 H523 110.6 no
C51 C53 H532 108.5 no
C51 C53 H531 110.5 no
H532 C53 H531 109.2 no
C51 C53 H533 109.5 no
H532 C53 H533 109.1 no
H531 C53 H533 110.1 no
C51 C54 H541 108.5 no
C51 C54 H543 111.1 no
H541 C54 H543 110.7 no
C51 C54 H542 108.0 no
H541 C54 H542 108.7 no
H543 C54 H542 109.7 no
C44 C55 N1 124.1(4) yes
C44 C55 C72 124.2(4) yes
N1 C55 C72 111.6(3) yes
C55 N1 Zn1 128.5(3) yes
C55 N1 C57 105.6(3) yes
Zn1 N1 C57 125.9(3) yes
N1 C57 C58 126.2(4) yes
N1 C57 C71 109.9(3) yes
C58 C57 C71 123.9(4) yes
C57 C58 C8 124.8(4) yes
C57 C58 C59 117.1(4) yes
C8 C58 C59 118.1(4) yes
C58 C59 C60 175.9(4) yes
C59 C60 C61 177.8(4) yes
C60 C61 C62 119.0(4) yes
C60 C61 C70 121.9(4) yes
C62 C61 C70 119.1(4) yes
C61 C62 C63 120.0(4) yes
C61 C62 H621 119.1 no
C63 C62 H621 120.9 no
C62 C63 C64 120.3(4) yes
C62 C63 H631 121.4 no
C64 C63 H631 118.3 no
C63 C64 S2 118.8(3) yes
C63 C64 C69 120.2(4) yes
S2 C64 C69 121.0(4) yes
C64 S2 C66 101.2(2) yes
S2 C66 O2 123.0(4) yes
S2 C66 C68 111.8(3) yes
O2 C66 C68 125.2(4) yes
C66 C68 H681 108.8 no
C66 C68 H682 109.9 no
H681 C68 H682 112.1 no
C66 C68 H683 104.7 no
H681 C68 H683 110.6 no
H682 C68 H683 110.5 no
C64 C69 C70 119.9(4) yes
C64 C69 H691 120.4 no
C70 C69 H691 119.7 no
C69 C70 C61 120.5(4) yes
C69 C70 H701 119.3 no
C61 C70 H701 120.2 no
C57 C71 C72 106.7(3) yes
C57 C71 H711 126.1 no
C72 C71 H711 127.2 no
C55 C72 C71 106.1(4) yes
C55 C72 H721 126.6 no
C71 C72 H721 127.2 no
C25 C73 C74 107.5(3) yes
C25 C73 H731 125.8 no
C74 C73 H731 126.7 no
C23 C74 C73 106.2(4) yes
C23 C74 H741 126.3 no
C73 C74 H741 127.4 no
loop_
_geom_bond_atom_site_label_1
_geom_bond_atom_site_label_2
_geom_bond_distance
_geom_bond_publ_flag
Zn1 O1 2.180(3) yes
Zn1 N3 2.057(3) yes
Zn1 N2 2.053(3) yes
Zn1 N4 2.062(3) yes
Zn1 N1 2.042(3) yes
O1 C3 1.387(7) yes
O1 C6 1.403(6) yes
C3 C4 1.511(8) yes
C3 H31 0.972 no
C3 H32 0.970 no
C4 C5 1.511(7) yes
C4 H41 0.970 no
C4 H42 0.985 no
C5 C6 1.509(7) yes
C5 H52 0.977 no
C5 H51 0.962 no
C6 H61 0.989 no
C6 H62 0.986 no
N3 C8 1.365(5) yes
N3 C11 1.384(5) yes
C8 C9 1.438(6) yes
C8 C58 1.420(6) yes
C9 C10 1.334(6) yes
C9 H91 0.924 no
C10 C11 1.452(6) yes
C10 H101 0.928 no
C11 C12 1.402(6) yes
C12 C13 1.490(6) yes
C12 C23 1.443(6) yes
C13 C14 1.413(5) yes
C13 C22 1.375(6) yes
C14 C15 1.393(6) yes
C14 H141 0.946 no
C15 C16 1.395(6) yes
C15 H151 0.949 no
C16 C17 1.530(6) yes
C16 C21 1.391(6) yes
C17 C18 1.533(6) yes
C17 C19 1.536(6) yes
C17 C20 1.542(6) yes
C18 H181 0.951 no
C18 H182 0.980 no
C18 H183 0.953 no
C19 H192 0.957 no
C19 H191 0.952 no
C19 H193 0.971 no
C20 H202 0.959 no
C20 H201 0.967 no
C20 H203 0.968 no
C21 C22 1.391(6) yes
C21 H211 0.945 no
C22 H221 0.931 no
C23 N2 1.349(5) yes
C23 C74 1.437(6) yes
N2 C25 1.387(5) yes
C25 C26 1.408(6) yes
C25 C73 1.436(5) yes
C26 C27 1.437(6) yes
C26 C39 1.414(6) yes
C27 C28 1.199(6) yes
C28 C29 1.424(6) yes
C29 C30 1.391(6) yes
C29 C38 1.408(6) yes
C30 C31 1.388(6) yes
C30 H301 0.926 no
C31 C32 1.383(6) yes
C31 H311 0.929 no
C32 S1 1.781(4) yes
C32 C37 1.388(6) yes
S1 C34 1.808(4) yes
C34 O3 1.193(5) yes
C34 C36 1.505(6) yes
C36 H362 0.972 no
C36 H361 0.947 no
C36 H363 0.953 no
C37 C38 1.371(6) yes
C37 H371 0.936 no
C38 H381 0.952 no
C39 N4 1.364(5) yes
C39 C43 1.432(6) yes
N4 C41 1.380(5) yes
C41 C42 1.450(5) yes
C41 C44 1.393(6) yes
C42 C43 1.343(6) yes
C42 H421 0.934 no
C43 H431 0.922 no
C44 C45 1.493(6) yes
C44 C55 1.447(6) yes
C45 C46 1.393(6) yes
C45 C50 1.394(5) yes
C46 C47 1.398(6) yes
C46 H461 0.939 no
C47 C48 1.390(6) yes
C47 H471 0.946 no
C48 C49 1.394(6) yes
C48 C51 1.539(5) yes
C49 C50 1.387(6) yes
C49 H491 0.937 no
C50 H501 0.915 no
C51 C52 1.542(7) yes
C51 C53 1.527(7) yes
C51 C54 1.535(7) yes
C52 H522 0.961 no
C52 H521 0.971 no
C52 H523 0.965 no
C53 H532 0.961 no
C53 H531 0.982 no
C53 H533 0.971 no
C54 H541 0.962 no
C54 H543 0.976 no
C54 H542 0.971 no
C55 N1 1.352(5) yes
C55 C72 1.434(6) yes
N1 C57 1.371(5) yes
C57 C58 1.422(6) yes
C57 C71 1.447(6) yes
C58 C59 1.423(6) yes
C59 C60 1.206(6) yes
C60 C61 1.440(6) yes
C61 C62 1.405(7) yes
C61 C70 1.377(6) yes
C62 C63 1.369(7) yes
C62 H621 0.948 no
C63 C64 1.385(7) yes
C63 H631 0.939 no
C64 S2 1.781(4) yes
C64 C69 1.372(7) yes
S2 C66 1.796(4) yes
C66 O2 1.192(6) yes
C66 C68 1.500(6) yes
C68 H681 0.954 no
C68 H682 0.955 no
C68 H683 0.961 no
C69 C70 1.389(6) yes
C69 H691 0.927 no
C70 H701 0.923 no
C71 C72 1.353(6) yes
C71 H711 0.953 no
C72 H721 0.945 no
C73 C74 1.344(6) yes
C73 H731 0.940 no
C74 H741 0.934 no
loop_
_geom_hbond_atom_site_label_D
_geom_hbond_atom_site_label_H
_geom_hbond_atom_site_label_A
_geom_hbond_site_symmetry_A
_geom_hbond_angle_DHA
_geom_hbond_distance_DH
_geom_hbond_distance_HA
_geom_hbond_distance_DA
_geom_hbond_publ_flag
C19 H192 O2 2_647 156 0.96 2.42 3.324(6) yes
