#------------------------------------------------------------------------------
#$Date: 2019-08-14 03:26:17 +0300 (Wed, 14 Aug 2019) $
#$Revision: 217514 $
#$URL: file:///home/coder/svn-repositories/cod/cif/1/55/22/1552204.cif $
#------------------------------------------------------------------------------
#
# This file is available in the Crystallography Open Database (COD),
# http://www.crystallography.net/
#
# All data on this site have been placed in the public domain by the
# contributors.
#
data_1552204
loop_
_publ_author_name
'El Abbassi, Maria'
'Zwick, Patrick'
'Rates, Alfredo'
'Stefani, Davide'
'Prescimone, Alessandro'
'Mayor, Marcel'
'van der Zant, Herre S. J.'
'Duli\'c, Diana'
_publ_section_title
;
 Unravelling the conductance path through single-porphyrin junctions
;
_journal_name_full               'Chemical Science'
_journal_paper_doi               10.1039/C9SC02497B
_journal_year                    2019
_chemical_compound_source        'Patrick Zwick'
_chemical_formula_moiety         'C58 H68 N4 O2 Si2 Zn1'
_chemical_formula_sum            'C58 H68 N4 O2 Si2 Zn'
_chemical_formula_weight         974.76
_chemical_melting_point          ?
_chemical_name_systematic
'[5,15-bis(4-(tert-butyl)phenyl)-10,20-bis((trimethylsilyl)ethynyl)-porphyrinato]zinc(II)'
_space_group_IT_number           2
_space_group_name_Hall           '-P 1'
_space_group_name_H-M_alt        'P -1'
_symmetry_cell_setting           triclinic
_symmetry_space_group_name_Hall  '-P 1'
_symmetry_space_group_name_H-M   'P -1'
_atom_sites_solution_hydrogens   difmap
_atom_sites_solution_primary     other
_audit_creation_date             2018-05-29
_audit_creation_method           CRYSTALS_ver_14.61_build_6949
_audit_update_record
;
2019-04-16 deposited with the CCDC.    2019-08-13 downloaded from the CCDC.
;
_cell_angle_alpha                106.979(3)
_cell_angle_beta                 98.215(3)
_cell_angle_gamma                92.569(3)
_cell_formula_units_Z            1
_cell_length_a                   9.3697(7)
_cell_length_b                   10.2821(8)
_cell_length_c                   14.2974(11)
_cell_measurement_reflns_used    7474
_cell_measurement_temperature    123
_cell_measurement_theta_max      70
_cell_measurement_theta_min      3
_cell_volume                     1298.40(17)
_computing_cell_refinement       'Apex2 (Bruker AXS, 2006)'
_computing_data_collection       'Apex2 (Bruker AXS, 2006)'
_computing_data_reduction        'Apex2 (Bruker AXS, 2006)'
_computing_molecular_graphics    'CAMERON (Watkin et al., 1996)'
_computing_publication_material  'CRYSTALS (Betteridge et al., 2003)'
_computing_structure_refinement  'CRYSTALS (Betteridge et al., 2003)'
_computing_structure_solution    'Superflip (Palatinus & Chapuis, 2007)'
_diffrn_ambient_temperature      123
_diffrn_measured_fraction_theta_full 0.972
_diffrn_measured_fraction_theta_max 0.949
_diffrn_measurement_device       Area
_diffrn_measurement_device_type  'Bruker Kappa Apex2'
_diffrn_measurement_method       '\f & \w scans'
_diffrn_radiation_monochromator  graphite
_diffrn_radiation_type           'Cu K\a'
_diffrn_radiation_wavelength     1.54180
_diffrn_reflns_av_R_equivalents  0.022
_diffrn_reflns_av_unetI/netI     0.037
_diffrn_reflns_limit_h_max       11
_diffrn_reflns_limit_h_min       -11
_diffrn_reflns_limit_k_max       12
_diffrn_reflns_limit_k_min       -11
_diffrn_reflns_limit_l_max       17
_diffrn_reflns_limit_l_min       -17
_diffrn_reflns_number            10943
_diffrn_reflns_theta_full        68.000
_diffrn_reflns_theta_max         70.107
_diffrn_reflns_theta_min         3.276
_diffrn_standards_number         0
_exptl_absorpt_coefficient_mu    1.447
_exptl_absorpt_correction_T_max  0.94
_exptl_absorpt_correction_T_min  0.88
_exptl_absorpt_correction_type   multi-scan
_exptl_absorpt_process_details   'SADABS (Siemens, 1996)'
_exptl_crystal_colour            green
_exptl_crystal_density_diffrn    1.247
_exptl_crystal_density_meas      ?
_exptl_crystal_density_method    'not measured'
_exptl_crystal_description       plate
_exptl_crystal_F_000             518
_exptl_crystal_recrystallization_method
; 
THF / MeOH
;
_exptl_crystal_size_max          0.130
_exptl_crystal_size_mid          0.110
_exptl_crystal_size_min          0.040
_refine_diff_density_max         0.33
_refine_diff_density_min         -0.28
_refine_ls_extinction_method     None
_refine_ls_goodness_of_fit_ref   0.9668
_refine_ls_hydrogen_treatment    constr
_refine_ls_matrix_type           full
_refine_ls_number_parameters     304
_refine_ls_number_reflns         4658
_refine_ls_number_restraints     0
_refine_ls_R_factor_all          0.0316
_refine_ls_R_factor_gt           0.0292
_refine_ls_shift/su_max          0.0009646
_refine_ls_shift/su_mean         0.0000406
_refine_ls_structure_factor_coef Fsqd
_refine_ls_weighting_details
;
 Method= Modified Sheldrick 
 w=1/[\s^2^(F^2^) + ( 0.02P)^2^ + 1.07P] 
 ,where P=(max(Fo^2^,0) + 2Fc^2^)/3 
;
_refine_ls_weighting_scheme      calc
_refine_ls_wR_factor_all         0.0710
_refine_ls_wR_factor_gt          0.0692
_refine_ls_wR_factor_ref         0.0710
_reflns_limit_h_max              11
_reflns_limit_h_min              -11
_reflns_limit_k_max              11
_reflns_limit_k_min              -12
_reflns_limit_l_max              17
_reflns_limit_l_min              0
_reflns_number_gt                4336
_reflns_number_total             4680
_reflns_threshold_expression     I>2.0\s(I)
_oxford_diffrn_Wilson_B_factor   0.00
_oxford_diffrn_Wilson_scale      0.00
_oxford_refine_ls_r_factor_ref   0.0316
_oxford_refine_ls_scale          0.15274(5)
_oxford_reflns_number_all        4658
_oxford_structure_analysis_title 'ZWP406_123K_0m in P-1'
_iucr_refine_instructions_details
;
#
# Punched on 29/05/18 at 12:35:24
#
#LIST     12                                                                    
BLOCK SCALE X'S  U'S 
RIDE C   (   3,X'S) H   (  31,X'S) H   (  32,X'S) 
RIDE C   (   4,X'S) H   (  41,X'S) H   (  42,X'S) 
RIDE C   (   5,X'S) H   (  51,X'S) H   (  52,X'S) 
RIDE C   (   6,X'S) H   (  61,X'S) H   (  62,X'S) 
RIDE C   (  11,X'S) H   ( 111,X'S) 
RIDE C   (  12,X'S) H   ( 121,X'S) 
RIDE C   (  14,X'S) H   ( 141,X'S) 
RIDE C   (  15,X'S) H   ( 151,X'S) 
RIDE C   (  17,X'S) H   ( 171,X'S) H   ( 172,X'S) H   ( 173,X'S) 
RIDE C   (  18,X'S) H   ( 181,X'S) H   ( 182,X'S) H   ( 183,X'S) 
RIDE C   (  19,X'S) H   ( 193,X'S) H   ( 192,X'S) H   ( 191,X'S) 
RIDE C   (  25,X'S) H   ( 251,X'S) 
RIDE C   (  26,X'S) H   ( 261,X'S) 
RIDE C   (  30,X'S) H   ( 301,X'S) H   ( 302,X'S) H   ( 303,X'S) 
RIDE C   (  31,X'S) H   ( 313,X'S) H   ( 312,X'S) H   ( 311,X'S) 
RIDE C   (  32,X'S) H   ( 321,X'S) H   ( 322,X'S) H   ( 323,X'S) 
RIDE C   (  33,X'S) H   ( 331,X'S) 
RIDE C   (  34,X'S) H   ( 341,X'S) 
END                                                                             
#
# Punched on 29/05/18 at 12:35:24
#
#LIST     16                                                                    
NO 
REM   HREST   START (DO NOT REMOVE THIS LINE) 
REM   HREST   END (DO NOT REMOVE THIS LINE) 
END                                                                             
;
_cod_data_source_file            c9sc02497b2.cif
_cod_data_source_block           ZWP406_123K
_cod_depositor_comments
;
The following automatic conversions were performed:

'_chemical_melting_point' value 'not measured' was changed to '?' -
the value is undefined or not given.

'_exptl_crystal_density_meas' value 'not measured' was changed to '?'
- the value is perceived as not measured.

Automatic conversion script
Id: cif_fix_values 4973 2017-02-22 13:04:09Z antanas 
;
_cod_original_cell_volume        1298.39(17)
_cod_original_sg_symbol_H-M      'P -1 '
_cod_original_formula_sum        'C58 H68 N4 O2 Si2 Zn1'
_cod_database_code               1552204
_oxford_refine_reflns_threshold_expression_ref I>-3.0\s(I)
_iucr_refine_reflections_details
; 
# An asterisk in column 34 indicates a format overflow 
# Data was input as F-squared 
  -1   0   0   32.10    1.10 
   1   0   0   31.76    1.11 
  -2   0   0   22.34    0.71 
  -2   0   0   22.14    0.82 
   2   0   0   21.64    0.82 
   2   0   0   21.12    0.72 
  -3   0   0    9.36    0.39 
  -3   0   0    9.12    0.45 
  -3   0   0    9.60    0.43 
   3   0   0    9.78    0.40 
  -4   0   0    1.11    0.16 
   4   0   0    0.84    0.14 
  -5   0   0   74.98    2.42 
   5   0   0   75.85    2.43 
  -6   0   0    0.30    0.07 
  -6   0   0    0.21    0.12 
  -7   0   0   40.18    1.10 
  -7   0   0   37.73    1.14 
   7   0   0   39.78    1.10 
  -8   0   0    9.43    0.37 
  -8   0   0    9.03    0.34 
  -8   0   0    9.52    0.34 
   8   0   0    9.51    0.35 
   8   0   0    8.90    0.30 
   8   0   0    9.59    0.35 
  -9   0   0    9.36    0.34 
  -9   0   0   10.04    0.35 
  -9   0   0    9.08    0.37 
   9   0   0    9.78    0.35 
 -10   0   0   18.97    0.57 
 -10   0   0   19.20    0.56 
  10   0   0   19.08    0.57 
 -11   0   0   -0.01    0.04 
  11   0   0    0.03    0.04 
  11  -1   0    3.40    0.15 
 -11   1   0    3.21    0.14 
  10  -1   0    0.94    0.11 
 -10   1   0    1.01    0.10 
 -10   1   0    1.03    0.10 
   9  -1   0    0.69    0.08 
   9  -1   0    0.75    0.11 
  -9   1   0    0.68    0.11 
  -9   1   0    0.64    0.10 
  -9   1   0    0.65    0.09 
   8  -1   0    5.86    0.22 
  -8   1   0    5.73    0.25 
  -8   1   0    5.13    0.24 
  -8   1   0    5.85    0.27 
   7  -1   0    0.44    0.08 
  -7   1   0    0.44    0.08 
  -7   1   0    0.32    0.15 
  -7   1   0    0.51    0.08 
  -6   1   0   34.30    0.99 
  -6   1   0   35.06    1.30 
  -6   1   0   33.98    1.29 
  -5   1   0    6.51    0.24 
  -5   1   0    6.32    0.38 
   4  -1   0   51.08    1.63 
  -4   1   0   51.01    1.63 
  -4   1   0   49.21    1.82 
   3  -1   0   49.46    1.55 
  -3   1   0   49.71    1.55 
  -3   1   0   49.09    1.75 
  -3   1   0   49.19    1.77 
   2  -1   0   10.90    0.46 
  -2   1   0   10.84    0.40 
  -2   1   0   11.31    0.44 
  -2   1   0   11.09    0.45 
   1  -1   0    4.78    0.21 
   1  -1   0    4.97    0.21 
  -1   1   0    4.76    0.20 
  -1   1   0    5.11    0.20 
  -1   1   0    4.81    0.21 
   0  -1   0   97.05    3.24 
   0  -1   0   95.95    3.23 
   0   1   0   96.95    3.23 
   0   1   0   93.59    3.23 
   0   1   0   99.60    3.04 
  -1  -1   0   62.27    2.10 
  -1  -1   0   58.90    2.08 
   1   1   0   60.88    2.09 
   1   1   0   58.73    2.07 
   1   1   0   65.03    1.97 
  -2  -1   0    1.24    0.11 
  -2  -1   0    1.03    0.12 
  -2  -1   0    1.05    0.11 
   2   1   0    0.89    0.11 
   2   1   0    1.18    0.12 
   2   1   0    0.96    0.10 
  -3  -1   0    3.13    0.21 
   3   1   0    3.21    0.22 
   3   1   0    3.31    0.23 
   3   1   0    2.78    0.20 
  -4  -1   0    6.19    0.33 
   4   1   0    6.07    0.35 
  -5  -1   0    0.92    0.17 
   5   1   0    0.88    0.17 
  -7  -1   0    7.81    0.31 
  -7  -1   0    7.47    0.28 
   7   1   0    7.37    0.30 
  -8  -1   0    0.15    0.08 
  -8  -1   0    0.22    0.07 
  -8  -1   0    0.20    0.07 
   8   1   0    0.20    0.08 
   8   1   0    0.22    0.08 
  -9  -1   0   10.76    0.37 
  -9  -1   0   10.12    0.36 
   9   1   0   11.02    0.38 
   9   1   0   10.06    0.37 
 -10  -1   0    0.43    0.08 
  10   1   0    0.47    0.08 
 -11  -1   0    2.42    0.11 
  11   1   0    2.32    0.11 
  11  -2   0    1.02    0.09 
 -11   2   0    0.86    0.08 
  10  -2   0    3.77    0.17 
 -10   2   0    3.88    0.18 
 -10   2   0    3.89    0.19 
   9  -2   0    9.97    0.33 
  -9   2   0   10.56    0.40 
  -9   2   0   10.54    0.37 
  -9   2   0   11.03    0.37 
   8  -2   0    3.32    0.16 
  -8   2   0    3.23    0.18 
  -8   2   0    3.24    0.19 
  -8   2   0    3.06    0.18 
  -7   2   0   16.19    0.49 
  -7   2   0   15.50    0.78 
  -7   2   0   14.12    0.50 
  -6   2   0    3.89    0.18 
  -6   2   0    4.40    0.34 
  -6   2   0    3.67    0.32 
  -5   2   0    1.07    0.15 
  -5   2   0    0.89    0.16 
  -5   2   0    0.79    0.16 
  -5   2   0    0.89    0.09 
  -4   2   0   37.07    1.34 
  -4   2   0   36.70    1.32 
  -4   2   0   35.48    1.00 
  -4   2   0   34.83    1.22 
  -4   2   0   36.28    1.23 
  -3   2   0    9.09    0.40 
  -3   2   0    8.64    0.38 
  -3   2   0    9.25    0.39 
  -3   2   0    9.02    0.39 
  -2   2   0  107.42    3.42 
  -2   2   0  107.63    3.15 
  -2   2   0  106.68    3.59 
  -2   2   0  103.43    3.58 
  -2   2   0  106.17    3.16 
  -1   2   0   69.56    2.12 
  -1   2   0   73.14    2.30 
   0   2   0   44.06    1.40 
   0   2   0   41.38    1.30 
  -1  -2   0    0.40    0.08 
   1   2   0    0.36    0.06 
   1   2   0    0.32    0.07 
   1   2   0    0.33    0.06 
   1   2   0    0.33    0.08 
  -2  -2   0    0.67    0.10 
  -2  -2   0    0.45    0.09 
   2   2   0    0.38    0.08 
   2   2   0    0.41    0.08 
   2   2   0    0.46    0.10 
   2   2   0    0.42    0.09 
  -3  -2   0   20.84    0.73 
   3   2   0   20.29    0.82 
   3   2   0   20.18    0.81 
   3   2   0   19.93    0.76 
  -4  -2   0    0.41    0.12 
   4   2   0    0.70    0.15 
   5   2   0    1.18    0.19 
  -6  -2   0    0.08    0.05 
   6   2   0    0.23    0.06 
   6   2   0    0.08    0.12 
  -7  -2   0   14.12    0.45 
  -7  -2   0   14.15    0.49 
   7   2   0   14.70    0.49 
  -8  -2   0    9.03    0.34 
  -8  -2   0    9.65    0.37 
  -8  -2   0    9.36    0.33 
   8   2   0    9.01    0.35 
   8   2   0    9.14    0.36 
  -9  -2   0    3.29    0.18 
   9   2   0    3.37    0.18 
   9   2   0    3.28    0.19 
 -10  -2   0    1.96    0.13 
  10   2   0    2.03    0.13 
  10  -3   0    8.49    0.26 
 -10   3   0    8.59    0.30 
 -10   3   0    8.38    0.28 
   9  -3   0    4.08    0.18 
  -9   3   0    4.43    0.20 
  -9   3   0    4.50    0.21 
   8  -3   0   58.17    1.45 
  -8   3   0   55.32    1.56 
  -8   3   0   56.72    1.51 
  -8   3   0   57.19    1.62 
  -7   3   0    0.62    0.09 
  -7   3   0    0.54    0.19 
  -7   3   0    0.71    0.10 
  -6   3   0    1.62    0.24 
  -6   3   0    1.59    0.12 
  -5   3   0    0.86    0.16 
  -5   3   0    0.86    0.08 
  -4   3   0    6.13    0.35 
  -4   3   0    6.75    0.23 
  -3   3   0   89.97    2.75 
  -2   3   0    3.39    0.21 
  -2   3   0    3.25    0.20 
  -1   3   0   98.51    3.17 
  -1   3   0   97.93    2.93 
   0   3   0   85.79    2.73 
   0   3   0   82.90    2.53 
   1   3   0   69.15    2.18 
   1   3   0   71.71    2.36 
   1   3   0   70.81    2.41 
   1   3   0   73.66    2.41 
   2   3   0   29.62    1.02 
   2   3   0   30.16    1.08 
   2   3   0   29.27    1.07 
   3   3   0   12.96    0.54 
   3   3   0   12.08    0.56 
   4   3   0    2.20    0.22 
   4   3   0    2.05    0.22 
   5   3   0    3.09    0.31 
  -6  -3   0   31.30    0.87 
   6   3   0   30.41    0.91 
   6   3   0   31.97    1.30 
  -7  -3   0    7.74    0.32 
  -7  -3   0    8.13    0.28 
   7   3   0    7.48    0.30 
   7   3   0    7.93    0.32 
  -8  -3   0    6.46    0.27 
  -8  -3   0    6.06    0.23 
  -8  -3   0    5.91    0.28 
   8   3   0    6.40    0.27 
   8   3   0    6.26    0.28 
  -9  -3   0    1.28    0.12 
   9   3   0    1.53    0.13 
   9   3   0    1.25    0.12 
 -10  -3   0    2.35    0.13 
  10   3   0    2.63    0.13 
  10  -4   0    0.56    0.06 
 -10   4   0    0.41    0.07 
   9  -4   0   -0.03    0.05 
  -9   4   0    0.01    0.06 
  -9   4   0   -0.01    0.05 
   8  -4   0   16.52    0.47 
  -8   4   0   15.30    0.52 
  -8   4   0   16.31    0.49 
  -8   4   0   15.93    0.51 
  -8   4   0   15.72    0.54 
   7  -4   0    0.49    0.08 
  -7   4   0    0.42    0.09 
  -7   4   0    0.58    0.09 
  -7   4   0    0.35    0.08 
  -6   4   0   37.46    1.41 
  -6   4   0   36.90    1.04 
  -6   4   0   36.20    1.06 
  -5   4   0    4.83    0.20 
  -5   4   0    4.80    0.35 
  -4   4   0   34.33    0.99 
  -4   4   0   35.04    1.23 
  -3   4   0    4.14    0.27 
  -2   4   0   34.31    1.14 
  -1   4   0   32.60    1.21 
  -1   4   0   34.06    1.11 
   0   4   0   65.60    2.04 
   1   4   0    1.29    0.17 
   2   4   0    7.60    0.40 
   3   4   0   61.35    2.04 
   4   4   0   39.43    1.45 
   5   4   0    3.53    0.36 
   5   4   0    3.47    0.20 
   6   4   0   63.75    1.73 
   6   4   0   61.68    2.28 
  -7  -4   0    0.01    0.05 
   7   4   0    0.13    0.07 
   7   4   0    0.03    0.06 
  -8  -4   0   24.92    0.67 
   8   4   0   23.73    0.75 
   8   4   0   24.98    0.72 
  -9  -4   0    0.91    0.10 
   9   4   0    1.27    0.12 
   9   4   0    1.12    0.10 
 -10  -4   0    0.33    0.06 
  10   4   0    0.35    0.05 
  10  -5   0   13.94    0.38 
   9  -5   0    0.07    0.05 
  -9   5   0   -0.01    0.05 
  -9   5   0   -0.05    0.05 
   8  -5   0    3.64    0.17 
  -8   5   0    3.69    0.20 
  -8   5   0    3.41    0.19 
   7  -5   0    1.40    0.12 
  -7   5   0    1.35    0.12 
  -7   5   0    1.43    0.13 
  -7   5   0    1.36    0.13 
  -6   5   0    0.06    0.11 
  -6   5   0    0.04    0.06 
  -5   5   0   17.77    0.81 
  -4   5   0    1.19    0.20 
  -3   5   0    4.01    0.29 
  -2   5   0   20.80    0.79 
  -1   5   0    0.03    0.08 
   0   5   0   20.50    0.78 
   1   5   0    1.16    0.17 
   2   5   0   19.11    0.79 
   3   5   0   24.24    1.00 
   4   5   0    6.75    0.48 
   5   5   0   10.94    0.67 
   5   5   0    9.66    0.37 
  -6  -5   0    3.82    0.18 
   6   5   0    3.75    0.20 
   6   5   0    4.49    0.24 
   6   5   0    3.90    0.20 
  -7  -5   0   -0.06    0.05 
   7   5   0   -0.01    0.05 
   7   5   0    0.00    0.06 
  -8  -5   0    2.62    0.14 
   8   5   0    2.66    0.16 
   8   5   0    3.06    0.18 
   9   5   0    1.75    0.10 
   9   5   0    1.60    0.12 
  10  -6   0    0.80    0.07 
   9  -6   0    0.72    0.08 
  -9   6   0    0.61    0.08 
  -9   6   0    0.64    0.08 
   8  -6   0    7.96    0.27 
  -8   6   0    7.84    0.30 
  -8   6   0    8.11    0.31 
   7  -6   0    1.58    0.12 
  -7   6   0    1.51    0.14 
  -7   6   0    1.64    0.14 
   6  -6   0   10.76    0.35 
  -6   6   0   11.04    0.37 
  -5   6   0    1.61    0.26 
  -4   6   0   12.69    0.64 
  -3   6   0   36.21    1.33 
  -2   6   0    0.16    0.10 
  -1   6   0   19.20    0.79 
   0   6   0    7.45    0.43 
   1   6   0   70.37    2.32 
   2   6   0   22.26    0.94 
   3   6   0    0.67    0.19 
   4   6   0    7.98    0.33 
   4   6   0    8.67    0.58 
  -5  -6   0    4.07    0.18 
   5   6   0    3.42    0.21 
   5   6   0    4.02    0.20 
   5   6   0    4.07    0.20 
  -6  -6   0    2.95    0.16 
   6   6   0    2.53    0.20 
   6   6   0    2.95    0.18 
   6   6   0    2.85    0.16 
  -7  -6   0    3.71    0.17 
   7   6   0    3.68    0.18 
   7   6   0    4.00    0.21 
  -8  -6   0    1.05    0.09 
   8   6   0    1.08    0.09 
   8   6   0    1.14    0.12 
   9  -7   0   17.11    0.46 
  -9   7   0   16.87    0.49 
   8  -7   0    2.16    0.13 
  -8   7   0    2.27    0.14 
  -8   7   0    2.51    0.15 
   7  -7   0   28.83    0.77 
  -7   7   0   28.53    0.81 
   6  -7   0   10.58    0.34 
  -6   7   0   10.63    0.33 
  -6   7   0   11.34    0.37 
  -5   7   0   24.88    0.71 
  -4   7   0    7.75    0.28 
  -4   7   0    6.91    0.51 
  -3   7   0    0.72    0.19 
  -2   7   0  111.02    3.54 
  -1   7   0    2.78    0.29 
   0   7   0   24.54    1.01 
   1   7   0   12.20    0.64 
   2   7   0   11.13    0.64 
   3   7   0    5.85    0.25 
  -4  -7   0    2.30    0.14 
   4   7   0    2.51    0.16 
   4   7   0    2.12    0.20 
  -5  -7   0   19.05    0.54 
   5   7   0   18.06    0.61 
   5   7   0   19.03    0.57 
  -6  -7   0    9.09    0.30 
   6   7   0    9.09    0.36 
   6   7   0    8.86    0.32 
  -7  -7   0    5.24    0.19 
   7   7   0    5.23    0.24 
  -8  -7   0    1.01    0.07 
   8  -8   0   10.06    0.30 
  -8   8   0   10.44    0.33 
   7  -8   0    0.29    0.06 
  -7   8   0    0.32    0.07 
   6  -8   0    4.11    0.18 
  -6   8   0    3.87    0.17 
  -6   8   0    3.85    0.20 
   5  -8   0    2.64    0.16 
  -5   8   0    2.63    0.16 
  -5   8   0    2.48    0.13 
  -4   8   0    1.48    0.14 
  -4   8   0    1.68    0.11 
  -3   8   0    7.53    0.25 
  -3   8   0    7.90    0.29 
  -2   8   0   37.00    1.00 
  -1   8   0    3.36    0.17 
   0   8   0   13.61    0.43 
   1   8   0    3.98    0.19 
   1   8   0    3.86    0.17 
   2   8   0   13.10    0.43 
   2   8   0   13.38    0.39 
  -3  -8   0    0.79    0.10 
   3   8   0    0.73    0.10 
  -4  -8   0    3.89    0.18 
   4   8   0    3.58    0.19 
  -5  -8   0    0.98    0.09 
   5   8   0    1.11    0.13 
   5   8   0    1.01    0.11 
  -6  -8   0   15.03    0.42 
   6   8   0   14.49    0.45 
   6   8   0   14.75    0.49 
  -7  -8   0    7.61    0.23 
   8  -9   0    0.03    0.03 
   7  -9   0    0.39    0.06 
  -7   9   0    0.49    0.07 
   6  -9   0    2.34    0.13 
  -6   9   0    2.52    0.15 
   5  -9   0    0.83    0.09 
  -5   9   0    0.65    0.09 
  -5   9   0    0.81    0.08 
  -4   9   0    0.54    0.09 
  -4   9   0    0.57    0.07 
  -3   9   0   -0.06    0.06 
  -3   9   0    0.06    0.05 
  -2   9   0   51.43    1.36 
  -2   9   0   51.60    1.26 
  -1   9   0    1.96    0.14 
  -1   9   0    1.83    0.12 
   0   9   0    0.02    0.05 
   0   9   0    0.26    0.07 
   1   9   0    0.14    0.06 
   1   9   0    0.23    0.07 
  -2  -9   0    0.58    0.08 
   2   9   0    0.63    0.08 
   2   9   0    0.43    0.09 
  -3  -9   0    4.51    0.19 
   3   9   0    4.66    0.21 
  -4  -9   0    0.30    0.06 
   4   9   0    0.16    0.06 
  -5  -9   0    1.88    0.11 
   5   9   0    2.01    0.12 
   5   9   0    1.56    0.14 
  -6  -9   0    0.13    0.04 
   6   9   0    0.08    0.04 
   6 -10   0   -0.03    0.04 
  -6  10   0    0.02    0.04 
   5 -10   0    7.81    0.24 
  -5  10   0    7.09    0.23 
  -5  10   0    7.84    0.26 
   4 -10   0    1.58    0.11 
  -4  10   0    1.55    0.12 
  -4  10   0    1.69    0.10 
  -3  10   0    0.10    0.06 
  -3  10   0    0.05    0.05 
  -2  10   0    0.05    0.05 
  -2  10   0    0.01    0.06 
  -1  10   0    0.47    0.08 
  -1  10   0    0.41    0.07 
   0  10   0    5.83    0.21 
   0  10   0    6.01    0.24 
  -1 -10   0    0.32    0.07 
   1  10   0    0.24    0.07 
   1  10   0    0.42    0.07 
  -2 -10   0    0.44    0.07 
   2  10   0    0.62    0.08 
  -3 -10   0    0.41    0.06 
   3  10   0    0.44    0.07 
  -4 -10   0    1.93    0.11 
   4  10   0    1.93    0.12 
  -5 -10   0   11.56    0.32 
   4 -11   0    0.12    0.04 
  -4  11   0   -0.03    0.04 
  -4  11   0    0.06    0.04 
   3 -11   0    3.62    0.14 
  -3  11   0    3.38    0.15 
  -3  11   0    3.53    0.14 
   2 -11   0    4.42    0.17 
  -2  11   0    4.16    0.16 
  -2  11   0    4.35    0.18 
   1 -11   0    9.58    0.29 
  -1  11   0    9.17    0.28 
  -1  11   0    9.78    0.31 
   0 -11   0    0.07    0.05 
   0  11   0    0.10    0.05 
   0  11   0    0.03    0.04 
  -1 -11   0   14.53    0.40 
   1  11   0   14.31    0.42 
  -2 -11   0    6.02    0.20 
   2  11   0    5.96    0.21 
  -3 -11   0    1.26    0.08 
   3  11   0    1.25    0.09 
  -1  12  -1    3.85    0.14 
   3  11  -1    0.11    0.04 
  -3 -11   1    0.05    0.04 
   2  11  -1   -0.01    0.04 
   2  11  -1    0.04    0.04 
  -2 -11   1    0.13    0.05 
   1  11  -1   16.07    0.45 
   1  11  -1   14.92    0.41 
   0  11  -1    0.14    0.05 
   0  11  -1    0.07    0.05 
  -1  11  -1    0.99    0.09 
  -1  11  -1    0.94    0.08 
  -2  11  -1    5.76    0.19 
  -2  11  -1    5.77    0.21 
  -3  11  -1    1.27    0.10 
  -3  11  -1    1.43    0.09 
  -4  11  -1   12.10    0.33 
  -4  11  -1   11.99    0.35 
  -5  11  -1    1.47    0.09 
  -5  11  -1    1.34    0.08 
   5  10  -1    1.78    0.10 
  -5 -10   1    1.74    0.10 
   4  10  -1    4.39    0.18 
  -4 -10   1    4.70    0.17 
   3  10  -1    0.58    0.08 
   3  10  -1    0.74    0.07 
  -3 -10   1    0.77    0.08 
   2  10  -1    1.52    0.10 
   2  10  -1    1.30    0.11 
  -2 -10   1    1.30    0.11 
   1  10  -1    0.43    0.08 
   1  10  -1    0.47    0.07 
   0  10  -1    1.37    0.12 
   0  10  -1    1.26    0.10 
  -1  10  -1    3.03    0.14 
  -1  10  -1    2.52    0.15 
  -2  10  -1   13.82    0.39 
  -2  10  -1   13.79    0.43 
  -3  10  -1    0.31    0.07 
  -3  10  -1    0.30    0.06 
  -4  10  -1    3.62    0.17 
  -4  10  -1    3.88    0.15 
  -5  10  -1    5.18    0.18 
  -5  10  -1    5.46    0.21 
  -6  10  -1    1.87    0.10 
  -6  10  -1    1.79    0.11 
   6 -10   1    1.94    0.10 
   6   9  -1    4.18    0.18 
  -6  -9   1    4.42    0.17 
   5   9  -1   10.26    0.34 
  -5  -9   1   10.19    0.31 
   4   9  -1    0.22    0.07 
  -4  -9   1    0.28    0.07 
   3   9  -1   11.14    0.34 
   3   9  -1   11.05    0.38 
  -3  -9   1   11.00    0.35 
   2   9  -1    0.32    0.07 
   2   9  -1    0.25    0.06 
   1   9  -1   -0.07    0.05 
   1   9  -1    0.00    0.04 
   0   9  -1    6.76    0.26 
   0   9  -1    6.49    0.23 
  -1   9  -1    0.02    0.04 
  -1   9  -1    0.00    0.06 
  -2   9  -1   67.76    1.65 
  -2   9  -1   69.45    1.77 
  -3   9  -1    3.10    0.15 
  -3   9  -1    3.00    0.16 
  -4   9  -1    1.63    0.13 
  -4   9  -1    1.74    0.11 
  -5   9  -1    5.36    0.19 
  -5   9  -1    4.98    0.22 
  -6   9  -1    0.96    0.08 
  -6   9  -1    1.04    0.10 
   6  -9   1    1.17    0.10 
  -7   9  -1    4.20    0.18 
   7  -9   1    4.18    0.16 
  -8   9  -1    2.10    0.11 
   8  -9   1    2.21    0.10 
   7   8  -1    0.37    0.07 
   7   8  -1    0.38    0.06 
  -7  -8   1    0.26    0.05 
   6   8  -1    1.91    0.15 
   6   8  -1    1.72    0.13 
  -6  -8   1    1.88    0.12 
   5   8  -1    0.04    0.06 
  -5  -8   1    0.15    0.06 
   4   8  -1    2.51    0.16 
  -4  -8   1    2.36    0.14 
   3   8  -1    0.40    0.08 
   3   8  -1    0.33    0.06 
   2   8  -1    0.41    0.08 
   2   8  -1    0.32    0.06 
   1   8  -1    4.51    0.20 
   0   8  -1    7.68    0.28 
   0   8  -1    7.91    0.50 
  -1   8  -1   29.23    0.79 
  -1   8  -1   27.66    1.14 
  -2   8  -1    0.02    0.05 
  -3   8  -1   -0.02    0.04 
  -3   8  -1   -0.01    0.06 
  -4   8  -1    1.26    0.12 
  -4   8  -1    1.34    0.10 
  -5   8  -1    3.53    0.16 
  -5   8  -1    3.44    0.18 
  -6   8  -1   33.45    0.92 
  -6   8  -1   33.09    0.85 
   6  -8   1   34.00    0.88 
  -7   8  -1    0.15    0.06 
   7  -8   1    0.12    0.05 
  -8   8  -1    1.45    0.11 
   8   7  -1    0.02    0.05 
  -8  -7   1   -0.04    0.04 
   7   7  -1    0.49    0.09 
   7   7  -1    0.25    0.07 
  -7  -7   1    0.51    0.07 
   6   7  -1    0.64    0.11 
   6   7  -1    0.49    0.09 
  -6  -7   1    0.66    0.08 
   5   7  -1    1.43    0.15 
   5   7  -1    1.47    0.14 
  -5  -7   1    1.38    0.12 
   4   7  -1    0.09    0.05 
   4   7  -1    0.16    0.07 
  -4  -7   1    0.20    0.07 
   3   7  -1    1.10    0.11 
   3   7  -1    1.42    0.26 
   2   7  -1    5.86    0.43 
   1   7  -1    5.11    0.37 
   0   7  -1   12.42    0.61 
  -1   7  -1   17.20    0.75 
  -2   7  -1    0.99    0.19 
  -3   7  -1   13.92    0.68 
  -4   7  -1    4.55    0.38 
  -4   7  -1    4.82    0.21 
  -5   7  -1    0.69    0.08 
  -5   7  -1    0.64    0.09 
  -6   7  -1    1.58    0.13 
  -6   7  -1    1.28    0.10 
  -7   7  -1    8.38    0.30 
   7  -7   1    8.20    0.28 
  -8   7  -1   10.01    0.33 
   8  -7   1    9.64    0.30 
  -9   7  -1    1.84    0.12 
   9  -7   1    1.69    0.10 
   8   6  -1    2.01    0.12 
   8   6  -1    2.15    0.16 
  -8  -6   1    2.42    0.13 
   7   6  -1    0.52    0.08 
   7   6  -1    0.33    0.09 
   7   6  -1    0.33    0.08 
  -7  -6   1    0.28    0.07 
   6   6  -1   19.74    0.59 
   6   6  -1   19.61    0.58 
   6   6  -1   19.39    0.64 
  -6  -6   1   19.62    0.56 
   5   6  -1    2.05    0.15 
   5   6  -1    2.08    0.17 
  -5  -6   1    1.89    0.13 
   4   6  -1    5.34    0.43 
   3   6  -1   13.99    0.70 
   2   6  -1   30.43    1.16 
   1   6  -1   24.60    0.95 
   0   6  -1    8.00    0.42 
  -1   6  -1   24.44    0.91 
  -2   6  -1   16.22    0.68 
  -3   6  -1    5.92    0.37 
  -4   6  -1    7.87    0.47 
  -5   6  -1    0.19    0.12 
  -6   6  -1   10.15    0.35 
  -6   6  -1   10.29    0.31 
  -7   6  -1    5.63    0.24 
   7  -6   1    5.11    0.21 
  -8   6  -1   22.62    0.66 
  -8   6  -1   22.92    0.69 
   8  -6   1   22.42    0.62 
  -9   6  -1    1.87    0.13 
  -9   6  -1    1.79    0.13 
   9  -6   1    2.04    0.11 
  10  -6   1    1.39    0.08 
   9   5  -1   16.33    0.46 
   9   5  -1   16.02    0.50 
  -9  -5   1   15.46    0.44 
   8   5  -1   20.20    0.64 
   8   5  -1   20.00    0.58 
  -8  -5   1   19.59    0.56 
   7   5  -1    0.73    0.10 
   7   5  -1    0.74    0.12 
  -7  -5   1    0.79    0.09 
   6   5  -1    0.20    0.07 
   6   5  -1    0.15    0.08 
   6   5  -1    0.21    0.07 
  -6  -5   1    0.18    0.06 
   5   5  -1    0.97    0.13 
   5   5  -1    0.92    0.22 
   4   5  -1   79.16    2.64 
   3   5  -1   33.06    1.24 
   2   5  -1   83.12    2.63 
   1   5  -1   26.51    0.95 
   0   5  -1   18.09    0.68 
  -1   5  -1   20.29    0.74 
  -2   5  -1    8.00    0.38 
  -3   5  -1    5.80    0.34 
  -4   5  -1    0.98    0.18 
  -5   5  -1   18.51    0.82 
  -6   5  -1   19.71    0.63 
  -6   5  -1   19.77    0.59 
  -6   5  -1   20.10    0.91 
  -7   5  -1    0.29    0.07 
  -7   5  -1    0.17    0.07 
   7  -5   1    0.26    0.07 
  -8   5  -1   28.25    0.84 
  -8   5  -1   28.06    0.81 
   8  -5   1   28.98    0.77 
  -9   5  -1    0.10    0.06 
  -9   5  -1   -0.05    0.05 
   9  -5   1    0.06    0.05 
  10  -5   1    6.42    0.20 
  10   4  -1    0.87    0.08 
 -10  -4   1    0.73    0.08 
   9   4  -1    0.02    0.05 
   9   4  -1   -0.01    0.06 
  -9  -4   1   -0.05    0.05 
   8   4  -1    8.51    0.35 
   8   4  -1    9.13    0.33 
  -8  -4   1    9.09    0.30 
   7   4  -1   21.01    0.64 
   7   4  -1   21.76    0.69 
  -7  -4   1   22.00    0.61 
   6   4  -1    1.23    0.13 
   6   4  -1    1.59    0.29 
   5   4  -1   17.29    0.84 
   4   4  -1    0.08    0.10 
   3   4  -1   18.97    0.77 
   2   4  -1   61.72    1.97 
   1   4  -1    0.64    0.12 
   1   4  -1    0.50    0.09 
   0   4  -1   68.80    2.09 
   0   4  -1   68.55    2.25 
  -1   4  -1   11.55    0.44 
  -1   4  -1   11.35    0.46 
  -2   4  -1    5.40    0.29 
  -2   4  -1    5.88    0.28 
  -3   4  -1   26.32    0.74 
  -3   4  -1   26.06    0.92 
  -4   4  -1   13.87    0.60 
  -4   4  -1   14.18    0.44 
  -5   4  -1   50.31    1.41 
  -5   4  -1   51.00    1.73 
  -6   4  -1    0.83    0.10 
  -6   4  -1    0.86    0.20 
  -7   4  -1    4.84    0.23 
  -7   4  -1    5.21    0.23 
  -7   4  -1    4.76    0.23 
   7  -4   1    4.89    0.21 
  -8   4  -1   -0.06    0.05 
  -8   4  -1    0.06    0.06 
  -8   4  -1   -0.03    0.05 
  -8   4  -1    0.05    0.07 
   8  -4   1    0.02    0.06 
  -9   4  -1    7.30    0.29 
  -9   4  -1    8.04    0.30 
  -9   4  -1    7.70    0.27 
   9  -4   1    7.77    0.27 
 -10   4  -1    0.32    0.07 
  10  -4   1    0.39    0.06 
  10   3  -1    0.13    0.05 
  10   3  -1    0.19    0.07 
 -10  -3   1    0.10    0.05 
   9   3  -1    0.01    0.06 
   9   3  -1   -0.04    0.05 
  -9  -3   1    0.08    0.06 
   8   3  -1    0.02    0.07 
   8   3  -1   -0.09    0.06 
  -8  -3   1    0.09    0.06 
  -8  -3   1    0.00    0.06 
  -8  -3   1   -0.04    0.07 
   7   3  -1   15.09    0.52 
  -7  -3   1   15.56    0.46 
   6   3  -1   23.26    1.02 
   6   3  -1   21.57    0.68 
   5   3  -1    2.22    0.29 
   4   3  -1   33.76    1.25 
   4   3  -1   32.73    1.23 
   4   3  -1   34.49    1.27 
   3   3  -1    1.01    0.16 
   3   3  -1    1.01    0.11 
   3   3  -1    0.86    0.10 
   2   3  -1    8.60    0.40 
   2   3  -1    8.56    0.38 
   1   3  -1   51.48    1.73 
   1   3  -1   54.25    1.63 
   0   3  -1   24.24    0.76 
   0   3  -1   23.75    0.80 
  -1   3  -1    5.57    0.23 
  -1   3  -1    5.74    0.23 
  -2   3  -1   34.83    1.10 
  -2   3  -1   33.94    1.19 
  -2   3  -1   35.68    1.10 
  -3   3  -1   92.99    2.81 
  -3   3  -1   92.00    2.81 
  -4   3  -1   37.69    1.30 
  -4   3  -1   37.55    1.30 
  -4   3  -1   39.89    1.08 
  -5   3  -1    4.71    0.32 
  -5   3  -1    4.49    0.32 
  -5   3  -1    4.38    0.19 
  -6   3  -1   48.06    1.39 
  -6   3  -1   50.39    1.74 
  -7   3  -1    0.04    0.05 
  -7   3  -1    0.00    0.05 
  -7   3  -1    0.04    0.06 
  -7   3  -1    0.04    0.13 
  -8   3  -1    1.80    0.14 
  -8   3  -1    2.08    0.15 
  -8   3  -1    2.20    0.16 
  -8   3  -1    2.03    0.16 
   8  -3   1    2.14    0.14 
  -9   3  -1   23.33    0.69 
  -9   3  -1   22.33    0.65 
   9  -3   1   22.22    0.63 
 -10   3  -1    0.64    0.07 
 -10   3  -1    0.53    0.08 
  10  -3   1    0.67    0.07 
  11   2  -1    0.09    0.04 
 -11  -2   1    0.20    0.04 
  10   2  -1   11.79    0.37 
  10   2  -1   11.10    0.37 
 -10  -2   1   11.55    0.38 
   9   2  -1    3.58    0.20 
   9   2  -1    3.51    0.20 
  -9  -2   1    3.81    0.20 
   8   2  -1   10.62    0.38 
   8   2  -1   10.32    0.39 
  -8  -2   1   10.89    0.36 
  -8  -2   1   10.33    0.34 
  -8  -2   1   11.03    0.40 
  -8  -2   1   10.40    0.38 
   7   2  -1   36.89    1.04 
  -7  -2   1   34.70    0.99 
   6   2  -1    0.24    0.14 
   5   2  -1    0.12    0.09 
   4   2  -1    3.47    0.26 
   4   2  -1    3.64    0.27 
   3   2  -1   14.39    0.62 
   3   2  -1   15.50    0.60 
   3   2  -1   15.44    0.59 
  -3  -2   1   14.24    0.55 
   2   2  -1    0.20    0.06 
   2   2  -1    0.19    0.05 
   2   2  -1    0.23    0.07 
   2   2  -1    0.24    0.07 
   1   2  -1   61.02    1.84 
   1   2  -1   62.08    2.03 
   0   2  -1   96.39    3.10 
  -1   2  -1   40.34    1.29 
  -1   2  -1   41.73    1.29 
  -1   2  -1   39.48    1.21 
  -1   2  -1   40.80    1.35 
  -2   2  -1   58.23    1.76 
  -3   2  -1   31.85    1.10 
  -3   2  -1   31.32    1.04 
  -3   2  -1   31.39    1.11 
  -4   2  -1    0.43    0.06 
  -4   2  -1    0.46    0.09 
  -4   2  -1    0.19    0.09 
  -4   2  -1    0.38    0.08 
  -5   2  -1   28.35    1.03 
  -5   2  -1   27.32    1.03 
  -5   2  -1   27.78    0.80 
  -5   2  -1   26.75    1.04 
  -6   2  -1    5.77    0.24 
  -6   2  -1    6.13    0.42 
  -6   2  -1    6.86    0.44 
  -7   2  -1   50.70    1.85 
  -7   2  -1   50.98    1.40 
  -7   2  -1   50.14    1.85 
  -7   2  -1   51.55    1.46 
  -8   2  -1    3.58    0.20 
  -8   2  -1    3.94    0.22 
  -8   2  -1    4.19    0.20 
   8  -2   1    3.76    0.19 
  -9   2  -1    0.09    0.06 
  -9   2  -1    0.15    0.07 
   9  -2   1    0.09    0.05 
 -10   2  -1    1.47    0.12 
 -10   2  -1    1.43    0.11 
  10  -2   1    1.31    0.09 
  11   1  -1    0.71    0.07 
 -11  -1   1    0.81    0.07 
  10   1  -1    6.98    0.27 
 -10  -1   1    6.83    0.27 
   9   1  -1    0.46    0.08 
   9   1  -1    0.35    0.08 
  -9  -1   1    0.23    0.07 
  -9  -1   1    0.35    0.08 
  -9  -1   1    0.29    0.07 
   8   1  -1    0.50    0.09 
   8   1  -1    0.44    0.09 
  -8  -1   1    0.53    0.10 
  -8  -1   1    0.51    0.09 
  -8  -1   1    0.49    0.08 
   7   1  -1   -0.03    0.05 
  -7  -1   1    0.04    0.05 
   6   1  -1   10.02    0.56 
   5   1  -1    7.27    0.43 
  -5  -1   1    7.38    0.41 
   4   1  -1    0.60    0.12 
  -4  -1   1    0.92    0.15 
   3   1  -1    1.09    0.14 
   3   1  -1    0.68    0.11 
   3   1  -1    0.69    0.11 
  -3  -1   1    1.10    0.14 
   2   1  -1  149.33    5.06 
   2   1  -1  157.85    4.78 
   2   1  -1  151.15    4.43 
  -2  -1   1  142.74    5.07 
   1   1  -1   50.08    1.75 
   1   1  -1   55.50    1.69 
   1   1  -1   53.11    1.76 
  -1  -1   1   51.55    1.77 
  -1  -1   1   50.15    1.77 
   0   1  -1  181.43    5.73 
  -1   1  -1   13.96    0.47 
  -1   1  -1   13.93    0.47 
  -1   1  -1   14.26    0.48 
  -2   1  -1  160.72    5.05 
  -2   1  -1  159.47    5.00 
  -2   1  -1  154.17    5.34 
  -2   1  -1  161.62    5.34 
  -2   1  -1  158.15    4.66 
   2  -1   1  159.27    5.38 
  -3   1  -1    3.93    0.23 
  -3   1  -1    4.02    0.23 
  -3   1  -1    3.86    0.22 
   3  -1   1    3.80    0.22 
  -4   1  -1   99.65    3.03 
  -4   1  -1  101.63    2.66 
  -4   1  -1  100.53    3.43 
  -4   1  -1   94.24    3.45 
  -5   1  -1    0.21    0.09 
  -5   1  -1    0.31    0.11 
  -5   1  -1    0.45    0.07 
  -6   1  -1    0.92    0.10 
  -6   1  -1    0.76    0.18 
  -7   1  -1   11.86    0.67 
  -7   1  -1   10.89    0.38 
  -7   1  -1   11.07    0.40 
  -7   1  -1   11.79    0.66 
  -8   1  -1    6.18    0.27 
  -8   1  -1    5.50    0.25 
  -8   1  -1    5.70    0.24 
   8  -1   1    5.68    0.23 
  -9   1  -1   10.18    0.36 
  -9   1  -1   10.00    0.35 
   9  -1   1    9.32    0.31 
 -10   1  -1    2.94    0.15 
 -10   1  -1    2.92    0.15 
  10  -1   1    2.84    0.16 
 -11   1  -1    3.96    0.14 
  11  -1   1    3.77    0.16 
  11   0  -1    0.23    0.05 
 -11   0   1    0.17    0.05 
  10   0  -1    0.93    0.10 
 -10   0   1    0.79    0.09 
 -10   0   1    1.01    0.10 
   9   0  -1    1.23    0.13 
   9   0  -1    1.50    0.13 
  -9   0   1    1.39    0.14 
  -9   0   1    1.11    0.11 
  -9   0   1    1.65    0.14 
   8   0  -1    3.73    0.20 
   8   0  -1    3.89    0.21 
   8   0  -1    3.65    0.17 
  -8   0   1    4.19    0.22 
  -8   0   1    3.51    0.19 
  -8   0   1    3.95    0.20 
   7   0  -1    5.86    0.25 
  -7   0   1    5.43    0.23 
  -7   0   1    5.57    0.25 
  -6   0   1   11.79    0.58 
  -6   0   1   10.96    0.58 
   5   0  -1   20.83    0.84 
  -5   0   1   21.34    0.84 
  -5   0   1   21.52    0.83 
   4   0  -1   13.90    0.59 
  -4   0   1   14.93    0.59 
   3   0  -1    9.67    0.45 
   3   0  -1    9.51    0.40 
  -3   0   1    9.39    0.43 
  -3   0   1    9.09    0.45 
  -3   0   1    9.28    0.39 
   2   0  -1   16.75    0.59 
   2   0  -1   16.98    0.65 
   2   0  -1   17.48    0.58 
   2   0  -1   16.99    0.67 
  -2   0   1   15.77    0.57 
  -2   0   1   18.78    0.67 
   1   0  -1   47.34    1.73 
   1   0  -1   52.81    1.63 
   1   0  -1   50.63    1.74 
  -1   0   1   50.73    1.74 
  -1   0   1   52.18    1.74 
   0   0  -1   74.45    2.94 
   0   0  -1   96.82    2.94 
   0   0   1   92.34    2.94 
  -1   0  -1  192.19    6.24 
  -1   0  -1  195.54    5.88 
  -1   0  -1  186.42    6.25 
   1   0   1  179.09    6.25 
   1   0   1  179.10    6.24 
  -2   0  -1    8.96    0.39 
  -2   0  -1    8.92    0.34 
  -2   0  -1    8.67    0.37 
  -2   0  -1    9.16    0.37 
   2   0   1    8.70    0.38 
   2   0   1    8.44    0.40 
   2   0   1    8.98    0.36 
  -3   0  -1   20.23    0.70 
  -3   0  -1   19.73    0.78 
  -3   0  -1   18.68    0.80 
   3   0   1   20.86    0.72 
  -4   0  -1   15.62    0.63 
   4   0   1   16.35    0.65 
  -5   0  -1   14.28    0.44 
  -5   0  -1   13.40    0.62 
  -6   0  -1    1.70    0.12 
  -6   0  -1    1.28    0.22 
  -7   0  -1    0.95    0.25 
  -7   0  -1    0.97    0.11 
  -7   0  -1    1.16    0.13 
   7   0   1    1.13    0.12 
  -8   0  -1   33.10    0.96 
  -8   0  -1   33.48    0.94 
   8   0   1   33.37    0.96 
   8   0   1   33.72    0.88 
  -9   0  -1   11.78    0.41 
  -9   0  -1   12.58    0.41 
   9   0   1   11.89    0.42 
 -10   0  -1   24.28    0.69 
 -10   0  -1   25.11    0.70 
  10   0   1   23.46    0.70 
 -11   0  -1    2.69    0.12 
  11   0   1    2.86    0.13 
  11  -1  -1    1.52    0.10 
 -11   1   1    1.28    0.09 
  10  -1  -1    9.31    0.33 
 -10   1   1    9.87    0.33 
 -10   1   1    8.86    0.32 
   9  -1  -1    0.98    0.12 
   9  -1  -1    1.01    0.09 
  -9   1   1    1.15    0.12 
  -9   1   1    0.84    0.10 
  -9   1   1    1.17    0.13 
   8  -1  -1   32.35    0.93 
   8  -1  -1   32.16    0.93 
   8  -1  -1   32.14    0.86 
  -8   1   1   33.43    0.99 
  -8   1   1   33.01    0.94 
  -8   1   1   32.29    0.92 
   7  -1  -1   13.58    0.44 
  -7   1   1   13.76    0.44 
  -7   1   1   12.81    0.46 
  -7   1   1   13.50    0.70 
  -6   1   1    1.49    0.24 
  -6   1   1    1.04    0.10 
  -5   1   1   21.62    0.84 
  -5   1   1   20.75    0.82 
   4  -1  -1    0.47    0.12 
  -4   1   1    0.86    0.15 
  -4   1   1    0.66    0.15 
  -4   1   1    0.44    0.11 
   3  -1  -1   23.15    0.81 
  -3   1   1   23.30    0.80 
  -3   1   1   22.90    0.80 
  -3   1   1   24.00    0.92 
  -3   1   1   23.32    0.89 
   2  -1  -1  107.99    3.70 
   2  -1  -1  105.20    3.22 
  -2   1   1  107.68    3.70 
  -2   1   1  113.79    3.70 
  -2   1   1  108.63    3.22 
   1  -1  -1   83.73    2.93 
   1  -1  -1   84.11    2.92 
  -1   1   1   87.05    2.55 
  -1   1   1   88.06    2.92 
  -1   1   1   87.94    2.76 
  -1   1   1   85.96    2.93 
   0   1   1    1.10    0.09 
   0   1   1    0.98    0.09 
  -1  -1  -1   35.40    1.35 
  -1  -1  -1   39.33    1.35 
  -1  -1  -1   38.62    1.18 
   1   1   1   38.96    1.36 
   1   1   1   39.69    1.19 
   1   1   1   38.18    1.34 
  -2  -1  -1    0.07    0.06 
  -2  -1  -1    0.00    0.02 
  -2  -1  -1   -0.01    0.04 
   2   1   1    0.03    0.06 
   2   1   1    0.15    0.07 
   2   1   1    0.12    0.05 
  -3  -1  -1   25.61    0.89 
   3   1   1   26.00    0.91 
  -4  -1  -1   -0.01    0.07 
   4   1   1    0.02    0.08 
  -5  -1  -1    4.31    0.31 
   5   1   1    4.17    0.32 
  -6  -1  -1   12.19    0.41 
  -7  -1  -1    1.97    0.13 
  -7  -1  -1    1.89    0.14 
   7   1   1    1.76    0.15 
  -8  -1  -1    9.88    0.38 
  -8  -1  -1    9.57    0.35 
  -8  -1  -1   10.04    0.36 
   8   1   1    9.64    0.37 
   8   1   1    9.87    0.36 
  -9  -1  -1   12.26    0.40 
  -9  -1  -1   11.13    0.39 
   9   1   1   11.98    0.41 
 -10  -1  -1    6.91    0.25 
  10   1   1    6.78    0.26 
  11  -2  -1    5.63    0.20 
 -11   2   1    5.57    0.19 
  10  -2  -1    5.05    0.23 
 -10   2   1    5.44    0.22 
 -10   2   1    5.29    0.22 
   9  -2  -1    0.85    0.09 
  -9   2   1    1.06    0.11 
  -9   2   1    1.02    0.11 
   8  -2  -1   17.96    0.53 
  -8   2   1   18.23    0.58 
  -8   2   1   18.57    0.57 
  -8   2   1   19.50    0.62 
  -7   2   1    4.03    0.19 
  -7   2   1    3.89    0.38 
  -7   2   1    3.43    0.19 
  -6   2   1   33.95    0.98 
  -6   2   1   33.58    1.27 
  -5   2   1    5.16    0.20 
  -5   2   1    4.77    0.32 
  -5   2   1    5.24    0.32 
  -4   2   1   47.36    1.31 
  -4   2   1   48.75    1.74 
  -4   2   1   47.56    1.57 
   3  -2  -1    7.77    0.36 
  -3   2   1    8.59    0.37 
  -3   2   1    7.95    0.38 
  -3   2   1    8.27    0.39 
   2  -2  -1   37.87    1.42 
   2  -2  -1   39.49    1.23 
  -2   2   1   41.22    1.35 
  -2   2   1   39.18    1.39 
  -2   2   1   37.54    1.38 
  -2   2   1   39.28    1.24 
   1  -2  -1  251.20    8.59 
  -1   2   1  264.92    8.10 
  -1   2   1  255.27    7.47 
  -1   2   1  246.66    8.58 
  -1   2   1  262.80    8.58 
   0  -2  -1   33.48    1.22 
   0   2   1   34.90    1.16 
   0   2   1   33.75    1.07 
   0   2   1   33.41    1.20 
   0   2   1   34.24    1.21 
  -1  -2  -1   75.52    2.63 
  -1  -2  -1   75.39    2.27 
  -1  -2  -1   71.33    2.60 
   1   2   1   78.31    2.48 
   1   2   1   75.12    2.59 
   1   2   1   75.79    2.61 
   1   2   1   76.68    2.29 
  -2  -2  -1    2.21    0.17 
   2   2   1    2.37    0.19 
   2   2   1    2.23    0.17 
   2   2   1    2.38    0.19 
  -3  -2  -1    1.13    0.16 
   3   2   1    0.81    0.14 
   3   2   1    1.25    0.18 
  -4  -2  -1    0.40    0.12 
   4   2   1    0.28    0.11 
   5   2   1    3.52    0.31 
  -6  -2  -1   51.09    1.45 
  -6  -2  -1   50.62    1.39 
   6   2   1   52.40    1.42 
  -7  -2  -1   10.83    0.37 
  -7  -2  -1   10.62    0.34 
  -7  -2  -1   11.37    0.41 
   7   2   1   11.10    0.40 
  -8  -2  -1    1.53    0.14 
  -8  -2  -1    1.51    0.14 
  -8  -2  -1    1.71    0.13 
   8   2   1    1.60    0.15 
   8   2   1    1.61    0.14 
  -9  -2  -1    0.02    0.05 
   9   2   1    0.03    0.06 
   9   2   1   -0.01    0.06 
 -10  -2  -1    0.12    0.05 
  10   2   1    0.05    0.05 
  10  -3  -1    8.82    0.27 
 -10   3   1    9.06    0.30 
 -10   3   1    8.81    0.31 
   9  -3  -1   10.94    0.34 
  -9   3   1   11.10    0.37 
  -9   3   1   10.49    0.38 
   8  -3  -1    0.02    0.05 
  -8   3   1    0.27    0.07 
  -8   3   1    0.21    0.07 
  -8   3   1    0.11    0.07 
  -7   3   1   41.48    1.15 
  -7   3   1   40.04    1.18 
  -7   3   1   40.74    1.58 
  -6   3   1    1.76    0.12 
  -6   3   1    1.65    0.25 
  -5   3   1   26.22    0.76 
  -5   3   1   25.51    1.01 
  -4   3   1  106.17    2.83 
  -4   3   1  105.29    3.63 
  -4   3   1  107.66    3.61 
  -4   3   1  102.13    3.26 
  -3   3   1   10.63    0.44 
  -3   3   1   10.66    0.45 
  -3   3   1   10.03    0.46 
  -2   3   1   36.29    1.19 
  -2   3   1   36.64    1.29 
  -2   3   1   36.21    1.29 
  -1   3   1   19.74    0.75 
  -1   3   1   19.88    0.74 
  -1   3   1   20.26    0.73 
  -1   3   1   19.73    0.70 
   0   3   1   71.29    2.51 
   0   3   1   71.78    2.42 
   0   3   1   74.54    2.25 
   0   3   1   75.44    2.51 
   1   3   1    0.70    0.11 
   1   3   1    0.59    0.10 
   1   3   1    0.49    0.11 
   2   3   1   12.51    0.53 
   2   3   1   12.79    0.54 
   2   3   1   12.21    0.55 
   3   3   1    2.48    0.24 
   3   3   1    2.66    0.22 
   4   3   1   38.51    1.40 
   5   3   1   27.29    1.15 
  -6  -3  -1   32.12    0.92 
   6   3   1   32.69    1.36 
   6   3   1   34.19    0.97 
  -7  -3  -1   30.50    0.83 
  -7  -3  -1   31.11    0.89 
  -7  -3  -1   30.95    0.88 
   7   3   1   31.38    0.93 
   7   3   1   32.15    0.90 
  -8  -3  -1    2.61    0.17 
   8   3   1    2.82    0.18 
   8   3   1    2.77    0.17 
  -9  -3  -1    2.92    0.17 
   9   3   1    3.24    0.17 
   9   3   1    2.50    0.16 
 -10  -3  -1    4.62    0.18 
  10   3   1    4.67    0.18 
  10  -4  -1   13.06    0.37 
 -10   4   1   13.22    0.42 
 -10   4   1   12.82    0.38 
   9  -4  -1    4.58    0.19 
  -9   4   1    4.42    0.20 
  -9   4   1    4.72    0.22 
   8  -4  -1    2.71    0.15 
  -8   4   1    2.34    0.16 
  -8   4   1    2.15    0.16 
  -8   4   1    2.46    0.17 
   7  -4  -1    8.10    0.28 
  -7   4   1    8.17    0.30 
  -7   4   1    7.72    0.30 
  -7   4   1    7.77    0.32 
  -6   4   1   20.54    0.92 
  -6   4   1   19.61    0.60 
  -5   4   1    6.94    0.44 
  -4   4   1   29.18    1.09 
  -3   4   1   47.58    1.58 
  -2   4   1   10.07    0.46 
  -1   4   1    0.25    0.09 
   0   4   1    7.97    0.39 
   1   4   1   44.85    1.54 
   1   4   1   42.28    1.47 
   1   4   1   45.21    1.54 
   2   4   1   19.39    0.81 
   2   4   1   20.84    0.79 
   2   4   1   20.99    0.79 
   3   4   1    7.94    0.47 
   3   4   1    8.47    0.41 
   3   4   1    8.14    0.40 
   4   4   1   54.51    1.93 
   5   4   1    0.71    0.20 
   5   4   1    0.85    0.11 
  -6  -4  -1    5.69    0.22 
   6   4   1    5.63    0.27 
  -7  -4  -1   24.17    0.67 
   7   4   1   24.48    0.76 
   7   4   1   24.52    0.72 
  -8  -4  -1    2.83    0.17 
   8   4   1    2.73    0.17 
   8   4   1    2.59    0.18 
  -9  -4  -1    1.25    0.11 
   9   4   1    1.38    0.11 
   9   4   1    1.26    0.11 
  10   4   1    1.02    0.07 
   9  -5  -1   19.06    0.53 
  -9   5   1   19.34    0.59 
   8  -5  -1    2.71    0.15 
  -8   5   1    2.66    0.16 
  -8   5   1    2.71    0.17 
  -8   5   1    2.53    0.17 
   7  -5  -1    0.36    0.07 
  -7   5   1    0.47    0.09 
  -7   5   1    0.26    0.08 
  -7   5   1    0.47    0.08 
  -6   5   1    3.46    0.18 
  -6   5   1    3.41    0.18 
  -6   5   1    3.53    0.37 
  -5   5   1    1.52    0.25 
  -4   5   1   20.17    0.86 
  -3   5   1    2.10    0.23 
  -2   5   1   38.35    1.34 
  -1   5   1   77.08    2.45 
   0   5   1   10.83    0.52 
   1   5   1   30.51    1.12 
   2   5   1    0.23    0.13 
   3   5   1   50.62    1.82 
   4   5   1    6.95    0.30 
   4   5   1    7.70    0.53 
   5   5   1    6.81    0.28 
   5   5   1    6.91    0.29 
  -6  -5  -1    3.81    0.18 
   6   5   1    3.72    0.20 
   6   5   1    3.86    0.23 
  -7  -5  -1    0.03    0.05 
   7   5   1    0.07    0.06 
   7   5   1    0.00    0.06 
  -8  -5  -1    0.40    0.06 
   8   5   1    0.27    0.08 
   8   5   1    0.32    0.07 
  -9  -5  -1    0.06    0.05 
   9   5   1    0.02    0.04 
  10  -6  -1    0.05    0.04 
   9  -6  -1    0.07    0.05 
  -9   6   1    0.08    0.06 
  -9   6   1    0.12    0.06 
   8  -6  -1    3.10    0.16 
  -8   6   1    3.31    0.18 
  -8   6   1    3.15    0.18 
   7  -6  -1    6.58    0.24 
  -7   6   1    6.48    0.28 
  -7   6   1    6.91    0.27 
   6  -6  -1    4.13    0.19 
  -6   6   1    4.27    0.21 
  -6   6   1    4.18    0.20 
  -5   6   1    4.92    0.42 
  -5   6   1    4.61    0.21 
  -4   6   1    6.62    0.46 
  -3   6   1   42.56    1.55 
  -2   6   1   73.75    2.42 
  -1   6   1    1.19    0.20 
   0   6   1   11.46    0.59 
   1   6   1    0.00    0.09 
   2   6   1    6.26    0.44 
   3   6   1    0.56    0.18 
   3   6   1    0.84    0.12 
  -4  -6  -1   26.97    0.74 
   4   6   1   26.34    0.81 
   4   6   1   26.92    0.77 
  -5  -6  -1   13.29    0.41 
   5   6   1   13.44    0.44 
   5   6   1   12.53    0.46 
   5   6   1   13.48    0.43 
  -6  -6  -1    1.66    0.12 
   6   6   1    1.43    0.13 
   6   6   1    1.62    0.16 
  -7  -6  -1   11.06    0.34 
   7   6   1   11.71    0.41 
   7   6   1   11.30    0.37 
   8   6   1    0.25    0.05 
   8   6   1    0.06    0.06 
   9  -7  -1    3.19    0.13 
  -9   7   1    3.36    0.15 
   8  -7  -1    6.31    0.23 
  -8   7   1    6.58    0.25 
  -8   7   1    6.47    0.26 
   7  -7  -1   11.53    0.36 
  -7   7   1   11.47    0.40 
  -7   7   1   11.47    0.39 
   6  -7  -1   30.05    0.82 
  -6   7   1   31.35    0.87 
   5  -7  -1    0.01    0.06 
  -5   7   1   -0.10    0.05 
  -5   7   1    0.07    0.05 
  -4   7   1    2.60    0.16 
  -3   7   1    1.64    0.27 
  -2   7   1   10.78    0.61 
  -1   7   1   33.94    1.32 
   0   7   1    0.48    0.16 
   1   7   1   21.44    0.97 
   2   7   1   25.11    0.71 
   2   7   1   23.67    1.10 
  -3  -7  -1    9.83    0.33 
   3   7   1   10.20    0.36 
   3   7   1   10.10    0.38 
  -4  -7  -1   12.32    0.38 
   4   7   1   11.66    0.44 
   4   7   1   11.70    0.39 
   4   7   1   11.89    0.41 
  -5  -7  -1    3.45    0.16 
   5   7   1    3.25    0.19 
   5   7   1    3.18    0.17 
   5   7   1    2.84    0.20 
  -6  -7  -1    2.79    0.15 
   6   7   1    2.80    0.15 
   6   7   1    2.76    0.18 
  -7  -7  -1    2.05    0.11 
   7   7   1    2.30    0.15 
   8  -8  -1    0.09    0.05 
  -8   8   1    0.10    0.06 
   7  -8  -1   15.92    0.46 
  -7   8   1   15.92    0.51 
  -7   8   1   16.27    0.49 
   6  -8  -1    0.06    0.05 
  -6   8   1    0.11    0.07 
   5  -8  -1    7.33    0.26 
  -5   8   1    7.19    0.29 
   4  -8  -1    0.07    0.06 
  -4   8   1    0.10    0.07 
  -4   8   1    0.16    0.06 
  -3   8   1    9.52    0.33 
  -3   8   1    9.28    0.30 
  -2   8   1    0.50    0.09 
  -2   8   1    0.73    0.08 
  -1   8   1    0.39    0.07 
  -1   8   1    0.46    0.08 
   0   8   1    8.55    0.27 
   0   8   1    8.34    0.31 
  -1  -8  -1    1.11    0.11 
   1   8   1    1.44    0.11 
   1   8   1    1.30    0.12 
  -2  -8  -1   14.33    0.44 
   2   8   1   14.82    0.47 
  -3  -8  -1    3.95    0.18 
   3   8   1    3.99    0.23 
   3   8   1    4.13    0.20 
  -4  -8  -1    0.14    0.06 
   4   8   1    0.06    0.08 
   4   8   1    0.05    0.06 
  -5  -8  -1    0.00    0.05 
   5   8   1    0.02    0.07 
   5   8   1    0.00    0.06 
  -6  -8  -1    0.10    0.05 
   6   8   1   -0.02    0.05 
   6   8   1    0.11    0.07 
  -7  -8  -1    2.10    0.09 
   7  -9  -1    1.40    0.09 
  -7   9   1    1.39    0.10 
   6  -9  -1    4.66    0.18 
  -6   9   1    4.69    0.20 
   5  -9  -1    6.96    0.24 
  -5   9   1    6.95    0.26 
   4  -9  -1    0.06    0.05 
  -4   9   1    0.01    0.06 
  -4   9   1    0.09    0.05 
   3  -9  -1   12.62    0.39 
  -3   9   1   13.12    0.38 
  -3   9   1   13.52    0.43 
   2  -9  -1    3.38    0.16 
  -2   9   1    2.92    0.15 
  -2   9   1    3.39    0.18 
   1  -9  -1   14.70    0.43 
  -1   9   1   14.84    0.47 
  -1   9   1   14.22    0.42 
   0  -9  -1    0.16    0.06 
   0   9   1    0.26    0.06 
   0   9   1    0.25    0.07 
  -1  -9  -1    1.50    0.11 
   1   9   1    1.12    0.12 
  -2  -9  -1    2.71    0.14 
   2   9   1    2.53    0.16 
  -3  -9  -1    1.98    0.13 
   3   9   1    1.84    0.14 
  -4  -9  -1    7.94    0.26 
   4   9   1    7.95    0.31 
   4   9   1    8.18    0.29 
  -5  -9  -1    3.03    0.13 
   5   9   1    2.95    0.17 
   5   9   1    3.09    0.15 
  -6  -9  -1    5.83    0.18 
   6 -10  -1    3.38    0.13 
  -6  10   1    3.29    0.14 
   5 -10  -1    0.36    0.06 
  -5  10   1    0.44    0.07 
   4 -10  -1    0.75    0.08 
  -4  10   1    0.77    0.09 
   3 -10  -1    0.78    0.08 
  -3  10   1    0.55    0.07 
  -3  10   1    0.68    0.09 
   2 -10  -1    3.63    0.16 
  -2  10   1    3.55    0.16 
  -2  10   1    3.59    0.18 
   1 -10  -1    0.45    0.07 
  -1  10   1    0.28    0.07 
  -1  10   1    0.39    0.06 
   0 -10  -1    9.79    0.30 
   0  10   1    9.24    0.33 
  -1 -10  -1   13.22    0.39 
   1  10   1   13.05    0.42 
  -2 -10  -1    3.49    0.16 
   2  10   1    4.07    0.18 
  -3 -10  -1    6.20    0.21 
   3  10   1    6.24    0.23 
  -4 -10  -1    6.19    0.20 
   4  10   1    6.08    0.21 
   4 -11  -1    0.04    0.04 
  -4  11   1   -0.02    0.04 
   3 -11  -1    9.72    0.28 
  -3  11   1    9.37    0.30 
   2 -11  -1    4.27    0.16 
  -2  11   1    3.94    0.17 
   1 -11  -1    3.08    0.13 
  -1  11   1    2.88    0.14 
   0 -11  -1    2.91    0.13 
   0  11   1    2.48    0.14 
  -1 -11  -1    1.87    0.10 
   1  11   1    1.50    0.11 
  -2 -11  -1    3.83    0.14 
   2  11   1    3.98    0.16 
   1  12  -2    5.31    0.16 
   0  12  -2    1.70    0.08 
  -1  12  -2    0.84    0.07 
  -2  12  -2    1.13    0.07 
  -3  12  -2    2.18    0.09 
   4  11  -2    0.97    0.07 
   3  11  -2    0.37    0.05 
   3  11  -2    0.45    0.06 
  -3 -11   2    0.36    0.05 
   2  11  -2    0.32    0.06 
   2  11  -2    0.38    0.05 
   1  11  -2    0.55    0.07 
   1  11  -2    0.54    0.06 
   0  11  -2    4.15    0.16 
   0  11  -2    4.40    0.18 
  -1  11  -2    1.05    0.09 
  -1  11  -2    1.03    0.08 
  -2  11  -2    0.76    0.08 
  -2  11  -2    0.70    0.07 
  -3  11  -2    1.23    0.10 
  -3  11  -2    1.01    0.08 
  -4  11  -2    4.49    0.17 
  -4  11  -2    4.62    0.16 
  -5  11  -2    3.03    0.12 
  -5  11  -2    3.10    0.12 
   5  10  -2    0.02    0.04 
  -5 -10   2   -0.05    0.04 
   4  10  -2    7.41    0.25 
   4  10  -2    8.08    0.27 
  -4 -10   2    7.75    0.25 
   3  10  -2    8.75    0.27 
   3  10  -2    9.07    0.30 
   2  10  -2    1.09    0.09 
   2  10  -2    0.97    0.10 
   1  10  -2    4.35    0.17 
   1  10  -2    4.02    0.19 
   0  10  -2    6.15    0.24 
   0  10  -2    6.37    0.22 
  -1  10  -2   13.22    0.41 
  -1  10  -2   13.52    0.38 
  -2  10  -2    6.95    0.23 
  -2  10  -2    7.20    0.26 
  -3  10  -2    0.82    0.08 
  -3  10  -2    0.65    0.08 
  -4  10  -2    3.30    0.14 
  -4  10  -2    3.07    0.16 
  -5  10  -2    0.17    0.05 
  -5  10  -2    0.26    0.05 
  -6  10  -2    7.49    0.25 
  -6  10  -2    7.57    0.23 
  -7  -9   2    0.87    0.07 
   6   9  -2    4.89    0.19 
  -6  -9   2    5.07    0.18 
   5   9  -2    7.60    0.27 
  -5  -9   2    7.60    0.25 
   4   9  -2   14.97    0.42 
   4   9  -2   15.29    0.47 
  -4  -9   2   15.11    0.44 
   3   9  -2    8.49    0.27 
   3   9  -2    8.45    0.31 
   2   9  -2    5.16    0.22 
   2   9  -2    5.22    0.20 
   1   9  -2    0.02    0.05 
   1   9  -2   -0.01    0.04 
   0   9  -2    6.60    0.26 
   0   9  -2    7.11    0.23 
  -1   9  -2   30.20    0.76 
  -1   9  -2   30.57    0.83 
  -2   9  -2    1.56    0.12 
  -2   9  -2    1.31    0.10 
  -3   9  -2    3.92    0.16 
  -3   9  -2    3.72    0.18 
  -4   9  -2    1.26    0.12 
  -4   9  -2    1.23    0.10 
  -5   9  -2   14.27    0.40 
  -5   9  -2   14.37    0.44 
  -6   9  -2    2.49    0.14 
  -6   9  -2    2.64    0.12 
  -7   9  -2    0.57    0.07 
  -7   9  -2    0.75    0.07 
   7  -9   2    0.79    0.07 
  -8   9  -2    4.56    0.16 
   8  -9   2    4.46    0.16 
  -8  -8   2    7.17    0.21 
   7   8  -2    0.38    0.06 
   7   8  -2    0.38    0.08 
  -7  -8   2    0.54    0.07 
   6   8  -2    4.28    0.25 
   6   8  -2    4.39    0.20 
  -6  -8   2    4.16    0.18 
   5   8  -2   12.03    0.40 
  -5  -8   2   11.90    0.37 
   4   8  -2    3.11    0.17 
   4   8  -2    2.62    0.14 
   3   8  -2    0.51    0.08 
   3   8  -2    0.37    0.06 
   2   8  -2    3.59    0.18 
   2   8  -2    4.12    0.17 
   1   8  -2    2.98    0.30 
   1   8  -2    2.97    0.16 
   0   8  -2    9.89    0.54 
  -2   8  -2   17.69    0.52 
  -3   8  -2    1.44    0.12 
  -3   8  -2    1.55    0.10 
  -4   8  -2    2.36    0.15 
  -4   8  -2    2.48    0.13 
  -5   8  -2    4.06    0.17 
  -5   8  -2    4.25    0.19 
  -6   8  -2    0.02    0.05 
  -6   8  -2    0.04    0.06 
  -7   8  -2    1.13    0.11 
  -7   8  -2    1.22    0.10 
   7  -8   2    1.19    0.10 
  -8   8  -2    0.01    0.05 
   8  -8   2    0.07    0.04 
   8   7  -2    0.88    0.10 
   8   7  -2    0.95    0.09 
  -8  -7   2    0.75    0.07 
   7   7  -2   -0.03    0.06 
   7   7  -2    0.07    0.06 
  -7  -7   2    0.05    0.05 
   6   7  -2    3.42    0.18 
   6   7  -2    2.91    0.20 
  -6  -7   2    3.03    0.16 
   5   7  -2    0.09    0.07 
  -5  -7   2    0.29    0.06 
   4   7  -2    3.92    0.18 
   4   7  -2    4.11    0.20 
   3   7  -2    0.17    0.12 
   2   7  -2   33.27    1.28 
   1   7  -2    3.54    0.30 
   0   7  -2    2.28    0.24 
  -1   7  -2    7.63    0.42 
  -2   7  -2    0.25    0.12 
  -3   7  -2   11.34    0.58 
  -4   7  -2    1.02    0.20 
  -5   7  -2    6.46    0.25 
  -5   7  -2    6.26    0.22 
  -6   7  -2    0.36    0.07 
  -6   7  -2    0.25    0.06 
  -7   7  -2   -0.07    0.05 
  -7   7  -2   -0.04    0.05 
   7  -7   2    0.02    0.05 
  -8   7  -2    4.96    0.21 
   8  -7   2    5.10    0.20 
  -9   7  -2    0.35    0.06 
   9  -7   2    0.37    0.05 
  -9  -6   2    6.01    0.19 
   8   6  -2    2.62    0.17 
  -8  -6   2    2.42    0.13 
   7   6  -2    6.97    0.31 
   7   6  -2    7.13    0.28 
  -7  -6   2    7.20    0.26 
   6   6  -2    0.71    0.12 
   6   6  -2    0.78    0.10 
  -6  -6   2    0.89    0.10 
   5   6  -2   14.30    0.45 
  -5  -6   2   14.14    0.42 
   4   6  -2    2.42    0.33 
   3   6  -2    6.00    0.41 
   2   6  -2   47.38    1.64 
   1   6  -2    6.79    0.37 
   0   6  -2   30.32    1.06 
  -1   6  -2    9.65    0.44 
  -2   6  -2   36.46    1.25 
  -3   6  -2    5.52    0.34 
  -4   6  -2    0.18    0.12 
  -5   6  -2   27.95    1.12 
  -6   6  -2    0.64    0.09 
  -6   6  -2    0.71    0.07 
  -7   6  -2   17.74    0.54 
   7  -6   2   17.40    0.51 
  -8   6  -2    4.59    0.21 
   8  -6   2    4.58    0.19 
  -9   6  -2   13.37    0.43 
  -9   6  -2   13.97    0.42 
   9  -6   2   13.70    0.39 
  10  -6   2    4.34    0.15 
   9   5  -2    6.35    0.22 
   9   5  -2    6.41    0.26 
  -9  -5   2    6.71    0.22 
   8   5  -2   14.06    0.48 
   8   5  -2   13.30    0.42 
  -8  -5   2   13.32    0.41 
   7   5  -2   10.59    0.37 
   7   5  -2   10.09    0.40 
   7   5  -2   11.10    0.37 
  -7  -5   2   10.93    0.35 
   6   5  -2    0.74    0.10 
   6   5  -2    0.91    0.12 
  -6  -5   2    0.92    0.10 
   5   5  -2   11.76    0.67 
   4   5  -2   16.80    0.78 
   3   5  -2   21.73    0.88 
   2   5  -2    0.54    0.13 
   1   5  -2   34.94    1.16 
   0   5  -2   58.22    1.84 
   0   5  -2   60.02    1.97 
  -1   5  -2    5.14    0.27 
  -1   5  -2    5.23    0.19 
  -1   5  -2    5.39    0.27 
  -2   5  -2   42.83    1.18 
  -2   5  -2   42.77    1.38 
  -3   5  -2    8.68    0.41 
  -3   5  -2    8.64    0.29 
  -4   5  -2   10.74    0.37 
  -4   5  -2   12.02    0.54 
  -5   5  -2   13.50    0.44 
  -5   5  -2   12.76    0.64 
  -6   5  -2   40.35    1.04 
  -6   5  -2   37.73    1.47 
  -6   5  -2   37.41    1.12 
  -7   5  -2   28.69    0.82 
  -7   5  -2   30.00    0.89 
   7  -5   2   28.25    0.78 
  -8   5  -2    4.93    0.22 
  -8   5  -2    4.39    0.22 
   8  -5   2    5.04    0.20 
  -9   5  -2   11.21    0.37 
  -9   5  -2   11.54    0.39 
   9  -5   2   11.58    0.35 
 -10   5  -2    0.10    0.05 
  10  -5   2    0.09    0.04 
  10   4  -2    1.55    0.09 
 -10  -4   2    1.45    0.11 
   9   4  -2    0.11    0.06 
   9   4  -2    0.12    0.06 
  -9  -4   2    0.16    0.05 
   8   4  -2    2.24    0.18 
   8   4  -2    2.75    0.16 
  -8  -4   2    2.56    0.17 
  -8  -4   2    2.45    0.15 
   7   4  -2    9.75    0.36 
   7   4  -2   10.11    0.39 
   7   4  -2   10.32    0.36 
   6   4  -2    1.81    0.16 
   6   4  -2    1.55    0.29 
   5   4  -2    6.46    0.45 
   4   4  -2    9.91    0.53 
   3   4  -2    9.01    0.45 
   2   4  -2   15.94    0.62 
   1   4  -2    5.56    0.25 
   1   4  -2    5.24    0.26 
   0   4  -2    2.27    0.14 
   0   4  -2    2.26    0.12 
  -1   4  -2    3.70    0.18 
  -1   4  -2    4.01    0.18 
  -2   4  -2    5.76    0.26 
  -2   4  -2    5.87    0.28 
  -3   4  -2   32.73    1.14 
  -3   4  -2   33.55    1.14 
  -3   4  -2   36.37    0.97 
  -4   4  -2    1.67    0.11 
  -4   4  -2    1.57    0.18 
  -4   4  -2    1.88    0.19 
  -5   4  -2   16.54    0.53 
  -5   4  -2   17.45    0.73 
  -5   4  -2   16.92    0.73 
  -6   4  -2   16.91    0.77 
  -6   4  -2   15.68    0.53 
  -7   4  -2   10.35    0.36 
  -7   4  -2   10.70    0.39 
  -7   4  -2    9.66    0.36 
   7  -4   2   10.60    0.34 
  -8   4  -2   10.73    0.39 
  -8   4  -2   10.50    0.40 
  -8   4  -2   10.90    0.38 
   8  -4   2   11.50    0.36 
  -9   4  -2    1.70    0.13 
  -9   4  -2    1.45    0.13 
   9  -4   2    1.44    0.11 
 -10   4  -2    0.47    0.07 
  10  -4   2    0.65    0.06 
  10   3  -2   12.66    0.40 
  10   3  -2   12.76    0.39 
 -10  -3   2   12.31    0.40 
   9   3  -2    0.07    0.06 
   9   3  -2    0.17    0.07 
  -9  -3   2    0.12    0.06 
  -9  -3   2    0.17    0.07 
   8   3  -2    7.52    0.30 
   8   3  -2    7.65    0.32 
  -8  -3   2    7.92    0.28 
   7   3  -2    4.23    0.23 
  -7  -3   2    4.23    0.19 
   6   3  -2    1.22    0.12 
   6   3  -2    1.64    0.29 
   5   3  -2   11.07    0.58 
   4   3  -2    8.07    0.34 
   4   3  -2    7.48    0.43 
   4   3  -2    7.81    0.34 
   3   3  -2   28.60    1.00 
   2   3  -2    1.60    0.14 
   2   3  -2    1.33    0.16 
   2   3  -2    1.26    0.13 
   1   3  -2    3.31    0.24 
   1   3  -2    3.80    0.18 
   0   3  -2    0.13    0.03 
   0   3  -2   -0.01    0.07 
  -1   3  -2    6.98    0.33 
  -1   3  -2    6.77    0.25 
  -2   3  -2    0.94    0.10 
  -2   3  -2    0.90    0.10 
  -2   3  -2    0.92    0.09 
  -2   3  -2    1.09    0.12 
  -3   3  -2   20.57    0.60 
  -3   3  -2   21.24    0.74 
  -4   3  -2   27.13    0.98 
  -4   3  -2   27.80    0.79 
  -5   3  -2    0.78    0.17 
  -5   3  -2    0.60    0.08 
  -6   3  -2    6.14    0.43 
  -6   3  -2    5.93    0.25 
  -6   3  -2    5.78    0.41 
  -7   3  -2   12.32    0.44 
  -7   3  -2   12.44    0.41 
  -7   3  -2   12.04    0.41 
   7  -3   2   12.16    0.38 
  -8   3  -2    0.06    0.06 
  -8   3  -2    0.02    0.06 
  -8   3  -2    0.04    0.06 
  -8   3  -2   -0.01    0.06 
   8  -3   2   -0.09    0.05 
  -9   3  -2    8.55    0.30 
  -9   3  -2    8.90    0.33 
   9  -3   2    9.03    0.30 
 -10   3  -2    2.05    0.13 
  10  -3   2    2.16    0.11 
  11   2  -2   10.99    0.32 
 -11  -2   2   10.90    0.33 
  10   2  -2    3.86    0.17 
  10   2  -2    3.15    0.17 
 -10  -2   2    3.29    0.18 
   9   2  -2    3.85    0.20 
   9   2  -2    3.27    0.20 
  -9  -2   2    3.52    0.20 
   8   2  -2    4.11    0.22 
   8   2  -2    4.11    0.21 
  -8  -2   2    3.88    0.21 
  -8  -2   2    3.79    0.21 
  -8  -2   2    3.91    0.18 
   7   2  -2    3.01    0.18 
   7   2  -2    2.74    0.37 
  -7  -2   2    2.56    0.15 
   6   2  -2   42.36    1.58 
   5   2  -2    5.25    0.33 
   5   2  -2    4.55    0.34 
   4   2  -2    0.60    0.11 
   4   2  -2    0.43    0.11 
   4   2  -2    0.62    0.12 
   3   2  -2    5.33    0.29 
   3   2  -2    5.30    0.29 
   3   2  -2    5.11    0.26 
   3   2  -2    5.32    0.25 
   2   2  -2   21.47    0.81 
   2   2  -2   22.50    0.74 
   1   2  -2  357.12   10.32 
   1   2  -2  356.25   11.27 
   0   2  -2   64.16    2.11 
  -1   2  -2   16.28    0.52 
  -1   2  -2   17.79    0.62 
  -2   2  -2    4.33    0.21 
  -2   2  -2    4.38    0.21 
  -2   2  -2    4.12    0.20 
  -3   2  -2   37.36    1.31 
  -3   2  -2   37.07    1.20 
  -4   2  -2   87.81    2.78 
  -4   2  -2   92.34    2.43 
  -5   2  -2    0.66    0.08 
  -5   2  -2    0.48    0.13 
  -6   2  -2   25.26    0.99 
  -6   2  -2   22.15    0.71 
  -7   2  -2   16.79    0.57 
  -7   2  -2   16.62    0.85 
  -7   2  -2   17.67    0.54 
  -7   2  -2   17.12    0.85 
  -8   2  -2    1.79    0.14 
  -8   2  -2    1.79    0.14 
  -8   2  -2    2.35    0.16 
   8  -2   2    2.30    0.14 
  -9   2  -2    1.30    0.12 
  -9   2  -2    1.38    0.13 
   9  -2   2    1.39    0.11 
 -10   2  -2    0.44    0.06 
 -10   2  -2    0.44    0.07 
  10  -2   2    0.38    0.06 
  11   1  -2    0.72    0.07 
 -11  -1   2    0.59    0.07 
  10   1  -2    0.07    0.06 
  10   1  -2   -0.01    0.05 
 -10  -1   2    0.06    0.06 
   9   1  -2    5.21    0.24 
   9   1  -2    5.50    0.25 
  -9  -1   2    5.25    0.24 
  -9  -1   2    5.50    0.26 
   8   1  -2    3.82    0.21 
   8   1  -2    3.79    0.20 
  -8  -1   2    3.91    0.19 
  -8  -1   2    3.43    0.19 
  -8  -1   2    3.74    0.21 
  -8  -1   2    3.64    0.17 
   7   1  -2   12.32    0.42 
  -7  -1   2   11.96    0.40 
   6   1  -2   11.43    0.61 
   5   1  -2   51.98    1.76 
   4   1  -2   18.82    0.80 
   4   1  -2   18.81    0.74 
  -4  -1   2   19.35    0.72 
  -4  -1   2   18.89    0.71 
   3   1  -2   -0.01    0.06 
   3   1  -2    0.00    0.06 
   3   1  -2    0.00    0.06 
   3   1  -2    0.03    0.05 
  -3  -1   2    0.06    0.07 
  -3  -1   2    0.09    0.06 
   2   1  -2    0.20    0.05 
   2   1  -2    0.28    0.07 
   2   1  -2    0.30    0.07 
   2   1  -2    0.22    0.07 
  -2  -1   2    0.10    0.03 
   1   1  -2  285.38    9.01 
   0   1  -2   59.38    1.93 
  -1   1  -2   72.56    2.29 
  -1   1  -2   70.42    2.12 
  -1   1  -2   73.73    2.33 
  -2   1  -2   10.62    0.42 
  -2   1  -2   10.22    0.39 
  -2   1  -2   10.51    0.39 
  -2   1  -2   10.43    0.39 
  -2   1  -2   10.15    0.39 
  -3   1  -2    9.09    0.38 
  -3   1  -2    9.31    0.42 
  -3   1  -2    8.81    0.38 
  -3   1  -2    8.70    0.39 
  -4   1  -2    0.86    0.08 
  -4   1  -2    0.78    0.13 
  -4   1  -2    0.81    0.12 
  -4   1  -2    0.79    0.14 
  -5   1  -2   55.83    1.92 
  -5   1  -2   50.44    1.76 
  -5   1  -2   52.26    1.47 
  -6   1  -2    2.08    0.13 
  -6   1  -2    1.80    0.26 
  -7   1  -2    6.95    0.52 
  -7   1  -2    6.94    0.29 
  -7   1  -2    7.00    0.28 
  -8   1  -2    0.81    0.11 
  -8   1  -2    0.72    0.10 
  -8   1  -2    0.95    0.10 
   8  -1   2    0.66    0.09 
  -9   1  -2    0.57    0.09 
  -9   1  -2    0.59    0.09 
   9  -1   2    0.43    0.07 
 -10   1  -2   10.17    0.34 
 -10   1  -2    9.85    0.32 
  11   0  -2    2.21    0.12 
 -11   0   2    2.12    0.12 
  10   0  -2    0.24    0.07 
 -10   0   2    0.22    0.07 
   9   0  -2    1.48    0.13 
   9   0  -2    1.89    0.15 
  -9   0   2    1.56    0.14 
  -9   0   2    1.49    0.12 
  -9   0   2    1.52    0.14 
   8   0  -2   38.88    1.11 
   8   0  -2   38.99    1.08 
  -8   0   2   38.18    1.07 
  -8   0   2   38.10    1.09 
  -8   0   2   39.65    1.15 
   7   0  -2    1.43    0.13 
  -7   0   2    1.45    0.12 
   6   0  -2   20.79    0.89 
   5   0  -2    7.36    0.42 
  -5   0   2    7.26    0.39 
   4   0  -2   18.75    0.71 
  -4   0   2   17.86    0.69 
   3   0  -2    0.82    0.12 
   3   0  -2    1.00    0.14 
   3   0  -2    0.91    0.14 
   3   0  -2    0.95    0.09 
  -3   0   2    0.72    0.12 
  -3   0   2    1.07    0.13 
   2   0  -2  126.95    4.32 
   2   0  -2  122.98    4.31 
   2   0  -2  128.01    3.77 
   2   0  -2  134.46    4.06 
  -2   0   2  126.77    4.34 
  -2   0   2  126.79    4.32 
  -2   0   2  125.26    3.76 
   1   0  -2  233.24    6.63 
   1   0  -2  229.23    7.62 
   1   0  -2  220.24    7.62 
  -1   0   2  226.58    7.63 
  -1   0   2  230.71    7.63 
   0   0  -2    2.33    0.12 
   0   0  -2    2.45    0.12 
   0   0  -2    2.42    0.12 
   0   0   2    2.37    0.13 
  -1   0  -2   65.47    2.17 
  -1   0  -2   70.33    2.00 
  -1   0  -2   67.19    2.28 
  -1   0  -2   65.88    2.29 
   1   0   2   64.44    2.29 
   1   0   2   69.55    2.31 
  -2   0  -2  116.06    3.98 
  -2   0  -2  116.47    3.46 
  -2   0  -2  118.26    3.96 
  -2   0  -2  122.12    3.76 
   2   0   2  114.95    3.47 
   2   0   2  112.80    4.00 
   2   0   2  115.34    3.98 
  -3   0  -2   36.47    1.37 
  -3   0  -2   36.67    1.20 
  -3   0  -2   37.36    1.35 
   3   0   2   36.60    1.22 
  -4   0  -2    3.65    0.26 
  -4   0  -2    3.51    0.15 
  -4   0  -2    3.23    0.24 
  -5   0  -2    0.08    0.10 
  -5   0  -2    0.28    0.07 
  -6   0  -2   27.79    1.09 
  -6   0  -2   25.55    0.79 
  -7   0  -2    1.77    0.14 
  -7   0  -2    1.87    0.29 
  -7   0  -2    1.95    0.14 
   7   0   2    1.66    0.14 
  -8   0  -2    5.47    0.24 
  -8   0  -2    5.51    0.26 
  -8   0  -2    5.99    0.25 
   8   0   2    5.44    0.26 
   8   0   2    5.30    0.22 
  -9   0  -2   21.03    0.62 
  -9   0  -2   21.38    0.64 
   9   0   2   21.14    0.57 
   9   0   2   20.42    0.63 
 -10   0  -2    0.12    0.05 
 -10   0  -2    0.15    0.06 
  10   0   2    0.08    0.06 
  11  -1  -2    4.28    0.17 
 -11   1   2    4.04    0.17 
  10  -1  -2    8.71    0.32 
 -10   1   2    8.73    0.32 
 -10   1   2    9.23    0.31 
   9  -1  -2    2.77    0.18 
  -9   1   2    2.68    0.16 
  -9   1   2    2.43    0.17 
  -9   1   2    2.36    0.16 
   8  -1  -2    0.07    0.06 
   8  -1  -2    0.05    0.06 
   8  -1  -2   -0.06    0.05 
  -8   1   2   -0.03    0.05 
  -8   1   2    0.08    0.07 
  -8   1   2   -0.01    0.06 
   7  -1  -2   24.07    0.72 
  -7   1   2   23.76    0.74 
  -7   1   2   24.29    0.71 
  -6   1   2    2.30    0.26 
   5  -1  -2   18.60    0.77 
  -5   1   2   18.38    0.75 
   4  -1  -2  134.62    4.12 
  -4   1   2  137.36    4.11 
   3  -1  -2    8.52    0.33 
  -3   1   2    8.35    0.37 
  -3   1   2    8.41    0.41 
   2  -1  -2   43.10    1.39 
   2  -1  -2   42.62    1.59 
  -2   1   2   45.43    1.61 
  -2   1   2   44.61    1.40 
  -2   1   2   47.39    1.60 
   1  -1  -2    1.55    0.12 
  -1   1   2    1.36    0.12 
  -1   1   2    1.41    0.12 
   0  -1  -2  141.55    4.70 
   0  -1  -2  134.32    4.08 
   0   1   2  141.37    4.10 
   0   1   2  139.26    4.70 
  -1  -1  -2   49.40    1.53 
  -1  -1  -2   48.84    1.75 
  -1  -1  -2   51.43    1.76 
   1   1   2   48.22    1.54 
   1   1   2   51.52    1.78 
  -2  -1  -2    8.40    0.36 
  -2  -1  -2    8.05    0.38 
  -2  -1  -2    8.34    0.41 
   2   1   2    8.54    0.37 
  -3  -1  -2  148.40    4.39 
   3   1   2  144.36    4.41 
  -4  -1  -2    7.81    0.41 
  -4  -1  -2    8.34    0.27 
   4   1   2    7.66    0.43 
  -5  -1  -2   18.57    0.57 
  -5  -1  -2   18.60    0.79 
  -6  -1  -2    5.38    0.41 
  -6  -1  -2    5.45    0.22 
  -6  -1  -2    4.38    0.22 
   6   1   2    6.06    0.24 
  -7  -1  -2    5.36    0.24 
  -7  -1  -2    5.00    0.22 
   7   1   2    4.86    0.20 
   7   1   2    4.77    0.23 
  -8  -1  -2    2.80    0.16 
  -8  -1  -2    2.49    0.17 
  -8  -1  -2    2.59    0.16 
   8   1   2    2.58    0.16 
   8   1   2    2.08    0.14 
   8   1   2    2.38    0.17 
  -9  -1  -2    0.42    0.07 
  -9  -1  -2    0.46    0.08 
   9   1   2    0.32    0.08 
 -10  -1  -2    9.22    0.30 
  10   1   2    9.23    0.31 
  11  -2  -2    0.46    0.06 
 -11   2   2    0.47    0.06 
  10  -2  -2    8.74    0.32 
 -10   2   2    8.50    0.31 
 -10   2   2    9.37    0.31 
   9  -2  -2    4.83    0.23 
   9  -2  -2    4.51    0.19 
  -9   2   2    5.07    0.23 
  -9   2   2    4.36    0.22 
   8  -2  -2    5.35    0.25 
   8  -2  -2    5.62    0.22 
  -8   2   2    5.29    0.25 
  -8   2   2    5.76    0.25 
  -8   2   2    6.14    0.25 
   7  -2  -2    1.67    0.13 
  -7   2   2    1.71    0.13 
  -7   2   2    1.57    0.26 
  -7   2   2    1.69    0.13 
  -6   2   2    3.46    0.31 
  -6   2   2    3.09    0.16 
  -5   2   2   13.31    0.42 
  -5   2   2   14.30    0.64 
   4  -2  -2    7.46    0.38 
  -4   2   2    6.87    0.37 
  -4   2   2    6.65    0.23 
   3  -2  -2   56.42    1.75 
  -3   2   2   56.44    1.76 
  -3   2   2   52.85    1.97 
   2  -2  -2   68.01    2.08 
  -2   2   2   65.89    2.39 
  -2   2   2   69.27    2.38 
  -2   2   2   68.09    2.09 
   1  -2  -2    0.52    0.10 
   1  -2  -2    0.49    0.09 
   1  -2  -2    0.27    0.06 
  -1   2   2    0.29    0.07 
  -1   2   2    0.32    0.10 
  -1   2   2    0.33    0.08 
  -1   2   2    0.50    0.10 
   0  -2  -2   51.66    1.80 
   0  -2  -2   49.25    1.79 
   0  -2  -2   49.38    1.56 
   0   2   2   50.53    1.79 
   0   2   2   51.24    1.58 
   0   2   2   50.83    1.79 
  -1  -2  -2   16.96    0.59 
  -1  -2  -2   16.03    0.66 
  -1  -2  -2   15.76    0.67 
   1   2   2   16.21    0.67 
   1   2   2   16.36    0.66 
   1   2   2   16.22    0.60 
  -2  -2  -2   51.88    1.59 
   2   2   2   48.32    1.83 
   2   2   2   49.95    1.63 
  -3  -2  -2    0.12    0.09 
   3   2   2    0.12    0.09 
  -4  -2  -2    6.32    0.37 
   4   2   2    6.58    0.41 
  -5  -2  -2    4.79    0.20 
   5   2   2    4.65    0.37 
  -6  -2  -2   12.43    0.40 
   6   2   2   12.40    0.43 
  -7  -2  -2   39.51    1.11 
  -7  -2  -2   40.42    1.11 
  -7  -2  -2   39.97    1.17 
   7   2   2   40.18    1.14 
  -8  -2  -2    1.17    0.11 
  -8  -2  -2    1.26    0.12 
   8   2   2    1.23    0.13 
   8   2   2    1.28    0.13 
  -9  -2  -2   11.61    0.38 
  -9  -2  -2   11.58    0.39 
   9   2   2   12.14    0.40 
 -10  -2  -2    0.92    0.09 
  10   2   2    0.82    0.08 
 -11   3   2    6.24    0.20 
  10  -3  -2    0.11    0.05 
 -10   3   2    0.05    0.05 
 -10   3   2   -0.01    0.05 
   9  -3  -2   31.15    0.83 
  -9   3   2   32.32    0.89 
  -9   3   2   30.78    0.91 
   8  -3  -2    0.65    0.08 
  -8   3   2    0.71    0.10 
  -8   3   2    0.75    0.10 
  -7   3   2    9.21    0.33 
  -7   3   2    8.77    0.58 
  -6   3   2    9.31    0.33 
  -5   3   2   13.54    0.65 
  -4   3   2    6.87    0.40 
  -4   3   2    7.31    0.38 
  -3   3   2    1.06    0.13 
  -3   3   2    1.18    0.14 
  -3   3   2    1.09    0.16 
  -2   3   2   63.02    2.26 
  -2   3   2   65.06    2.03 
  -2   3   2   64.76    2.26 
   1  -3  -2    0.58    0.10 
  -1   3   2    0.61    0.12 
  -1   3   2    0.75    0.11 
  -1   3   2    0.58    0.11 
   0  -3  -2   51.19    1.64 
   0   3   2   53.01    1.88 
   0   3   2   52.04    1.68 
   0   3   2   53.78    1.87 
  -1  -3  -2   46.19    1.49 
   1   3   2   46.64    1.71 
   1   3   2   46.64    1.53 
   1   3   2   47.52    1.69 
  -2  -3  -2   10.51    0.46 
   2   3   2   10.17    0.49 
   2   3   2   10.01    0.51 
   3   3   2   41.84    1.47 
   4   3   2    0.36    0.14 
  -5  -3  -2    3.55    0.16 
   5   3   2    3.64    0.19 
   5   3   2    3.07    0.33 
  -6  -3  -2    8.18    0.29 
   6   3   2    7.95    0.32 
  -7  -3  -2   31.84    0.89 
  -7  -3  -2   30.66    0.84 
  -7  -3  -2   31.67    0.89 
   7   3   2   31.55    0.91 
   7   3   2   30.57    0.92 
  -8  -3  -2   12.07    0.41 
   8   3   2   12.51    0.42 
   8   3   2   11.52    0.42 
  -9  -3  -2   -0.03    0.05 
   9   3   2   -0.01    0.05 
 -10  -3  -2    1.24    0.09 
  10   3   2    1.16    0.09 
 -10   4   2    5.17    0.21 
 -10   4   2    4.99    0.19 
   9  -4  -2   13.76    0.40 
  -9   4   2   13.66    0.43 
  -9   4   2   13.65    0.45 
   8  -4  -2    1.30    0.12 
  -8   4   2    1.52    0.14 
  -8   4   2    1.48    0.14 
   7  -4  -2    0.52    0.08 
  -7   4   2    0.66    0.10 
  -7   4   2    0.45    0.08 
  -7   4   2    0.64    0.10 
  -6   4   2    2.14    0.14 
  -6   4   2    2.23    0.33 
  -5   4   2   29.51    1.17 
  -4   4   2    4.38    0.33 
  -3   4   2    8.21    0.37 
  -3   4   2    8.16    0.44 
  -3   4   2    8.59    0.37 
  -2   4   2   14.89    0.59 
  -2   4   2   14.46    0.62 
  -2   4   2   14.55    0.58 
  -1   4   2    5.66    0.33 
  -1   4   2    5.90    0.29 
  -1   4   2    5.91    0.29 
   0   4   2   73.77    2.50 
   0   4   2   72.40    2.49 
   0   4   2   68.42    2.28 
   1   4   2    0.20    0.08 
   1   4   2    0.17    0.08 
   1   4   2    0.12    0.11 
   2   4   2    7.67    0.45 
   2   4   2    7.77    0.41 
   3   4   2    1.63    0.25 
   4   4   2   10.03    0.60 
  -5  -4  -2   68.90    1.83 
   5   4   2   71.08    1.88 
   5   4   2   66.63    2.45 
  -6  -4  -2    0.63    0.09 
   6   4   2    0.66    0.10 
   6   4   2    0.69    0.12 
  -7  -4  -2    1.19    0.11 
  -7  -4  -2    1.45    0.13 
   7   4   2    0.99    0.12 
   7   4   2    1.05    0.12 
  -8  -4  -2    0.04    0.06 
   8   4   2    0.04    0.06 
   8   4   2   -0.01    0.06 
  -9  -4  -2    0.15    0.06 
   9   4   2    0.11    0.05 
  10  -5  -2    0.72    0.06 
   9  -5  -2    0.86    0.08 
  -9   5   2    0.80    0.09 
  -9   5   2    0.87    0.10 
   8  -5  -2    9.03    0.29 
  -8   5   2    8.42    0.30 
  -8   5   2    7.63    0.31 
  -8   5   2    8.31    0.32 
   7  -5  -2    0.58    0.08 
  -7   5   2    0.64    0.10 
  -7   5   2    0.55    0.09 
  -7   5   2    0.62    0.10 
   6  -5  -2    4.18    0.19 
  -6   5   2    4.04    0.21 
  -6   5   2    4.17    0.21 
  -5   5   2    2.43    0.33 
  -5   5   2    2.43    0.15 
  -4   5   2   11.06    0.60 
  -3   5   2   16.10    0.74 
  -2   5   2    2.80    0.26 
  -1   5   2   51.52    1.76 
   0   5   2    0.59    0.15 
   1   5   2    3.02    0.28 
   2   5   2    1.99    0.28 
   3   5   2    4.30    0.39 
   4   5   2   17.85    0.90 
   4   5   2   18.15    0.58 
  -5  -5  -2    0.20    0.06 
   5   5   2    0.22    0.08 
   5   5   2    0.27    0.08 
  -6  -5  -2   12.01    0.38 
   6   5   2   12.74    0.42 
   6   5   2   11.90    0.45 
  -7  -5  -2    0.30    0.07 
   7   5   2    0.20    0.07 
   7   5   2    0.21    0.07 
  -8  -5  -2    0.07    0.06 
   8   5   2    0.20    0.07 
   8   5   2    0.11    0.06 
  -9  -5  -2    1.29    0.09 
   9   5   2    0.96    0.08 
   9  -6  -2    1.21    0.09 
  -9   6   2    1.22    0.11 
   8  -6  -2    0.00    0.05 
  -8   6   2    0.09    0.07 
  -8   6   2    0.08    0.06 
   7  -6  -2   39.63    1.02 
  -7   6   2   38.53    1.06 
  -7   6   2   39.20    1.12 
  -7   6   2   39.30    1.07 
   6  -6  -2    3.22    0.17 
  -6   6   2    3.33    0.19 
  -6   6   2    3.26    0.18 
  -6   6   2    3.28    0.19 
   5  -6  -2    4.62    0.21 
  -5   6   2    4.78    0.22 
  -5   6   2    4.96    0.23 
  -4   6   2    2.68    0.36 
  -3   6   2    1.32    0.23 
  -2   6   2   24.34    1.02 
  -1   6   2   -0.07    0.09 
   0   6   2    0.08    0.11 
   1   6   2    7.02    0.48 
   2   6   2    2.32    0.33 
   2   6   2    2.32    0.17 
   3   6   2   19.36    0.62 
   3   6   2   20.33    0.97 
  -4  -6  -2    0.15    0.06 
   4   6   2    0.28    0.07 
   4   6   2    0.27    0.09 
   4   6   2    0.12    0.07 
  -5  -6  -2    0.80    0.09 
   5   6   2    0.63    0.11 
   5   6   2    0.89    0.11 
  -6  -6  -2    2.79    0.15 
   6   6   2    2.90    0.19 
   6   6   2    2.68    0.17 
  -7  -6  -2    1.95    0.11 
   7   6   2    2.11    0.13 
   7   6   2    1.69    0.15 
   8   6   2   10.44    0.31 
   9  -7  -2    1.79    0.09 
   8  -7  -2   16.69    0.47 
  -8   7   2   16.33    0.50 
  -8   7   2   16.75    0.52 
   7  -7  -2    1.17    0.11 
  -7   7   2    1.22    0.12 
  -7   7   2    1.25    0.12 
   6  -7  -2    8.64    0.29 
  -6   7   2    8.75    0.32 
  -6   7   2    8.45    0.34 
   5  -7  -2    3.44    0.17 
  -5   7   2    3.71    0.19 
  -5   7   2    3.31    0.20 
   4  -7  -2    7.75    0.27 
  -4   7   2    7.62    0.30 
  -3   7   2  136.04    3.42 
  -2   7   2    9.35    0.58 
  -1   7   2    2.48    0.33 
   0   7   2    0.09    0.11 
   1   7   2    3.49    0.37 
   1   7   2    4.09    0.20 
  -2  -7  -2   40.91    1.06 
   2   7   2   41.51    1.11 
   2   7   2   40.19    1.17 
  -3  -7  -2    8.21    0.29 
   3   7   2    8.35    0.32 
   3   7   2    8.11    0.34 
   3   7   2    8.12    0.30 
  -4  -7  -2   20.32    0.56 
   4   7   2   19.64    0.60 
   4   7   2   19.53    0.59 
   4   7   2   19.63    0.64 
  -5  -7  -2   12.60    0.38 
   5   7   2   12.68    0.45 
   5   7   2   12.23    0.42 
   5   7   2   12.44    0.40 
  -6  -7  -2    8.84    0.29 
   6   7   2    8.91    0.30 
   6   7   2    9.35    0.35 
  -7  -7  -2   10.44    0.30 
   7   7   2   10.36    0.35 
   8  -8  -2    0.11    0.04 
  -8   8   2    0.06    0.05 
   7  -8  -2    3.03    0.14 
  -7   8   2    2.90    0.16 
  -7   8   2    2.81    0.16 
   6  -8  -2   19.52    0.54 
  -6   8   2   19.38    0.60 
  -6   8   2   19.11    0.58 
   5  -8  -2    1.56    0.12 
  -5   8   2    1.62    0.14 
   4  -8  -2    6.35    0.24 
  -4   8   2    6.19    0.26 
   3  -8  -2   10.24    0.33 
  -3   8   2   10.39    0.36 
   2  -8  -2    4.65    0.20 
  -2   8   2    4.90    0.22 
  -2   8   2    4.87    0.19 
   1  -8  -2    0.57    0.09 
  -1   8   2    0.61    0.09 
  -1   8   2    0.82    0.09 
   0  -8  -2    1.84    0.13 
   0   8   2    1.77    0.15 
  -1  -8  -2    5.30    0.22 
   1   8   2    5.35    0.24 
  -2  -8  -2    0.27    0.07 
   2   8   2    0.16    0.08 
   2   8   2    0.22    0.07 
  -3  -8  -2   15.25    0.45 
   3   8   2   15.20    0.48 
   3   8   2   14.47    0.51 
  -4  -8  -2    1.21    0.11 
   4   8   2    1.04    0.11 
   4   8   2    1.07    0.13 
  -5  -8  -2    0.17    0.05 
   5   8   2    0.21    0.07 
   5   8   2    0.13    0.06 
  -6  -8  -2    1.22    0.09 
   6   8   2    1.22    0.12 
   7  -9  -2    7.09    0.22 
  -7   9   2    7.16    0.24 
   6  -9  -2    1.77    0.11 
  -6   9   2    1.60    0.12 
  -6   9   2    1.47    0.12 
   5  -9  -2    5.94    0.22 
  -5   9   2    5.70    0.24 
   4  -9  -2    4.08    0.17 
  -4   9   2    3.58    0.19 
   3  -9  -2    0.11    0.06 
  -3   9   2   -0.01    0.06 
   2  -9  -2    1.00    0.10 
  -2   9   2    0.92    0.11 
   1  -9  -2    5.02    0.21 
  -1   9   2    5.76    0.24 
   0  -9  -2   35.97    0.95 
   0   9   2   36.47    1.00 
  -1  -9  -2    0.85    0.09 
   1   9   2    0.87    0.11 
  -2  -9  -2    0.16    0.06 
   2   9   2    0.03    0.07 
   2   9   2    0.08    0.06 
  -3  -9  -2    2.80    0.15 
   3   9   2    3.21    0.19 
   3   9   2    3.18    0.17 
  -4  -9  -2    7.94    0.26 
   4   9   2    8.13    0.28 
   4   9   2    8.30    0.31 
  -5  -9  -2    9.21    0.27 
   5   9   2    9.33    0.29 
   6 -10  -2    8.99    0.26 
  -6  10   2    8.98    0.28 
   5 -10  -2    0.07    0.04 
  -5  10   2    0.10    0.05 
   4 -10  -2    4.59    0.18 
  -4  10   2    5.10    0.20 
   3 -10  -2   -0.02    0.04 
  -3  10   2   -0.08    0.05 
   2 -10  -2   12.54    0.38 
  -2  10   2   13.39    0.41 
   1 -10  -2    9.83    0.30 
  -1  10   2    9.47    0.33 
   0 -10  -2    2.49    0.13 
   0  10   2    2.70    0.15 
  -1 -10  -2   17.94    0.51 
   1  10   2   18.75    0.54 
  -2 -10  -2    1.60    0.11 
   2  10   2    1.62    0.14 
   2  10   2    1.75    0.12 
  -3 -10  -2    1.82    0.10 
   3  10   2    1.61    0.11 
  -4 -10  -2    2.53    0.10 
   3 -11  -2    2.74    0.11 
  -3  11   2    2.56    0.13 
   2 -11  -2   10.68    0.30 
  -2  11   2   10.51    0.32 
   1 -11  -2    0.37    0.05 
  -1  11   2    0.43    0.07 
   0 -11  -2    6.60    0.21 
   0  11   2    6.73    0.23 
  -1 -11  -2    3.38    0.13 
   1  11   2    3.28    0.14 
   1  12  -3    7.74    0.22 
   0  12  -3    0.07    0.03 
  -1  12  -3    0.02    0.03 
  -2  12  -3    0.00    0.03 
  -3  12  -3    0.10    0.03 
   4  11  -3    3.54    0.13 
   4  11  -3    3.65    0.14 
  -4 -11   3    3.58    0.14 
   3  11  -3    1.79    0.09 
   3  11  -3    1.62    0.10 
   2  11  -3    4.46    0.17 
   2  11  -3    4.24    0.16 
   1  11  -3    0.66    0.07 
   1  11  -3    0.70    0.07 
   0  11  -3    0.72    0.08 
   0  11  -3    0.63    0.07 
  -1  11  -3   29.90    0.79 
  -1  11  -3   29.53    0.74 
  -2  11  -3    1.19    0.09 
  -2  11  -3    1.10    0.08 
  -3  11  -3    3.99    0.15 
  -3  11  -3    4.15    0.16 
  -4  11  -3    3.60    0.13 
  -4  11  -3    3.38    0.14 
  -5  11  -3    3.03    0.11 
  -5  11  -3    2.93    0.12 
  -6 -10   3    0.01    0.03 
   5  10  -3    8.45    0.27 
  -5 -10   3    8.56    0.26 
   4  10  -3    0.79    0.07 
   4  10  -3    0.83    0.08 
   3  10  -3   10.54    0.34 
   3  10  -3   10.63    0.31 
   2  10  -3    5.85    0.23 
   2  10  -3    6.33    0.21 
   1  10  -3    0.09    0.05 
   1  10  -3    0.21    0.06 
   0  10  -3   10.04    0.30 
   0  10  -3    9.89    0.33 
  -1  10  -3    2.67    0.15 
  -1  10  -3    2.84    0.13 
  -2  10  -3    8.34    0.26 
  -2  10  -3    8.20    0.28 
  -3  10  -3    0.03    0.04 
  -3  10  -3    0.00    0.05 
  -4  10  -3    5.18    0.20 
  -4  10  -3    5.12    0.18 
  -5  10  -3   10.12    0.31 
  -5  10  -3    9.66    0.29 
  -6  10  -3    0.03    0.04 
  -6  10  -3    0.05    0.04 
   7   9  -3    0.35    0.05 
  -7  -9   3    0.40    0.05 
   6   9  -3   19.93    0.56 
  -6  -9   3   20.03    0.54 
   5   9  -3    0.30    0.06 
   5   9  -3    0.24    0.05 
  -5  -9   3    0.22    0.06 
   4   9  -3    9.64    0.33 
   4   9  -3    9.67    0.30 
   3   9  -3    1.05    0.11 
   3   9  -3    1.23    0.09 
   2   9  -3    1.96    0.12 
   2   9  -3    2.08    0.14 
   1   9  -3    3.35    0.17 
   1   9  -3    3.31    0.15 
   0   9  -3    2.60    0.15 
   0   9  -3    2.64    0.12 
  -1   9  -3   40.35    1.06 
  -1   9  -3   40.48    0.99 
  -2   9  -3    1.99    0.13 
  -2   9  -3    2.19    0.11 
  -3   9  -3    7.76    0.27 
  -3   9  -3    7.80    0.25 
  -4   9  -3   19.28    0.56 
  -4   9  -3   19.38    0.51 
  -5   9  -3   19.93    0.52 
  -5   9  -3   19.04    0.56 
  -6   9  -3    9.54    0.28 
  -6   9  -3    9.34    0.31 
  -7   9  -3    1.35    0.10 
  -7   9  -3    1.13    0.08 
  -8  -8   3    0.52    0.05 
   7   8  -3    7.03    0.24 
   7   8  -3    6.23    0.27 
  -7  -8   3    6.95    0.23 
   6   8  -3    0.49    0.08 
  -6  -8   3    0.45    0.07 
   5   8  -3    5.66    0.21 
   5   8  -3    5.46    0.23 
  -5  -8   3    5.51    0.22 
   4   8  -3    0.49    0.08 
   4   8  -3    0.55    0.07 
   3   8  -3    1.11    0.10 
   3   8  -3    1.25    0.12 
   2   8  -3   11.89    0.38 
  -1   8  -3    1.76    0.06 
  -1   8  -3    1.73    0.06 
  -3   8  -3    5.43    0.19 
  -3   8  -3    4.77    0.20 
  -4   8  -3    3.44    0.14 
  -4   8  -3    3.41    0.17 
  -5   8  -3    6.79    0.22 
  -5   8  -3    6.55    0.25 
  -6   8  -3    0.24    0.06 
  -6   8  -3    0.19    0.06 
  -7   8  -3    5.15    0.21 
  -7   8  -3    5.25    0.19 
  -8   8  -3    0.01    0.04 
   8  -8   3   -0.05    0.04 
   8   7  -3    2.89    0.15 
   8   7  -3    2.82    0.17 
  -8  -7   3    3.01    0.14 
   7   7  -3    0.67    0.10 
   7   7  -3    0.58    0.08 
  -7  -7   3    0.50    0.07 
   6   7  -3    9.28    0.33 
  -6  -7   3    8.99    0.31 
   5   7  -3    2.23    0.13 
   5   7  -3    2.37    0.15 
  -5  -7   3    2.14    0.14 
   4   7  -3    1.51    0.13 
   3   7  -3    8.50    0.51 
   2   7  -3    0.05    0.09 
   1   7  -3    7.00    0.40 
  -3   7  -3    1.51    0.06 
  -4   7  -3    5.91    0.41 
  -5   7  -3   12.28    0.36 
  -5   7  -3   13.11    0.40 
  -6   7  -3    0.01    0.04 
  -6   7  -3    0.11    0.06 
  -7   7  -3    8.51    0.27 
  -7   7  -3    8.36    0.30 
   7  -7   3    8.90    0.30 
  -8   7  -3    1.63    0.12 
   8  -7   3    1.75    0.11 
  -9   7  -3   12.41    0.37 
   9  -7   3   12.11    0.34 
   9   6  -3   10.35    0.37 
  -9  -6   3   11.32    0.32 
   8   6  -3    6.73    0.29 
   8   6  -3    6.35    0.25 
  -8  -6   3    6.85    0.24 
   7   6  -3   15.82    0.50 
   7   6  -3   15.75    0.54 
  -7  -6   3   16.71    0.48 
   6   6  -3    1.08    0.11 
  -6  -6   3    1.07    0.11 
   5   6  -3    6.70    0.26 
   4   6  -3    5.70    0.43 
   3   6  -3    0.72    0.16 
   2   6  -3    0.15    0.09 
   1   6  -3    0.08    0.08 
   0   6  -3    1.95    0.17 
  -1   6  -3    0.95    0.13 
  -2   6  -3    6.83    0.25 
  -3   6  -3   18.09    0.71 
  -3   6  -3   17.66    0.55 
  -4   6  -3    8.90    0.32 
  -4   6  -3    8.23    0.46 
  -5   6  -3    0.02    0.10 
  -5   6  -3    0.04    0.06 
  -6   6  -3    4.64    0.21 
  -6   6  -3    4.43    0.18 
  -6   6  -3    4.46    0.22 
  -7   6  -3    6.63    0.23 
  -7   6  -3    6.56    0.26 
  -7   6  -3    6.08    0.28 
   7  -6   3    6.32    0.24 
  -8   6  -3    4.33    0.20 
   8  -6   3    4.75    0.19 
  -9   6  -3    5.76    0.22 
  -9   6  -3    5.53    0.22 
   9  -6   3    5.74    0.20 
   9   5  -3    1.20    0.09 
   9   5  -3    0.95    0.11 
  -9  -5   3    1.03    0.09 
   8   5  -3   12.94    0.41 
   8   5  -3   13.18    0.43 
   8   5  -3   14.13    0.48 
  -8  -5   3   13.35    0.41 
   7   5  -3    4.22    0.20 
   7   5  -3    4.05    0.20 
   7   5  -3    4.30    0.23 
   6   5  -3    0.67    0.09 
   6   5  -3    0.60    0.11 
  -6  -5   3    0.80    0.09 
   5   5  -3    0.09    0.11 
   4   5  -3    9.52    0.53 
   3   5  -3   84.32    2.68 
   2   5  -3   18.32    0.71 
   1   5  -3    6.44    0.31 
   1   5  -3    6.70    0.31 
   1   5  -3    6.78    0.24 
   0   5  -3   31.00    1.01 
   0   5  -3   31.27    0.89 
   0   5  -3   32.38    1.05 
  -1   5  -3    3.17    0.17 
  -1   5  -3    3.25    0.19 
  -1   5  -3    3.54    0.15 
  -2   5  -3   32.49    0.90 
  -2   5  -3   31.75    1.04 
  -2   5  -3   31.11    1.11 
  -3   5  -3    0.56    0.07 
  -3   5  -3    0.95    0.14 
  -4   5  -3    2.13    0.13 
  -4   5  -3    2.40    0.22 
  -5   5  -3    6.26    0.26 
  -5   5  -3    6.26    0.40 
  -6   5  -3    2.63    0.17 
  -6   5  -3    2.82    0.16 
  -7   5  -3   27.83    0.84 
  -7   5  -3   27.74    0.77 
  -7   5  -3   25.96    0.71 
   7  -5   3   27.23    0.74 
  -8   5  -3   16.48    0.51 
   8  -5   3   16.85    0.48 
  -9   5  -3    2.94    0.16 
  -9   5  -3    3.01    0.16 
   9  -5   3    2.96    0.14 
  10  -5   3    2.13    0.10 
  10   4  -3    0.67    0.07 
   9   4  -3    3.45    0.19 
   9   4  -3    3.01    0.16 
  -9  -4   3    3.12    0.15 
   8   4  -3    4.15    0.20 
   8   4  -3    3.89    0.23 
  -8  -4   3    4.06    0.19 
   7   4  -3    2.59    0.16 
   7   4  -3    2.01    0.15 
   7   4  -3    2.41    0.18 
  -7  -4   3    2.08    0.14 
   6   4  -3    0.14    0.12 
   6   4  -3    0.15    0.07 
   5   4  -3    1.72    0.25 
   4   4  -3   19.64    0.83 
   3   4  -3    2.92    0.23 
   2   4  -3    0.51    0.09 
   2   4  -3    0.60    0.14 
   2   4  -3    0.50    0.10 
   1   4  -3   17.22    0.74 
   1   4  -3   17.57    0.59 
   0   4  -3    1.22    0.09 
   0   4  -3    1.10    0.17 
  -1   4  -3   14.41    0.49 
  -1   4  -3   15.97    0.65 
  -2   4  -3    4.75    0.29 
  -2   4  -3    4.88    0.23 
  -2   4  -3    4.81    0.23 
  -2   4  -3    4.68    0.18 
  -2   4  -3    5.06    0.23 
  -3   4  -3    0.14    0.07 
  -3   4  -3    0.08    0.05 
  -4   4  -3    1.29    0.18 
  -4   4  -3    1.05    0.09 
  -5   4  -3    6.22    0.25 
  -5   4  -3    6.82    0.41 
  -6   4  -3   32.77    1.25 
  -6   4  -3   30.69    0.94 
  -6   4  -3   31.14    1.23 
  -7   4  -3    3.38    0.19 
  -7   4  -3    3.77    0.20 
   7  -4   3    3.22    0.17 
  -8   4  -3    8.19    0.32 
  -8   4  -3    8.19    0.31 
  -8   4  -3    8.27    0.34 
   8  -4   3    8.33    0.29 
  -9   4  -3    3.05    0.17 
  -9   4  -3    3.56    0.18 
   9  -4   3    3.14    0.16 
 -10   4  -3    0.16    0.06 
  10  -4   3    0.21    0.05 
  10   3  -3    3.47    0.16 
  10   3  -3    3.60    0.17 
 -10  -3   3    3.11    0.17 
   9   3  -3    0.10    0.07 
   9   3  -3    0.16    0.06 
  -9  -3   3    0.14    0.06 
   8   3  -3    0.18    0.07 
   8   3  -3   -0.01    0.07 
  -8  -3   3    0.19    0.06 
   7   3  -3   13.48    0.48 
  -7  -3   3   14.20    0.42 
   6   3  -3    0.53    0.09 
   6   3  -3    0.43    0.17 
   5   3  -3   18.61    0.81 
   4   3  -3   21.14    0.83 
   3   3  -3    4.12    0.28 
   3   3  -3    3.62    0.25 
   2   3  -3   87.02    2.63 
   2   3  -3   87.54    2.92 
   1   3  -3   15.07    0.64 
   1   3  -3   16.25    0.52 
   0   3  -3    6.84    0.35 
  -1   3  -3   40.07    1.37 
  -1   3  -3   38.57    1.16 
  -2   3  -3   21.48    0.80 
  -2   3  -3   25.74    0.87 
  -2   3  -3   23.84    0.76 
  -3   3  -3   60.15    2.04 
  -3   3  -3   62.13    1.66 
  -3   3  -3   59.99    1.89 
  -4   3  -3    2.26    0.12 
  -4   3  -3    2.41    0.21 
  -5   3  -3   75.72    2.09 
  -5   3  -3   76.89    2.47 
  -6   3  -3    1.13    0.22 
  -6   3  -3    1.45    0.12 
  -7   3  -3    3.69    0.19 
  -7   3  -3    3.86    0.21 
  -7   3  -3    4.06    0.20 
  -7   3  -3    3.95    0.21 
   7  -3   3    4.24    0.18 
  -8   3  -3    1.40    0.13 
  -8   3  -3    1.27    0.12 
  -8   3  -3    1.27    0.13 
  -8   3  -3    1.12    0.13 
   8  -3   3    1.44    0.12 
  -9   3  -3    2.85    0.17 
  -9   3  -3    3.22    0.18 
   9  -3   3    2.70    0.15 
 -10   3  -3    2.28    0.13 
  10  -3   3    2.08    0.11 
  11   2  -3   23.75    0.65 
 -11  -2   3   24.95    0.66 
  10   2  -3   -0.09    0.05 
  10   2  -3    0.04    0.05 
 -10  -2   3    0.02    0.05 
   9   2  -3    1.73    0.14 
   9   2  -3    1.67    0.15 
  -9  -2   3    1.70    0.14 
  -9  -2   3    1.67    0.12 
   8   2  -3    7.71    0.30 
   8   2  -3    8.17    0.33 
  -8  -2   3    7.47    0.27 
   7   2  -3    0.82    0.22 
   7   2  -3    1.32    0.14 
   6   2  -3   43.65    1.61 
   5   2  -3    7.39    0.44 
   5   2  -3    6.97    0.38 
   4   2  -3   52.95    1.87 
   4   2  -3   57.52    1.89 
   4   2  -3   48.66    1.74 
   3   2  -3    0.48    0.11 
   3   2  -3    0.38    0.06 
   3   2  -3    0.33    0.09 
   3   2  -3    0.33    0.05 
   2   2  -3  349.76    9.81 
   2   2  -3  324.18   10.69 
   1   2  -3  997.90   31.64 
   1   2  -3 1000.00   28.89 
   0   2  -3    0.07    0.07 
  -1   2  -3    5.72    0.22 
  -1   2  -3    6.46    0.30 
  -2   2  -3   30.92    1.12 
  -2   2  -3   34.76    1.14 
  -2   2  -3   33.72    1.04 
  -3   2  -3   44.01    1.19 
  -3   2  -3   41.51    1.38 
  -3   2  -3   44.38    1.51 
  -4   2  -3   40.83    1.39 
  -4   2  -3   41.72    1.16 
  -5   2  -3    4.61    0.20 
  -5   2  -3    4.92    0.33 
  -6   2  -3   14.07    0.70 
  -7   2  -3    2.17    0.15 
  -7   2  -3    2.27    0.16 
  -7   2  -3    2.29    0.15 
   7  -2   3    2.45    0.14 
  -8   2  -3    1.37    0.13 
  -8   2  -3    1.29    0.14 
  -8   2  -3    1.47    0.12 
  -8   2  -3    1.34    0.13 
   8  -2   3    1.44    0.12 
  -9   2  -3   12.23    0.41 
  -9   2  -3   11.88    0.38 
   9  -2   3   11.95    0.37 
 -10   2  -3    2.38    0.13 
 -10   2  -3    2.26    0.11 
  10  -2   3    2.17    0.11 
  11   1  -3    0.86    0.08 
 -11  -1   3    0.93    0.09 
  10   1  -3    5.68    0.24 
  10   1  -3    6.26    0.24 
 -10  -1   3    5.86    0.24 
   9   1  -3    0.75    0.10 
   9   1  -3    0.82    0.11 
  -9  -1   3    0.61    0.10 
  -9  -1   3    0.60    0.10 
   8   1  -3    2.78    0.18 
   8   1  -3    2.92    0.18 
  -8  -1   3    2.43    0.17 
  -8  -1   3    2.68    0.15 
  -8  -1   3    2.71    0.15 
   7   1  -3   15.16    0.79 
   7   1  -3   15.45    0.50 
  -7  -1   3   15.11    0.47 
   6   1  -3   21.11    0.92 
   5   1  -3    5.56    0.36 
   4   1  -3   58.90    2.10 
   4   1  -3   57.85    1.89 
   3   1  -3    4.33    0.25 
   3   1  -3    4.63    0.26 
   3   1  -3    4.67    0.24 
   3   1  -3    4.31    0.24 
  -3  -1   3    5.02    0.25 
   2   1  -3    2.79    0.19 
   2   1  -3    2.79    0.17 
   2   1  -3    2.76    0.14 
   2   1  -3    2.71    0.14 
   1   1  -3    3.22    0.16 
   1   1  -3    3.67    0.21 
   0   1  -3    2.99    0.18 
   0   1  -3    2.83    0.13 
  -1   1  -3   12.10    0.48 
  -1   1  -3   12.34    0.43 
  -1   1  -3   11.27    0.41 
  -2   1  -3   12.90    0.51 
  -2   1  -3   13.69    0.52 
  -2   1  -3   12.58    0.48 
  -3   1  -3   70.25    2.38 
  -3   1  -3   72.25    2.38 
  -3   1  -3   65.45    2.14 
  -4   1  -3    0.13    0.06 
  -4   1  -3    0.08    0.08 
  -4   1  -3    0.08    0.04 
  -4   1  -3    0.26    0.07 
  -5   1  -3    6.19    0.24 
  -5   1  -3    6.99    0.41 
  -6   1  -3    1.16    0.11 
  -6   1  -3    1.08    0.12 
  -6   1  -3    1.16    0.22 
  -7   1  -3    0.18    0.07 
  -7   1  -3    0.31    0.08 
   7  -1   3    0.17    0.06 
  -8   1  -3   14.43    0.49 
  -8   1  -3   14.90    0.52 
  -8   1  -3   14.55    0.47 
   8  -1   3   15.08    0.44 
  -9   1  -3    2.90    0.17 
  -9   1  -3    3.17    0.17 
   9  -1   3    3.14    0.16 
 -10   1  -3    1.77    0.11 
 -10   1  -3    1.83    0.12 
  11   0  -3    0.46    0.06 
 -11   0   3    0.41    0.06 
  10   0  -3    0.70    0.09 
 -10   0   3    0.79    0.10 
   9   0  -3    0.34    0.08 
   9   0  -3    0.21    0.08 
  -9   0   3    0.32    0.09 
  -9   0   3    0.37    0.09 
  -9   0   3    0.37    0.07 
   8   0  -3   16.09    0.53 
   8   0  -3   15.85    0.51 
  -8   0   3   15.70    0.50 
  -8   0   3   16.04    0.52 
  -8   0   3   15.94    0.54 
   7   0  -3    0.19    0.07 
  -7   0   3    0.11    0.05 
   6   0  -3    0.64    0.17 
   5   0  -3   14.35    0.65 
   4   0  -3    0.03    0.08 
  -4   0   3    0.07    0.08 
   3   0  -3    0.51    0.11 
   3   0  -3    0.39    0.09 
   3   0  -3    0.23    0.07 
   3   0  -3    0.39    0.10 
  -3   0   3    0.24    0.09 
   2   0  -3   66.82    2.24 
   2   0  -3   65.46    1.97 
   2   0  -3   66.40    2.13 
   2   0  -3   63.32    2.23 
  -2   0   3   62.35    2.26 
  -2   0   3   61.88    2.25 
  -2   0   3   65.04    1.96 
   1   0  -3   82.65    2.48 
   1   0  -3   83.24    2.83 
   1   0  -3   81.40    2.83 
   1   0  -3   87.67    2.69 
  -1   0   3   87.96    2.85 
  -1   0   3   77.02    2.85 
   0   0  -3    0.95    0.08 
   0   0  -3    0.88    0.09 
   0   0  -3    0.86    0.09 
   0   0  -3    0.87    0.10 
   0   0   3    0.68    0.08 
  -1   0  -3   14.23    0.57 
  -1   0  -3   15.47    0.57 
  -1   0  -3   15.12    0.52 
  -1   0  -3   15.55    0.57 
   1   0   3   14.52    0.60 
  -2   0  -3   29.42    0.97 
  -2   0  -3   27.91    1.07 
  -2   0  -3   30.30    1.08 
  -2   0  -3   30.46    1.06 
   2   0   3   29.68    0.98 
  -3   0  -3   17.48    0.74 
  -3   0  -3   18.80    0.69 
  -3   0  -3   18.16    0.73 
  -4   0  -3    0.32    0.12 
  -4   0  -3    0.18    0.08 
  -4   0  -3    0.24    0.06 
  -5   0  -3   11.67    0.59 
  -5   0  -3   12.58    0.40 
  -6   0  -3    0.57    0.18 
  -6   0  -3    0.58    0.08 
  -6   0  -3    0.70    0.09 
   6   0   3    0.87    0.10 
  -7   0  -3    2.19    0.15 
  -7   0  -3    1.87    0.14 
   7   0   3    1.94    0.13 
  -8   0  -3    0.89    0.12 
  -8   0  -3    0.94    0.11 
  -8   0  -3    1.21    0.12 
   8   0   3    0.96    0.10 
  -9   0  -3   10.24    0.35 
  -9   0  -3   10.13    0.34 
   9   0   3   10.02    0.36 
   9   0   3   10.08    0.31 
 -10   0  -3    3.64    0.16 
 -10   0  -3    3.90    0.16 
  10   0   3    3.32    0.17 
  11  -1  -3    3.92    0.16 
 -11   1   3    3.41    0.15 
  10  -1  -3   14.17    0.45 
 -10   1   3   14.40    0.45 
 -10   1   3   13.78    0.43 
   9  -1  -3   10.76    0.38 
   9  -1  -3   10.21    0.36 
  -9   1   3   11.08    0.40 
  -9   1   3   10.64    0.37 
  -9   1   3   10.33    0.37 
   8  -1  -3    5.42    0.24 
   8  -1  -3    5.38    0.25 
  -8   1   3    5.51    0.25 
  -8   1   3    5.66    0.26 
  -8   1   3    5.36    0.24 
   7  -1  -3    1.50    0.13 
  -7   1   3    1.64    0.12 
  -7   1   3    1.82    0.14 
  -6   1   3    8.06    0.48 
   5  -1  -3   11.97    0.56 
  -5   1   3   11.02    0.55 
   4  -1  -3    0.22    0.09 
  -4   1   3    0.24    0.09 
   3  -1  -3    9.92    0.43 
   3  -1  -3   10.18    0.44 
  -3   1   3   10.23    0.44 
   2  -1  -3    0.27    0.08 
   2  -1  -3    0.20    0.07 
   2  -1  -3    0.22    0.08 
  -2   1   3    0.42    0.09 
  -2   1   3    0.09    0.05 
   1  -1  -3   65.40    2.53 
   1  -1  -3   72.51    2.41 
   1  -1  -3   73.29    2.53 
   1  -1  -3   70.88    2.21 
  -1   1   3   82.55    2.57 
  -1   1   3   74.30    2.22 
   0  -1  -3   68.71    2.47 
   0  -1  -3   74.56    2.47 
   0  -1  -3   72.68    2.35 
   0  -1  -3   70.93    2.16 
   0   1   3   71.76    2.17 
   0   1   3   68.77    2.47 
  -1  -1  -3    2.40    0.19 
  -1  -1  -3    2.58    0.18 
  -1  -1  -3    2.45    0.19 
  -1  -1  -3    2.59    0.18 
   1   1   3    2.96    0.21 
   1   1   3    2.57    0.19 
   1   1   3    2.48    0.19 
  -2  -1  -3    3.45    0.23 
  -2  -1  -3    3.50    0.22 
   2   1   3    3.43    0.23 
  -3  -1  -3   18.08    0.70 
   3   1   3   18.27    0.72 
  -4  -1  -3   64.33    2.12 
  -4  -1  -3   66.00    1.78 
  -5  -1  -3   26.23    1.06 
  -5  -1  -3   27.99    0.80 
  -6  -1  -3   15.98    0.50 
  -6  -1  -3   16.14    0.78 
  -6  -1  -3   15.52    0.52 
   6   1   3   15.79    0.50 
  -7  -1  -3    0.68    0.09 
  -7  -1  -3    0.32    0.08 
  -7  -1  -3    0.64    0.10 
   7   1   3    0.60    0.08 
   7   1   3    0.48    0.09 
   7   1   3    0.47    0.10 
  -8  -1  -3    2.85    0.17 
  -8  -1  -3    3.34    0.18 
  -8  -1  -3    2.77    0.18 
   8   1   3    2.96    0.15 
   8   1   3    2.77    0.18 
  -9  -1  -3   16.27    0.50 
  -9  -1  -3   16.29    0.50 
   9   1   3   15.69    0.51 
 -10  -1  -3    3.67    0.15 
  10   1   3    3.56    0.16 
  11  -2  -3    0.03    0.04 
 -11   2   3    0.07    0.04 
  10  -2  -3    4.44    0.20 
 -10   2   3    4.60    0.20 
 -10   2   3    4.52    0.19 
   9  -2  -3    5.94    0.26 
  -9   2   3    5.85    0.25 
  -9   2   3    5.79    0.25 
   8  -2  -3    2.76    0.15 
   8  -2  -3    2.85    0.16 
   8  -2  -3    2.63    0.17 
  -8   2   3    2.70    0.17 
  -8   2   3    2.64    0.17 
  -8   2   3    2.65    0.17 
   7  -2  -3   61.19    1.66 
  -7   2   3   62.97    1.66 
  -7   2   3   59.76    1.72 
  -6   2   3    0.71    0.18 
  -6   2   3    0.86    0.10 
  -5   2   3   41.19    1.46 
  -5   2   3   40.65    1.14 
   4  -2  -3    3.11    0.25 
  -4   2   3    2.99    0.25 
   3  -2  -3   47.89    1.56 
  -3   2   3   47.75    1.57 
   2  -2  -3   24.92    0.84 
  -2   2   3   23.71    0.85 
  -2   2   3   23.53    0.95 
   1  -2  -3    0.10    0.07 
  -1   2   3    0.29    0.09 
  -1   2   3    0.03    0.05 
  -1   2   3    0.12    0.08 
   0  -2  -3   15.38    0.63 
   0  -2  -3   14.34    0.55 
   0   2   3   13.51    0.61 
   0   2   3   14.40    0.63 
   0   2   3   14.73    0.57 
  -1  -2  -3   41.03    1.32 
   1   2   3   40.48    1.35 
   1   2   3   40.65    1.53 
  -2  -2  -3   92.79    2.82 
   2   2   3   90.31    2.85 
  -3  -2  -3    4.56    0.30 
   3   2   3    4.47    0.32 
  -4  -2  -3    0.20    0.11 
   4   2   3    0.35    0.13 
  -6  -2  -3   10.56    0.36 
   6   2   3   10.68    0.38 
  -7  -2  -3   27.52    0.81 
  -7  -2  -3   28.69    0.82 
   7   2   3   27.58    0.83 
   7   2   3   28.84    0.83 
  -8  -2  -3    3.82    0.19 
  -8  -2  -3    3.34    0.18 
   8   2   3    3.60    0.20 
  -9  -2  -3    0.14    0.05 
  -9  -2  -3    0.25    0.06 
   9   2   3    0.29    0.07 
 -10  -2  -3    9.17    0.28 
  10   2   3    9.10    0.29 
 -11   3   3    4.80    0.17 
  10  -3  -3   11.50    0.38 
 -10   3   3   11.58    0.37 
 -10   3   3   12.27    0.38 
   9  -3  -3    0.10    0.06 
   9  -3  -3    0.09    0.05 
  -9   3   3    0.00    0.06 
  -9   3   3    0.12    0.06 
   8  -3  -3    2.61    0.14 
  -8   3   3    2.42    0.16 
  -8   3   3    2.18    0.16 
   7  -3  -3    0.45    0.07 
  -7   3   3    0.41    0.08 
   6  -3  -3    1.42    0.12 
  -6   3   3    1.32    0.11 
  -6   3   3    1.73    0.29 
  -5   3   3   14.76    0.70 
  -4   3   3    1.82    0.23 
  -3   3   3   12.13    0.56 
  -3   3   3   12.78    0.58 
   2  -3  -3    9.19    0.41 
  -2   3   3    8.81    0.45 
  -2   3   3    9.04    0.44 
   1  -3  -3   28.33    1.00 
  -1   3   3   30.27    1.04 
  -1   3   3   29.36    1.14 
   0  -3  -3   28.87    0.98 
   0   3   3   29.03    1.02 
   0   3   3   27.58    1.11 
   1   3   3   25.04    0.93 
  -2  -3  -3   73.06    2.29 
   2   3   3   71.28    2.33 
   3   3   3   13.02    0.64 
   4   3   3   14.49    0.72 
  -5  -3  -3    1.46    0.12 
   5   3   3    1.79    0.14 
  -6  -3  -3    7.91    0.27 
  -6  -3  -3    8.08    0.29 
   6   3   3    7.90    0.32 
   6   3   3    7.84    0.33 
  -7  -3  -3   15.97    0.50 
  -7  -3  -3   15.92    0.51 
   7   3   3   15.76    0.53 
   7   3   3   16.73    0.53 
  -8  -3  -3    0.09    0.06 
   8   3   3    0.14    0.07 
   8   3   3    0.20    0.07 
  -9  -3  -3    0.51    0.07 
   9   3   3    0.51    0.08 
 -10   4   3    0.76    0.08 
 -10   4   3    0.80    0.08 
   9  -4  -3   22.95    0.63 
  -9   4   3   22.51    0.67 
  -9   4   3   24.69    0.70 
   8  -4  -3    0.24    0.07 
  -8   4   3    0.10    0.06 
  -8   4   3    0.30    0.08 
   7  -4  -3    0.24    0.06 
  -7   4   3    0.04    0.07 
  -7   4   3    0.13    0.06 
  -6   4   3    0.77    0.10 
  -6   4   3    1.07    0.23 
  -5   4   3    4.80    0.39 
  -4   4   3  123.03    3.87 
  -3   4   3   17.14    0.77 
  -3   4   3   18.94    0.77 
  -2   4   3   40.52    1.46 
  -2   4   3   36.98    1.36 
  -1   4   3   14.74    0.67 
  -1   4   3   17.09    0.70 
   0   4   3   58.52    2.00 
   0   4   3   62.69    2.20 
   1   4   3   16.96    0.76 
   1   4   3   19.30    0.80 
   2   4   3    4.13    0.34 
   3   4   3   22.17    0.97 
  -4  -4  -3   10.41    0.35 
   4   4   3   10.91    0.65 
   4   4   3   11.03    0.39 
  -5  -4  -3    1.70    0.12 
   5   4   3    1.92    0.16 
  -6  -4  -3    9.28    0.33 
  -6  -4  -3    9.40    0.35 
  -6  -4  -3    9.59    0.31 
   6   4   3    9.64    0.36 
   6   4   3    9.29    0.37 
  -7  -4  -3    2.55    0.17 
   7   4   3    2.08    0.16 
   7   4   3    2.43    0.17 
  -8  -4  -3    4.84    0.21 
   8   4   3    4.77    0.22 
   8   4   3    5.11    0.22 
  -9  -4  -3    0.01    0.04 
   9   4   3   -0.01    0.04 
   9  -5  -3    0.04    0.05 
  -9   5   3    0.05    0.05 
  -9   5   3    0.04    0.06 
   8  -5  -3   13.59    0.41 
  -8   5   3   14.08    0.44 
  -8   5   3   13.36    0.46 
   7  -5  -3   18.37    0.52 
  -7   5   3   17.37    0.57 
  -7   5   3   18.00    0.55 
   6  -5  -3    8.98    0.30 
  -6   5   3    9.16    0.34 
  -6   5   3    8.95    0.33 
  -6   5   3    9.37    0.33 
  -5   5   3    3.45    0.19 
  -5   5   3    3.43    0.38 
  -4   5   3   11.46    0.64 
  -3   5   3  121.40    3.84 
  -2   5   3    6.59    0.43 
  -1   5   3    6.68    0.42 
   0   5   3   20.70    0.88 
   1   5   3    1.68    0.25 
   2   5   3    4.07    0.37 
   3   5   3   28.95    1.23 
   3   5   3   28.52    0.85 
   4   5   3   14.20    0.49 
   4   5   3   13.62    0.79 
  -5  -5  -3    0.60    0.08 
   5   5   3    0.65    0.10 
   5   5   3    0.53    0.10 
  -6  -5  -3    0.20    0.08 
  -6  -5  -3    0.25    0.07 
   6   5   3    0.20    0.09 
   6   5   3    0.29    0.08 
  -7  -5  -3    1.16    0.11 
   7   5   3    0.80    0.10 
   7   5   3    0.85    0.11 
  -8  -5  -3    0.38    0.07 
   8   5   3    0.45    0.08 
   8   5   3    0.41    0.07 
   9  -6  -3    1.67    0.10 
  -9   6   3    1.76    0.12 
   8  -6  -3    2.57    0.14 
  -8   6   3    2.74    0.17 
  -8   6   3    2.53    0.14 
  -7   6   3    1.92    0.15 
  -7   6   3    1.69    0.14 
  -7   6   3    1.65    0.13 
   6  -6  -3   13.31    0.41 
  -6   6   3   13.43    0.43 
  -6   6   3   13.08    0.44 
  -6   6   3   13.09    0.46 
   5  -6  -3   11.60    0.37 
  -5   6   3   12.30    0.41 
  -5   6   3   12.51    0.43 
  -5   6   3   11.87    0.41 
  -4   6   3   41.74    1.59 
  -4   6   3   40.43    1.15 
  -3   6   3   12.46    0.69 
  -3   6   3   13.12    0.43 
  -2   6   3    8.84    0.55 
  -1   6   3   19.96    0.91 
   0   6   3    4.02    0.36 
   1   6   3   16.00    0.52 
   1   6   3   15.61    0.80 
   2   6   3    0.49    0.10 
   2   6   3    0.14    0.13 
  -3  -6  -3   18.44    0.53 
   3   6   3   18.37    0.60 
   3   6   3   18.58    0.57 
  -4  -6  -3    2.79    0.16 
   4   6   3    3.07    0.20 
   4   6   3    2.71    0.17 
  -5  -6  -3    1.32    0.12 
   5   6   3    1.21    0.13 
   5   6   3    1.04    0.13 
  -6  -6  -3   14.11    0.41 
   6   6   3   14.29    0.45 
   6   6   3   14.00    0.48 
  -7  -6  -3    0.80    0.09 
   7   6   3    1.20    0.12 
   7   6   3    0.92    0.09 
  -8  -6  -3    1.66    0.10 
   8   6   3    1.63    0.09 
   9  -7  -3    0.00    0.03 
   8  -7  -3    0.07    0.05 
  -8   7   3    0.02    0.05 
  -8   7   3    0.11    0.06 
   7  -7  -3   11.42    0.35 
  -7   7   3   11.36    0.39 
  -7   7   3   11.38    0.40 
   6  -7  -3    0.99    0.10 
  -6   7   3    0.96    0.12 
  -6   7   3    0.95    0.12 
   5  -7  -3    1.41    0.12 
  -5   7   3    1.21    0.13 
  -5   7   3    1.12    0.13 
   4  -7  -3    9.86    0.32 
  -4   7   3    9.62    0.34 
  -4   7   3    9.34    0.36 
  -4   7   3    9.65    0.35 
  -4   7   3    9.10    0.35 
   3  -7  -3    4.78    0.20 
  -3   7   3    4.95    0.22 
  -3   7   3    4.31    0.23 
  -3   7   3    4.54    0.22 
   2  -7  -3    5.91    0.23 
  -2   7   3    5.62    0.25 
  -2   7   3    5.59    0.25 
  -1   7   3    4.14    0.21 
  -1   7   3    4.05    0.20 
   0  -7  -3    1.35    0.12 
   0   7   3    1.57    0.14 
   0   7   3    1.39    0.13 
  -1  -7  -3    4.55    0.19 
   1   7   3    4.42    0.22 
   1   7   3    4.33    0.23 
  -2  -7  -3    3.60    0.18 
   2   7   3    3.55    0.21 
   2   7   3    3.81    0.20 
  -3  -7  -3    5.07    0.21 
   3   7   3    4.76    0.25 
   3   7   3    4.83    0.22 
   3   7   3    4.71    0.23 
  -4  -7  -3   -0.09    0.05 
   4   7   3   -0.06    0.06 
   4   7   3   -0.02    0.07 
  -5  -7  -3    4.91    0.20 
   5   7   3    5.14    0.22 
   5   7   3    5.20    0.24 
  -6  -7  -3    1.58    0.10 
   6   7   3    1.45    0.10 
   6   7   3    1.79    0.14 
   8  -8  -3   11.13    0.31 
   7  -8  -3    0.27    0.05 
  -7   8   3    0.23    0.06 
  -7   8   3    0.20    0.06 
  -7   8   3    0.26    0.06 
   6  -8  -3   17.46    0.49 
  -6   8   3   17.21    0.54 
  -6   8   3   17.29    0.52 
  -6   8   3   17.77    0.55 
   5  -8  -3    7.58    0.27 
  -5   8   3    7.47    0.31 
  -5   8   3    7.71    0.30 
  -5   8   3    7.92    0.29 
   4  -8  -3    1.14    0.11 
  -4   8   3    0.97    0.11 
  -4   8   3    0.91    0.11 
   3  -8  -3    0.12    0.06 
  -3   8   3    0.18    0.07 
  -3   8   3    0.04    0.07 
   2  -8  -3    7.65    0.28 
  -2   8   3    7.34    0.31 
  -2   8   3    8.58    0.31 
   1  -8  -3    8.51    0.29 
  -1   8   3    8.50    0.32 
  -1   8   3    7.90    0.33 
   0  -8  -3    0.02    0.05 
   0   8   3    0.03    0.07 
   0   8   3    0.02    0.06 
  -1  -8  -3    0.16    0.06 
   1   8   3    0.15    0.09 
   1   8   3    0.16    0.07 
  -2  -8  -3   12.09    0.38 
   2   8   3   12.54    0.42 
   2   8   3   11.90    0.44 
  -3  -8  -3    4.00    0.18 
   3   8   3    3.84    0.22 
   3   8   3    4.29    0.21 
  -4  -8  -3   15.98    0.46 
   4   8   3   15.14    0.50 
   4   8   3   16.77    0.53 
  -5  -8  -3    3.73    0.15 
   5   8   3    3.63    0.19 
  -6  -8  -3    2.29    0.10 
   7  -9  -3    7.36    0.22 
   6  -9  -3    0.27    0.05 
  -6   9   3    0.33    0.07 
  -6   9   3    0.26    0.06 
   5  -9  -3    0.02    0.05 
  -5   9   3    0.08    0.06 
  -5   9   3    0.04    0.06 
   4  -9  -3    3.19    0.16 
  -4   9   3    3.19    0.17 
  -4   9   3    3.23    0.18 
   3  -9  -3    0.64    0.08 
  -3   9   3    0.64    0.10 
  -3   9   3    0.69    0.10 
   2  -9  -3    6.37    0.23 
  -2   9   3    6.68    0.27 
  -2   9   3    6.17    0.27 
   1  -9  -3    0.82    0.09 
  -1   9   3    0.81    0.12 
  -1   9   3    0.60    0.09 
   0  -9  -3   26.11    0.71 
   0   9   3   26.38    0.79 
   0   9   3   26.25    0.75 
  -1  -9  -3    3.13    0.15 
   1   9   3    2.84    0.17 
   1   9   3    3.31    0.19 
  -2  -9  -3    0.06    0.05 
   2   9   3    0.04    0.06 
   2   9   3    0.09    0.07 
  -3  -9  -3   13.82    0.40 
   3   9   3   13.45    0.43 
   3   9   3   14.19    0.46 
  -4  -9  -3   -0.01    0.04 
   4   9   3    0.06    0.06 
   5 -10  -3    8.62    0.25 
  -5  10   3    8.46    0.27 
   4 -10  -3    0.06    0.05 
  -4  10   3    0.22    0.07 
   3 -10  -3    9.68    0.29 
  -3  10   3    9.05    0.33 
  -3  10   3   10.06    0.32 
   2 -10  -3    0.94    0.08 
  -2  10   3    0.90    0.10 
  -2  10   3    0.91    0.11 
   1 -10  -3    4.74    0.18 
  -1  10   3    4.86    0.20 
  -1  10   3    4.47    0.22 
   0 -10  -3    8.61    0.27 
   0  10   3    8.72    0.30 
   0  10   3    8.37    0.31 
  -1 -10  -3    0.92    0.08 
   1  10   3    0.76    0.10 
   1  10   3    0.71    0.08 
  -2 -10  -3   19.76    0.52 
   2  10   3   19.62    0.55 
  -3 -10  -3    1.74    0.09 
   2 -11  -3    3.58    0.13 
   1 -11  -3    3.96    0.14 
   0 -11  -3    0.07    0.04 
   2  12  -4    1.70    0.08 
   1  12  -4    5.73    0.17 
   0  12  -4   15.17    0.39 
  -1  12  -4    0.37    0.05 
  -2  12  -4    0.56    0.05 
  -3  12  -4    2.19    0.09 
   4  11  -4    5.23    0.16 
   4  11  -4    5.15    0.17 
   3  11  -4    0.03    0.03 
   3  11  -4    0.04    0.04 
   2  11  -4    0.08    0.04 
   2  11  -4    0.05    0.04 
   1  11  -4    5.25    0.18 
   1  11  -4    5.50    0.19 
   0  11  -4    0.66    0.07 
   0  11  -4    0.66    0.06 
  -1  11  -4   17.09    0.45 
  -2  11  -4    0.56    0.06 
  -3  11  -4    0.01    0.03 
  -4  11  -4    5.66    0.18 
  -5  11  -4    0.83    0.06 
   6  10  -4    1.26    0.08 
  -6 -10   4    1.30    0.08 
   5  10  -4    0.02    0.04 
   5  10  -4    0.03    0.04 
  -5 -10   4    0.06    0.05 
   4  10  -4    4.80    0.18 
   4  10  -4    5.07    0.19 
   3  10  -4    0.14    0.04 
   3  10  -4    0.07    0.05 
   2  10  -4    9.62    0.32 
   2  10  -4   10.48    0.30 
   1  10  -4    0.74    0.07 
   1  10  -4    0.79    0.08 
   0  10  -4    5.75    0.19 
   0  10  -4    5.57    0.21 
  -1  10  -4    0.10    0.04 
  -1  10  -4    0.06    0.05 
  -2  10  -4    5.89    0.19 
  -2  10  -4    5.63    0.21 
  -3  10  -4    8.43    0.28 
  -3  10  -4    8.62    0.26 
  -4  10  -4    5.74    0.19 
  -4  10  -4    5.58    0.20 
  -5  10  -4   20.23    0.54 
  -5  10  -4   19.55    0.51 
  -6  10  -4    0.23    0.05 
  -6  10  -4    0.24    0.05 
  -7  10  -4    2.29    0.10 
   7   9  -4    0.07    0.04 
  -7  -9   4    0.12    0.04 
   6   9  -4    4.57    0.18 
  -6  -9   4    4.55    0.18 
   5   9  -4    1.32    0.09 
   5   9  -4    1.43    0.11 
   4   9  -4    0.32    0.07 
   4   9  -4    0.26    0.05 
   3   9  -4   23.32    0.67 
   3   9  -4   24.16    0.62 
   2   9  -4    0.09    0.06 
   2   9  -4    0.03    0.04 
   1   9  -4    5.13    0.20 
   1   9  -4    4.79    0.17 
   0   9  -4    1.11    0.08 
  -1   9  -4    4.67    0.12 
  -1   9  -4    4.65    0.16 
  -2   9  -4    4.68    0.16 
  -3   9  -4    0.84    0.07 
  -3   9  -4    0.69    0.09 
  -4   9  -4    7.72    0.27 
  -4   9  -4    7.69    0.24 
  -5   9  -4    1.12    0.09 
  -5   9  -4    1.16    0.10 
  -6   9  -4    9.48    0.31 
  -7   9  -4    1.68    0.10 
  -7   9  -4    1.67    0.09 
  -8  -8   4    1.82    0.09 
   7   8  -4    3.53    0.16 
  -7  -8   4    3.15    0.15 
   6   8  -4   15.26    0.47 
  -6  -8   4   15.08    0.44 
   5   8  -4    2.55    0.13 
   5   8  -4    2.41    0.15 
   4   8  -4   11.09    0.37 
   4   8  -4   11.38    0.33 
   3   8  -4   16.37    0.48 
   3   8  -4   15.86    0.44 
   2   8  -4    0.50    0.07 
   1   8  -4    1.23    0.05 
   0   8  -4    1.46    0.05 
  -1   8  -4   32.47    0.62 
  -2   8  -4    1.31    0.05 
  -3   8  -4    9.94    0.22 
  -3   8  -4    9.98    0.28 
  -4   8  -4    0.13    0.04 
  -4   8  -4   -0.05    0.05 
  -5   8  -4   14.41    0.40 
  -5   8  -4   14.28    0.43 
  -6   8  -4   12.49    0.40 
  -6   8  -4   12.99    0.36 
  -7   8  -4   -0.01    0.05 
  -7   8  -4    0.06    0.05 
  -8   8  -4    5.27    0.20 
  -8   8  -4    5.23    0.18 
   8  -8   4    5.49    0.18 
  -9  -7   4    5.38    0.17 
   8   7  -4    0.46    0.07 
   8   7  -4    0.40    0.08 
  -8  -7   4    0.52    0.07 
   7   7  -4    3.36    0.17 
  -7  -7   4    3.35    0.16 
   6   7  -4    1.39    0.13 
  -6  -7   4    1.54    0.12 
   5   7  -4   59.42    1.54 
   5   7  -4   58.69    1.43 
   4   7  -4    2.41    0.15 
   3   7  -4   19.85    0.86 
  -2   7  -4   19.75    0.38 
  -3   7  -4    1.76    0.06 
  -4   7  -4   14.33    0.43 
  -5   7  -4    6.49    0.24 
  -5   7  -4    6.32    0.21 
  -6   7  -4    0.11    0.05 
  -6   7  -4    0.05    0.06 
  -7   7  -4    3.69    0.18 
  -7   7  -4    3.74    0.16 
  -8   7  -4    0.46    0.07 
   8  -7   4    0.51    0.06 
  -9   7  -4    3.90    0.15 
   9  -7   4    3.63    0.14 
   9   6  -4    5.48    0.24 
  -9  -6   4    6.27    0.20 
   8   6  -4   13.97    0.44 
   8   6  -4   15.05    0.49 
  -8  -6   4   14.22    0.43 
   7   6  -4    2.11    0.14 
   7   6  -4    1.95    0.17 
  -7  -6   4    1.86    0.13 
   6   6  -4    2.32    0.16 
  -6  -6   4    2.76    0.15 
   5   6  -4    1.52    0.12 
   4   6  -4    6.41    0.44 
   3   6  -4    5.63    0.37 
   2   6  -4    0.16    0.09 
   1   6  -4   34.55    0.97 
   1   6  -4   33.18    1.20 
   0   6  -4    0.04    0.05 
   0   6  -4    0.06    0.04 
  -1   6  -4   16.09    0.60 
  -1   6  -4   16.49    0.50 
  -2   6  -4   32.07    0.93 
  -3   6  -4    1.60    0.12 
  -4   6  -4   21.55    0.68 
  -4   6  -4   22.09    0.86 
  -5   6  -4    0.26    0.07 
  -5   6  -4    0.32    0.12 
  -5   6  -4    0.23    0.06 
  -6   6  -4    3.04    0.14 
  -6   6  -4    3.16    0.19 
  -6   6  -4    3.07    0.16 
  -7   6  -4    4.74    0.24 
  -7   6  -4    4.74    0.22 
  -7   6  -4    5.12    0.19 
  -8   6  -4    1.64    0.13 
   8  -6   4    1.62    0.11 
  -9   6  -4    1.18    0.10 
   9  -6   4    1.36    0.09 
   9   5  -4    8.37    0.32 
  -9  -5   4    8.07    0.27 
   8   5  -4    2.14    0.14 
   8   5  -4    1.96    0.13 
   8   5  -4    2.22    0.17 
  -8  -5   4    2.27    0.14 
   7   5  -4   14.04    0.45 
   7   5  -4   14.31    0.50 
   7   5  -4   14.11    0.45 
  -7  -5   4   13.61    0.43 
   6   5  -4    4.12    0.20 
  -6  -5   4    3.99    0.19 
   5   5  -4    2.63    0.29 
   4   5  -4    0.38    0.13 
   3   5  -4    5.51    0.34 
   2   5  -4   62.66    1.97 
   1   5  -4    2.41    0.26 
   1   5  -4    2.70    0.13 
   0   5  -4   40.98    1.57 
   0   5  -4   42.34    1.16 
  -1   5  -4   24.42    1.02 
  -1   5  -4   25.48    0.73 
  -2   5  -4   46.75    1.64 
  -2   5  -4   49.85    1.64 
  -2   5  -4   51.54    1.37 
  -3   5  -4    3.99    0.18 
  -3   5  -4    3.81    0.25 
  -3   5  -4    3.79    0.24 
  -4   5  -4   20.18    0.79 
  -4   5  -4   19.52    0.61 
  -4   5  -4   20.16    0.78 
  -5   5  -4   30.95    0.94 
  -5   5  -4   32.92    1.20 
  -5   5  -4   32.18    1.20 
  -6   5  -4    0.32    0.07 
  -6   5  -4    0.24    0.07 
  -6   5  -4    0.17    0.07 
  -7   5  -4   11.54    0.42 
  -7   5  -4   11.11    0.37 
  -7   5  -4   10.48    0.33 
   7  -5   4   11.08    0.35 
  -8   5  -4   17.78    0.54 
   8  -5   4   17.55    0.51 
  -9   5  -4    0.38    0.07 
  -9   5  -4    0.41    0.07 
   9  -5   4    0.44    0.07 
  10  -5   4    2.69    0.11 
  10   4  -4    0.03    0.06 
  10   4  -4    0.05    0.04 
   9   4  -4    0.14    0.06 
   9   4  -4    0.22    0.07 
  -9  -4   4    0.23    0.06 
   8   4  -4    8.54    0.31 
   8   4  -4    8.55    0.32 
   8   4  -4    8.91    0.36 
  -8  -4   4    8.67    0.30 
   7   4  -4    5.18    0.26 
   7   4  -4    5.09    0.23 
   7   4  -4    5.44    0.23 
  -7  -4   4    5.46    0.22 
   6   4  -4    0.42    0.17 
   6   4  -4    0.51    0.10 
   5   4  -4    1.37    0.23 
   4   4  -4    8.44    0.45 
   3   4  -4    2.16    0.20 
   3   4  -4    2.27    0.28 
   2   4  -4    1.00    0.13 
   2   4  -4    0.96    0.18 
   2   4  -4    0.97    0.09 
   1   4  -4    0.03    0.04 
   1   4  -4    0.01    0.09 
   1   4  -4    0.11    0.05 
   0   4  -4    4.18    0.16 
   0   4  -4    4.21    0.30 
  -1   4  -4    9.87    0.32 
  -1   4  -4    9.75    0.49 
  -2   4  -4    3.55    0.18 
  -2   4  -4    3.70    0.26 
  -2   4  -4    3.57    0.15 
  -2   4  -4    3.24    0.17 
  -2   4  -4    3.33    0.18 
  -3   4  -4    7.56    0.27 
  -3   4  -4    7.20    0.37 
  -3   4  -4    7.72    0.35 
  -4   4  -4    2.42    0.22 
  -4   4  -4    2.67    0.15 
  -5   4  -4   37.05    1.32 
  -5   4  -4   35.33    1.05 
  -6   4  -4   10.61    0.60 
  -6   4  -4   10.78    0.40 
  -6   4  -4   11.64    0.36 
  -7   4  -4    2.63    0.17 
  -7   4  -4    2.70    0.16 
  -7   4  -4    2.79    0.18 
   7  -4   4    2.64    0.15 
  -8   4  -4    0.63    0.10 
  -8   4  -4    0.42    0.08 
  -8   4  -4    0.60    0.09 
   8  -4   4    0.67    0.09 
  -9   4  -4    4.32    0.20 
  -9   4  -4    4.45    0.21 
   9  -4   4    4.51    0.18 
 -10   4  -4    1.13    0.10 
  10  -4   4    1.12    0.08 
  10   3  -4    0.09    0.06 
  10   3  -4    0.08    0.05 
   9   3  -4    2.14    0.14 
   9   3  -4    2.10    0.16 
  -9  -3   4    1.72    0.13 
   8   3  -4    0.99    0.11 
   8   3  -4    1.12    0.13 
  -8  -3   4    1.02    0.11 
   7   3  -4    1.49    0.13 
   7   3  -4    1.64    0.15 
  -7  -3   4    1.83    0.13 
   6   3  -4    9.13    0.56 
   6   3  -4    9.07    0.34 
   5   3  -4    3.14    0.29 
   4   3  -4    0.94    0.17 
   4   3  -4    1.03    0.16 
   3   3  -4    3.79    0.29 
   3   3  -4    3.82    0.24 
   2   3  -4  276.81    8.09 
   2   3  -4  276.97    8.87 
   1   3  -4   89.08    2.58 
   1   3  -4   85.85    2.93 
   0   3  -4    3.33    0.24 
  -1   3  -4    4.57    0.28 
  -1   3  -4    4.57    0.17 
  -2   3  -4    0.39    0.10 
  -2   3  -4    0.45    0.08 
  -2   3  -4    0.48    0.08 
  -2   3  -4    0.54    0.07 
  -3   3  -4   82.42    2.58 
  -3   3  -4   90.44    2.30 
  -3   3  -4   81.07    2.80 
  -4   3  -4    2.75    0.23 
  -4   3  -4    3.20    0.15 
  -5   3  -4   10.74    0.38 
  -5   3  -4   10.97    0.55 
  -6   3  -4    3.04    0.31 
  -6   3  -4    3.16    0.18 
  -7   3  -4    1.76    0.14 
  -7   3  -4    1.51    0.13 
  -7   3  -4    1.61    0.13 
   7  -3   4    1.51    0.12 
  -8   3  -4   20.29    0.61 
  -8   3  -4   20.52    0.63 
  -8   3  -4   20.12    0.66 
   8  -3   4   20.57    0.58 
  -9   3  -4    6.85    0.27 
  -9   3  -4    6.72    0.27 
   9  -3   4    7.17    0.25 
  10  -3   4    0.79    0.07 
  11   2  -4    0.03    0.04 
 -11  -2   4    0.06    0.04 
  10   2  -4    2.12    0.14 
  10   2  -4    1.89    0.13 
 -10  -2   4    1.84    0.13 
   9   2  -4    0.07    0.06 
   9   2  -4    0.04    0.06 
  -9  -2   4    0.07    0.05 
  -9  -2   4    0.16    0.08 
   8   2  -4    5.60    0.25 
   8   2  -4    5.43    0.26 
  -8  -2   4    5.39    0.22 
   7   2  -4   16.56    0.86 
   7   2  -4   17.06    0.56 
   6   2  -4   19.77    0.89 
   5   2  -4   19.02    0.82 
   5   2  -4   19.62    0.77 
   4   2  -4   14.28    0.52 
   4   2  -4   12.74    0.59 
   3   2  -4   21.32    0.85 
   3   2  -4   21.46    0.78 
   2   2  -4   84.32    2.86 
   2   2  -4   87.58    2.59 
   1   2  -4  201.76    6.94 
   1   2  -4  232.19    6.32 
   0   2  -4    0.08    0.09 
   0   2  -4    0.17    0.04 
  -1   2  -4    0.77    0.08 
  -1   2  -4    0.68    0.06 
  -1   2  -4    0.80    0.13 
  -2   2  -4    0.01    0.07 
  -2   2  -4    0.00    0.05 
  -2   2  -4    0.08    0.06 
  -3   2  -4   21.51    0.61 
  -3   2  -4   21.03    0.75 
  -3   2  -4   20.03    0.81 
  -4   2  -4   28.13    1.01 
  -4   2  -4   27.88    0.81 
  -5   2  -4   12.10    0.57 
  -5   2  -4   10.44    0.37 
  -6   2  -4    0.06    0.06 
  -6   2  -4   -0.02    0.10 
  -6   2  -4    0.01    0.05 
  -7   2  -4   12.45    0.42 
  -7   2  -4   13.15    0.41 
  -7   2  -4   12.75    0.44 
  -7   2  -4   13.79    0.47 
   7  -2   4   12.86    0.40 
  -8   2  -4   23.86    0.73 
  -8   2  -4   24.31    0.69 
  -8   2  -4   24.33    0.71 
  -8   2  -4   23.92    0.70 
  -8   2  -4   23.42    0.76 
   8  -2   4   24.28    0.67 
  -9   2  -4    4.43    0.18 
  -9   2  -4    4.16    0.20 
   9  -2   4    4.43    0.19 
 -10   2  -4    4.47    0.19 
  10  -2   4    4.64    0.16 
  11   1  -4    1.21    0.09 
 -11  -1   4    1.14    0.10 
  10   1  -4    0.08    0.05 
  10   1  -4    0.05    0.05 
 -10  -1   4    0.03    0.05 
   9   1  -4    4.01    0.22 
   9   1  -4    4.07    0.21 
  -9  -1   4    4.45    0.23 
  -9  -1   4    4.49    0.22 
   8   1  -4   17.67    0.54 
   8   1  -4   17.37    0.56 
  -8  -1   4   16.32    0.54 
  -8  -1   4   16.74    0.50 
   7   1  -4    0.34    0.08 
   7   1  -4    0.33    0.17 
  -7  -1   4    0.31    0.07 
   6   1  -4   28.84    1.16 
   5   1  -4   33.94    1.29 
   5   1  -4   31.89    1.21 
   4   1  -4   25.39    0.95 
   4   1  -4   23.37    0.90 
   4   1  -4   24.19    0.94 
   3   1  -4   65.77    2.04 
   3   1  -4   65.02    2.25 
   3   1  -4   62.39    2.19 
   3   1  -4   67.22    2.25 
   2   1  -4    5.39    0.22 
   2   1  -4    5.20    0.22 
   2   1  -4    5.50    0.26 
   2   1  -4    5.30    0.30 
   1   1  -4    2.36    0.15 
   1   1  -4    2.68    0.20 
   0   1  -4   98.19    3.19 
   0   1  -4   99.36    2.95 
   0   1  -4  101.89    3.27 
  -1   1  -4   12.66    0.48 
  -1   1  -4   12.59    0.45 
  -1   1  -4   12.90    0.53 
  -2   1  -4   51.06    1.73 
  -2   1  -4   49.26    1.58 
  -2   1  -4   52.44    1.74 
  -3   1  -4   37.81    1.04 
  -3   1  -4   36.47    1.24 
  -4   1  -4   82.42    2.20 
  -4   1  -4   79.38    2.56 
  -5   1  -4    9.42    0.34 
  -5   1  -4   10.39    0.53 
  -6   1  -4   17.07    0.78 
  -6   1  -4   15.01    0.51 
  -6   1  -4   15.20    0.49 
  -7   1  -4    2.44    0.15 
  -7   1  -4    2.61    0.17 
  -7   1  -4    2.74    0.17 
  -7   1  -4    2.65    0.17 
   7  -1   4    2.86    0.16 
  -8   1  -4    0.54    0.08 
  -8   1  -4    0.59    0.10 
  -8   1  -4    0.54    0.09 
   8  -1   4    0.68    0.09 
  -9   1  -4    1.47    0.11 
  -9   1  -4    1.54    0.12 
   9  -1   4    1.36    0.11 
 -10   1  -4    1.25    0.08 
  11   0  -4    1.05    0.09 
 -11   0   4    1.18    0.10 
  10   0  -4    2.64    0.16 
  10   0  -4    2.51    0.14 
 -10   0   4    2.55    0.16 
   9   0  -4    6.40    0.27 
   9   0  -4    6.23    0.27 
  -9   0   4    6.51    0.29 
  -9   0   4    6.43    0.27 
   8   0  -4    3.88    0.21 
   8   0  -4    3.80    0.20 
  -8   0   4    3.70    0.21 
  -8   0   4    3.75    0.19 
  -8   0   4    3.63    0.17 
  -8   0   4    3.86    0.21 
   7   0  -4    8.92    0.33 
  -7   0   4    8.35    0.31 
   6   0  -4    0.07    0.10 
   5   0  -4   78.31    2.54 
   4   0  -4    1.78    0.20 
   3   0  -4    0.44    0.11 
   3   0  -4    0.54    0.12 
   3   0  -4    0.57    0.11 
   3   0  -4    0.33    0.08 
  -3   0   4    0.54    0.11 
   2   0  -4    0.77    0.10 
   2   0  -4    0.82    0.11 
   2   0  -4    0.91    0.12 
   2   0  -4    0.87    0.13 
   2   0  -4    0.86    0.11 
  -2   0   4    0.99    0.13 
   1   0  -4    5.76    0.27 
   1   0  -4    5.87    0.27 
   1   0  -4    6.52    0.30 
   1   0  -4    5.55    0.27 
  -1   0   4    5.93    0.28 
  -1   0   4    5.63    0.30 
   0   0  -4   30.89    0.99 
   0   0  -4   30.47    1.09 
   0   0  -4   31.51    1.10 
   0   0  -4   32.58    1.08 
   0   0   4   28.82    1.13 
  -1   0  -4   20.52    0.78 
  -1   0  -4   21.67    0.73 
  -1   0  -4   21.77    0.79 
  -1   0  -4   21.52    0.80 
   1   0   4   21.56    0.74 
  -2   0  -4    1.43    0.13 
  -2   0  -4    1.33    0.16 
  -2   0  -4    1.43    0.13 
  -3   0  -4    4.28    0.17 
  -3   0  -4    4.49    0.27 
  -3   0  -4    4.79    0.26 
  -3   0  -4    4.26    0.28 
  -4   0  -4    0.05    0.05 
  -4   0  -4    0.07    0.09 
  -4   0  -4    0.04    0.06 
  -5   0  -4    5.92    0.24 
  -5   0  -4    5.86    0.40 
  -6   0  -4   -0.02    0.05 
  -6   0  -4   -0.06    0.05 
  -6   0  -4    0.13    0.14 
  -7   0  -4    2.70    0.17 
  -7   0  -4    2.62    0.16 
  -7   0  -4    2.63    0.16 
   7   0   4    2.55    0.16 
  -8   0  -4    0.71    0.11 
  -8   0  -4    0.80    0.10 
  -8   0  -4    0.65    0.09 
   8   0   4    0.90    0.09 
  -9   0  -4    0.11    0.06 
  -9   0  -4    0.01    0.05 
   9   0   4    0.12    0.05 
 -10   0  -4    3.91    0.15 
  10   0   4    3.82    0.17 
  11  -1  -4    1.67    0.10 
 -11   1   4    1.72    0.11 
  10  -1  -4    8.67    0.31 
 -10   1   4    8.66    0.31 
   9  -1  -4    1.38    0.13 
   9  -1  -4    1.29    0.12 
  -9   1   4    1.26    0.13 
  -9   1   4    1.38    0.12 
   8  -1  -4   24.56    0.74 
   8  -1  -4   24.10    0.72 
  -8   1   4   25.09    0.73 
  -8   1   4   24.12    0.73 
   7  -1  -4    3.97    0.20 
  -7   1   4    4.10    0.19 
  -7   1   4    4.16    0.20 
   5  -1  -4   74.53    2.42 
  -5   1   4   74.08    2.42 
   4  -1  -4    1.76    0.20 
  -4   1   4    1.91    0.22 
   3  -1  -4   32.68    1.19 
   3  -1  -4   32.49    1.13 
  -3   1   4   33.18    1.13 
   2  -1  -4    0.34    0.09 
   2  -1  -4    0.25    0.09 
  -2   1   4    0.46    0.11 
   1  -1  -4    0.65    0.11 
   1  -1  -4    0.73    0.12 
   1  -1  -4    0.62    0.10 
  -1   1   4    0.81    0.13 
   0  -1  -4   23.30    0.80 
   0  -1  -4   22.34    0.88 
   0  -1  -4   23.41    0.90 
   0   1   4   23.56    0.81 
  -1  -1  -4    7.18    0.33 
  -1  -1  -4    7.06    0.35 
  -1  -1  -4    6.80    0.35 
   1   1   4    6.61    0.34 
  -2  -1  -4   45.31    1.40 
  -2  -1  -4   40.69    1.55 
   2   1   4   41.01    1.41 
  -3  -1  -4   13.38    0.59 
  -4  -1  -4   25.69    0.99 
  -5  -1  -4   14.97    0.72 
  -6  -1  -4    9.73    0.34 
  -6  -1  -4    8.88    0.58 
   6   1   4    9.18    0.34 
  -7  -1  -4    3.00    0.17 
  -7  -1  -4    3.25    0.18 
   7   1   4    2.91    0.16 
   7   1   4    3.06    0.20 
  -8  -1  -4    1.26    0.12 
  -8  -1  -4    1.28    0.12 
   8   1   4    0.90    0.11 
   8   1   4    1.15    0.10 
  -9  -1  -4   15.46    0.48 
  -9  -1  -4   17.04    0.49 
   9   1   4   15.49    0.50 
 -10  -1  -4    0.13    0.04 
  10   1   4    0.13    0.05 
  11  -2  -4    7.78    0.25 
 -11   2   4    7.32    0.24 
  10  -2  -4    0.40    0.08 
 -10   2   4    0.54    0.08 
 -10   2   4    0.37    0.08 
   9  -2  -4    2.77    0.17 
  -9   2   4    3.22    0.19 
  -9   2   4    2.78    0.17 
   8  -2  -4    1.12    0.11 
   8  -2  -4    0.95    0.12 
   8  -2  -4    0.92    0.10 
  -8   2   4    1.04    0.11 
  -8   2   4    1.28    0.13 
   7  -2  -4   20.85    0.64 
  -7   2   4   20.86    0.63 
   6  -2  -4    7.32    0.28 
  -6   2   4    7.60    0.28 
  -6   2   4    7.23    0.48 
  -5   2   4    0.20    0.11 
   4  -2  -4   18.95    0.77 
  -4   2   4   19.07    0.78 
   3  -2  -4    2.51    0.22 
  -3   2   4    3.26    0.25 
   2  -2  -4    8.09    0.39 
  -2   2   4    8.62    0.42 
   1  -2  -4   26.31    0.92 
  -1   2   4   26.18    0.94 
   0  -2  -4   36.18    1.22 
   0   2   4   37.63    1.25 
  -1  -2  -4   37.14    1.26 
   1   2   4   38.02    1.29 
  -2  -2  -4   49.24    1.63 
   2   2   4   49.77    1.67 
  -3  -2  -4   96.46    3.04 
   3   2   4   97.34    3.08 
  -4  -2  -4    2.30    0.25 
  -5  -2  -4    1.78    0.13 
   5   2   4    1.49    0.14 
  -6  -2  -4   18.98    0.57 
   6   2   4   18.01    0.52 
   6   2   4   18.35    0.58 
  -7  -2  -4    4.78    0.22 
  -7  -2  -4    5.22    0.23 
   7   2   4    4.78    0.25 
   7   2   4    4.57    0.22 
  -8  -2  -4    4.55    0.20 
  -8  -2  -4    4.71    0.21 
   8   2   4    4.72    0.23 
  -9  -2  -4    0.18    0.06 
  -9  -2  -4    0.17    0.05 
   9   2   4    0.17    0.06 
 -10  -2  -4    0.74    0.07 
  10  -3  -4    5.19    0.22 
 -10   3   4    5.02    0.21 
 -10   3   4    5.51    0.21 
   9  -3  -4    0.35    0.08 
  -9   3   4    0.36    0.08 
  -9   3   4    0.21    0.07 
   8  -3  -4    2.42    0.14 
   8  -3  -4    2.42    0.16 
  -8   3   4    2.51    0.16 
  -8   3   4    2.01    0.17 
   7  -3  -4    0.23    0.06 
   7  -3  -4    0.14    0.06 
  -7   3   4    0.32    0.07 
  -7   3   4    0.20    0.08 
   6  -3  -4    0.07    0.05 
  -6   3   4    0.43    0.16 
  -6   3   4    0.11    0.06 
  -5   3   4    0.03    0.11 
  -4   3   4    0.43    0.14 
  -3   3   4    1.76    0.23 
   2  -3  -4    6.99    0.38 
  -2   3   4    7.57    0.41 
   1  -3  -4   32.31    1.14 
  -1   3   4   33.93    1.18 
   0  -3  -4   76.69    2.41 
   0   3   4   76.77    2.45 
  -1  -3  -4    6.66    0.37 
   1   3   4    6.65    0.40 
  -2  -3  -4   18.38    0.76 
   2   3   4   18.92    0.81 
   3   3   4   10.08    0.56 
  -4  -3  -4    1.32    0.11 
   4   3   4    1.40    0.13 
  -5  -3  -4    5.57    0.23 
   5   3   4    5.65    0.25 
  -6  -3  -4    7.31    0.28 
  -6  -3  -4    7.43    0.30 
   6   3   4    7.62    0.31 
  -7  -3  -4    2.32    0.14 
  -7  -3  -4    2.13    0.16 
   7   3   4    2.18    0.16 
   7   3   4    2.43    0.17 
  -8  -3  -4    0.74    0.09 
   8   3   4    0.65    0.09 
  -9  -3  -4    2.85    0.14 
   9   3   4    2.84    0.14 
  10  -4  -4    0.18    0.06 
 -10   4   4    0.08    0.05 
   9  -4  -4    1.37    0.13 
   9  -4  -4    1.49    0.10 
  -9   4   4    1.38    0.12 
  -9   4   4    1.48    0.13 
   8  -4  -4   15.99    0.45 
  -8   4   4   14.91    0.50 
  -8   4   4   15.51    0.50 
   7  -4  -4    0.03    0.05 
  -7   4   4   -0.08    0.05 
  -7   4   4    0.09    0.07 
  -6   4   4    4.08    0.20 
  -6   4   4    3.84    0.41 
  -5   4   4    0.69    0.22 
  -5   4   4    0.61    0.09 
  -4   4   4   46.03    1.68 
  -3   4   4   38.67    1.42 
  -2   4   4    8.31    0.47 
  -1   4   4   35.44    1.30 
   0   4   4    5.08    0.36 
   1   4   4    4.65    0.36 
   2   4   4    0.43    0.16 
   3   4   4    9.89    0.59 
   3   4   4    9.14    0.34 
  -4  -4  -4    9.15    0.32 
   4   4   4    9.43    0.35 
  -5  -4  -4    2.56    0.15 
  -5  -4  -4    2.59    0.14 
  -5  -4  -4    2.73    0.17 
   5   4   4    2.67    0.18 
   5   4   4    2.63    0.17 
  -6  -4  -4   15.15    0.50 
  -6  -4  -4   15.74    0.48 
   6   4   4   14.87    0.52 
   6   4   4   15.64    0.51 
  -7  -4  -4    2.63    0.17 
   7   4   4    2.94    0.18 
   7   4   4    2.56    0.16 
  -8  -4  -4    0.27    0.06 
   8   4   4    0.23    0.07 
  -9  -4  -4    0.12    0.04 
   9   4   4    0.10    0.04 
   9  -5  -4    9.54    0.29 
  -9   5   4    9.66    0.33 
  -9   5   4    9.40    0.31 
   8  -5  -4    4.87    0.20 
  -8   5   4    4.94    0.23 
  -8   5   4    4.84    0.22 
   7  -5  -4   10.65    0.33 
  -7   5   4    9.96    0.38 
  -7   5   4    9.98    0.37 
   6  -5  -4    2.20    0.14 
  -6   5   4    2.30    0.17 
  -6   5   4    2.19    0.16 
  -5   5   4    4.78    0.46 
  -5   5   4    5.42    0.24 
  -4   5   4   33.38    1.34 
  -4   5   4   32.75    0.95 
  -3   5   4    5.57    0.42 
  -2   5   4   47.98    1.73 
  -1   5   4    1.12    0.21 
   0   5   4   23.30    1.00 
   1   5   4   39.04    1.49 
   2   5   4    0.29    0.08 
   2   5   4    0.32    0.18 
   3   5   4   25.25    1.15 
   3   5   4   25.45    0.77 
  -4  -5  -4    1.59    0.12 
   4   5   4    1.68    0.16 
  -5  -5  -4   12.92    0.44 
  -5  -5  -4   13.31    0.40 
   5   5   4   12.80    0.46 
   5   5   4   13.19    0.45 
  -6  -5  -4   17.26    0.54 
   6   5   4   17.68    0.55 
   6   5   4   17.17    0.57 
  -7  -5  -4    5.14    0.22 
   7   5   4    5.36    0.23 
   7   5   4    4.99    0.22 
  -8  -5  -4   11.91    0.36 
   8   5   4   12.11    0.36 
   9  -6  -4    0.39    0.05 
  -9   6   4    0.48    0.07 
   8  -6  -4   10.62    0.33 
  -8   6   4   11.32    0.38 
  -8   6   4   10.79    0.35 
   7  -6  -4    0.45    0.07 
  -7   6   4    0.35    0.08 
  -7   6   4    0.34    0.08 
   6  -6  -4    0.05    0.06 
  -6   6   4   -0.04    0.06 
  -6   6   4    0.00    0.06 
  -6   6   4    0.00    0.07 
   5  -6  -4   15.11    0.44 
  -5   6   4   14.44    0.47 
  -5   6   4   14.47    0.47 
  -5   6   4   13.57    0.48 
   4  -6  -4    7.87    0.28 
  -4   6   4    7.90    0.31 
  -4   6   4    7.82    0.31 
  -3   6   4   22.52    1.04 
  -3   6   4   22.03    0.67 
  -3   6   4   22.79    0.68 
  -2   6   4    8.09    0.56 
  -2   6   4    8.68    0.32 
  -1   6   4    2.02    0.14 
  -1   6   4    2.02    0.31 
   0   6   4    2.41    0.16 
   0   6   4    2.37    0.34 
   1   6   4    0.65    0.21 
   1   6   4    0.60    0.10 
  -2  -6  -4   22.36    0.62 
  -3  -6  -4    2.08    0.14 
   3   6   4    2.43    0.18 
  -4  -6  -4    0.34    0.07 
   4   6   4    0.25    0.08 
   4   6   4    0.07    0.08 
  -5  -6  -4    1.64    0.12 
   5   6   4    1.70    0.15 
   5   6   4    1.67    0.15 
  -6  -6  -4    8.95    0.33 
   6   6   4    9.33    0.33 
   6   6   4   10.05    0.35 
   7   6   4    7.82    0.26 
   7   6   4    7.43    0.28 
   8  -7  -4    0.59    0.06 
  -8   7   4    0.66    0.08 
  -8   7   4    0.62    0.08 
   7  -7  -4    7.61    0.25 
  -7   7   4    7.61    0.28 
  -7   7   4    7.73    0.30 
   6  -7  -4    7.12    0.25 
  -6   7   4    7.17    0.28 
  -6   7   4    6.98    0.29 
  -6   7   4    7.14    0.27 
  -6   7   4    7.30    0.28 
   5  -7  -4    0.30    0.07 
  -5   7   4    0.28    0.08 
  -5   7   4    0.29    0.08 
  -5   7   4    0.15    0.08 
  -5   7   4    0.46    0.09 
   4  -7  -4   26.47    0.71 
  -4   7   4   25.90    0.75 
  -4   7   4   25.79    0.79 
  -4   7   4   26.08    0.75 
  -4   7   4   25.64    0.77 
   3  -7  -4    0.75    0.09 
  -3   7   4    0.74    0.10 
  -3   7   4    0.74    0.10 
  -3   7   4    0.63    0.10 
   2  -7  -4    2.34    0.14 
  -2   7   4    2.35    0.16 
  -2   7   4    2.40    0.16 
  -2   7   4    2.08    0.15 
   1  -7  -4    0.16    0.06 
  -1   7   4   -0.06    0.06 
  -1   7   4    0.10    0.07 
  -1   7   4    0.12    0.07 
   0  -7  -4   30.04    0.80 
   0   7   4   29.47    0.84 
   0   7   4   30.43    0.85 
   0   7   4   29.58    0.89 
  -1  -7  -4    2.21    0.14 
   1   7   4    1.93    0.16 
   1   7   4    2.31    0.17 
  -2  -7  -4    1.28    0.11 
   2   7   4    1.16    0.14 
   2   7   4    1.03    0.12 
  -3  -7  -4   11.13    0.35 
   3   7   4   11.27    0.42 
  -4  -7  -4    0.88    0.09 
   4   7   4    0.80    0.09 
   4   7   4    0.76    0.11 
  -5  -7  -4    1.27    0.10 
   5   7   4    1.26    0.13 
   5   7   4    1.12    0.11 
   6   7   4    5.44    0.22 
   6   7   4    5.29    0.19 
   8  -8  -4    7.76    0.23 
  -7   8   4   15.93    0.47 
  -7   8   4   15.51    0.48 
   6  -8  -4    1.24    0.10 
  -6   8   4    1.20    0.11 
  -6   8   4    1.44    0.12 
   5  -8  -4    7.32    0.25 
  -5   8   4    6.81    0.28 
  -5   8   4    7.24    0.28 
   4  -8  -4    0.28    0.07 
  -4   8   4    0.54    0.09 
  -4   8   4    0.23    0.08 
   3  -8  -4    4.41    0.19 
  -3   8   4    4.00    0.21 
  -3   8   4    3.83    0.21 
   2  -8  -4    1.18    0.11 
  -2   8   4    0.91    0.11 
  -2   8   4    1.06    0.13 
   1  -8  -4    9.33    0.31 
  -1   8   4    9.25    0.34 
  -1   8   4    8.95    0.35 
  -1   8   4    9.18    0.32 
   0  -8  -4   17.33    0.50 
   0   8   4   17.08    0.54 
   0   8   4   17.26    0.57 
  -1  -8  -4   10.77    0.34 
   1   8   4    9.87    0.39 
   1   8   4   10.07    0.36 
  -2  -8  -4   21.53    0.60 
   2   8   4   22.10    0.68 
   2   8   4   21.13    0.64 
  -3  -8  -4    4.62    0.19 
   3   8   4    5.06    0.20 
   3   8   4    5.26    0.24 
  -4  -8  -4    8.09    0.26 
   4   8   4    7.79    0.26 
   4   8   4    8.39    0.31 
  -5  -8  -4    3.48    0.14 
   5   8   4    3.58    0.18 
   6  -9  -4    7.38    0.23 
  -6   9   4    7.35    0.25 
   5  -9  -4    0.42    0.06 
  -5   9   4    0.28    0.07 
  -5   9   4    0.46    0.08 
   4  -9  -4    0.94    0.09 
  -4   9   4    0.78    0.10 
  -4   9   4    0.92    0.10 
   3  -9  -4    3.09    0.15 
  -3   9   4    3.10    0.17 
  -3   9   4    2.83    0.18 
   2  -9  -4    2.35    0.13 
  -2   9   4    2.04    0.16 
  -2   9   4    1.98    0.15 
   1  -9  -4   13.30    0.41 
  -1   9   4   14.15    0.47 
  -1   9   4   13.94    0.44 
   0  -9  -4    6.25    0.23 
   0   9   4    6.46    0.26 
   0   9   4    6.61    0.28 
  -1  -9  -4   12.58    0.37 
   1   9   4   13.14    0.44 
   1   9   4   11.94    0.40 
  -2  -9  -4    1.94    0.12 
   2   9   4    1.96    0.15 
   2   9   4    1.67    0.13 
  -3  -9  -4    1.49    0.10 
   3   9   4    1.44    0.12 
  -4  -9  -4    6.70    0.20 
   5 -10  -4    6.37    0.19 
   4 -10  -4    1.11    0.08 
  -4  10   4    1.24    0.10 
   3 -10  -4    0.08    0.04 
  -3  10   4    0.13    0.06 
   2 -10  -4   10.97    0.31 
  -2  10   4   11.13    0.34 
  -2  10   4    9.46    0.35 
   1 -10  -4    0.12    0.05 
  -1  10   4    0.06    0.06 
  -1  10   4    0.00    0.05 
   0 -10  -4    8.17    0.25 
   0  10   4    8.18    0.28 
  -1 -10  -4    0.71    0.06 
   1  10   4    0.59    0.07 
  -2 -10  -4    0.07    0.04 
   2  12  -5    0.73    0.05 
   1  12  -5    0.08    0.03 
   0  12  -5    9.49    0.26 
  -1  12  -5   14.55    0.37 
  -2  12  -5    6.89    0.20 
  -3  12  -5    2.87    0.10 
   4  11  -5    0.46    0.05 
   4  11  -5    0.44    0.05 
   3  11  -5    4.12    0.15 
   3  11  -5    4.46    0.15 
   2  11  -5    0.50    0.06 
   2  11  -5    0.50    0.06 
   1  11  -5    6.62    0.21 
   0  11  -5   22.79    0.58 
  -1  11  -5   -0.01    0.03 
  -2  11  -5    0.33    0.05 
  -3  11  -5    1.32    0.08 
  -4  11  -5    6.20    0.19 
  -5  11  -5    2.32    0.09 
   6  10  -5    3.64    0.14 
  -6 -10   5    3.64    0.14 
   5  10  -5    2.92    0.12 
   5  10  -5    3.20    0.14 
   4  10  -5    1.82    0.11 
   4  10  -5    1.99    0.10 
   3  10  -5    6.41    0.21 
   3  10  -5    6.35    0.22 
   2  10  -5    0.39    0.06 
   2  10  -5    0.31    0.06 
   1  10  -5   26.93    0.68 
   0  10  -5    1.48    0.09 
  -1  10  -5    7.79    0.23 
  -2  10  -5    1.17    0.08 
  -3  10  -5    0.09    0.04 
  -4  10  -5   10.32    0.29 
  -5  10  -5    0.07    0.04 
  -5  10  -5    0.05    0.04 
  -6  10  -5    7.47    0.21 
  -6  10  -5    7.10    0.22 
   7   9  -5    4.89    0.17 
  -7  -9   5    4.51    0.17 
   6   9  -5    3.94    0.15 
   6   9  -5    4.30    0.17 
  -6  -9   5    4.11    0.16 
   5   9  -5    3.03    0.15 
   5   9  -5    2.90    0.13 
   4   9  -5    5.13    0.18 
   4   9  -5    5.09    0.21 
   3   9  -5    7.50    0.27 
   3   9  -5    7.55    0.24 
   2   9  -5    4.82    0.17 
   2   9  -5    4.39    0.19 
   1   9  -5    8.42    0.25 
   1   9  -5    8.11    0.19 
   0   9  -5    4.71    0.16 
   0   9  -5    4.70    0.12 
  -1   9  -5    0.20    0.03 
  -1   9  -5    0.21    0.04 
  -1   9  -5    0.13    0.02 
  -2   9  -5   13.54    0.28 
  -2   9  -5   14.04    0.37 
  -3   9  -5    1.67    0.07 
  -3   9  -5    1.77    0.09 
  -4   9  -5    6.57    0.21 
  -4   9  -5    6.46    0.23 
  -5   9  -5    4.68    0.17 
  -5   9  -5    4.54    0.18 
  -6   9  -5    0.20    0.05 
  -6   9  -5    0.40    0.06 
  -7   9  -5    4.66    0.16 
  -7   9  -5    4.73    0.17 
   8   8  -5    2.80    0.13 
  -8  -8   5    2.88    0.12 
   7   8  -5    0.22    0.06 
  -7  -8   5    0.16    0.05 
   6   8  -5    6.88    0.26 
   6   8  -5    7.44    0.24 
  -6  -8   5    7.45    0.26 
   5   8  -5    7.10    0.24 
   5   8  -5    7.16    0.27 
   4   8  -5    5.69    0.23 
   4   8  -5    5.90    0.20 
   3   8  -5   20.47    0.57 
   3   8  -5   19.68    0.52 
   2   8  -5   -0.03    0.02 
   1   8  -5    2.41    0.07 
   0   8  -5    0.38    0.03 
   0   8  -5    0.40    0.02 
  -2   8  -5   11.97    0.24 
  -3   8  -5    1.49    0.06 
  -3   8  -5    1.45    0.08 
  -4   8  -5   27.01    0.67 
  -4   8  -5   26.36    0.72 
  -5   8  -5    0.12    0.05 
  -5   8  -5    0.09    0.04 
  -6   8  -5   13.27    0.41 
  -6   8  -5   13.47    0.37 
  -7   8  -5    7.09    0.24 
  -7   8  -5    6.87    0.22 
  -8   8  -5    1.67    0.10 
   8  -8   5    1.91    0.10 
  -9  -7   5   16.50    0.44 
   8   7  -5    0.74    0.08 
   8   7  -5    0.67    0.10 
  -8  -7   5    0.86    0.08 
   7   7  -5    3.28    0.17 
  -7  -7   5    3.60    0.16 
   6   7  -5    0.49    0.08 
   6   7  -5    0.24    0.05 
  -6  -7   5    0.31    0.07 
   5   7  -5    5.35    0.20 
   5   7  -5    5.58    0.23 
   4   7  -5   15.32    0.46 
   2   7  -5   25.81    0.50 
   1   7  -5    0.32    0.07 
   0   7  -5   13.59    0.45 
  -1   7  -5   14.13    0.47 
  -2   7  -5    1.20    0.11 
  -3   7  -5   42.11    0.79 
  -3   7  -5   41.41    1.21 
  -4   7  -5    5.51    0.21 
  -4   7  -5    5.80    0.26 
  -5   7  -5   26.27    0.80 
  -5   7  -5   25.98    0.72 
  -5   7  -5   25.58    0.66 
  -6   7  -5   10.21    0.34 
  -6   7  -5   10.05    0.30 
  -6   7  -5    9.74    0.38 
  -7   7  -5    4.06    0.19 
  -7   7  -5    4.33    0.17 
  -8   7  -5    3.67    0.15 
  -8   7  -5    4.30    0.17 
   8  -7   5    3.83    0.16 
  -9   7  -5    1.83    0.10 
   9  -7   5    1.79    0.09 
   9   6  -5    0.01    0.04 
   9   6  -5   -0.02    0.05 
  -9  -6   5   -0.06    0.04 
   8   6  -5    4.39    0.19 
   8   6  -5    4.06    0.22 
  -8  -6   5    4.12    0.18 
   7   6  -5    1.99    0.14 
  -7  -6   5    1.96    0.13 
   6   6  -5    8.58    0.27 
   6   6  -5    8.78    0.31 
  -6  -6   5    7.86    0.29 
   5   6  -5    3.33    0.17 
   4   6  -5    0.49    0.15 
   3   6  -5    4.21    0.31 
   1   6  -5    0.10    0.05 
   1   6  -5    0.11    0.05 
   0   6  -5    4.08    0.18 
   0   6  -5    4.03    0.36 
  -1   6  -5    8.40    0.30 
  -2   6  -5   34.21    0.96 
  -2   6  -5   31.31    1.14 
  -3   6  -5    0.64    0.09 
  -4   6  -5    5.19    0.12 
  -4   6  -5    5.00    0.23 
  -5   6  -5    5.94    0.23 
  -5   6  -5    5.79    0.26 
  -5   6  -5    5.85    0.22 
  -6   6  -5    0.81    0.11 
  -6   6  -5    0.65    0.08 
  -6   6  -5    0.62    0.07 
  -7   6  -5   10.96    0.37 
  -7   6  -5   11.54    0.34 
  -8   6  -5    0.62    0.08 
   8  -6   5    0.52    0.07 
  -9   6  -5    0.47    0.06 
   9  -6   5    0.56    0.06 
   9   5  -5    7.44    0.29 
   9   5  -5    7.22    0.26 
  -9  -5   5    7.46    0.25 
   8   5  -5   10.21    0.35 
   8   5  -5   10.42    0.39 
  -8  -5   5   10.06    0.33 
   7   5  -5    0.92    0.13 
   7   5  -5    0.98    0.11 
  -7  -5   5    0.78    0.09 
   6   5  -5   12.65    0.40 
  -6  -5   5   11.79    0.38 
   5   5  -5    0.07    0.10 
   4   5  -5   10.11    0.53 
   3   5  -5    0.37    0.15 
   3   5  -5    0.52    0.12 
   2   5  -5    1.89    0.17 
   2   5  -5    1.70    0.25 
   2   5  -5    2.01    0.13 
   1   5  -5   21.13    0.93 
   1   5  -5   20.61    0.62 
   0   5  -5    0.12    0.05 
   0   5  -5    0.21    0.12 
  -1   5  -5   48.36    1.33 
  -1   5  -5   46.72    1.76 
  -2   5  -5    4.94    0.23 
  -2   5  -5    5.25    0.21 
  -2   5  -5    4.71    0.23 
  -3   5  -5    0.00    0.04 
  -3   5  -5    0.11    0.07 
  -4   5  -5    0.05    0.09 
  -4   5  -5    0.12    0.06 
  -5   5  -5    0.80    0.18 
  -5   5  -5    0.99    0.11 
  -5   5  -5    1.27    0.21 
  -6   5  -5    2.34    0.12 
  -6   5  -5    2.43    0.16 
  -6   5  -5    2.30    0.14 
  -6   5  -5    2.22    0.15 
  -7   5  -5   -0.02    0.05 
  -7   5  -5   -0.09    0.04 
  -7   5  -5   -0.02    0.06 
   7  -5   5    0.05    0.05 
  -8   5  -5    9.86    0.34 
   8  -5   5   10.50    0.33 
  -9   5  -5    1.44    0.11 
  -9   5  -5    1.23    0.11 
   9  -5   5    1.38    0.10 
 -10  -4   5    6.57    0.21 
   9   4  -5    2.07    0.15 
   9   4  -5    1.86    0.12 
  -9  -4   5    1.89    0.12 
   8   4  -5    4.92    0.25 
   8   4  -5    5.30    0.23 
   8   4  -5    4.94    0.21 
  -8  -4   5    5.39    0.22 
   7   4  -5    9.58    0.33 
   7   4  -5    8.72    0.36 
   7   4  -5    9.09    0.32 
  -7  -4   5    9.15    0.32 
   6   4  -5    3.90    0.36 
   5   4  -5    6.87    0.45 
   4   4  -5    1.21    0.19 
   4   4  -5    1.05    0.21 
   3   4  -5   33.86    1.18 
   3   4  -5   35.57    1.38 
   2   4  -5   93.27    3.19 
   2   4  -5   94.22    2.52 
   2   4  -5   91.52    2.81 
   1   4  -5    0.06    0.04 
   1   4  -5    0.16    0.11 
   0   4  -5   19.82    0.85 
   0   4  -5   19.74    0.58 
  -1   4  -5   21.45    0.90 
  -1   4  -5   22.23    0.64 
  -2   4  -5   19.25    0.84 
  -2   4  -5   20.91    0.61 
  -2   4  -5   20.83    0.73 
  -3   4  -5    3.70    0.23 
  -3   4  -5    3.93    0.17 
  -3   4  -5    3.66    0.25 
  -4   4  -5    0.44    0.07 
  -4   4  -5    0.52    0.12 
  -5   4  -5   11.04    0.55 
  -5   4  -5    9.55    0.36 
  -6   4  -5    3.10    0.19 
  -6   4  -5    3.55    0.17 
  -7   4  -5    0.60    0.08 
  -7   4  -5    0.63    0.08 
  -7   4  -5    0.92    0.12 
  -7   4  -5    0.73    0.09 
  -7   4  -5    0.76    0.10 
   7  -4   5    0.83    0.10 
  -8   4  -5    8.16    0.31 
  -8   4  -5    8.25    0.32 
   8  -4   5    8.64    0.29 
  -9   4  -5    0.00    0.05 
  -9   4  -5    0.02    0.05 
   9  -4   5    0.05    0.05 
  10  -4   5    8.04    0.24 
  10   3  -5    0.03    0.05 
  10   3  -5   -0.02    0.04 
   9   3  -5    0.30    0.07 
   9   3  -5    0.30    0.08 
  -9  -3   5    0.29    0.07 
   8   3  -5   15.78    0.54 
   8   3  -5   15.94    0.50 
  -8  -3   5   16.02    0.48 
   7   3  -5    0.01    0.07 
   7   3  -5    0.10    0.06 
  -7  -3   5    0.13    0.05 
   6   3  -5   14.51    0.73 
   6   3  -5   13.75    0.47 
   5   3  -5   10.56    0.56 
   4   3  -5    3.32    0.26 
   4   3  -5    3.12    0.29 
   3   3  -5   52.48    1.72 
   3   3  -5   54.70    1.93 
   2   3  -5  133.05    3.59 
   2   3  -5  134.33    4.00 
   2   3  -5  135.71    4.45 
   1   3  -5   95.60    3.15 
   1   3  -5   92.01    2.77 
   0   3  -5   34.54    1.28 
  -1   3  -5    1.30    0.18 
  -1   3  -5    1.14    0.08 
  -1   3  -5    1.25    0.10 
  -2   3  -5    6.00    0.29 
  -2   3  -5    5.78    0.27 
  -2   3  -5    5.68    0.34 
  -2   3  -5    6.25    0.22 
  -3   3  -5    0.05    0.06 
  -3   3  -5    0.03    0.04 
  -3   3  -5    0.08    0.07 
  -4   3  -5   35.90    1.03 
  -4   3  -5   35.80    1.25 
  -5   3  -5   10.92    0.56 
  -5   3  -5   10.63    0.38 
  -6   3  -5    1.39    0.12 
  -6   3  -5    1.43    0.13 
  -6   3  -5    1.37    0.24 
  -7   3  -5    2.92    0.17 
  -7   3  -5    3.19    0.19 
  -7   3  -5    3.06    0.19 
   7  -3   5    3.03    0.16 
  -8   3  -5    4.21    0.20 
  -8   3  -5    3.84    0.19 
  -8   3  -5    3.78    0.20 
   8  -3   5    3.98    0.18 
  -9   3  -5    8.30    0.29 
  -9   3  -5    8.12    0.30 
   9  -3   5    8.07    0.27 
  10  -3   5    0.47    0.05 
  11   2  -5    0.34    0.05 
  10   2  -5    0.24    0.06 
  10   2  -5    0.26    0.07 
 -10  -2   5    0.23    0.07 
   9   2  -5   19.16    0.56 
   9   2  -5   17.86    0.59 
  -9  -2   5   18.03    0.52 
   8   2  -5    2.03    0.15 
   8   2  -5    2.26    0.17 
  -8  -2   5    2.17    0.14 
   7   2  -5   14.61    0.49 
   7   2  -5   13.97    0.45 
   7   2  -5   15.58    0.84 
   6   2  -5    1.09    0.22 
   5   2  -5    8.82    0.49 
   4   2  -5    6.55    0.37 
   3   2  -5    4.06    0.25 
   3   2  -5    3.95    0.29 
   2   2  -5  156.80    4.57 
   2   2  -5  151.21    5.02 
   1   2  -5    0.04    0.08 
   1   2  -5    0.07    0.05 
   0   2  -5   56.34    1.69 
   0   2  -5   55.79    1.94 
  -1   2  -5    4.56    0.21 
  -1   2  -5    4.86    0.30 
  -1   2  -5    4.02    0.21 
  -2   2  -5   12.25    0.48 
  -2   2  -5   12.24    0.52 
  -2   2  -5   12.58    0.56 
  -2   2  -5   12.44    0.38 
  -3   2  -5   -0.02    0.04 
  -3   2  -5    0.13    0.08 
  -3   2  -5   -0.02    0.06 
  -4   2  -5    4.80    0.31 
  -4   2  -5    4.17    0.19 
  -5   2  -5    7.90    0.30 
  -5   2  -5    8.52    0.48 
  -6   2  -5    7.97    0.32 
  -6   2  -5    7.89    0.30 
  -6   2  -5    8.74    0.53 
  -7   2  -5   15.22    0.52 
  -7   2  -5   14.66    0.49 
  -7   2  -5   14.44    0.45 
  -7   2  -5   15.10    0.47 
   7  -2   5   14.88    0.45 
  -8   2  -5   24.30    0.70 
  -8   2  -5   24.50    0.68 
  -8   2  -5   24.86    0.72 
  -8   2  -5   24.82    0.73 
  -8   2  -5   23.26    0.77 
   8  -2   5   24.37    0.67 
  -9   2  -5   -0.02    0.05 
   9  -2   5   -0.01    0.05 
  10  -2   5    0.03    0.03 
  11   1  -5    2.58    0.12 
 -11  -1   5    2.64    0.13 
  10   1  -5    0.63    0.09 
  10   1  -5    0.45    0.07 
 -10  -1   5    0.48    0.08 
   9   1  -5    0.79    0.11 
   9   1  -5    0.64    0.10 
  -9  -1   5    0.61    0.08 
  -9  -1   5    0.66    0.10 
   8   1  -5    2.11    0.15 
   8   1  -5    2.07    0.16 
  -8  -1   5    2.17    0.14 
   7   1  -5    0.06    0.06 
   7   1  -5    0.03    0.13 
   6   1  -5   17.36    0.82 
   5   1  -5   34.31    1.27 
   4   1  -5    7.39    0.35 
   4   1  -5    6.79    0.39 
   4   1  -5    7.63    0.36 
   3   1  -5   38.21    1.32 
   3   1  -5   39.79    1.39 
   3   1  -5   39.52    1.44 
   3   1  -5   41.68    1.40 
   2   1  -5    3.21    0.20 
   2   1  -5    3.05    0.24 
   1   1  -5   39.85    1.45 
   1   1  -5   40.70    1.39 
   1   1  -5   42.09    1.29 
   0   1  -5   12.10    0.45 
   0   1  -5   12.84    0.49 
   0   1  -5   11.65    0.54 
  -1   1  -5    1.59    0.15 
  -1   1  -5    1.48    0.14 
  -1   1  -5    1.52    0.18 
  -2   1  -5   85.41    2.86 
  -2   1  -5   84.76    2.84 
  -2   1  -5   85.60    2.61 
  -3   1  -5    5.96    0.22 
  -3   1  -5    5.63    0.32 
  -4   1  -5   30.98    1.15 
  -4   1  -5   32.23    0.91 
  -5   1  -5   19.45    0.84 
  -5   1  -5   19.29    0.60 
  -6   1  -5    0.22    0.07 
  -6   1  -5    0.14    0.07 
  -6   1  -5    0.17    0.15 
  -7   1  -5    7.30    0.30 
  -7   1  -5    7.48    0.28 
  -7   1  -5    7.74    0.32 
  -7   1  -5    7.74    0.29 
   7  -1   5    7.75    0.28 
  -8   1  -5    0.32    0.07 
  -8   1  -5    0.43    0.08 
   8  -1   5    0.47    0.08 
  -9   1  -5    3.97    0.17 
  -9   1  -5    4.02    0.19 
   9  -1   5    4.00    0.17 
  11   0  -5   10.69    0.32 
 -11   0   5   10.63    0.33 
  10   0  -5    0.05    0.05 
  10   0  -5    0.03    0.05 
 -10   0   5   -0.02    0.05 
   9   0  -5    8.87    0.34 
   9   0  -5    9.06    0.33 
  -9   0   5    8.88    0.34 
   8   0  -5   -0.02    0.06 
   8   0  -5    0.15    0.07 
  -8   0   5    0.05    0.05 
  -8   0   5    0.15    0.07 
  -8   0   5    0.30    0.08 
  -8   0   5    0.20    0.06 
   7   0  -5    3.87    0.20 
  -7   0   5    3.52    0.18 
   6   0  -5   32.10    1.27 
   6   0  -5   31.72    0.94 
   5   0  -5    6.55    0.41 
   4   0  -5   50.75    1.73 
   4   0  -5   52.45    1.89 
   3   0  -5    1.71    0.16 
   3   0  -5    1.42    0.18 
   3   0  -5    1.05    0.15 
   3   0  -5    1.13    0.14 
   2   0  -5    7.68    0.37 
   2   0  -5    8.23    0.42 
   2   0  -5    8.11    0.37 
   2   0  -5    8.32    0.37 
   1   0  -5    0.17    0.05 
   1   0  -5    0.12    0.05 
   1   0  -5    0.16    0.08 
   1   0  -5    0.18    0.05 
   1   0  -5    0.15    0.07 
   0   0  -5   24.28    0.88 
   0   0  -5   24.67    0.91 
   0   0  -5   24.13    0.88 
   0   0  -5   23.46    0.83 
  -1   0  -5   17.50    0.65 
  -1   0  -5   16.06    0.68 
  -1   0  -5   17.12    0.64 
  -1   0  -5   16.43    0.63 
  -2   0  -5    0.41    0.10 
  -2   0  -5    0.30    0.07 
  -2   0  -5    0.37    0.08 
  -3   0  -5   22.26    0.87 
  -3   0  -5   23.27    0.67 
  -3   0  -5   23.15    0.87 
  -3   0  -5   23.15    0.88 
  -4   0  -5   50.61    1.75 
  -4   0  -5   51.55    1.42 
  -5   0  -5   40.13    1.14 
  -5   0  -5   41.20    1.51 
  -5   0  -5   41.62    1.17 
  -6   0  -5    2.96    0.17 
  -6   0  -5    2.91    0.17 
  -6   0  -5    2.53    0.35 
  -7   0  -5    1.40    0.13 
  -7   0  -5    1.37    0.13 
   7   0   5    1.34    0.12 
  -8   0  -5    1.39    0.12 
  -8   0  -5    1.47    0.13 
   8   0   5    1.51    0.12 
  -9   0  -5    1.47    0.11 
  -9   0  -5    1.66    0.12 
   9   0   5    1.46    0.10 
  11  -1  -5    2.54    0.13 
 -11   1   5    2.88    0.13 
  10  -1  -5    6.80    0.27 
 -10   1   5    7.63    0.28 
   9  -1  -5    1.91    0.15 
   9  -1  -5    1.77    0.13 
  -9   1   5    1.43    0.12 
  -9   1   5    1.75    0.15 
   8  -1  -5    8.77    0.33 
   8  -1  -5    8.89    0.34 
  -8   1   5    8.56    0.32 
  -8   1   5    8.86    0.34 
   7  -1  -5    5.53    0.25 
  -7   1   5    5.55    0.23 
   6  -1  -5    0.74    0.19 
   6  -1  -5    1.20    0.12 
  -6   1   5    1.07    0.10 
   5  -1  -5    4.11    0.33 
   4  -1  -5    0.06    0.09 
   3  -1  -5    4.89    0.31 
   3  -1  -5    5.21    0.33 
  -3   1   5    5.28    0.33 
   2  -1  -5   10.46    0.47 
   2  -1  -5   10.04    0.49 
  -2   1   5   11.30    0.47 
   1  -1  -5    9.31    0.44 
   1  -1  -5    9.67    0.42 
  -1   1   5    9.60    0.43 
   0  -1  -5   16.05    0.66 
   0  -1  -5   15.07    0.69 
   0   1   5   17.14    0.63 
  -1  -1  -5   52.98    1.93 
  -1  -1  -5   53.69    1.73 
   1   1   5   55.20    1.76 
  -2  -1  -5    0.28    0.10 
  -2  -1  -5    0.40    0.11 
  -3  -1  -5   20.10    0.81 
  -4  -1  -5    2.86    0.28 
  -5  -1  -5   48.35    1.31 
  -5  -1  -5   48.10    1.73 
   5   1   5   46.31    1.30 
  -6  -1  -5   21.65    0.65 
   6   1   5   21.07    0.61 
  -7  -1  -5    2.45    0.16 
  -7  -1  -5    2.25    0.16 
   7   1   5    2.24    0.14 
  -8  -1  -5    0.12    0.06 
  -8  -1  -5    0.05    0.05 
   8   1   5    0.05    0.06 
   8   1   5    0.01    0.05 
  -9  -1  -5    0.04    0.04 
  -9  -1  -5   -0.03    0.04 
   9   1   5   -0.02    0.05 
  11  -2  -5    6.72    0.23 
 -11   2   5    6.81    0.22 
  10  -2  -5    6.38    0.24 
 -10   2   5    6.35    0.25 
   9  -2  -5    4.61    0.23 
  -9   2   5    4.54    0.21 
  -9   2   5    5.06    0.23 
   8  -2  -5    1.47    0.13 
   8  -2  -5    1.06    0.11 
  -8   2   5    1.48    0.14 
  -8   2   5    1.44    0.13 
   7  -2  -5   -0.01    0.06 
   7  -2  -5    0.04    0.06 
  -7   2   5    0.02    0.05 
   6  -2  -5   31.63    0.92 
  -6   2   5   32.91    0.92 
   4  -2  -5    3.35    0.28 
  -4   2   5    3.40    0.30 
   3  -2  -5    0.71    0.14 
  -3   2   5    1.08    0.19 
   2  -2  -5    9.24    0.45 
  -2   2   5    9.38    0.46 
   1  -2  -5   43.02    1.43 
  -1   2   5   42.74    1.45 
   0  -2  -5    9.17    0.44 
   0   2   5    9.41    0.47 
  -1  -2  -5   31.05    1.11 
   1   2   5   31.93    1.14 
   2   2   5   23.23    0.96 
  -3  -2  -5   12.29    0.60 
  -4  -2  -5   25.78    1.05 
  -4  -2  -5   25.84    0.75 
  -5  -2  -5    1.91    0.13 
   5   2   5    1.66    0.15 
  -6  -2  -5    0.75    0.10 
  -6  -2  -5    0.62    0.09 
   6   2   5    0.70    0.10 
   6   2   5    0.62    0.11 
   6   2   5    0.64    0.08 
  -7  -2  -5    1.42    0.13 
  -7  -2  -5    1.73    0.14 
   7   2   5    1.52    0.15 
   7   2   5    1.46    0.13 
  -8  -2  -5    0.18    0.06 
  -8  -2  -5    0.25    0.06 
   8   2   5    0.24    0.07 
  -9  -2  -5    5.62    0.20 
   9   2   5    5.19    0.21 
  10  -3  -5    0.03    0.05 
 -10   3   5    0.15    0.06 
   9  -3  -5    6.35    0.27 
  -9   3   5    7.09    0.27 
  -9   3   5    6.52    0.27 
   8  -3  -5    0.46    0.08 
   8  -3  -5    0.50    0.09 
  -8   3   5    0.45    0.09 
  -8   3   5    0.44    0.09 
   7  -3  -5    2.03    0.13 
   7  -3  -5    1.80    0.16 
   7  -3  -5    2.14    0.14 
  -7   3   5    2.21    0.15 
  -7   3   5    2.13    0.17 
   6  -3  -5    1.95    0.14 
  -6   3   5    1.95    0.14 
   5  -3  -5    3.45    0.17 
  -5   3   5    3.58    0.18 
  -5   3   5    3.32    0.35 
  -4   3   5   16.57    0.78 
  -3   3   5   -0.03    0.10 
   2  -3  -5    0.27    0.11 
  -2   3   5    0.58    0.15 
   1  -3  -5   14.22    0.62 
  -1   3   5   14.75    0.66 
   0  -3  -5    0.18    0.10 
   0   3   5    0.17    0.12 
  -1  -3  -5    2.44    0.24 
   1   3   5    2.37    0.25 
  -2  -3  -5    2.19    0.26 
   2   3   5    1.58    0.24 
  -4  -3  -5    6.06    0.24 
   4   3   5    5.54    0.25 
  -5  -3  -5    0.25    0.08 
  -5  -3  -5    0.24    0.07 
   5   3   5    0.36    0.09 
  -6  -3  -5    3.96    0.20 
  -6  -3  -5    4.34    0.22 
   6   3   5    4.16    0.23 
   6   3   5    4.20    0.22 
  -7  -3  -5    0.04    0.06 
  -7  -3  -5    0.09    0.06 
   7   3   5    0.02    0.07 
  -8  -3  -5    9.18    0.31 
   8   3   5    8.87    0.32 
  -9  -3  -5    0.40    0.05 
   9   3   5    0.39    0.06 
  10  -4  -5   11.57    0.35 
 -10   4   5   11.22    0.35 
   9  -4  -5    1.98    0.14 
  -9   4   5    2.40    0.14 
  -9   4   5    2.03    0.14 
   8  -4  -5   30.90    0.87 
   8  -4  -5   29.71    0.80 
  -8   4   5   30.61    0.87 
  -8   4   5   30.04    0.88 
   7  -4  -5    6.12    0.23 
  -7   4   5    6.25    0.27 
  -7   4   5    6.31    0.27 
   6  -4  -5    6.53    0.24 
  -6   4   5    6.55    0.28 
  -6   4   5    6.58    0.28 
   5  -4  -5    6.82    0.27 
  -5   4   5    7.15    0.28 
  -5   4   5    7.76    0.55 
  -4   4   5    4.16    0.20 
  -4   4   5    3.96    0.37 
  -3   4   5   70.45    2.38 
  -2   4   5   -0.01    0.10 
  -1   4   5    7.92    0.48 
   0   4   5   23.87    0.99 
   1   4   5    0.29    0.14 
   2   4   5   49.92    1.38 
  -3  -4  -5    3.55    0.17 
   3   4   5    3.64    0.20 
  -4  -4  -5    0.94    0.10 
  -4  -4  -5    1.03    0.10 
   4   4   5    1.13    0.13 
  -5  -4  -5    2.58    0.15 
  -5  -4  -5    2.80    0.18 
   5   4   5    2.41    0.17 
   5   4   5    2.48    0.17 
  -6  -4  -5    2.43    0.16 
  -6  -4  -5    2.25    0.14 
   6   4   5    2.40    0.17 
   6   4   5    1.87    0.16 
  -7  -4  -5   18.56    0.56 
   7   4   5   18.57    0.56 
   7   4   5   18.14    0.57 
  -8  -4  -5    2.88    0.14 
   8   4   5    2.82    0.15 
  -9   5   5   11.08    0.36 
  -9   5   5   11.20    0.35 
   8  -5  -5    4.89    0.19 
  -8   5   5    5.21    0.23 
  -8   5   5    4.65    0.22 
   7  -5  -5    3.96    0.18 
  -7   5   5    4.00    0.21 
  -7   5   5    4.54    0.22 
   6  -5  -5    0.77    0.09 
  -6   5   5    0.70    0.10 
  -6   5   5    0.40    0.09 
   5  -5  -5   21.91    0.62 
  -5   5   5   22.05    0.68 
  -5   5   5   22.74    0.68 
  -4   5   5   58.42    2.09 
  -4   5   5   56.52    1.57 
  -3   5   5    0.66    0.20 
  -3   5   5    0.62    0.09 
  -3   5   5    0.58    0.09 
  -2   5   5    6.17    0.46 
  -2   5   5    5.74    0.24 
  -1   5   5   16.97    0.82 
  -1   5   5   16.25    0.52 
   0  -5  -5   11.62    0.38 
   0   5   5   12.28    0.67 
   0   5   5   12.05    0.41 
  -1  -5  -5   27.81    0.79 
   1   5   5   28.21    0.83 
   1   5   5   28.95    1.21 
  -2  -5  -5   13.19    0.41 
   2   5   5   13.24    0.45 
   2   5   5   12.65    0.74 
  -3  -5  -5    1.55    0.12 
  -3  -5  -5    1.43    0.12 
   3   5   5    1.39    0.14 
  -4  -5  -5    0.45    0.10 
  -4  -5  -5    0.45    0.08 
   4   5   5    0.45    0.10 
  -5  -5  -5    4.13    0.22 
   5   5   5    4.05    0.22 
   5   5   5    4.00    0.21 
  -6  -5  -5   13.94    0.45 
   6   5   5   13.52    0.46 
   6   5   5   13.69    0.45 
  -7  -5  -5    0.44    0.07 
   7   5   5    0.58    0.08 
   7   5   5    0.51    0.08 
  -8  -5  -5    3.16    0.13 
   8   5   5    3.16    0.13 
   8  -6  -5    0.19    0.05 
  -8   6   5    0.10    0.06 
  -8   6   5    0.20    0.06 
  -8   6   5    0.13    0.06 
   7  -6  -5   18.18    0.52 
  -7   6   5   19.25    0.59 
  -7   6   5   18.76    0.56 
   6  -6  -5    0.81    0.09 
  -6   6   5    0.79    0.11 
  -6   6   5    0.73    0.10 
   5  -6  -5   12.45    0.38 
  -5   6   5   11.68    0.41 
  -5   6   5   11.87    0.42 
  -5   6   5   12.00    0.41 
   4  -6  -5   11.40    0.35 
  -4   6   5   10.92    0.39 
  -4   6   5   11.07    0.40 
  -4   6   5   11.24    0.39 
   3  -6  -5    1.53    0.12 
  -3   6   5    1.51    0.15 
  -3   6   5    1.49    0.13 
  -2   6   5   32.64    0.93 
  -2   6   5   31.30    0.90 
  -1   6   5    0.44    0.09 
  -1   6   5    0.54    0.22 
   0   6   5    5.33    0.25 
  -1  -6  -5    0.27    0.07 
   1   6   5    0.19    0.09 
   1   6   5    0.28    0.08 
  -2  -6  -5    1.21    0.11 
   2   6   5    1.10    0.13 
  -3  -6  -5    2.42    0.14 
   3   6   5    2.52    0.18 
  -4  -6  -5    0.21    0.06 
   4   6   5    0.35    0.09 
   4   6   5    0.18    0.08 
  -5  -6  -5   11.04    0.38 
   5   6   5   10.81    0.38 
   5   6   5   11.48    0.40 
  -6  -6  -5    1.36    0.12 
   6   6   5    1.70    0.12 
   6   6   5    1.47    0.13 
  -7  -6  -5    3.83    0.16 
   7   6   5    4.03    0.15 
   8  -7  -5    4.20    0.15 
   7  -7  -5    0.14    0.05 
  -7   7   5    0.01    0.05 
  -7   7   5    0.07    0.05 
   6  -7  -5    6.62    0.24 
  -6   7   5    6.61    0.26 
  -6   7   5    6.95    0.27 
   5  -7  -5    0.35    0.07 
  -5   7   5    0.33    0.08 
  -5   7   5    0.26    0.08 
   4  -7  -5    0.03    0.06 
  -4   7   5   -0.03    0.07 
  -4   7   5    0.02    0.06 
  -4   7   5   -0.03    0.06 
   3  -7  -5    2.22    0.14 
  -3   7   5    2.23    0.16 
  -3   7   5    1.98    0.15 
  -3   7   5    2.29    0.17 
   2  -7  -5    8.88    0.30 
  -2   7   5    9.07    0.34 
  -2   7   5    8.74    0.35 
  -2   7   5    9.18    0.34 
   1  -7  -5   16.87    0.49 
  -1   7   5   16.69    0.55 
  -1   7   5   17.35    0.53 
  -1   7   5   16.58    0.53 
   0  -7  -5    2.71    0.15 
   0   7   5    2.57    0.18 
   0   7   5    2.79    0.17 
   0   7   5    2.36    0.19 
  -1  -7  -5    0.34    0.07 
   1   7   5    0.32    0.09 
  -2  -7  -5    7.93    0.27 
   2   7   5    7.19    0.32 
  -3  -7  -5    4.61    0.19 
   3   7   5    4.45    0.24 
   3   7   5    4.82    0.22 
  -4  -7  -5    6.60    0.23 
   4   7   5    6.65    0.26 
   4   7   5    7.18    0.29 
   5   7   5    0.39    0.07 
   5   7   5    0.33    0.08 
  -6  -7  -5    2.27    0.12 
   6   7   5    2.01    0.10 
   7  -8  -5    1.52    0.09 
   6  -8  -5    6.99    0.23 
  -6   8   5    6.66    0.26 
   5  -8  -5   -0.05    0.04 
  -5   8   5    0.01    0.05 
  -5   8   5   -0.02    0.05 
   4  -8  -5   20.27    0.56 
  -4   8   5   19.20    0.60 
  -4   8   5   21.09    0.63 
   3  -8  -5    0.20    0.06 
  -3   8   5    0.28    0.07 
  -3   8   5    0.53    0.09 
  -3   8   5    0.28    0.08 
   2  -8  -5    4.42    0.18 
  -2   8   5    3.97    0.21 
  -2   8   5    3.61    0.19 
  -2   8   5    3.76    0.21 
   1  -8  -5    3.32    0.16 
  -1   8   5    3.03    0.19 
  -1   8   5    2.77    0.17 
  -1   8   5    3.45    0.19 
   0  -8  -5    5.18    0.21 
   0   8   5    5.04    0.23 
   0   8   5    5.21    0.25 
  -1  -8  -5   16.53    0.48 
   1   8   5   17.26    0.55 
  -2  -8  -5    1.13    0.10 
   2   8   5    1.24    0.12 
   2   8   5    1.13    0.12 
  -3  -8  -5   18.10    0.50 
   3   8   5   18.46    0.53 
   3   8   5   18.84    0.58 
  -4  -8  -5    0.22    0.05 
   4   8   5    0.21    0.05 
   4   8   5    0.30    0.07 
   6  -9  -5    0.22    0.04 
   5  -9  -5    9.34    0.27 
  -5   9   5    8.85    0.30 
   4  -9  -5    0.11    0.05 
  -4   9   5    0.13    0.07 
  -4   9   5    0.20    0.06 
   3  -9  -5    7.75    0.26 
  -3   9   5    7.92    0.29 
  -3   9   5    8.28    0.31 
   2  -9  -5    0.01    0.04 
  -2   9   5    0.04    0.07 
  -2   9   5    0.00    0.06 
   1  -9  -5    3.96    0.17 
  -1   9   5    3.70    0.19 
  -1   9   5    4.43    0.21 
   0  -9  -5    1.88    0.11 
   0   9   5    1.91    0.13 
   0   9   5    1.56    0.14 
  -1  -9  -5    0.08    0.05 
   1   9   5   -0.01    0.06 
  -2  -9  -5   11.68    0.33 
   2   9   5   10.88    0.38 
  -3  -9  -5    0.36    0.05 
   3 -10  -5    0.13    0.04 
   2 -10  -5    0.05    0.04 
   1 -10  -5    2.57    0.11 
   0 -10  -5    1.97    0.09 
   2  12  -6   -0.01    0.02 
   1  12  -6    8.26    0.22 
   0  12  -6    1.08    0.06 
  -1  12  -6    2.39    0.09 
  -2  12  -6    3.71    0.12 
  -3  12  -6   -0.08    0.02 
   4  11  -6    1.20    0.07 
   4  11  -6    0.93    0.06 
   3  11  -6    0.13    0.04 
   2  11  -6   12.37    0.33 
   1  11  -6    3.69    0.13 
   0  11  -6   16.91    0.43 
  -1  11  -6    0.03    0.03 
  -2  11  -6    0.63    0.06 
  -3  11  -6   18.14    0.46 
  -4  11  -6    4.32    0.14 
  -5  11  -6    3.01    0.10 
   6  10  -6    0.04    0.03 
   6  10  -6   -0.01    0.02 
   5  10  -6    0.03    0.03 
   5  10  -6    0.08    0.03 
   4  10  -6   -0.01    0.03 
   4  10  -6    0.01    0.04 
   3  10  -6    8.06    0.24 
   3  10  -6    7.86    0.25 
   2  10  -6    1.09    0.08 
   1  10  -6    5.99    0.19 
   0  10  -6    9.55    0.27 
   0  10  -6    9.50    0.21 
   0  10  -6    9.59    0.21 
  -1  10  -6    0.95    0.05 
  -1  10  -6    0.95    0.07 
  -2  10  -6    2.06    0.07 
  -2  10  -6    2.08    0.10 
  -3  10  -6    3.73    0.14 
  -4  10  -6    1.43    0.08 
  -5  10  -6    3.28    0.12 
  -6  10  -6    1.60    0.08 
   7   9  -6    1.82    0.09 
  -7  -9   6    1.92    0.10 
   6   9  -6    5.30    0.19 
   6   9  -6    4.96    0.17 
   5   9  -6    0.40    0.06 
   5   9  -6    0.40    0.06 
   4   9  -6   12.98    0.37 
   4   9  -6   13.37    0.40 
   3   9  -6    0.78    0.07 
   3   9  -6    0.80    0.08 
   2   9  -6    0.08    0.04 
   1   9  -6    0.48    0.04 
   1   9  -6    0.47    0.05 
   0   9  -6    0.28    0.03 
  -1   9  -6    0.39    0.03 
  -1   9  -6    0.47    0.03 
  -2   9  -6    7.10    0.15 
  -2   9  -6    6.95    0.20 
  -3   9  -6    1.88    0.09 
  -3   9  -6    1.99    0.07 
  -4   9  -6    7.22    0.22 
  -5   9  -6    0.91    0.08 
  -5   9  -6    0.91    0.07 
  -6   9  -6   16.28    0.43 
  -6   9  -6   16.65    0.46 
  -7   9  -6    2.05    0.10 
   8   8  -6    0.39    0.05 
  -8  -8   6    0.39    0.05 
   7   8  -6    0.48    0.07 
  -7  -8   6    0.51    0.07 
   6   8  -6    3.59    0.15 
   6   8  -6    3.50    0.17 
   5   8  -6   15.50    0.46 
   5   8  -6   14.99    0.42 
   4   8  -6    1.69    0.10 
   4   8  -6    1.62    0.12 
   3   8  -6    0.22    0.06 
   3   8  -6    0.06    0.04 
   2   8  -6    0.71    0.04 
   1   8  -6    1.36    0.04 
   1   8  -6    1.38    0.04 
   0   8  -6    5.63    0.25 
  -1   8  -6    5.47    0.25 
  -2   8  -6    7.48    0.31 
  -3   8  -6    7.20    0.20 
  -3   8  -6    7.12    0.15 
  -3   8  -6    6.87    0.20 
  -3   8  -6    6.83    0.29 
  -4   8  -6    0.36    0.05 
  -4   8  -6    0.28    0.08 
  -5   8  -6   17.25    0.49 
  -5   8  -6   16.51    0.57 
  -5   8  -6   17.01    0.45 
  -6   8  -6    1.28    0.10 
  -6   8  -6    1.50    0.09 
  -7   8  -6    5.40    0.18 
  -7   8  -6    5.57    0.20 
  -8   8  -6    4.46    0.15 
  -8   8  -6    4.44    0.16 
  -9  -7   6    1.60    0.09 
   8   7  -6    7.25    0.25 
  -8  -7   6    7.27    0.24 
   7   7  -6    5.68    0.23 
  -7  -7   6    5.94    0.22 
   6   7  -6    4.72    0.18 
   6   7  -6    4.75    0.21 
   5   7  -6    2.29    0.12 
   5   7  -6    2.11    0.14 
   4   7  -6   27.62    0.76 
   4   7  -6   28.11    0.70 
   3   7  -6   13.12    0.28 
   2   7  -6    0.24    0.02 
   2   7  -6    0.22    0.02 
   1   7  -6   23.42    0.72 
   0   7  -6    6.13    0.26 
  -1   7  -6   60.83    1.71 
  -2   7  -6    2.57    0.16 
  -3   7  -6    3.10    0.18 
  -3   7  -6    3.16    0.08 
  -3   7  -6    3.20    0.08 
  -4   7  -6   39.29    0.94 
  -4   7  -6   38.86    1.15 
  -4   7  -6   38.91    0.75 
  -5   7  -6    0.04    0.07 
  -5   7  -6    0.06    0.04 
  -5   7  -6   -0.04    0.05 
  -5   7  -6    0.06    0.04 
  -6   7  -6   27.26    0.75 
  -6   7  -6   28.10    0.69 
  -6   7  -6   25.87    0.83 
  -7   7  -6    2.15    0.11 
  -7   7  -6    1.83    0.12 
  -8   7  -6    2.27    0.12 
  -8   7  -6    2.29    0.11 
   8  -7   6    2.44    0.11 
   9   6  -6    2.69    0.13 
  -9  -6   6    2.58    0.13 
   8   6  -6   -0.03    0.06 
   8   6  -6    0.04    0.04 
  -8  -6   6    0.00    0.05 
   7   6  -6    2.59    0.15 
  -7  -6   6    2.47    0.15 
   6   6  -6    2.95    0.14 
   6   6  -6    3.04    0.16 
   5   6  -6   10.97    0.36 
   4   6  -6    1.35    0.22 
   2   6  -6   17.44    0.56 
   2   6  -6   17.60    0.91 
   1   6  -6    0.25    0.14 
   1   6  -6    0.43    0.07 
   0   6  -6    1.82    0.12 
   0   6  -6    1.49    0.25 
  -1   6  -6   18.20    0.90 
  -1   6  -6   19.17    0.58 
  -2   6  -6    2.22    0.14 
  -3   6  -6   10.84    0.39 
  -4   6  -6    6.35    0.15 
  -4   6  -6    6.30    0.27 
  -5   6  -6    7.11    0.26 
  -5   6  -6    7.42    0.25 
  -5   6  -6    6.85    0.22 
  -5   6  -6    7.63    0.31 
  -6   6  -6    1.00    0.10 
  -6   6  -6    1.22    0.09 
  -6   6  -6    1.08    0.08 
  -6   6  -6    0.81    0.11 
  -7   6  -6    0.50    0.06 
  -7   6  -6    0.37    0.07 
  -8   6  -6    5.08    0.18 
  -8   6  -6    5.57    0.21 
   8  -6   6    5.58    0.20 
  -9   6  -6    0.36    0.05 
   9  -6   6    0.27    0.05 
 -10  -5   6    0.11    0.04 
   9   5  -6    0.08    0.06 
   9   5  -6    0.06    0.05 
  -9  -5   6    0.08    0.05 
   8   5  -6   24.34    0.76 
   8   5  -6   25.43    0.72 
  -8  -5   6   25.27    0.69 
   7   5  -6    0.96    0.10 
  -7  -5   6    1.14    0.11 
   6   5  -6    6.78    0.23 
   6   5  -6    6.90    0.26 
  -6  -5   6    7.28    0.27 
   5   5  -6    1.85    0.28 
   4   5  -6    9.88    0.52 
   3   5  -6   59.54    1.87 
   3   5  -6   54.67    2.15 
   2   5  -6    3.45    0.17 
   2   5  -6    3.76    0.35 
   1   5  -6   28.17    1.20 
   1   5  -6   28.46    0.83 
   0   5  -6   27.15    1.14 
   0   5  -6   26.49    0.78 
  -1   5  -6   11.09    0.60 
  -1   5  -6   11.24    0.37 
  -2   5  -6   73.08    2.44 
  -2   5  -6   77.28    2.07 
  -3   5  -6    0.66    0.09 
  -3   5  -6    0.28    0.09 
  -4   5  -6   34.52    1.02 
  -4   5  -6   34.75    1.28 
  -5   5  -6    3.91    0.17 
  -5   5  -6    4.32    0.22 
  -5   5  -6    4.15    0.34 
  -6   5  -6    2.31    0.17 
  -6   5  -6    2.31    0.12 
  -6   5  -6    2.20    0.13 
  -7   5  -6    0.54    0.08 
  -7   5  -6    0.39    0.09 
  -7   5  -6    0.38    0.08 
  -7   5  -6    0.40    0.06 
   7  -5   6    0.32    0.07 
  -8   5  -6    1.25    0.11 
   8  -5   6    1.22    0.11 
  -9   5  -6    6.89    0.24 
   9  -5   6    7.06    0.23 
 -10  -4   6    0.91    0.08 
   9   4  -6   11.08    0.39 
  -9  -4   6   10.76    0.34 
   8   4  -6    0.38    0.09 
   8   4  -6    0.22    0.06 
   8   4  -6    0.26    0.07 
  -8  -4   6    0.39    0.07 
   7   4  -6   18.19    0.61 
   7   4  -6   18.42    0.56 
  -7  -4   6   19.31    0.54 
   6   4  -6    6.81    0.49 
   6   4  -6    6.78    0.26 
   5   4  -6    0.11    0.11 
   4   4  -6    6.54    0.46 
   4   4  -6    5.91    0.37 
   3   4  -6   71.59    2.60 
   3   4  -6   74.19    2.31 
   2   4  -6  196.47    5.82 
   2   4  -6  198.06    6.49 
   1   4  -6    0.25    0.06 
   1   4  -6    0.27    0.13 
   0   4  -6   22.85    0.65 
   0   4  -6   21.30    0.94 
  -1   4  -6   15.07    0.70 
  -1   4  -6   14.79    0.46 
  -2   4  -6   15.91    0.49 
  -2   4  -6   15.16    0.60 
  -3   4  -6   25.61    1.00 
  -3   4  -6   26.84    0.92 
  -3   4  -6   26.11    0.78 
  -4   4  -6   -0.13    0.07 
  -4   4  -6    0.06    0.06 
  -5   4  -6    3.55    0.31 
  -5   4  -6    3.51    0.19 
  -6   4  -6    0.79    0.11 
  -6   4  -6    0.74    0.09 
  -6   4  -6    0.88    0.08 
  -7   4  -6    4.19    0.17 
  -7   4  -6    3.49    0.21 
  -7   4  -6    4.23    0.17 
  -7   4  -6    4.11    0.19 
   7  -4   6    3.66    0.18 
  -8   4  -6    6.99    0.27 
   8  -4   6    7.26    0.25 
  -9   4  -6    0.01    0.05 
  -9   4  -6    0.15    0.06 
   9  -4   6    0.04    0.05 
  10   3  -6    6.42    0.25 
  10   3  -6    6.23    0.21 
 -10  -3   6    5.88    0.20 
   9   3  -6    3.88    0.17 
   9   3  -6    3.84    0.21 
  -9  -3   6    3.65    0.17 
   8   3  -6    0.09    0.07 
   8   3  -6    0.17    0.06 
   8   3  -6    0.26    0.07 
  -8  -3   6    0.21    0.07 
   7   3  -6   12.43    0.45 
   7   3  -6   13.35    0.41 
   7   3  -6   12.65    0.42 
  -7  -3   6   12.75    0.40 
   6   3  -6    0.19    0.13 
   5   3  -6   22.01    0.92 
   4   3  -6    1.81    0.20 
   4   3  -6    2.02    0.27 
   3   3  -6    1.10    0.20 
   3   3  -6    0.51    0.12 
   2   3  -6    7.65    0.35 
   2   3  -6    7.96    0.28 
   2   3  -6    8.41    0.47 
   1   3  -6    4.07    0.17 
   1   3  -6    4.13    0.21 
   1   3  -6    4.19    0.31 
   0   3  -6   76.09    2.32 
   0   3  -6   80.01    2.68 
   0   3  -6   77.71    2.11 
  -1   3  -6    0.99    0.11 
  -1   3  -6    1.00    0.18 
  -1   3  -6    0.80    0.09 
  -1   3  -6    0.91    0.08 
  -2   3  -6    1.06    0.18 
  -2   3  -6    0.93    0.13 
  -2   3  -6    1.01    0.09 
  -2   3  -6    1.14    0.13 
  -3   3  -6    0.48    0.07 
  -3   3  -6    0.13    0.08 
  -3   3  -6    0.33    0.09 
  -4   3  -6    1.90    0.13 
  -4   3  -6    2.07    0.22 
  -5   3  -6    3.67    0.32 
  -5   3  -6    3.64    0.19 
  -6   3  -6    0.00    0.06 
  -6   3  -6   -0.08    0.05 
   6  -3   6    0.06    0.06 
  -7   3  -6   43.72    1.24 
  -7   3  -6   42.67    1.13 
   7  -3   6   40.24    1.10 
  -8   3  -6    3.09    0.18 
  -8   3  -6    3.25    0.18 
  -8   3  -6    3.02    0.17 
   8  -3   6    3.19    0.16 
  -9   3  -6    3.79    0.17 
  -9   3  -6    4.03    0.18 
   9  -3   6    3.54    0.16 
  10   2  -6    1.15    0.10 
  10   2  -6    1.57    0.12 
   9   2  -6    9.70    0.34 
   9   2  -6   10.05    0.37 
  -9  -2   6    9.74    0.32 
   8   2  -6    0.76    0.10 
   8   2  -6    0.69    0.11 
  -8  -2   6    0.72    0.09 
   7   2  -6    1.66    0.15 
   7   2  -6    1.55    0.13 
  -7  -2   6    1.70    0.13 
   6   2  -6   14.77    0.74 
   6   2  -6   13.57    0.47 
   5   2  -6    1.99    0.27 
   4   2  -6    0.91    0.16 
   3   2  -6   13.26    0.56 
   3   2  -6   13.65    0.65 
   2   2  -6    0.85    0.17 
   2   2  -6    0.71    0.07 
   2   2  -6    0.73    0.12 
   1   2  -6    1.45    0.22 
   1   2  -6    1.31    0.13 
   0   2  -6    1.40    0.12 
   0   2  -6    0.99    0.17 
   0   2  -6    1.09    0.11 
  -1   2  -6   36.83    1.07 
  -1   2  -6   39.67    1.24 
  -1   2  -6   38.91    1.33 
  -1   2  -6   39.01    1.43 
  -2   2  -6    6.55    0.33 
  -2   2  -6    6.71    0.40 
  -2   2  -6    6.39    0.35 
  -2   2  -6    6.72    0.24 
  -3   2  -6    0.18    0.05 
  -3   2  -6    0.12    0.08 
  -4   2  -6    9.65    0.35 
  -4   2  -6   10.68    0.52 
  -5   2  -6    1.47    0.12 
  -5   2  -6    1.56    0.24 
  -6   2  -6    2.09    0.14 
  -6   2  -6    1.92    0.15 
   6  -2   6    2.07    0.14 
  -7   2  -6    9.16    0.34 
  -7   2  -6    8.80    0.32 
  -7   2  -6    9.36    0.36 
   7  -2   6    8.73    0.31 
  -8   2  -6    5.57    0.24 
  -8   2  -6    5.66    0.25 
   8  -2   6    6.15    0.23 
  -9   2  -6    3.82    0.18 
   9  -2   6    3.96    0.16 
  11   1  -6    7.88    0.25 
 -11  -1   6    8.35    0.26 
  10   1  -6    1.16    0.11 
  10   1  -6    1.46    0.11 
 -10  -1   6    1.07    0.11 
   9   1  -6    6.89    0.29 
   9   1  -6    7.19    0.28 
  -9  -1   6    7.19    0.30 
  -9  -1   6    7.72    0.26 
   8   1  -6    0.21    0.08 
   8   1  -6    0.18    0.07 
  -8  -1   6    0.32    0.07 
   7   1  -6    6.97    0.30 
  -7  -1   6    7.83    0.27 
   6   1  -6    3.78    0.35 
   6   1  -6    3.27    0.18 
   5   1  -6    7.00    0.44 
   4   1  -6   26.36    0.92 
   4   1  -6   24.61    0.97 
   4   1  -6   25.33    0.92 
   3   1  -6   15.12    0.64 
   3   1  -6   16.17    0.72 
   2   1  -6   95.89    3.20 
   2   1  -6   97.46    3.26 
   2   1  -6   96.47    2.95 
   1   1  -6    0.80    0.13 
   1   1  -6    0.84    0.16 
   1   1  -6    0.90    0.13 
   0   1  -6    0.52    0.13 
   0   1  -6    0.48    0.10 
   0   1  -6    0.40    0.09 
  -1   1  -6    6.60    0.39 
  -1   1  -6    6.18    0.34 
  -1   1  -6    6.69    0.32 
  -2   1  -6    9.67    0.50 
  -2   1  -6   10.19    0.32 
  -2   1  -6    9.18    0.44 
  -3   1  -6   66.68    1.81 
  -3   1  -6   65.36    2.13 
  -4   1  -6   21.97    0.89 
  -4   1  -6   20.85    0.64 
  -5   1  -6   32.56    0.93 
  -5   1  -6   32.73    1.27 
  -5   1  -6   32.56    0.96 
  -6   1  -6    6.02    0.27 
  -6   1  -6    6.04    0.26 
  -6   1  -6    6.33    0.25 
   6  -1   6    5.69    0.24 
  -7   1  -6    5.01    0.25 
  -7   1  -6    5.11    0.22 
  -7   1  -6    5.29    0.23 
  -7   1  -6    5.46    0.24 
   7  -1   6    5.59    0.23 
  -8   1  -6   17.27    0.54 
  -8   1  -6   16.76    0.50 
   8  -1   6   17.21    0.49 
  -9   1  -6    0.02    0.04 
   9  -1   6    0.02    0.04 
  11   0  -6    0.93    0.07 
 -11   0   6    1.05    0.09 
  10   0  -6    4.59    0.19 
  10   0  -6    4.28    0.19 
 -10   0   6    4.17    0.20 
   9   0  -6    0.82    0.10 
   9   0  -6    0.57    0.09 
  -9   0   6    0.75    0.10 
   8   0  -6   48.11    1.28 
   8   0  -6   47.20    1.32 
  -8   0   6   46.61    1.35 
  -8   0   6   45.72    1.29 
  -8   0   6   47.08    1.21 
   7   0  -6    0.10    0.06 
  -7   0   6    0.01    0.05 
   6   0  -6   30.78    1.20 
   6   0  -6   28.98    0.85 
  -6   0   6   28.43    0.82 
   5   0  -6    3.49    0.31 
   4   0  -6    0.85    0.17 
   4   0  -6    1.05    0.15 
   3   0  -6   71.47    2.45 
   3   0  -6   68.42    2.23 
   3   0  -6   68.75    2.44 
   3   0  -6   70.19    2.42 
   2   0  -6    4.69    0.24 
   2   0  -6    4.57    0.24 
   2   0  -6    4.28    0.32 
   2   0  -6    4.39    0.28 
   1   0  -6   47.31    1.59 
   1   0  -6   45.45    1.58 
   1   0  -6   42.53    1.46 
   0   0  -6    5.67    0.26 
   0   0  -6    5.80    0.26 
   0   0  -6    5.51    0.30 
  -1   0  -6   30.30    1.09 
  -1   0  -6   31.94    1.09 
  -1   0  -6   29.10    1.06 
  -2   0  -6   17.62    0.72 
  -2   0  -6   18.80    0.68 
  -2   0  -6   17.81    0.68 
  -3   0  -6    1.50    0.22 
  -4   0  -6   31.40    1.21 
  -5   0  -6   36.57    1.39 
  -5   0  -6   35.17    1.01 
  -6   0  -6   26.30    0.76 
  -6   0  -6   26.73    0.77 
   6   0   6   27.93    0.75 
  -7   0  -6    0.43    0.08 
  -7   0  -6    0.55    0.09 
   7   0   6    0.64    0.09 
  -8   0  -6    1.53    0.12 
  -8   0  -6    1.63    0.12 
   8   0   6    1.57    0.12 
  -9   0  -6    4.65    0.19 
  -9   0  -6    4.64    0.17 
   9   0   6    4.24    0.17 
  11  -1  -6    6.06    0.20 
 -11   1   6    5.97    0.21 
  10  -1  -6    0.00    0.05 
 -10   1   6   -0.06    0.05 
   9  -1  -6    0.12    0.07 
   9  -1  -6    0.04    0.06 
  -9   1   6    0.10    0.07 
   8  -1  -6    0.08    0.06 
   8  -1  -6    0.03    0.06 
  -8   1   6    0.02    0.05 
  -8   1   6    0.05    0.07 
   7  -1  -6   11.68    0.41 
  -7   1   6   11.08    0.38 
   6  -1  -6   10.47    0.37 
   6  -1  -6    9.88    0.60 
  -6   1   6   10.13    0.35 
   5  -1  -6    1.74    0.26 
   4  -1  -6   13.79    0.64 
   3  -1  -6    3.02    0.27 
   3  -1  -6    2.91    0.25 
   2  -1  -6    3.38    0.24 
   2  -1  -6    3.10    0.25 
   1  -1  -6   56.22    2.01 
   1  -1  -6   56.29    2.02 
   1  -1  -6   56.46    1.82 
   0  -1  -6    5.24    0.31 
   0  -1  -6    5.34    0.30 
  -1  -1  -6   30.76    1.13 
  -1  -1  -6   28.14    1.05 
  -2  -1  -6    1.20    0.15 
  -2  -1  -6    0.83    0.16 
  -3  -1  -6   18.27    0.79 
  -4  -1  -6    2.22    0.14 
  -4  -1  -6    2.51    0.28 
  -5  -1  -6    0.42    0.08 
  -5  -1  -6    0.21    0.13 
  -6  -1  -6   15.98    0.52 
  -6  -1  -6   16.92    0.51 
   6   1   6   15.55    0.48 
  -7  -1  -6    7.92    0.29 
  -7  -1  -6    7.44    0.29 
   7   1   6    7.79    0.27 
  -8  -1  -6    0.66    0.08 
  -8  -1  -6    0.63    0.08 
   8   1   6    0.74    0.07 
  -9  -1  -6    0.58    0.06 
   9   1   6    0.45    0.07 
  10  -2  -6   17.45    0.52 
 -10   2   6   17.68    0.52 
   9  -2  -6    7.30    0.28 
   9  -2  -6    6.81    0.26 
  -9   2   6    6.68    0.26 
  -9   2   6    7.24    0.29 
   8  -2  -6   -0.04    0.05 
   8  -2  -6    0.01    0.06 
  -8   2   6   -0.06    0.07 
  -8   2   6   -0.04    0.05 
   7  -2  -6    3.35    0.19 
   7  -2  -6    3.24    0.18 
  -7   2   6    3.42    0.18 
  -7   2   6    3.52    0.20 
   6  -2  -6   11.12    0.40 
  -6   2   6   11.69    0.39 
   5  -2  -6   82.09    2.15 
  -5   2   6   78.81    2.13 
   4  -2  -6    1.41    0.21 
   3  -2  -6   18.42    0.77 
   2  -2  -6    4.90    0.32 
  -2   2   6    5.00    0.34 
   1  -2  -6   39.24    1.38 
  -1   2   6   40.90    1.41 
   0  -2  -6    1.13    0.18 
  -1  -2  -6    0.17    0.11 
  -2  -2  -6   28.26    1.08 
  -3  -2  -6    0.32    0.14 
  -4  -2  -6   16.41    0.79 
  -4  -2  -6   16.41    0.51 
   4   2   6   15.66    0.51 
  -5  -2  -6    0.05    0.07 
  -5  -2  -6    0.16    0.06 
   5   2   6    0.12    0.06 
   5   2   6    0.06    0.07 
  -6  -2  -6    5.44    0.24 
  -6  -2  -6    5.41    0.24 
   6   2   6    5.21    0.22 
   6   2   6    5.10    0.26 
  -7  -2  -6    0.24    0.07 
  -7  -2  -6    0.22    0.07 
   7   2   6    0.19    0.08 
  -8  -2  -6   -0.07    0.04 
  -8  -2  -6    0.06    0.05 
   8   2   6    0.05    0.06 
  -9  -2  -6    5.88    0.20 
   9   2   6    5.97    0.21 
  10  -3  -6    0.06    0.05 
 -10   3   6    0.05    0.05 
   9  -3  -6   14.24    0.45 
  -9   3   6   14.29    0.45 
  -9   3   6   14.15    0.46 
   8  -3  -6   20.52    0.62 
  -8   3   6   19.62    0.62 
  -8   3   6   20.37    0.62 
   7  -3  -6    5.82    0.25 
   7  -3  -6    5.53    0.25 
  -7   3   6    5.41    0.24 
  -7   3   6    5.91    0.26 
   6  -3  -6    4.07    0.20 
  -6   3   6    4.23    0.20 
   5  -3  -6    6.78    0.27 
  -5   3   6    7.06    0.27 
  -3   3   6    4.61    0.37 
   2  -3  -6    2.44    0.24 
  -2   3   6    2.47    0.27 
   1  -3  -6    9.11    0.48 
  -1   3   6    8.86    0.51 
   0  -3  -6    1.44    0.22 
   0   3   6    1.90    0.25 
  -1  -3  -6   14.97    0.69 
  -2  -3  -6   39.25    1.45 
  -3  -3  -6    1.22    0.11 
   3   3   6    1.36    0.13 
  -4  -3  -6    1.71    0.13 
   4   3   6    1.65    0.14 
  -5  -3  -6    0.99    0.11 
  -5  -3  -6    0.74    0.10 
   5   3   6    0.96    0.12 
   5   3   6    0.97    0.10 
   5   3   6    0.91    0.12 
  -6  -3  -6    1.04    0.11 
  -6  -3  -6    1.18    0.12 
   6   3   6    1.02    0.12 
  -7  -3  -6    4.27    0.20 
  -7  -3  -6    4.48    0.19 
   7   3   6    4.19    0.21 
  -8  -3  -6    0.04    0.05 
   8   3   6   -0.02    0.05 
  10  -4  -6    0.14    0.05 
 -10   4   6    0.15    0.05 
   9  -4  -6   13.30    0.43 
  -9   4   6   14.21    0.43 
  -9   4   6   13.68    0.43 
   8  -4  -6    1.22    0.12 
  -8   4   6    1.33    0.12 
  -8   4   6    1.31    0.13 
   7  -4  -6    0.66    0.08 
   7  -4  -6    0.76    0.11 
  -7   4   6    0.76    0.11 
  -7   4   6    0.64    0.10 
   6  -4  -6    0.58    0.08 
   6  -4  -6    0.79    0.11 
   6  -4  -6    0.81    0.10 
  -6   4   6    0.64    0.10 
  -6   4   6    0.64    0.11 
   5  -4  -6   14.86    0.48 
  -5   4   6   15.32    0.49 
   4  -4  -6    4.13    0.19 
  -4   4   6    3.45    0.38 
  -4   4   6    3.91    0.20 
   3  -4  -6    0.15    0.06 
  -3   4   6    0.22    0.07 
  -3   4   6    0.09    0.13 
  -3   4   6    0.23    0.06 
  -2   4   6   16.46    0.80 
  -1   4   6    1.65    0.27 
   0   4   6   37.32    1.44 
  -1  -4  -6   11.99    0.40 
   1   4   6   12.89    0.42 
  -2  -4  -6    6.34    0.25 
   2   4   6    6.18    0.26 
  -3  -4  -6    0.73    0.09 
   3   4   6    0.73    0.11 
  -4  -4  -6    3.23    0.17 
  -4  -4  -6    2.76    0.17 
   4   4   6    2.75    0.18 
  -5  -4  -6   31.86    0.91 
  -5  -4  -6   32.38    0.91 
   5   4   6   31.76    0.94 
   5   4   6   32.15    0.92 
  -6  -4  -6    2.18    0.15 
  -6  -4  -6    2.14    0.13 
   6   4   6    2.18    0.16 
   6   4   6    2.00    0.14 
  -7  -4  -6    2.63    0.15 
   7   4   6    2.62    0.16 
  -8  -4  -6    1.48    0.10 
   8   4   6    1.59    0.10 
   9  -5  -6    0.64    0.08 
  -9   5   6    0.71    0.08 
   8  -5  -6    6.63    0.27 
  -8   5   6    7.04    0.27 
  -8   5   6    7.52    0.26 
  -8   5   6    6.61    0.26 
   7  -5  -6    0.34    0.06 
   7  -5  -6    0.30    0.08 
  -7   5   6    0.28    0.08 
  -7   5   6    0.27    0.07 
   6  -5  -6    0.23    0.06 
  -6   5   6    0.12    0.07 
  -6   5   6    0.31    0.08 
   5  -5  -6   17.51    0.51 
  -5   5   6   17.64    0.56 
  -5   5   6   18.58    0.57 
  -5   5   6   17.82    0.57 
   4  -5  -6    5.58    0.22 
  -4   5   6    5.86    0.26 
  -4   5   6    5.69    0.24 
   3  -5  -6    0.10    0.06 
  -3   5   6   -0.04    0.14 
  -3   5   6    0.20    0.07 
   2  -5  -6    0.23    0.07 
  -2   5   6    0.10    0.14 
  -2   5   6    0.13    0.06 
   1  -5  -6    2.27    0.14 
  -1   5   6    2.21    0.34 
  -1   5   6    2.46    0.16 
   0  -5  -6   20.86    0.63 
   0   5   6   22.26    0.67 
   0   5   6   21.68    1.02 
  -1  -5  -6    3.61    0.18 
   1   5   6    3.42    0.20 
  -2  -5  -6    6.62    0.24 
  -2  -5  -6    6.53    0.26 
   2   5   6    6.98    0.29 
   2   5   6    6.75    0.29 
  -3  -5  -6    0.73    0.09 
  -3  -5  -6    0.83    0.09 
  -3  -5  -6    0.77    0.10 
   3   5   6    0.68    0.11 
  -4  -5  -6    0.19    0.07 
   4   5   6    0.07    0.07 
  -5  -5  -6   25.95    0.74 
   5   5   6   24.24    0.76 
   5   5   6   25.81    0.75 
  -6  -5  -6    5.14    0.22 
   6   5   6    5.40    0.22 
   6   5   6    5.09    0.22 
  -7  -5  -6    6.35    0.23 
   7   5   6    6.43    0.23 
  -8   6   6    0.48    0.07 
  -8   6   6    0.46    0.07 
   7  -6  -6    8.16    0.26 
  -7   6   6    8.16    0.31 
  -7   6   6    8.28    0.30 
  -7   6   6    8.36    0.30 
   6  -6  -6    1.95    0.13 
  -6   6   6    2.43    0.16 
  -6   6   6    2.33    0.15 
  -6   6   6    2.47    0.16 
   5  -6  -6    3.51    0.16 
  -5   6   6    3.50    0.20 
  -5   6   6    3.14    0.19 
  -4   6   6    5.34    0.24 
  -4   6   6    5.60    0.25 
   3  -6  -6    4.11    0.19 
  -3   6   6    4.31    0.22 
  -3   6   6    4.42    0.22 
   2  -6  -6   24.08    0.66 
  -2   6   6   24.07    0.72 
  -2   6   6   24.32    0.74 
   1  -6  -6    2.41    0.14 
  -1   6   6    2.15    0.16 
  -1   6   6    2.59    0.17 
   0  -6  -6    4.88    0.21 
   0   6   6    5.25    0.24 
   0   6   6    5.51    0.25 
  -1  -6  -6   23.74    0.67 
   1   6   6   25.08    0.74 
   1   6   6   24.85    0.76 
  -2  -6  -6    3.46    0.16 
   2   6   6    3.48    0.21 
  -3  -6  -6   18.87    0.54 
  -3  -6  -6   19.51    0.59 
   3   6   6   19.19    0.62 
  -4  -6  -6    0.73    0.10 
   4   6   6    0.75    0.11 
   4   6   6    0.58    0.10 
  -5  -6  -6    2.68    0.16 
   5   6   6    2.38    0.15 
   5   6   6    2.81    0.17 
  -6  -6  -6    4.10    0.17 
   6   6   6    3.93    0.17 
   7  -7  -6    0.56    0.06 
  -7   7   6    0.55    0.08 
  -7   7   6    0.60    0.07 
   6  -7  -6    1.32    0.10 
  -6   7   6    1.53    0.13 
  -6   7   6    1.55    0.12 
   5  -7  -6    4.61    0.19 
  -5   7   6    4.60    0.22 
  -5   7   6    4.76    0.21 
   4  -7  -6    2.23    0.13 
  -4   7   6    2.26    0.16 
  -4   7   6    2.30    0.16 
   3  -7  -6    8.95    0.30 
  -3   7   6    9.34    0.34 
  -3   7   6    8.49    0.34 
   2  -7  -6   15.41    0.45 
  -2   7   6   15.33    0.49 
  -2   7   6   14.37    0.50 
   1  -7  -6    9.80    0.32 
  -1   7   6    9.55    0.37 
  -1   7   6   10.05    0.36 
   0  -7  -6    0.07    0.06 
   0   7   6    0.15    0.07 
   0   7   6    0.16    0.08 
  -1  -7  -6    0.32    0.07 
   1   7   6    0.22    0.08 
  -2  -7  -6   10.13    0.32 
   2   7   6    9.88    0.37 
  -3  -7  -6    5.58    0.20 
   3   7   6    5.49    0.24 
   3   7   6    5.85    0.26 
  -4  -7  -6    3.52    0.18 
   4   7   6    3.73    0.19 
   4   7   6    3.86    0.18 
  -5  -7  -6    2.34    0.13 
   5   7   6    2.10    0.12 
   6  -8  -6   12.36    0.34 
  -6   8   6   11.91    0.39 
   5  -8  -6    0.57    0.07 
  -5   8   6    0.54    0.09 
   4  -8  -6    4.44    0.18 
  -4   8   6    4.62    0.22 
  -4   8   6    4.67    0.19 
   3  -8  -6   17.25    0.51 
  -3   8   6   18.19    0.54 
  -3   8   6   19.65    0.58 
   2  -8  -6    0.50    0.07 
  -2   8   6    0.56    0.10 
  -2   8   6    0.51    0.08 
   1  -8  -6   10.39    0.33 
  -1   8   6   11.06    0.39 
   0  -8  -6    0.53    0.07 
   0   8   6    0.42    0.09 
  -1  -8  -6    8.38    0.27 
   1   8   6    8.62    0.33 
  -2  -8  -6    0.65    0.07 
   2   8   6    0.63    0.09 
   2   8   6    0.58    0.08 
   3   8   6    0.12    0.06 
   3   8   6    0.10    0.05 
   5  -9  -6    5.04    0.16 
   4  -9  -6    0.40    0.05 
   3  -9  -6    2.20    0.11 
  -3   9   6    2.16    0.14 
   2  -9  -6    1.20    0.09 
  -2   9   6    1.16    0.11 
   1  -9  -6    0.03    0.04 
  -1   9   6    0.14    0.06 
   0  -9  -6    5.96    0.19 
   0   9   6    5.55    0.23 
  -1  -9  -6    0.19    0.05 
   2  12  -7    0.05    0.02 
   1  12  -7    5.64    0.16 
   0  12  -7    3.95    0.12 
  -1  12  -7    3.79    0.11 
  -2  12  -7    6.27    0.17 
   4  11  -7    4.86    0.15 
   3  11  -7    0.47    0.05 
   2  11  -7    0.18    0.04 
   1  11  -7   12.25    0.32 
   0  11  -7    3.24    0.09 
   0  11  -7    3.28    0.12 
  -1  11  -7    6.41    0.18 
  -1  11  -7    6.40    0.14 
  -2  11  -7    0.24    0.04 
  -2  11  -7    0.12    0.02 
  -3  11  -7    0.08    0.02 
  -3  11  -7    0.08    0.03 
  -4  11  -7    3.78    0.12 
  -5  11  -7    0.01    0.02 
   6  10  -7    0.04    0.03 
   5  10  -7    5.77    0.19 
   5  10  -7    5.95    0.18 
   4  10  -7    6.58    0.20 
   4  10  -7    6.64    0.21 
   3  10  -7    0.53    0.06 
   2  10  -7    6.24    0.19 
   1  10  -7    0.89    0.04 
   1  10  -7    0.84    0.07 
   0  10  -7   11.05    0.23 
   0  10  -7   10.96    0.29 
  -1  10  -7    6.86    0.15 
  -1  10  -7    6.61    0.19 
  -2  10  -7    0.00    0.03 
  -2  10  -7    0.02    0.02 
  -3  10  -7    0.83    0.04 
  -3  10  -7    0.84    0.06 
  -4  10  -7   10.65    0.29 
  -6  10  -7    0.30    0.04 
   7   9  -7    0.20    0.04 
  -7  -9   7    0.16    0.04 
   6   9  -7   10.55    0.31 
   6   9  -7    9.85    0.29 
   5   9  -7    2.40    0.12 
   5   9  -7    2.19    0.11 
   4   9  -7    1.15    0.08 
   4   9  -7    1.21    0.10 
   3   9  -7   12.58    0.35 
   2   9  -7    0.15    0.04 
   2   9  -7    0.08    0.02 
   1   9  -7    0.68    0.04 
   0   9  -7    3.55    0.08 
  -2   9  -7    4.96    0.11 
  -2   9  -7    4.83    0.11 
  -3   9  -7    0.61    0.05 
  -3   9  -7    0.53    0.04 
  -4   9  -7    7.85    0.23 
  -5   9  -7    0.11    0.04 
  -6   9  -7    2.26    0.10 
  -7   9  -7    2.49    0.10 
   8   8  -7    0.03    0.04 
  -8  -8   7    0.14    0.04 
   7   8  -7    0.05    0.03 
   7   8  -7    0.06    0.04 
  -7  -8   7    0.13    0.05 
   6   8  -7    0.33    0.06 
   6   8  -7    0.34    0.05 
   5   8  -7    0.24    0.06 
   5   8  -7    0.37    0.06 
   4   8  -7   10.86    0.31 
   4   8  -7   10.78    0.34 
   3   8  -7    0.03    0.04 
   2   8  -7   23.46    0.46 
   1   8  -7    0.03    0.06 
   0   8  -7    1.33    0.13 
  -1   8  -7    9.34    0.36 
  -2   8  -7    0.48    0.10 
  -3   8  -7   26.96    0.83 
  -3   8  -7   26.30    0.51 
  -4   8  -7    0.08    0.03 
  -4   8  -7   -0.04    0.06 
  -4   8  -7    0.08    0.04 
  -4   8  -7    0.07    0.02 
  -5   8  -7   14.68    0.40 
  -5   8  -7   14.95    0.43 
  -6   8  -7   11.84    0.35 
  -6   8  -7   11.70    0.33 
  -7   8  -7    1.05    0.07 
  -7   8  -7    0.92    0.08 
  -8   8  -7    2.51    0.11 
  -9  -7   7   -0.01    0.03 
   8   7  -7    0.01    0.04 
  -8  -7   7    0.02    0.04 
   7   7  -7    0.39    0.07 
   7   7  -7    0.23    0.05 
  -7  -7   7    0.29    0.07 
   6   7  -7    0.57    0.07 
   6   7  -7    0.47    0.07 
   5   7  -7    1.08    0.10 
   5   7  -7    0.99    0.08 
   4   7  -7   -0.02    0.05 
   4   7  -7    0.05    0.03 
   3   7  -7    6.24    0.15 
   1   7  -7    8.91    0.34 
   0   7  -7   30.62    0.92 
  -1   7  -7    0.03    0.06 
  -2   7  -7    2.72    0.17 
  -3   7  -7    0.19    0.02 
  -3   7  -7    0.17    0.02 
  -3   7  -7    0.20    0.08 
  -4   7  -7   18.94    0.48 
  -4   7  -7   18.70    0.38 
  -4   7  -7   18.61    0.62 
  -5   7  -7   10.24    0.33 
  -5   7  -7   10.52    0.30 
  -5   7  -7   10.57    0.40 
  -6   7  -7    7.25    0.26 
  -6   7  -7    7.44    0.24 
  -7   7  -7   13.59    0.40 
  -7   7  -7   12.97    0.37 
  -8   7  -7    0.07    0.04 
  -8   7  -7    0.09    0.04 
   8  -7   7    0.16    0.04 
   9   6  -7    0.19    0.05 
  -9  -6   7    0.30    0.05 
   8   6  -7    4.79    0.20 
  -8  -6   7    4.85    0.19 
   7   6  -7    0.54    0.08 
  -7  -6   7    0.57    0.08 
   6   6  -7   19.72    0.53 
   6   6  -7   19.56    0.58 
   5   6  -7    0.59    0.06 
   5   6  -7    0.60    0.08 
   3   6  -7    4.46    0.11 
   2   6  -7    6.45    0.27 
   1   6  -7    7.40    0.29 
   1   6  -7    7.34    0.54 
   0   6  -7    1.87    0.30 
   0   6  -7    2.12    0.14 
  -1   6  -7   12.75    0.72 
  -1   6  -7   13.05    0.44 
  -2   6  -7    2.71    0.16 
  -3   6  -7   16.46    0.31 
  -3   6  -7   16.31    0.31 
  -3   6  -7   15.82    0.54 
  -4   6  -7   34.88    0.68 
  -4   6  -7   35.30    1.05 
  -5   6  -7    0.54    0.10 
  -5   6  -7    0.52    0.07 
  -5   6  -7    0.62    0.06 
  -6   6  -7    3.06    0.19 
  -6   6  -7    3.17    0.16 
  -6   6  -7    3.12    0.16 
  -6   6  -7    3.40    0.14 
  -7   6  -7    0.75    0.07 
  -7   6  -7    0.64    0.08 
  -8   6  -7    0.20    0.05 
  -8   6  -7    0.31    0.06 
   8  -6   7    0.26    0.05 
   9   5  -7    2.12    0.12 
   9   5  -7    2.00    0.14 
  -9  -5   7    2.23    0.12 
   8   5  -7    0.12    0.06 
   8   5  -7    0.09    0.07 
  -8  -5   7    0.21    0.06 
   7   5  -7   14.70    0.46 
  -7  -5   7   14.26    0.44 
   6   5  -7    0.02    0.04 
   6   5  -7    0.07    0.05 
   5   5  -7    0.88    0.09 
   5   5  -7    0.98    0.21 
   4   5  -7    5.46    0.36 
   3   5  -7   74.04    2.33 
   3   5  -7   71.41    2.69 
   2   5  -7   22.81    0.69 
   2   5  -7   21.74    1.04 
   1   5  -7   26.88    1.20 
   1   5  -7   28.05    0.82 
   0   5  -7   40.35    1.12 
   0   5  -7   37.87    1.56 
  -1   5  -7   14.54    0.75 
  -1   5  -7   14.94    0.48 
  -2   5  -7   35.98    1.06 
  -2   5  -7   37.35    1.29 
  -3   5  -7   13.71    0.46 
  -4   5  -7    0.51    0.08 
  -5   5  -7    0.04    0.05 
  -5   5  -7    0.20    0.07 
  -5   5  -7    0.12    0.04 
  -6   5  -7    4.16    0.16 
  -6   5  -7    4.26    0.23 
  -6   5  -7    4.39    0.19 
  -7   5  -7   27.08    0.69 
  -7   5  -7   27.34    0.69 
  -7   5  -7   26.11    0.75 
  -7   5  -7   26.03    0.74 
  -8   5  -7    0.52    0.07 
   8  -5   7    0.64    0.08 
  -9   5  -7    0.04    0.04 
   9  -5   7    0.03    0.04 
 -10  -4   7    4.24    0.15 
   9   4  -7    7.62    0.28 
   9   4  -7    8.27    0.31 
  -9  -4   7    7.90    0.27 
   8   4  -7   36.59    1.05 
   8   4  -7   35.14    0.98 
  -8  -4   7   35.64    0.95 
   7   4  -7    1.53    0.12 
  -7  -4   7    1.31    0.12 
   6   4  -7   13.06    0.40 
  -6  -4   7   11.79    0.40 
   5   4  -7    7.02    0.46 
   4   4  -7    0.42    0.17 
   4   4  -7    0.45    0.14 
   3   4  -7  136.67    4.74 
   3   4  -7  142.73    4.24 
   2   4  -7    8.19    0.51 
   2   4  -7    7.60    0.35 
   2   4  -7    7.10    0.27 
   1   4  -7    1.01    0.09 
   1   4  -7    0.86    0.19 
   0   4  -7    0.15    0.11 
   0   4  -7    0.18    0.05 
  -1   4  -7   10.91    0.37 
  -1   4  -7   10.92    0.43 
  -1   4  -7   11.22    0.60 
  -2   4  -7   36.85    1.07 
  -2   4  -7   37.83    1.32 
  -3   4  -7    0.92    0.15 
  -3   4  -7    0.90    0.11 
  -3   4  -7    0.71    0.14 
  -4   4  -7    4.57    0.22 
  -4   4  -7    4.96    0.33 
  -5   4  -7    5.17    0.21 
  -5   4  -7    5.48    0.25 
  -6   4  -7   10.83    0.33 
  -6   4  -7   11.88    0.42 
  -6   4  -7   10.47    0.36 
  -7   4  -7   21.66    0.57 
  -7   4  -7   21.74    0.62 
  -7   4  -7   20.86    0.69 
  -7   4  -7   21.02    0.57 
   7  -4   7   21.67    0.60 
  -8   4  -7    1.47    0.12 
   8  -4   7    1.52    0.11 
  -9   4  -7    6.78    0.24 
   9  -4   7    6.91    0.22 
  10   3  -7    3.13    0.16 
 -10  -3   7    2.85    0.13 
   9   3  -7   16.71    0.50 
   9   3  -7   18.61    0.56 
  -9  -3   7   16.62    0.49 
   8   3  -7    0.12    0.06 
   8   3  -7   -0.03    0.06 
   8   3  -7    0.07    0.05 
  -8  -3   7    0.21    0.07 
   7   3  -7   21.44    0.68 
   7   3  -7   21.02    0.63 
   7   3  -7   22.54    0.64 
  -7  -3   7   22.07    0.62 
   6   3  -7    5.86    0.44 
   5   3  -7    4.08    0.34 
   4   3  -7    4.29    0.31 
   4   3  -7    4.16    0.37 
   3   3  -7    4.63    0.29 
   3   3  -7    3.61    0.33 
   2   3  -7   13.77    0.54 
   2   3  -7   13.18    0.43 
   2   3  -7   13.29    0.68 
   1   3  -7    7.83    0.47 
   1   3  -7    7.51    0.33 
   1   3  -7    7.45    0.26 
   0   3  -7   14.25    0.43 
   0   3  -7   14.34    0.69 
   0   3  -7   13.49    0.51 
   0   3  -7   14.18    0.54 
  -1   3  -7   13.54    0.57 
  -1   3  -7   14.44    0.45 
  -1   3  -7   15.03    0.70 
  -1   3  -7   14.20    0.54 
  -2   3  -7   11.51    0.37 
  -2   3  -7   11.69    0.48 
  -2   3  -7   10.80    0.52 
  -2   3  -7   11.11    0.59 
  -3   3  -7   29.07    1.04 
  -3   3  -7   28.50    0.85 
  -4   3  -7   -0.04    0.08 
  -4   3  -7    0.02    0.06 
  -5   3  -7    5.46    0.21 
  -5   3  -7    4.81    0.38 
  -5   3  -7    5.46    0.25 
  -6   3  -7    0.62    0.09 
  -6   3  -7    0.53    0.07 
  -6   3  -7    0.40    0.09 
   6  -3   7    0.76    0.10 
  -7   3  -7    0.01    0.06 
  -7   3  -7   -0.02    0.05 
   7  -3   7    0.04    0.06 
  -8   3  -7    7.97    0.29 
  -8   3  -7    7.67    0.28 
  -8   3  -7    7.79    0.29 
   8  -3   7    7.61    0.26 
  -9   3  -7    0.14    0.05 
   9  -3   7    0.08    0.04 
  10   2  -7   11.97    0.36 
  10   2  -7   12.19    0.40 
   9   2  -7    1.37    0.12 
   9   2  -7    1.39    0.14 
  -9  -2   7    1.41    0.12 
   8   2  -7    5.14    0.22 
   8   2  -7    4.70    0.24 
  -8  -2   7    4.96    0.21 
   7   2  -7    3.91    0.22 
   7   2  -7    3.85    0.19 
  -7  -2   7    3.80    0.18 
   6   2  -7    3.76    0.20 
   6   2  -7    4.05    0.37 
   5   2  -7    3.60    0.32 
   4   2  -7   18.78    0.79 
   3   2  -7    7.73    0.48 
   3   2  -7    8.22    0.42 
   2   2  -7    1.09    0.16 
   2   2  -7    1.19    0.09 
   2   2  -7    1.26    0.16 
   2   2  -7    1.10    0.21 
   1   2  -7  143.88    4.67 
   1   2  -7  135.55    4.52 
   1   2  -7  136.28    4.17 
   1   2  -7  142.85    3.73 
   0   2  -7    1.10    0.08 
   0   2  -7    1.12    0.20 
   0   2  -7    1.10    0.14 
   0   2  -7    1.19    0.14 
  -1   2  -7   21.84    0.63 
  -1   2  -7   20.87    0.92 
  -1   2  -7   21.80    0.77 
  -1   2  -7   21.18    0.83 
  -2   2  -7    2.43    0.23 
  -2   2  -7    2.37    0.26 
  -2   2  -7    2.63    0.13 
  -2   2  -7    2.47    0.21 
  -3   2  -7    6.99    0.38 
  -3   2  -7    5.76    0.24 
  -4   2  -7    6.00    0.25 
  -4   2  -7    6.70    0.41 
  -5   2  -7    0.70    0.19 
  -5   2  -7    0.90    0.11 
  -6   2  -7    0.76    0.11 
  -6   2  -7    0.73    0.09 
   6  -2   7    0.81    0.10 
  -7   2  -7    3.32    0.18 
  -7   2  -7    2.76    0.18 
  -7   2  -7    3.13    0.18 
   7  -2   7    3.04    0.17 
  -8   2  -7    1.78    0.13 
  -8   2  -7    1.61    0.13 
   8  -2   7    1.89    0.12 
   9  -2   7    7.37    0.23 
  10   1  -7    0.62    0.07 
  10   1  -7    0.52    0.08 
 -10  -1   7    0.54    0.08 
   9   1  -7    4.22    0.20 
   9   1  -7    3.75    0.20 
  -9  -1   7    3.99    0.18 
   8   1  -7    0.47    0.08 
   8   1  -7    0.29    0.08 
  -8  -1   7    0.39    0.08 
   7   1  -7    7.93    0.30 
   7   1  -7    8.32    0.33 
  -7  -1   7    8.38    0.29 
   6   1  -7   17.81    0.59 
   6   1  -7   20.36    0.91 
   5   1  -7    6.02    0.42 
   4   1  -7   48.69    1.68 
   3   1  -7    0.46    0.15 
   3   1  -7    0.29    0.11 
   2   1  -7   14.20    0.68 
   2   1  -7   13.60    0.58 
   1   1  -7   71.04    2.25 
   1   1  -7   75.52    2.53 
   1   1  -7   69.09    2.44 
   0   1  -7    2.74    0.23 
   0   1  -7    2.74    0.26 
   0   1  -7    3.09    0.22 
  -1   1  -7   10.61    0.47 
  -1   1  -7    9.26    0.53 
  -2   1  -7   11.88    0.60 
  -2   1  -7   11.48    0.53 
  -3   1  -7   31.65    1.17 
  -4   1  -7   27.66    1.10 
  -5   1  -7    7.64    0.28 
  -5   1  -7    7.57    0.30 
  -5   1  -7    8.43    0.53 
  -6   1  -7    9.66    0.34 
  -6   1  -7    9.69    0.32 
  -6   1  -7    9.20    0.35 
   6  -1   7    9.15    0.33 
  -7   1  -7    0.13    0.06 
  -7   1  -7   -0.01    0.05 
  -7   1  -7    0.05    0.06 
   7  -1   7    0.07    0.07 
  -8   1  -7   15.08    0.46 
   8  -1   7   13.87    0.42 
   9  -1   7    0.46    0.06 
  10   0  -7    0.46    0.07 
  10   0  -7    0.41    0.07 
 -10   0   7    0.35    0.08 
   9   0  -7    0.04    0.05 
   9   0  -7    0.08    0.06 
  -9   0   7   -0.03    0.07 
   8   0  -7    2.23    0.16 
   8   0  -7    2.32    0.16 
  -8   0   7    2.19    0.14 
   7   0  -7    2.16    0.15 
   7   0  -7    2.29    0.16 
  -7   0   7    2.36    0.14 
   6   0  -7    0.09    0.06 
   6   0  -7    0.04    0.12 
   5   0  -7   18.64    0.84 
   4   0  -7    3.11    0.29 
   3   0  -7   16.77    0.66 
   3   0  -7   15.80    0.77 
   3   0  -7   17.09    0.71 
   3   0  -7   16.69    0.66 
   2   0  -7   19.19    0.72 
   2   0  -7   19.39    0.71 
   2   0  -7   18.38    0.75 
   2   0  -7   19.17    0.86 
   1   0  -7    3.05    0.24 
   1   0  -7    3.14    0.29 
   0   0  -7   57.38    1.86 
  -1   0  -7   25.99    0.96 
  -2   0  -7   34.18    1.23 
  -3   0  -7   17.01    0.76 
  -4   0  -7    9.29    0.55 
  -4   0  -7    9.49    0.34 
  -5   0  -7   40.05    1.12 
  -5   0  -7   39.52    1.06 
   5   0   7   38.91    1.04 
  -6   0  -7   15.72    0.52 
  -6   0  -7   15.84    0.49 
  -6   0  -7   16.23    0.50 
   6   0   7   16.23    0.48 
  -7   0  -7    1.70    0.13 
  -7   0  -7    1.69    0.13 
   7   0   7    1.55    0.13 
  -8   0  -7    0.10    0.05 
  -8   0  -7    0.21    0.06 
   8   0   7    0.16    0.05 
  10  -1  -7    0.12    0.05 
 -10   1   7    0.18    0.06 
   9  -1  -7    1.75    0.14 
   9  -1  -7    2.04    0.14 
  -9   1   7    1.98    0.15 
   8  -1  -7    0.05    0.06 
   8  -1  -7    0.12    0.06 
  -8   1   7    0.09    0.06 
  -8   1   7    0.14    0.08 
   7  -1  -7    5.49    0.25 
   7  -1  -7    5.70    0.24 
  -7   1   7    5.54    0.24 
  -7   1   7    4.84    0.25 
   6  -1  -7   20.29    0.62 
   6  -1  -7   19.10    0.93 
  -6   1   7   20.03    0.60 
   5  -1  -7    0.14    0.06 
   5  -1  -7    0.14    0.12 
  -5   1   7    0.12    0.06 
   4  -1  -7    3.58    0.31 
   3  -1  -7   13.61    0.70 
   3  -1  -7   14.31    0.65 
   2  -1  -7   23.79    0.91 
   2  -1  -7   22.97    0.93 
   1  -1  -7   15.26    0.65 
   1  -1  -7   14.80    0.64 
   0  -1  -7    5.15    0.34 
   0  -1  -7    6.07    0.32 
  -1  -1  -7   18.19    0.77 
  -1  -1  -7   19.00    0.76 
  -2  -1  -7    0.14    0.11 
  -3  -1  -7    1.90    0.28 
  -4  -1  -7    8.21    0.53 
  -4  -1  -7    8.50    0.31 
  -5  -1  -7   -0.03    0.06 
  -5  -1  -7   -0.02    0.06 
   5   1   7    0.04    0.06 
  -6  -1  -7    3.13    0.18 
  -6  -1  -7    2.95    0.18 
   6   1   7    2.85    0.16 
  -7  -1  -7    1.84    0.13 
  -7  -1  -7    1.94    0.14 
   7   1   7    1.63    0.13 
  -8  -1  -7    0.64    0.08 
  -8  -1  -7    0.76    0.08 
  10  -2  -7    0.12    0.05 
 -10   2   7   -0.02    0.05 
   9  -2  -7   20.75    0.61 
   9  -2  -7   21.05    0.62 
  -9   2   7   20.74    0.63 
   8  -2  -7    0.34    0.08 
   8  -2  -7    0.45    0.09 
  -8   2   7    0.40    0.07 
  -8   2   7    0.51    0.10 
   7  -2  -7    4.18    0.22 
   7  -2  -7    4.17    0.21 
  -7   2   7    4.30    0.20 
  -7   2   7    4.30    0.22 
   6  -2  -7    7.69    0.31 
  -6   2   7    8.14    0.30 
   5  -2  -7   32.33    0.93 
  -5   2   7   32.28    0.91 
   4  -2  -7   32.58    1.26 
   3  -2  -7    0.13    0.10 
   2  -2  -7   40.62    1.45 
   1  -2  -7    1.36    0.21 
   0  -2  -7    0.56    0.15 
  -1  -2  -7    8.83    0.50 
  -2  -2  -7    8.87    0.51 
  -3  -2  -7   13.80    0.71 
  -3  -2  -7   13.66    0.45 
   3   2   7   13.80    0.44 
  -4  -2  -7    3.33    0.18 
  -4  -2  -7    3.87    0.39 
  -5  -2  -7   11.77    0.40 
  -5  -2  -7   11.89    0.41 
   5   2   7   11.94    0.38 
  -6  -2  -7    0.15    0.07 
  -6  -2  -7    0.11    0.06 
   6   2   7    0.16    0.08 
   6   2   7    0.14    0.06 
  -7  -2  -7   -0.02    0.05 
  -7  -2  -7    0.04    0.05 
   7   2   7   -0.05    0.06 
  -8  -2  -7    1.73    0.11 
  -8  -2  -7    1.80    0.11 
   8   2   7    2.03    0.13 
  10  -3  -7    6.87    0.24 
 -10   3   7    7.41    0.25 
   9  -3  -7    3.07    0.16 
  -9   3   7    3.08    0.17 
   8  -3  -7   19.83    0.62 
   8  -3  -7   22.04    0.64 
  -8   3   7   20.72    0.63 
  -8   3   7   22.41    0.65 
   7  -3  -7    4.10    0.20 
   7  -3  -7    3.79    0.21 
  -7   3   7    4.11    0.21 
  -7   3   7    4.03    0.20 
   6  -3  -7    7.16    0.28 
   6  -3  -7    6.89    0.29 
  -6   3   7    7.02    0.29 
  -6   3   7    6.87    0.28 
   5  -3  -7   32.05    0.93 
  -5   3   7   32.60    0.93 
   4  -3  -7    2.44    0.15 
  -4   3   7    2.06    0.14 
  -4   3   7    2.27    0.14 
  -3   3   7    8.55    0.30 
   2  -3  -7    0.39    0.14 
   1  -3  -7    8.94    0.51 
   0  -3  -7   10.36    0.56 
  -1  -3  -7    5.88    0.43 
  -1  -3  -7    6.38    0.25 
   1   3   7    6.38    0.26 
  -2  -3  -7   45.71    1.24 
   2   3   7   44.31    1.25 
  -3  -3  -7    1.29    0.12 
   3   3   7    1.17    0.12 
  -4  -3  -7   10.20    0.36 
  -4  -3  -7    9.79    0.36 
   4   3   7    9.97    0.33 
   4   3   7    9.72    0.36 
  -5  -3  -7   17.84    0.55 
  -5  -3  -7   17.23    0.55 
   5   3   7   17.74    0.57 
   5   3   7   16.94    0.51 
  -6  -3  -7   -0.08    0.06 
  -6  -3  -7   -0.04    0.05 
   6   3   7    0.15    0.07 
  -7  -3  -7   15.36    0.45 
  -7  -3  -7   14.51    0.45 
   7   3   7   14.85    0.47 
  -8  -3  -7   -0.01    0.04 
   8   3   7   -0.03    0.04 
 -10   4   7    0.28    0.05 
   9  -4  -7   10.68    0.35 
  -9   4   7   11.24    0.36 
   8  -4  -7    2.63    0.17 
  -8   4   7    2.73    0.17 
  -8   4   7    2.84    0.16 
  -8   4   7    3.09    0.15 
   7  -4  -7    0.10    0.07 
  -7   4   7    0.12    0.07 
  -7   4   7    0.02    0.06 
  -7   4   7    0.03    0.05 
   6  -4  -7    5.49    0.24 
   6  -4  -7    5.76    0.26 
   6  -4  -7    5.28    0.21 
  -6   4   7    6.35    0.27 
  -6   4   7    5.95    0.25 
  -6   4   7    5.75    0.24 
   5  -4  -7   10.22    0.35 
   5  -4  -7   10.02    0.32 
   5  -4  -7   10.07    0.37 
  -5   4   7    9.73    0.36 
  -5   4   7   10.10    0.35 
  -5   4   7    9.82    0.37 
   4  -4  -7    3.02    0.17 
  -4   4   7    3.22    0.18 
  -4   4   7    3.39    0.18 
   3  -4  -7    9.57    0.34 
  -3   4   7    9.36    0.34 
   2  -4  -7    1.13    0.11 
  -2   4   7    0.95    0.10 
   1  -4  -7   10.84    0.38 
  -1   4   7   11.56    0.39 
   0  -4  -7    2.36    0.14 
   0   4   7    2.33    0.16 
  -1  -4  -7   19.97    0.61 
   1   4   7   20.60    0.63 
  -2  -4  -7    0.07    0.06 
   2   4   7    0.06    0.07 
  -3  -4  -7    3.74    0.19 
  -3  -4  -7    3.82    0.20 
   3   4   7    3.80    0.21 
  -4  -4  -7    0.09    0.06 
  -4  -4  -7    0.18    0.07 
   4   4   7    0.07    0.07 
  -5  -4  -7    4.98    0.21 
  -5  -4  -7    5.05    0.23 
   5   4   7    5.22    0.23 
   5   4   7    5.62    0.25 
  -6  -4  -7    4.40    0.20 
  -6  -4  -7    4.41    0.18 
   6   4   7    4.59    0.21 
  -7  -4  -7    0.00    0.04 
   7   4   7   -0.04    0.04 
   9  -5  -7    0.02    0.04 
  -9   5   7   -0.01    0.04 
   8  -5  -7    7.15    0.27 
  -8   5   7    7.46    0.26 
  -8   5   7    7.60    0.28 
   7  -5  -7    7.33    0.29 
  -7   5   7    6.72    0.29 
  -7   5   7    7.75    0.29 
  -7   5   7    7.49    0.28 
   6  -5  -7    1.41    0.13 
  -6   5   7    1.32    0.12 
  -6   5   7    1.25    0.13 
  -6   5   7    1.66    0.15 
   5  -5  -7   18.29    0.59 
  -5   5   7   18.94    0.59 
  -5   5   7   19.92    0.61 
   4  -5  -7    2.29    0.14 
   4  -5  -7    2.56    0.17 
  -4   5   7    2.70    0.16 
  -4   5   7    2.20    0.17 
   3  -5  -7    4.59    0.21 
   3  -5  -7    4.98    0.20 
   3  -5  -7    4.46    0.23 
  -3   5   7    5.07    0.23 
  -3   5   7    4.90    0.24 
   2  -5  -7    0.71    0.09 
   2  -5  -7    0.81    0.09 
  -2   5   7    0.86    0.11 
   1  -5  -7   14.19    0.42 
   1  -5  -7   13.79    0.45 
  -1   5   7   14.56    0.47 
   0  -5  -7    5.60    0.23 
   0  -5  -7    5.81    0.22 
   0   5   7    5.73    0.26 
   0   5   7    5.80    0.26 
  -1  -5  -7    1.63    0.13 
  -1  -5  -7    1.25    0.13 
  -1  -5  -7    1.78    0.12 
   1   5   7    1.61    0.15 
   1   5   7    1.63    0.16 
  -2  -5  -7    7.26    0.27 
  -2  -5  -7    7.44    0.29 
  -2  -5  -7    6.85    0.25 
   2   5   7    7.02    0.30 
  -3  -5  -7    2.31    0.16 
  -3  -5  -7    2.09    0.14 
   3   5   7    1.98    0.16 
  -4  -5  -7    1.14    0.12 
   4   5   7    0.95    0.12 
   4   5   7    0.90    0.11 
  -5  -5  -7    2.43    0.16 
   5   5   7    2.60    0.15 
   5   5   7    2.50    0.16 
  -6  -5  -7    0.00    0.05 
   6   5   7   -0.03    0.05 
  -7  -5  -7    0.30    0.05 
   7   5   7    0.31    0.05 
   8  -6  -7    4.44    0.18 
  -8   6   7    4.26    0.17 
   7  -6  -7    0.04    0.05 
  -7   6   7    0.05    0.05 
  -7   6   7   -0.05    0.05 
   6  -6  -7    2.08    0.12 
  -6   6   7    2.38    0.15 
  -6   6   7    2.31    0.15 
   5  -6  -7   -0.02    0.05 
  -5   6   7    0.09    0.07 
  -5   6   7    0.12    0.07 
   4  -6  -7    0.04    0.05 
  -4   6   7    0.09    0.07 
  -4   6   7    0.00    0.06 
   3  -6  -7   16.97    0.50 
  -3   6   7   17.34    0.56 
  -3   6   7   18.34    0.56 
   2  -6  -7   12.41    0.38 
  -2   6   7   12.44    0.44 
  -2   6   7   12.76    0.44 
   1  -6  -7   18.21    0.51 
  -1   6   7   17.73    0.57 
  -1   6   7   17.73    0.58 
   0  -6  -7    0.17    0.06 
   0  -6  -7   -0.04    0.07 
   0   6   7    0.11    0.07 
   0   6   7    0.22    0.09 
  -1  -6  -7    8.63    0.29 
  -1  -6  -7    8.68    0.33 
   1   6   7    8.71    0.34 
   1   6   7    8.65    0.34 
  -2  -6  -7   10.91    0.38 
  -2  -6  -7   10.50    0.33 
   2   6   7   10.68    0.39 
  -3  -6  -7    4.20    0.20 
   3   6   7    4.01    0.21 
  -4  -6  -7    6.73    0.26 
   4   6   7    6.55    0.26 
   4   6   7    7.26    0.27 
  -5  -6  -7    0.30    0.06 
   5   6   7    0.24    0.06 
  -6  -6  -7    4.64    0.17 
   6   6   7    4.62    0.17 
  -7   7   7    3.95    0.15 
   6  -7  -7    0.74    0.07 
  -6   7   7    0.97    0.10 
  -6   7   7    0.94    0.09 
   5  -7  -7   -0.03    0.04 
  -5   7   7    0.09    0.06 
  -5   7   7    0.02    0.05 
   4  -7  -7   10.47    0.33 
  -4   7   7   10.52    0.37 
  -4   7   7   11.36    0.39 
   3  -7  -7    9.22    0.30 
  -3   7   7    9.04    0.34 
  -3   7   7    8.86    0.33 
   2  -7  -7   21.91    0.61 
  -2   7   7   22.39    0.69 
  -2   7   7   22.48    0.66 
   1  -7  -7   13.44    0.40 
  -1   7   7   13.86    0.45 
  -1   7   7   13.14    0.46 
   0  -7  -7    8.92    0.29 
   0   7   7    9.17    0.34 
   0   7   7    9.15    0.35 
  -1  -7  -7    7.57    0.26 
   1   7   7    7.90    0.31 
  -2  -7  -7    0.19    0.07 
   2   7   7    0.18    0.08 
  -3  -7  -7    2.38    0.15 
   3   7   7    2.60    0.15 
   3   7   7    2.90    0.16 
  -4  -7  -7    0.55    0.08 
   4   7   7    0.79    0.08 
   5   7   7    0.62    0.06 
   5  -8  -7    4.74    0.16 
  -5   8   7    4.96    0.20 
   4  -8  -7    1.45    0.09 
  -4   8   7    1.24    0.12 
  -4   8   7    1.54    0.11 
   3  -8  -7    6.29    0.22 
  -3   8   7    6.11    0.23 
  -3   8   7    6.57    0.26 
   2  -8  -7    2.65    0.13 
  -2   8   7    2.70    0.15 
  -2   8   7    2.68    0.16 
   1  -8  -7    0.74    0.07 
  -1   8   7    0.68    0.10 
   0  -8  -7    0.24    0.05 
   0   8   7    0.39    0.08 
  -1  -8  -7    0.64    0.07 
   1   8   7    0.89    0.10 
   2   8   7   14.86    0.46 
   2   8   7   15.20    0.43 
   3   8   7    1.32    0.08 
   3  -9  -7    1.02    0.07 
   2  -9  -7    2.55    0.11 
   1  -9  -7    2.50    0.10 
   2  12  -8    7.64    0.20 
   1  12  -8    0.00    0.02 
   0  12  -8    0.56    0.04 
   4  11  -8    0.04    0.02 
   3  11  -8    0.10    0.03 
   2  11  -8    0.03    0.02 
   1  11  -8    2.55    0.07 
   1  11  -8    2.58    0.09 
   0  11  -8    2.07    0.06 
   0  11  -8    2.11    0.08 
  -1  11  -8    3.45    0.11 
  -1  11  -8    3.35    0.08 
  -2  11  -8    1.26    0.04 
  -2  11  -8    1.32    0.06 
  -3  11  -8    3.13    0.10 
  -3  11  -8    3.03    0.08 
  -4  11  -8    2.77    0.09 
   6  10  -8    3.20    0.11 
   5  10  -8    0.12    0.03 
   5  10  -8    0.15    0.03 
   4  10  -8    5.60    0.17 
   3  10  -8    3.11    0.12 
   2  10  -8    4.02    0.14 
   2  10  -8    3.96    0.11 
   1  10  -8    5.28    0.12 
   1  10  -8    5.22    0.16 
   0  10  -8    3.86    0.09 
   0  10  -8    3.77    0.09 
  -1  10  -8    2.79    0.07 
  -1  10  -8    2.98    0.07 
  -2  10  -8    0.88    0.04 
  -2  10  -8    0.90    0.04 
  -3  10  -8    3.36    0.12 
  -3  10  -8    3.61    0.09 
  -4  10  -8   -0.02    0.03 
  -4  10  -8    0.08    0.02 
  -5  10  -8   12.76    0.33 
  -6  10  -8    3.73    0.12 
   7   9  -8    2.52    0.10 
   7   9  -8    2.37    0.10 
   6   9  -8    0.75    0.07 
   6   9  -8    0.80    0.06 
   5   9  -8    2.66    0.13 
   5   9  -8    2.73    0.11 
   4   9  -8    0.84    0.08 
   4   9  -8    0.81    0.07 
   3   9  -8    0.49    0.05 
   2   9  -8    7.44    0.17 
   2   9  -8    7.34    0.21 
   1   9  -8    2.43    0.07 
   1   9  -8    2.37    0.07 
   0   9  -8   16.74    0.57 
  -1   9  -8    0.09    0.07 
  -2   9  -8   10.58    0.40 
  -3   9  -8    2.82    0.10 
  -3   9  -8    2.81    0.08 
  -4   9  -8    0.13    0.04 
  -4   9  -8    0.12    0.02 
  -5   9  -8   24.35    0.61 
  -6   9  -8    1.59    0.08 
  -7   9  -8   10.22    0.27 
   8   8  -8    0.17    0.04 
  -8  -8   8    0.14    0.04 
   7   8  -8    0.06    0.03 
   7   8  -8    0.06    0.04 
  -7  -8   8    0.17    0.05 
   6   8  -8    0.21    0.05 
   6   8  -8    0.26    0.05 
   5   8  -8    0.05    0.04 
   5   8  -8    0.12    0.04 
   4   8  -8    3.58    0.14 
   4   8  -8    3.43    0.15 
   3   8  -8    1.23    0.08 
   3   8  -8    1.12    0.06 
   2   8  -8    1.94    0.06 
   2   8  -8    1.89    0.06 
   1   8  -8    0.99    0.13 
   0   8  -8    9.31    0.37 
  -1   8  -8    4.79    0.25 
  -2   8  -8   -0.03    0.06 
  -3   8  -8    0.09    0.02 
  -3   8  -8    0.12    0.08 
  -3   8  -8    0.13    0.02 
  -4   8  -8    0.70    0.04 
  -4   8  -8    0.57    0.10 
  -4   8  -8    0.71    0.06 
  -5   8  -8    1.55    0.09 
  -6   8  -8   15.70    0.42 
  -6   8  -8   16.35    0.45 
  -7   8  -8    3.75    0.14 
   8   7  -8    4.38    0.17 
  -8  -7   8    4.39    0.17 
   7   7  -8    1.57    0.09 
   7   7  -8    1.64    0.11 
  -7  -7   8    1.45    0.11 
   6   7  -8    0.46    0.07 
   6   7  -8    0.55    0.07 
   5   7  -8    3.38    0.16 
   5   7  -8    3.29    0.14 
   4   7  -8    1.79    0.09 
   4   7  -8    1.62    0.11 
   3   7  -8    1.37    0.06 
   1   7  -8    4.52    0.23 
   0   7  -8    8.71    0.34 
  -1   7  -8    1.52    0.13 
  -2   7  -8    6.37    0.28 
  -3   7  -8   12.50    0.25 
  -3   7  -8   12.77    0.45 
  -3   7  -8   12.32    0.25 
  -4   7  -8    1.26    0.05 
  -4   7  -8    1.36    0.08 
  -4   7  -8    1.55    0.14 
  -5   7  -8    0.36    0.09 
  -5   7  -8    0.44    0.05 
  -5   7  -8    0.30    0.06 
  -6   7  -8    1.38    0.10 
  -6   7  -8    1.34    0.09 
  -6   7  -8    1.42    0.09 
  -7   7  -8    2.79    0.13 
  -7   7  -8    3.09    0.13 
  -8   7  -8    3.31    0.13 
   9   6  -8    0.11    0.04 
  -9  -6   8    0.06    0.04 
   8   6  -8    2.99    0.15 
  -8  -6   8    2.81    0.14 
   7   6  -8    0.23    0.06 
   7   6  -8    0.28    0.05 
  -7  -6   8    0.27    0.07 
   6   6  -8    1.25    0.11 
   6   6  -8    1.37    0.09 
   5   6  -8    4.82    0.20 
   5   6  -8    4.55    0.17 
   4   6  -8    5.06    0.20 
   3   6  -8   88.62    1.66 
   2   6  -8    1.45    0.13 
   1   6  -8    9.09    0.34 
   0   6  -8    3.13    0.17 
  -1   6  -8    0.58    0.09 
  -2   6  -8   18.98    0.61 
  -3   6  -8    0.63    0.03 
  -3   6  -8    0.63    0.03 
  -3   6  -8    0.55    0.10 
  -4   6  -8   40.81    1.20 
  -4   6  -8   40.26    0.98 
  -5   6  -8    4.93    0.24 
  -5   6  -8    4.76    0.19 
  -5   6  -8    4.68    0.17 
  -6   6  -8    0.04    0.05 
  -6   6  -8    0.03    0.04 
  -6   6  -8    0.08    0.05 
  -7   6  -8    4.34    0.18 
  -7   6  -8    4.43    0.17 
  -8   6  -8    0.05    0.04 
  -8   6  -8   -0.02    0.03 
   8  -6   8    0.07    0.04 
   9   5  -8    3.23    0.15 
   9   5  -8    3.03    0.16 
  -9  -5   8    3.26    0.14 
   8   5  -8    4.17    0.19 
   8   5  -8    3.91    0.22 
  -8  -5   8    4.41    0.19 
   7   5  -8   12.10    0.40 
  -7  -5   8   12.20    0.38 
   6   5  -8    8.49    0.30 
   6   5  -8    8.35    0.27 
   5   5  -8    0.92    0.09 
   4   5  -8   27.09    1.05 
   2   5  -8    9.26    0.63 
   2   5  -8   10.16    0.36 
   1   5  -8    3.18    0.17 
   1   5  -8    3.00    0.34 
   0   5  -8    5.61    0.45 
   0   5  -8    5.35    0.23 
  -1   5  -8   29.06    1.26 
  -1   5  -8   28.28    0.85 
  -2   5  -8    7.67    0.30 
  -3   5  -8   12.61    0.45 
  -3   5  -8   13.19    0.26 
  -4   5  -8    0.17    0.05 
  -4   5  -8    0.04    0.06 
  -5   5  -8    0.20    0.06 
  -5   5  -8    0.11    0.04 
  -5   5  -8    0.05    0.07 
  -6   5  -8    6.18    0.21 
  -6   5  -8    5.93    0.27 
  -6   5  -8    6.20    0.23 
  -7   5  -8    0.36    0.06 
  -7   5  -8    0.29    0.06 
  -7   5  -8    0.31    0.06 
  -7   5  -8    0.39    0.07 
   7  -5   8    0.34    0.07 
  -8   5  -8    8.31    0.27 
   8  -5   8    7.74    0.25 
 -10  -4   8    5.82    0.19 
   9   4  -8    1.97    0.14 
   9   4  -8    1.92    0.12 
  -9  -4   8    2.15    0.12 
   8   4  -8   11.47    0.41 
   8   4  -8   11.17    0.37 
  -8  -4   8   10.99    0.36 
   7   4  -8   12.19    0.40 
  -7  -4   8   11.93    0.38 
   6   4  -8    0.65    0.09 
   6   4  -8    0.67    0.07 
  -6  -4   8    0.58    0.09 
   5   4  -8   21.42    0.94 
   4   4  -8    0.83    0.17 
   3   4  -8    6.56    0.37 
   3   4  -8    6.37    0.49 
   2   4  -8    0.24    0.13 
   2   4  -8    0.23    0.07 
   1   4  -8   20.27    0.62 
   1   4  -8   20.54    0.96 
   0   4  -8   27.50    0.97 
   0   4  -8   26.57    0.80 
  -1   4  -8    0.70    0.18 
  -1   4  -8    0.66    0.12 
  -1   4  -8    0.66    0.09 
  -2   4  -8   19.54    0.60 
  -2   4  -8   18.53    0.79 
  -3   4  -8    3.21    0.25 
  -3   4  -8    2.88    0.17 
  -4   4  -8    3.63    0.30 
  -4   4  -8    3.85    0.20 
  -5   4  -8   14.60    0.40 
  -5   4  -8   14.19    0.44 
  -5   4  -8   14.80    0.51 
  -6   4  -8   10.95    0.32 
  -6   4  -8   11.22    0.36 
  -6   4  -8   10.35    0.41 
  -7   4  -8    9.74    0.30 
  -7   4  -8    9.73    0.30 
  -7   4  -8    9.75    0.33 
   7  -4   8    9.98    0.32 
  -8   4  -8    1.32    0.11 
   8  -4   8    1.06    0.09 
   9  -4   8    0.37    0.05 
   9   3  -8   -0.06    0.05 
  -9  -3   8    0.04    0.05 
   8   3  -8    2.61    0.16 
   8   3  -8    2.71    0.18 
  -8  -3   8    2.68    0.15 
   7   3  -8    2.40    0.18 
   7   3  -8    2.13    0.14 
  -7  -3   8    2.55    0.15 
   6   3  -8   26.18    0.73 
  -6  -3   8   25.09    0.70 
   5   3  -8    0.54    0.16 
   4   3  -8    6.56    0.48 
   4   3  -8    6.30    0.40 
   3   3  -8    0.38    0.11 
   3   3  -8    0.32    0.14 
   2   3  -8    1.17    0.10 
   2   3  -8    1.56    0.19 
   2   3  -8    1.00    0.16 
   2   3  -8    1.19    0.23 
   1   3  -8   23.15    0.70 
   1   3  -8   23.29    0.91 
   1   3  -8   24.29    1.06 
   1   3  -8   24.60    0.85 
   0   3  -8   11.18    0.37 
   0   3  -8   10.86    0.49 
   0   3  -8   11.03    0.62 
   0   3  -8   10.91    0.46 
  -1   3  -8   68.21    2.46 
  -1   3  -8   68.85    2.13 
  -1   3  -8   67.79    2.31 
  -1   3  -8   66.76    1.87 
  -2   3  -8    5.05    0.34 
  -2   3  -8    4.58    0.20 
  -2   3  -8    5.00    0.30 
  -3   3  -8   18.73    0.60 
  -3   3  -8   19.41    0.78 
  -4   3  -8    2.68    0.17 
  -4   3  -8    3.05    0.29 
  -5   3  -8    0.97    0.10 
  -5   3  -8    0.63    0.07 
  -5   3  -8    0.65    0.10 
  -6   3  -8   13.90    0.43 
  -6   3  -8   13.33    0.39 
  -6   3  -8   12.75    0.47 
   6  -3   8   13.56    0.42 
  -7   3  -8    0.13    0.06 
   7  -3   8    0.16    0.06 
  -8   3  -8    1.86    0.12 
  -8   3  -8    1.78    0.13 
  -8   3  -8    1.68    0.12 
   8  -3   8    1.61    0.11 
   9  -3   8    5.05    0.17 
  10   2  -8    5.26    0.21 
 -10  -2   8    4.78    0.18 
   9   2  -8    8.52    0.29 
   9   2  -8    9.49    0.34 
  -9  -2   8    8.25    0.28 
   8   2  -8   -0.08    0.06 
   8   2  -8    0.07    0.05 
   8   2  -8    0.05    0.05 
  -8  -2   8    0.03    0.05 
   7   2  -8   18.06    0.60 
   7   2  -8   18.93    0.56 
   7   2  -8   18.31    0.56 
  -7  -2   8   18.28    0.54 
   6   2  -8    1.61    0.31 
   6   2  -8    1.36    0.11 
   6   2  -8    1.11    0.13 
   5   2  -8    0.02    0.09 
   4   2  -8    8.64    0.49 
   3   2  -8    2.48    0.29 
   3   2  -8    2.28    0.23 
   2   2  -8   15.56    0.78 
   2   2  -8   15.03    0.63 
   2   2  -8   14.94    0.47 
   1   2  -8    0.53    0.12 
   1   2  -8    0.42    0.11 
   1   2  -8    0.47    0.07 
   1   2  -8    0.59    0.18 
   0   2  -8   25.95    1.12 
   0   2  -8   27.76    0.94 
   0   2  -8   24.97    0.75 
   0   2  -8   25.74    1.01 
  -1   2  -8   -0.09    0.07 
  -1   2  -8    0.06    0.09 
  -1   2  -8    0.06    0.07 
  -1   2  -8    0.01    0.04 
  -2   2  -8    0.96    0.09 
  -2   2  -8    1.04    0.17 
  -2   2  -8    1.04    0.21 
  -3   2  -8   82.83    2.60 
  -3   2  -8   78.73    2.21 
  -4   2  -8    0.06    0.06 
  -4   2  -8    0.13    0.12 
  -5   2  -8    0.43    0.07 
  -5   2  -8    0.46    0.07 
  -5   2  -8    0.56    0.10 
   5  -2   8    0.41    0.08 
  -6   2  -8    1.37    0.13 
   6  -2   8    1.40    0.13 
  -7   2  -8    8.53    0.32 
  -7   2  -8    8.50    0.31 
   7  -2   8    8.94    0.30 
  -8   2  -8    6.01    0.22 
  -8   2  -8    5.56    0.23 
  -8   2  -8    5.52    0.23 
   8  -2   8    5.67    0.21 
   9  -2   8    3.64    0.14 
  10   1  -8    5.11    0.21 
  10   1  -8    5.24    0.19 
   9   1  -8    6.91    0.26 
   9   1  -8    6.74    0.28 
   8   1  -8    6.31    0.25 
   8   1  -8    5.64    0.26 
  -8  -1   8    6.18    0.24 
   7   1  -8    1.10    0.13 
   7   1  -8    1.09    0.11 
   7   1  -8    0.95    0.10 
  -7  -1   8    1.07    0.11 
   6   1  -8    0.72    0.21 
   6   1  -8    0.70    0.10 
   6   1  -8    0.69    0.09 
   5   1  -8    6.35    0.45 
   5   1  -8    6.26    0.27 
   4   1  -8    2.34    0.25 
   3   1  -8   50.97    1.71 
   3   1  -8   49.08    1.91 
   2   1  -8    8.88    0.45 
   2   1  -8    8.04    0.52 
   1   1  -8   11.94    0.53 
   1   1  -8   12.04    0.65 
   0   1  -8   15.61    0.63 
   0   1  -8   14.51    0.75 
  -1   1  -8    1.13    0.18 
  -1   1  -8    0.72    0.18 
  -2   1  -8    5.54    0.43 
  -2   1  -8    6.53    0.39 
  -3   1  -8    0.88    0.18 
  -4   1  -8   38.02    1.44 
  -5   1  -8   20.54    0.61 
  -5   1  -8   21.33    0.65 
  -5   1  -8   20.69    0.60 
   5  -1   8   21.50    0.60 
  -6   1  -8    0.02    0.06 
  -6   1  -8    0.15    0.06 
  -6   1  -8    0.16    0.06 
   6  -1   8   -0.03    0.06 
  -7   1  -8    8.15    0.30 
  -7   1  -8    7.77    0.30 
   7  -1   8    8.23    0.28 
  -8   1  -8    0.48    0.08 
   8  -1   8    0.58    0.07 
  10   0  -8   14.50    0.42 
 -10   0   8   14.23    0.44 
   9   0  -8    4.42    0.20 
   9   0  -8    4.76    0.21 
  -9   0   8    4.19    0.21 
   8   0  -8   -0.09    0.05 
   8   0  -8    0.04    0.06 
   7   0  -8    9.50    0.37 
   7   0  -8    9.88    0.35 
  -7   0   8    9.80    0.33 
   6   0  -8    1.49    0.13 
   5   0  -8    7.79    0.50 
   5   0  -8    7.16    0.29 
   4   0  -8    5.77    0.41 
   3   0  -8    1.24    0.23 
   3   0  -8    1.00    0.18 
   2   0  -8   93.23    3.33 
   2   0  -8   97.66    3.01 
   1   0  -8    3.86    0.35 
   1   0  -8    3.72    0.29 
   0   0  -8    4.83    0.40 
   0   0  -8    4.77    0.32 
  -1   0  -8   22.31    0.88 
  -1   0  -8   20.62    0.99 
  -2   0  -8   -0.05    0.11 
  -2   0  -8   -0.02    0.09 
  -3   0  -8   11.01    0.60 
  -3   0  -8   10.90    0.37 
  -4   0  -8    0.54    0.16 
  -4   0  -8    0.59    0.09 
  -5   0  -8    6.52    0.25 
  -5   0  -8    6.11    0.25 
  -5   0  -8    6.27    0.27 
   5   0   8    6.88    0.26 
  -6   0  -8    2.14    0.14 
  -6   0  -8    2.27    0.16 
   6   0   8    2.34    0.15 
  -7   0  -8    0.74    0.08 
  -7   0  -8    0.80    0.09 
   7   0   8    0.77    0.09 
  -8   0  -8   10.82    0.35 
   8   0   8   11.11    0.32 
  10  -1  -8    4.85    0.19 
 -10   1   8    4.77    0.20 
   9  -1  -8    1.04    0.10 
   9  -1  -8    1.41    0.12 
  -9   1   8    1.40    0.13 
   8  -1  -8    0.62    0.09 
   8  -1  -8    0.58    0.09 
  -8   1   8    0.59    0.08 
  -8   1   8    0.62    0.10 
   7  -1  -8    3.18    0.19 
   7  -1  -8    3.23    0.19 
  -7   1   8    3.31    0.17 
  -7   1   8    3.20    0.21 
   6  -1  -8    1.23    0.13 
  -6   1   8    1.19    0.11 
   5  -1  -8   73.64    2.52 
   5  -1  -8   73.09    1.98 
   4  -1  -8    3.91    0.20 
   4  -1  -8    4.17    0.35 
   3  -1  -8   11.25    0.57 
   3  -1  -8   10.23    0.62 
   2  -1  -8   22.27    0.90 
   2  -1  -8   21.67    1.03 
   1  -1  -8    0.20    0.09 
   0  -1  -8    3.38    0.29 
  -1  -1  -8    0.00    0.09 
  -2  -1  -8    6.69    0.44 
  -3  -1  -8    7.94    0.30 
  -3  -1  -8    7.67    0.51 
  -4  -1  -8    6.69    0.27 
  -4  -1  -8    7.39    0.29 
   4   1   8    7.70    0.28 
  -5  -1  -8    9.75    0.36 
  -5  -1  -8    9.74    0.35 
   5   1   8    9.61    0.33 
  -6  -1  -8    0.06    0.06 
  -6  -1  -8    0.04    0.06 
   6   1   8    0.06    0.06 
  -7  -1  -8    5.42    0.22 
  -7  -1  -8    5.17    0.21 
   7   1   8    5.27    0.20 
  -8  -1  -8    1.16    0.08 
  10  -2  -8    1.72    0.11 
 -10   2   8    2.05    0.12 
   9  -2  -8    8.87    0.31 
   9  -2  -8    9.21    0.30 
  -9   2   8    8.61    0.32 
   8  -2  -8    1.11    0.12 
   8  -2  -8    1.03    0.11 
  -8   2   8    1.43    0.14 
   7  -2  -8    1.02    0.11 
   7  -2  -8    0.84    0.11 
  -7   2   8    0.95    0.12 
   6  -2  -8   19.74    0.61 
   6  -2  -8   20.55    0.63 
  -6   2   8   20.52    0.61 
  -6   2   8   19.89    0.63 
  -6   2   8   19.71    0.58 
  -6   2   8   20.15    0.60 
   5  -2  -8   27.87    0.82 
  -5   2   8   27.57    0.79 
  -5   2   8   27.14    0.79 
   4  -2  -8   52.13    1.42 
   4  -2  -8   51.36    1.85 
  -4   2   8   50.57    1.39 
   3  -2  -8    2.36    0.31 
   3  -2  -8    2.49    0.36 
   3  -2  -8    2.56    0.15 
   2  -2  -8    1.75    0.25 
   1  -2  -8   20.71    0.89 
   0  -2  -8    1.21    0.22 
  -1  -2  -8   20.24    0.88 
  -1  -2  -8   18.72    0.58 
  -2  -2  -8    0.02    0.05 
  -2  -2  -8    0.00    0.10 
  -3  -2  -8    0.05    0.06 
  -3  -2  -8    0.38    0.17 
  -4  -2  -8   16.87    0.54 
  -4  -2  -8   17.05    0.53 
   4   2   8   17.00    0.50 
  -5  -2  -8    2.38    0.16 
  -5  -2  -8    2.29    0.16 
   5   2   8    2.43    0.15 
  -6  -2  -8   25.00    0.74 
  -6  -2  -8   25.00    0.72 
   6   2   8   25.42    0.68 
  -7  -2  -8   -0.07    0.04 
  -7  -2  -8   -0.05    0.05 
   7   2   8    0.08    0.06 
  -8  -2  -8   -0.02    0.03 
   8   2   8    0.00    0.04 
  10  -3  -8    9.39    0.29 
 -10   3   8    9.44    0.29 
   9  -3  -8    5.96    0.23 
  -9   3   8    6.29    0.24 
   8  -3  -8    0.02    0.05 
   8  -3  -8    0.11    0.06 
  -8   3   8    0.09    0.07 
   7  -3  -8   16.66    0.52 
   7  -3  -8   15.76    0.52 
  -7   3   8   16.68    0.54 
  -7   3   8   16.18    0.51 
  -7   3   8   16.47    0.50 
   6  -3  -8   21.70    0.66 
   6  -3  -8   21.19    0.66 
  -6   3   8   21.52    0.64 
  -6   3   8   21.34    0.65 
  -6   3   8   22.20    0.67 
   5  -3  -8   42.32    1.19 
   5  -3  -8   42.97    1.17 
  -5   3   8   41.80    1.17 
  -5   3   8   40.85    1.12 
  -5   3   8   42.36    1.17 
   4  -3  -8    0.52    0.09 
  -4   3   8    0.42    0.07 
   3  -3  -8    7.38    0.29 
  -3   3   8    7.66    0.28 
   2  -3  -8    2.69    0.16 
  -2   3   8    2.54    0.16 
   1  -3  -8    9.32    0.55 
   1  -3  -8    9.49    0.33 
  -1   3   8    8.90    0.33 
   0  -3  -8   36.97    1.43 
   0  -3  -8   37.44    1.05 
   0   3   8   37.06    1.04 
  -1  -3  -8    4.84    0.22 
   1   3   8    4.94    0.22 
  -2  -3  -8    7.84    0.30 
   2   3   8    7.68    0.30 
  -3  -3  -8    2.04    0.15 
  -3  -3  -8    2.05    0.14 
   3   3   8    1.80    0.13 
   3   3   8    1.68    0.14 
  -4  -3  -8    9.02    0.33 
  -4  -3  -8    9.10    0.33 
   4   3   8    8.69    0.30 
  -5  -3  -8    3.90    0.19 
  -5  -3  -8    4.07    0.21 
   5   3   8    4.15    0.21 
  -6  -3  -8    0.08    0.05 
  -6  -3  -8   -0.02    0.05 
   6   3   8   -0.09    0.05 
  -7  -3  -8    1.42    0.10 
   7   3   8    1.48    0.11 
   9  -4  -8    0.55    0.07 
  -9   4   8    0.54    0.07 
   8  -4  -8   15.97    0.49 
  -8   4   8   16.55    0.49 
  -8   4   8   15.96    0.50 
   7  -4  -8    0.10    0.07 
  -7   4   8    0.13    0.07 
  -7   4   8    0.11    0.06 
   6  -4  -8   15.47    0.51 
   6  -4  -8   15.18    0.49 
  -6   4   8   15.65    0.50 
  -6   4   8   16.47    0.52 
   5  -4  -8    2.19    0.16 
   5  -4  -8    2.08    0.15 
  -5   4   8    2.45    0.18 
  -5   4   8    1.99    0.14 
   4  -4  -8    0.89    0.10 
   4  -4  -8    0.94    0.11 
  -4   4   8    1.11    0.13 
  -4   4   8    0.95    0.11 
   3  -4  -8   20.85    0.64 
  -3   4   8   20.77    0.63 
   2  -4  -8   13.01    0.43 
  -2   4   8   12.98    0.44 
   1  -4  -8    4.92    0.22 
  -1   4   8    4.77    0.23 
   0  -4  -8    1.90    0.14 
   0   4   8    1.87    0.15 
  -1  -4  -8    3.47    0.19 
  -1  -4  -8    3.32    0.18 
   1   4   8    3.90    0.20 
   1   4   8    3.70    0.21 
  -2  -4  -8    7.36    0.28 
  -2  -4  -8    6.99    0.28 
   2   4   8    7.09    0.29 
   2   4   8    6.92    0.30 
  -3  -4  -8    0.44    0.09 
  -3  -4  -8    0.42    0.08 
   3   4   8    0.46    0.09 
  -4  -4  -8   12.33    0.41 
  -4  -4  -8   12.91    0.42 
  -5  -4  -8    0.48    0.09 
  -5  -4  -8    0.44    0.07 
   5   4   8    0.52    0.08 
  -6  -4  -8    0.91    0.09 
   6   4   8    0.75    0.09 
  -7  -4  -8    1.32    0.08 
   7   4   8    1.60    0.10 
   9  -5  -8    6.48    0.23 
  -9   5   8    6.57    0.21 
   8  -5  -8    0.41    0.07 
  -8   5   8    0.44    0.07 
   7  -5  -8    0.69    0.09 
  -7   5   8    0.87    0.09 
  -7   5   8    0.67    0.09 
   6  -5  -8    0.16    0.06 
  -6   5   8    0.12    0.06 
  -6   5   8    0.06    0.07 
   5  -5  -8    2.39    0.17 
  -5   5   8    2.82    0.18 
  -5   5   8    2.74    0.16 
   4  -5  -8    1.11    0.10 
   4  -5  -8    1.10    0.13 
   4  -5  -8    0.92    0.11 
  -4   5   8    1.17    0.13 
  -4   5   8    1.02    0.11 
   3  -5  -8    3.93    0.21 
   3  -5  -8    3.59    0.17 
   3  -5  -8    3.65    0.19 
  -3   5   8    3.53    0.20 
  -3   5   8    3.85    0.22 
   2  -5  -8    9.38    0.30 
   2  -5  -8    9.08    0.35 
   2  -5  -8    9.81    0.34 
  -2   5   8    9.30    0.35 
  -2   5   8    9.46    0.36 
   1  -5  -8    5.19    0.22 
   1  -5  -8    4.81    0.23 
   1  -5  -8    4.60    0.19 
  -1   5   8    5.02    0.24 
  -1   5   8    4.76    0.24 
   0  -5  -8    0.24    0.08 
   0  -5  -8    0.16    0.06 
   0   5   8    0.08    0.07 
   0   5   8    0.16    0.07 
  -1  -5  -8   35.44    1.00 
  -1  -5  -8   35.94    1.00 
   1   5   8   34.92    1.01 
   1   5   8   35.68    1.02 
  -2  -5  -8    1.13    0.12 
  -2  -5  -8    1.23    0.12 
   2   5   8    1.10    0.12 
  -3  -5  -8    4.80    0.21 
  -3  -5  -8    5.27    0.23 
   3   5   8    4.66    0.22 
  -4  -5  -8    1.41    0.13 
   4   5   8    1.53    0.14 
  -5  -5  -8    0.31    0.07 
   5   5   8    0.39    0.08 
  -6  -5  -8    0.45    0.06 
   6   5   8    0.55    0.07 
   8  -6  -8    5.49    0.19 
  -8   6   8    5.31    0.18 
   7  -6  -8    0.11    0.05 
  -7   6   8    0.19    0.06 
  -7   6   8    0.25    0.06 
   6  -6  -8    0.07    0.06 
  -6   6   8    0.00    0.06 
  -6   6   8    0.05    0.06 
  -5   6   8    9.51    0.34 
  -5   6   8    8.95    0.34 
   4  -6  -8    0.79    0.11 
   4  -6  -8    0.78    0.08 
  -4   6   8    0.74    0.10 
  -4   6   8    0.82    0.11 
   3  -6  -8    1.76    0.12 
   3  -6  -8    1.78    0.15 
  -3   6   8    1.69    0.14 
  -3   6   8    1.84    0.16 
   2  -6  -8   17.19    0.54 
   2  -6  -8   16.85    0.49 
  -2   6   8   16.93    0.56 
  -2   6   8   18.30    0.56 
   1  -6  -8    5.89    0.26 
   1  -6  -8    6.03    0.22 
  -1   6   8    6.45    0.27 
  -1   6   8    5.88    0.27 
   0  -6  -8   18.51    0.57 
   0   6   8   19.13    0.59 
   0   6   8   17.89    0.59 
  -1  -6  -8   10.29    0.36 
   1   6   8   10.10    0.37 
  -2  -6  -8    6.58    0.26 
   2   6   8    6.79    0.28 
  -3  -6  -8    1.93    0.14 
   3   6   8    2.25    0.15 
  -4  -6  -8    0.70    0.08 
   4   6   8    0.49    0.07 
  -5  -6  -8    1.71    0.11 
   5   6   8    1.77    0.11 
   6  -7  -8    7.72    0.27 
  -6   7   8    7.99    0.26 
   5  -7  -8    0.71    0.10 
  -5   7   8    0.76    0.09 
  -5   7   8    0.74    0.09 
  -4   7   8    9.35    0.33 
  -4   7   8    8.33    0.31 
   3  -7  -8    0.88    0.10 
   3  -7  -8    0.60    0.07 
  -3   7   8    0.76    0.09 
  -3   7   8    0.93    0.11 
   2  -7  -8    8.68    0.27 
   2  -7  -8    8.54    0.32 
  -2   7   8    8.35    0.31 
  -2   7   8    8.74    0.33 
   1  -7  -8    5.01    0.18 
   1  -7  -8    5.02    0.22 
  -1   7   8    5.18    0.24 
  -1   7   8    4.82    0.23 
   0  -7  -8    0.04    0.06 
   0   7   8    0.10    0.07 
  -1  -7  -8    9.59    0.34 
   1   7   8   10.77    0.36 
  -2  -7  -8    0.94    0.09 
   2   7   8    1.01    0.10 
  -3  -7  -8    2.82    0.14 
   3   7   8    2.95    0.14 
  -4  -7  -8    0.96    0.08 
   4   7   8    0.80    0.07 
  -4   8   8    5.71    0.20 
  -3   8   8    0.22    0.05 
  -3   8   8    0.22    0.06 
  -2   8   8    3.52    0.17 
  -1   8   8    0.12    0.06 
   0   8   8    2.25    0.13 
  -1  -8  -8    1.20    0.09 
   1   8   8    1.00    0.09 
   2   8   8    4.11    0.15 
   4  11  -9    1.07    0.05 
   3  11  -9    4.04    0.12 
   2  11  -9    1.17    0.05 
   2  11  -9    1.15    0.06 
   2  11  -9    1.10    0.05 
   1  11  -9    0.88    0.04 
   1  11  -9    0.90    0.05 
   0  11  -9    2.32    0.06 
   0  11  -9    2.28    0.06 
  -1  11  -9    0.04    0.01 
  -1  11  -9    0.02    0.01 
  -2  11  -9    0.08    0.02 
  -2  11  -9    0.06    0.01 
   6  10  -9    5.96    0.17 
   5  10  -9    0.05    0.03 
   4  10  -9    0.09    0.03 
   3  10  -9    5.86    0.18 
   2  10  -9    2.27    0.09 
   2  10  -9    2.46    0.07 
   1  10  -9    6.05    0.13 
   1  10  -9    5.76    0.13 
   0  10  -9    8.20    0.17 
  -2  10  -9    9.74    0.20 
  -2  10  -9   10.01    0.20 
  -3  10  -9    0.40    0.04 
  -3  10  -9    0.34    0.03 
  -4  10  -9    6.99    0.15 
  -5  10  -9    1.18    0.06 
   6   9  -9    0.71    0.06 
   6   9  -9    0.73    0.06 
   5   9  -9    3.70    0.14 
   5   9  -9    3.50    0.13 
   4   9  -9    1.31    0.08 
   3   9  -9   12.60    0.27 
   3   9  -9   12.81    0.34 
   2   9  -9    6.62    0.15 
   2   9  -9    6.51    0.19 
   0   9  -9   13.65    0.49 
  -1   9  -9    2.36    0.17 
  -3   9  -9   15.40    0.30 
  -3   9  -9   15.09    0.38 
  -4   9  -9    2.31    0.09 
  -4   9  -9    2.23    0.07 
  -5   9  -9    1.93    0.09 
  -6   9  -9    3.30    0.11 
   7   8  -9    1.76    0.09 
   7   8  -9    1.82    0.10 
   6   8  -9    0.10    0.03 
   6   8  -9    0.04    0.04 
   5   8  -9    1.53    0.09 
   5   8  -9    1.43    0.10 
   4   8  -9    5.01    0.19 
   4   8  -9    4.99    0.17 
   3   8  -9   19.86    0.41 
   3   8  -9   20.55    0.51 
   2   8  -9    1.20    0.04 
   2   8  -9    1.16    0.04 
   1   8  -9    7.93    0.34 
   0   8  -9    7.15    0.31 
  -1   8  -9    1.00    0.13 
  -2   8  -9    2.75    0.18 
  -3   8  -9    0.27    0.03 
  -3   8  -9    0.22    0.08 
  -4   8  -9    7.43    0.17 
  -4   8  -9    7.39    0.21 
  -5   8  -9    0.10    0.04 
  -5   8  -9    0.07    0.04 
  -6   8  -9    0.31    0.04 
   8   7  -9    0.25    0.05 
  -8  -7   9    0.16    0.05 
   7   7  -9    0.21    0.05 
   7   7  -9    0.08    0.03 
  -7  -7   9    0.21    0.05 
   6   7  -9   -0.02    0.03 
   6   7  -9    0.03    0.04 
   5   7  -9    0.80    0.08 
   5   7  -9    0.93    0.07 
   4   7  -9    9.27    0.26 
   4   7  -9    8.73    0.29 
   3   7  -9    1.97    0.09 
   3   7  -9    1.99    0.07 
   1   7  -9   28.60    0.89 
   0   7  -9    1.77    0.15 
  -1   7  -9   18.32    0.61 
  -2   7  -9    0.34    0.09 
  -3   7  -9    0.74    0.11 
  -3   7  -9    0.60    0.03 
  -4   7  -9    0.21    0.03 
  -4   7  -9    0.24    0.04 
  -4   7  -9    0.25    0.08 
  -5   7  -9    0.09    0.03 
  -5   7  -9    0.19    0.05 
  -6   7  -9    7.50    0.23 
  -6   7  -9    7.36    0.23 
  -6   7  -9    7.37    0.24 
  -7   7  -9    1.30    0.08 
  -7   7  -9    1.36    0.09 
   9   6  -9    0.05    0.04 
  -9  -6   9   -0.01    0.03 
   8   6  -9    0.76    0.08 
  -8  -6   9    0.92    0.09 
   7   6  -9    1.44    0.09 
   7   6  -9    1.29    0.11 
  -7  -6   9    1.35    0.11 
   6   6  -9    0.05    0.05 
   6   6  -9   -0.02    0.03 
   5   6  -9   13.30    0.37 
   5   6  -9   12.61    0.40 
   4   6  -9   77.45    1.84 
   4   6  -9   78.20    1.97 
   3   6  -9   10.78    0.23 
   2   6  -9    0.92    0.12 
   1   6  -9    0.06    0.06 
   0   6  -9    7.39    0.30 
  -1   6  -9   12.29    0.44 
  -2   6  -9    3.38    0.19 
  -3   6  -9    6.93    0.15 
  -3   6  -9    6.92    0.20 
  -3   6  -9    7.42    0.31 
  -4   6  -9    0.86    0.08 
  -4   6  -9    0.71    0.11 
  -4   6  -9    0.90    0.07 
  -5   6  -9   12.36    0.46 
  -5   6  -9   13.35    0.36 
  -5   6  -9   12.78    0.38 
  -6   6  -9    7.99    0.24 
  -6   6  -9    8.09    0.27 
  -6   6  -9    7.70    0.27 
  -7   6  -9    3.73    0.15 
  -7   6  -9    4.02    0.16 
  -8   6  -9    0.16    0.04 
  -8   6  -9    0.20    0.04 
   9   5  -9    0.00    0.04 
  -9  -5   9    0.07    0.05 
   8   5  -9    3.78    0.17 
  -8  -5   9    3.33    0.16 
   7   5  -9    0.04    0.05 
  -7  -5   9    0.16    0.06 
   6   5  -9   10.33    0.34 
   6   5  -9   10.10    0.31 
   5   5  -9    1.30    0.11 
   5   5  -9    1.20    0.08 
   4   5  -9   20.08    0.57 
   3   5  -9    5.33    0.13 
   2   5  -9    6.67    0.28 
   2   5  -9    6.87    0.14 
   1   5  -9    3.02    0.17 
   0   5  -9    1.86    0.13 
  -1   5  -9    0.34    0.08 
  -2   5  -9   10.45    0.40 
  -2   5  -9   11.28    0.22 
  -2   5  -9   11.02    0.22 
  -3   5  -9   10.85    0.40 
  -3   5  -9   10.65    0.23 
  -4   5  -9    0.10    0.04 
  -4   5  -9   -0.05    0.06 
  -4   5  -9   -0.02    0.04 
  -5   5  -9    2.16    0.16 
  -5   5  -9    2.15    0.13 
  -5   5  -9    2.08    0.11 
  -6   5  -9   27.97    0.77 
  -6   5  -9   28.57    0.72 
  -7   5  -9    6.48    0.21 
  -7   5  -9    6.80    0.25 
  -7   5  -9    6.86    0.24 
  -7   5  -9    6.49    0.22 
   7  -5   9    6.58    0.23 
  -8   5  -9    0.49    0.06 
   8  -5   9    0.61    0.06 
   9   4  -9    1.53    0.10 
   9   4  -9    1.36    0.12 
  -9  -4   9    1.43    0.10 
   8   4  -9    0.01    0.05 
   8   4  -9   -0.07    0.06 
  -8  -4   9   -0.03    0.05 
   7   4  -9    6.63    0.26 
  -7  -4   9    6.85    0.26 
   6   4  -9    2.69    0.15 
   6   4  -9    2.55    0.13 
   5   4  -9   15.29    0.46 
   4   4  -9    9.60    0.53 
   3   4  -9    0.41    0.12 
   2   4  -9    0.27    0.07 
   2   4  -9    0.28    0.15 
   2   4  -9    0.31    0.11 
   1   4  -9    0.45    0.17 
   1   4  -9    0.92    0.10 
   1   4  -9    0.77    0.14 
   0   4  -9    3.77    0.18 
   0   4  -9    3.60    0.37 
   0   4  -9    3.60    0.27 
  -1   4  -9    2.48    0.35 
  -1   4  -9    2.28    0.14 
  -2   4  -9    0.27    0.07 
  -3   4  -9   66.27    1.86 
  -4   4  -9    1.54    0.13 
  -4   4  -9    1.64    0.09 
  -4   4  -9    1.38    0.11 
  -5   4  -9    2.10    0.13 
  -5   4  -9    2.08    0.15 
  -5   4  -9    1.86    0.11 
  -6   4  -9    4.49    0.17 
  -6   4  -9    4.23    0.19 
  -7   4  -9    1.06    0.10 
   7  -4   9    1.09    0.10 
  -8   4  -9    8.01    0.27 
   8  -4   9    7.74    0.25 
 -10  -3   9    3.81    0.14 
   9   3  -9   -0.03    0.04 
   9   3  -9    0.06    0.06 
  -9  -3   9   -0.03    0.04 
   8   3  -9   13.30    0.46 
  -8  -3   9   12.90    0.41 
   7   3  -9   12.44    0.41 
   7   3  -9   12.19    0.44 
  -7  -3   9   13.03    0.40 
   6   3  -9    6.06    0.24 
  -6  -3   9    6.02    0.23 
   5   3  -9   20.22    0.58 
   5   3  -9   19.85    0.90 
   4   3  -9    0.18    0.11 
   3   3  -9   28.59    1.31 
   3   3  -9   30.53    1.11 
   2   3  -9    8.02    0.56 
   2   3  -9    8.84    0.44 
   2   3  -9    8.49    0.31 
   1   3  -9    0.60    0.14 
   1   3  -9    0.54    0.17 
   1   3  -9    0.68    0.09 
   1   3  -9    0.83    0.14 
   0   3  -9    2.30    0.13 
   0   3  -9    2.38    0.34 
   0   3  -9    2.31    0.22 
   0   3  -9    2.21    0.20 
  -1   3  -9    2.04    0.31 
  -1   3  -9    1.63    0.22 
  -1   3  -9    1.68    0.12 
  -1   3  -9    2.13    0.20 
  -2   3  -9   59.55    1.96 
  -2   3  -9   59.86    1.67 
  -3   3  -9   14.96    0.49 
  -3   3  -9   14.52    0.67 
  -4   3  -9   25.43    0.79 
  -4   3  -9   25.60    0.71 
  -5   3  -9    1.31    0.13 
  -5   3  -9    1.29    0.11 
  -5   3  -9    1.05    0.09 
  -6   3  -9    0.74    0.08 
  -6   3  -9    0.92    0.10 
   6  -3   9    0.87    0.10 
  -7   3  -9   12.05    0.38 
   7  -3   9   12.12    0.37 
  -8   3  -9    0.05    0.05 
  -8   3  -9    0.20    0.06 
   8  -3   9    0.14    0.04 
   9   2  -9   17.40    0.54 
   9   2  -9   16.65    0.48 
   8   2  -9    4.69    0.21 
   8   2  -9    4.93    0.20 
   8   2  -9    4.94    0.24 
  -8  -2   9    5.05    0.21 
   7   2  -9   11.20    0.37 
   7   2  -9   11.00    0.37 
   7   2  -9   10.91    0.41 
  -7  -2   9   11.36    0.37 
   6   2  -9    9.01    0.36 
   6   2  -9   10.17    0.34 
   6   2  -9    9.54    0.33 
  -6  -2   9    9.93    0.33 
   5   2  -9    1.57    0.27 
   4   2  -9    1.55    0.23 
   3   2  -9    0.70    0.19 
   3   2  -9    0.58    0.15 
   2   2  -9   23.66    0.89 
   2   2  -9   20.75    1.04 
   1   2  -9   51.36    1.68 
   1   2  -9   49.69    1.96 
   0   2  -9   11.23    0.69 
   0   2  -9   13.70    0.57 
  -1   2  -9   29.61    1.06 
  -1   2  -9   27.11    1.24 
  -2   2  -9    0.54    0.14 
  -3   2  -9    7.88    0.47 
  -4   2  -9   47.90    1.26 
  -5   2  -9    1.28    0.12 
  -5   2  -9    1.07    0.10 
   5  -2   9    1.46    0.12 
  -6   2  -9    0.60    0.09 
   6  -2   9    0.54    0.08 
  -7   2  -9    0.18    0.06 
  -7   2  -9    0.27    0.07 
   7  -2   9    0.21    0.06 
  -8   2  -9    6.14    0.23 
  -8   2  -9    6.03    0.22 
   8  -2   9    5.86    0.20 
  10   1  -9    0.09    0.04 
   9   1  -9    0.74    0.10 
   9   1  -9    1.04    0.10 
  -9  -1   9    0.88    0.09 
   8   1  -9    1.44    0.14 
   8   1  -9    1.42    0.12 
   7   1  -9   11.71    0.42 
   7   1  -9   11.87    0.39 
   7   1  -9   11.37    0.39 
  -7  -1   9   11.62    0.38 
   6   1  -9    7.29    0.27 
   6   1  -9    7.21    0.27 
   6   1  -9    6.50    0.29 
  -6  -1   9    7.03    0.26 
   5   1  -9   25.22    0.76 
   5   1  -9   25.51    1.09 
   4   1  -9   15.71    0.75 
   3   1  -9    7.45    0.45 
   3   1  -9    6.94    0.52 
   2   1  -9   36.05    1.51 
   2   1  -9   36.75    1.31 
   1   1  -9    7.50    0.42 
   1   1  -9    6.83    0.50 
   0   1  -9   59.91    2.36 
   0   1  -9   67.43    2.11 
  -1   1  -9    0.02    0.11 
  -1   1  -9    0.10    0.10 
  -2   1  -9   28.21    1.10 
  -3   1  -9    9.18    0.54 
  -4   1  -9    0.17    0.07 
   4  -1   9    0.18    0.07 
  -5   1  -9    9.31    0.32 
  -5   1  -9    8.78    0.34 
   5  -1   9    8.97    0.31 
  -6   1  -9    4.56    0.22 
  -6   1  -9    4.80    0.22 
   6  -1   9    4.98    0.21 
  -7   1  -9    1.99    0.13 
  -7   1  -9    1.96    0.13 
   7  -1   9    1.79    0.12 
   8  -1   9    0.20    0.05 
  10   0  -9    0.16    0.05 
 -10   0   9    0.12    0.06 
   9   0  -9    1.16    0.11 
   9   0  -9    1.23    0.10 
   8   0  -9    2.16    0.14 
   8   0  -9    2.13    0.15 
  -8   0   9    2.07    0.13 
   7   0  -9    1.98    0.16 
   7   0  -9    2.26    0.15 
  -7   0   9    2.42    0.15 
   6   0  -9   10.40    0.36 
   6   0  -9   10.13    0.38 
   5   0  -9    4.22    0.22 
   5   0  -9    3.94    0.38 
   4   0  -9    7.10    0.28 
   4   0  -9    6.50    0.46 
   3   0  -9   41.10    1.75 
   3   0  -9   47.35    1.61 
   2   0  -9    0.40    0.16 
   2   0  -9    0.15    0.11 
   1   0  -9    6.40    0.40 
   1   0  -9    6.10    0.47 
   0   0  -9    0.65    0.16 
   0   0  -9    0.31    0.15 
  -1   0  -9    3.07    0.29 
  -2   0  -9    9.49    0.55 
  -2   0  -9    9.93    0.37 
  -3   0  -9    0.12    0.14 
  -3   0  -9    0.25    0.07 
  -3   0  -9    0.20    0.07 
  -4   0  -9    0.06    0.06 
  -4   0  -9    0.11    0.06 
  -4   0  -9    0.14    0.07 
   4   0   9    0.07    0.06 
  -5   0  -9    4.23    0.22 
  -5   0  -9    3.99    0.20 
  -5   0  -9    4.26    0.20 
   5   0   9    4.14    0.20 
  -6   0  -9    4.93    0.22 
  -6   0  -9    5.01    0.23 
  -6   0  -9    5.00    0.20 
   6   0   9    5.32    0.21 
  -7   0  -9    1.10    0.11 
   7   0   9    1.36    0.10 
   8   0   9    2.51    0.10 
  10  -1  -9    8.62    0.27 
 -10   1   9    8.58    0.28 
   9  -1  -9   18.78    0.55 
   9  -1  -9   18.01    0.53 
  -9   1   9   17.09    0.54 
   8  -1  -9    1.89    0.14 
   8  -1  -9    1.95    0.14 
  -8   1   9    1.88    0.15 
  -8   1   9    2.07    0.13 
   7  -1  -9    2.19    0.16 
   7  -1  -9    1.91    0.15 
  -7   1   9    1.77    0.13 
   6  -1  -9    0.29    0.08 
   6  -1  -9    0.13    0.07 
  -6   1   9    0.18    0.06 
   5  -1  -9    5.76    0.26 
  -5   1   9    5.92    0.24 
   4  -1  -9   32.49    0.93 
   4  -1  -9   31.49    1.28 
   3  -1  -9    1.58    0.25 
   3  -1  -9    1.87    0.14 
   2  -1  -9   16.93    0.79 
   1  -1  -9    0.12    0.11 
   0  -1  -9   10.35    0.57 
  -1  -1  -9   12.66    0.42 
  -1  -1  -9   12.74    0.67 
  -2  -1  -9    0.58    0.09 
  -2  -1  -9    0.55    0.17 
  -3  -1  -9    8.13    0.31 
  -3  -1  -9    7.85    0.29 
   3   1   9    8.15    0.29 
  -4  -1  -9    0.25    0.07 
  -4  -1  -9    0.31    0.08 
  -4  -1  -9    0.22    0.08 
   4   1   9    0.22    0.07 
  -5  -1  -9    8.89    0.31 
  -5  -1  -9    8.54    0.33 
   5   1   9    8.88    0.31 
  -6  -1  -9   12.29    0.39 
  -6  -1  -9   12.68    0.42 
   6   1   9   12.38    0.38 
  -7  -1  -9    0.43    0.07 
  -7  -1  -9    0.41    0.06 
   7   1   9    0.23    0.05 
  10  -2  -9   13.45    0.38 
 -10   2   9   13.78    0.40 
   9  -2  -9    0.68    0.07 
   9  -2  -9    0.86    0.08 
  -9   2   9    0.86    0.10 
   8  -2  -9    0.12    0.06 
   8  -2  -9    0.15    0.06 
  -8   2   9   -0.05    0.06 
   7  -2  -9   -0.02    0.05 
   7  -2  -9    0.03    0.06 
  -7   2   9   -0.12    0.06 
   6  -2  -9   14.24    0.48 
   6  -2  -9   14.97    0.47 
  -6   2   9   13.31    0.48 
  -6   2   9   13.80    0.44 
   5  -2  -9    1.83    0.15 
   5  -2  -9    1.75    0.14 
  -5   2   9    1.94    0.14 
   4  -2  -9    0.62    0.09 
   4  -2  -9    0.41    0.19 
   3  -2  -9   21.74    0.66 
   3  -2  -9   21.55    0.98 
   2  -2  -9    1.48    0.13 
   2  -2  -9    0.99    0.21 
   1  -2  -9   18.73    0.59 
   1  -2  -9   19.83    0.88 
   0  -2  -9    7.30    0.50 
  -1  -2  -9    1.28    0.25 
  -2  -2  -9    1.91    0.15 
   2   2   9    1.96    0.14 
  -3  -2  -9    5.07    0.24 
  -3  -2  -9    4.76    0.22 
   3   2   9    5.65    0.23 
  -4  -2  -9   49.58    1.38 
  -4  -2  -9   50.32    1.34 
   4   2   9   50.18    1.29 
  -5  -2  -9    3.65    0.19 
  -5  -2  -9    3.51    0.19 
   5   2   9    3.65    0.17 
  -6  -2  -9    2.06    0.12 
  -6  -2  -9    2.27    0.14 
   6   2   9    2.03    0.12 
  -7  -2  -9    4.45    0.16 
   9  -3  -9    4.73    0.19 
  -9   3   9    4.75    0.20 
   8  -3  -9   -0.03    0.05 
  -8   3   9    0.16    0.07 
   7  -3  -9   -0.03    0.05 
   7  -3  -9    0.02    0.05 
  -7   3   9   -0.03    0.06 
   6  -3  -9   78.96    2.13 
   6  -3  -9   82.26    2.09 
  -6   3   9   80.30    2.11 
  -6   3   9   77.36    2.11 
   5  -3  -9    1.31    0.13 
   5  -3  -9    1.09    0.12 
  -5   3   9    1.06    0.11 
  -5   3   9    1.01    0.13 
  -5   3   9    1.16    0.11 
   4  -3  -9    5.29    0.24 
   4  -3  -9    5.39    0.24 
  -4   3   9    5.09    0.26 
  -4   3   9    5.17    0.22 
  -4   3   9    5.65    0.23 
   3  -3  -9    1.83    0.14 
  -3   3   9    1.60    0.13 
  -3   3   9    1.72    0.13 
  -3   3   9    1.82    0.13 
   2  -3  -9    5.94    0.25 
  -2   3   9    5.45    0.24 
   1  -3  -9   12.73    0.43 
  -1   3   9   12.59    0.42 
   0  -3  -9    0.80    0.10 
   0   3   9    0.83    0.10 
   0   3   9    0.66    0.10 
  -1  -3  -9   25.92    0.77 
  -1  -3  -9   26.19    0.76 
   1   3   9   26.14    0.79 
   1   3   9   25.53    0.79 
   1   3   9   26.43    0.72 
  -2  -3  -9   13.48    0.44 
  -2  -3  -9   13.41    0.45 
   2   3   9   12.70    0.46 
   2   3   9   13.51    0.42 
  -3  -3  -9   20.04    0.60 
  -3  -3  -9   19.33    0.61 
   3   3   9   19.85    0.56 
  -4  -3  -9   32.41    0.94 
  -4  -3  -9   32.86    0.92 
   4   3   9   33.17    0.87 
  -5  -3  -9    3.91    0.18 
  -5  -3  -9    3.65    0.18 
   5   3   9    3.68    0.20 
  -6  -3  -9    5.50    0.21 
  -6  -3  -9    5.68    0.21 
   6   3   9    5.32    0.23 
  -7  -3  -9    1.47    0.08 
   7   3   9    1.54    0.10 
   9  -4  -9    1.29    0.09 
  -9   4   9    1.27    0.09 
   8  -4  -9    8.10    0.28 
  -8   4   9    7.96    0.29 
   7  -4  -9    0.78    0.10 
  -7   4   9    0.80    0.10 
   6  -4  -9    0.28    0.06 
   6  -4  -9    0.14    0.07 
  -6   4   9    0.31    0.07 
  -6   4   9    0.03    0.07 
   5  -4  -9    4.27    0.21 
   5  -4  -9    4.44    0.22 
  -5   4   9    4.51    0.23 
  -5   4   9    4.31    0.20 
   4  -4  -9    0.48    0.09 
   4  -4  -9    0.42    0.09 
  -4   4   9    0.40    0.09 
  -4   4   9    0.40    0.08 
   3  -4  -9   11.26    0.39 
   3  -4  -9   10.82    0.39 
  -3   4   9   11.69    0.39 
  -3   4   9   10.42    0.40 
   2  -4  -9    0.11    0.07 
   2  -4  -9   -0.04    0.06 
  -2   4   9    0.14    0.08 
  -2   4   9    0.23    0.08 
   1  -4  -9    6.90    0.28 
   1  -4  -9    6.95    0.28 
  -1   4   9    6.87    0.28 
  -1   4   9    6.76    0.30 
   0  -4  -9   21.69    0.64 
   0  -4  -9   21.03    0.64 
   0   4   9   20.38    0.65 
   0   4   9   21.01    0.65 
  -1  -4  -9   13.25    0.44 
  -1  -4  -9   13.46    0.44 
   1   4   9   13.49    0.45 
   1   4   9   12.88    0.46 
  -2  -4  -9   11.43    0.39 
  -2  -4  -9   11.63    0.39 
   2   4   9   11.04    0.40 
  -3  -4  -9    2.32    0.16 
  -3  -4  -9    2.40    0.15 
  -4  -4  -9    0.42    0.08 
  -4  -4  -9    0.41    0.07 
   4   4   9    0.35    0.08 
  -5  -4  -9    6.32    0.24 
  -5  -4  -9    6.45    0.23 
   5   4   9    6.06    0.25 
  -6  -4  -9    0.19    0.05 
   6   4   9    0.09    0.05 
   8  -5  -9    4.22    0.17 
  -8   5   9    4.08    0.17 
   7  -5  -9    2.66    0.15 
  -7   5   9    2.64    0.15 
   6  -5  -9    8.02    0.30 
  -6   5   9    7.88    0.30 
  -6   5   9    8.29    0.29 
   5  -5  -9    2.69    0.16 
  -5   5   9    2.30    0.15 
  -5   5   9    2.16    0.17 
   4  -5  -9    8.68    0.32 
  -4   5   9    8.53    0.33 
  -4   5   9    8.21    0.32 
   3  -5  -9    8.59    0.31 
   3  -5  -9    8.55    0.32 
  -3   5   9    8.42    0.33 
  -3   5   9    8.38    0.32 
   2  -5  -9    0.13    0.07 
   2  -5  -9    0.17    0.07 
  -2   5   9    0.12    0.07 
  -2   5   9    0.17    0.08 
   1  -5  -9    2.10    0.16 
   1  -5  -9    2.29    0.15 
  -1   5   9    2.05    0.16 
  -1   5   9    2.34    0.18 
   0  -5  -9    0.05    0.06 
   0  -5  -9    0.06    0.07 
   0   5   9   -0.08    0.07 
   0   5   9    0.03    0.07 
  -1  -5  -9   15.33    0.50 
  -1  -5  -9   15.58    0.49 
   1   5   9   15.37    0.51 
   1   5   9   16.54    0.52 
  -2  -5  -9   14.08    0.44 
  -2  -5  -9   12.95    0.42 
   2   5   9   13.11    0.44 
  -3  -5  -9    0.60    0.09 
  -4  -5  -9    0.23    0.06 
   4   5   9    0.21    0.06 
  -5  -5  -9    0.07    0.05 
   5   5   9    0.15    0.05 
  -7   6   9   26.58    0.72 
   6  -6  -9    2.81    0.15 
  -6   6   9    2.81    0.15 
  -6   6   9    2.42    0.13 
   5  -6  -9    9.24    0.33 
  -5   6   9    9.98    0.33 
  -5   6   9    9.46    0.33 
   4  -6  -9    9.74    0.34 
  -4   6   9    9.80    0.35 
  -4   6   9    9.72    0.35 
   3  -6  -9    0.03    0.06 
  -3   6   9   -0.02    0.06 
  -3   6   9    0.03    0.06 
   2  -6  -9   10.38    0.36 
  -2   6   9   10.09    0.36 
  -2   6   9    9.86    0.36 
   1  -6  -9    0.20    0.07 
  -1   6   9    0.19    0.07 
  -1   6   9    0.18    0.08 
   0  -6  -9   14.26    0.46 
   0   6   9   14.09    0.47 
   0   6   9   14.18    0.46 
  -1  -6  -9    0.03    0.06 
   1   6   9   -0.03    0.06 
  -2  -6  -9    2.41    0.15 
   2   6   9    2.89    0.15 
  -3  -6  -9    1.18    0.11 
   3   6   9    1.00    0.10 
  -4  -6  -9    0.45    0.06 
   4   6   9    0.24    0.06 
  -6   7   9    0.11    0.04 
   5  -7  -9    1.68    0.11 
  -5   7   9    1.88    0.11 
   4  -7  -9    0.04    0.05 
  -4   7   9    0.16    0.06 
  -4   7   9    0.16    0.05 
   3  -7  -9    4.46    0.20 
  -3   7   9    4.52    0.20 
  -3   7   9    4.90    0.21 
   2  -7  -9    2.91    0.16 
  -2   7   9    3.39    0.17 
  -2   7   9    3.09    0.17 
   1  -7  -9    3.30    0.17 
  -1   7   9    3.76    0.18 
  -1   7   9    3.76    0.18 
   0  -7  -9    3.24    0.16 
   0   7   9    3.49    0.17 
  -1  -7  -9    0.00    0.05 
   2   7   9   13.58    0.41 
  -3  -7  -9    0.09    0.04 
   3   7   9    0.06    0.04 
   2  -8  -9    1.66    0.10 
   1  -8  -9    0.40    0.06 
   4  11 -10    0.23    0.03 
   3  11 -10    0.02    0.02 
   2  11 -10    0.68    0.04 
   1  11 -10    0.06    0.01 
   1  11 -10    0.04    0.01 
   5  10 -10    5.85    0.17 
   4  10 -10    7.67    0.21 
   3  10 -10    3.21    0.11 
   3  10 -10    3.02    0.09 
   2  10 -10   -0.02    0.02 
   2  10 -10    0.03    0.02 
   1  10 -10    6.41    0.14 
   1  10 -10    6.51    0.14 
  -3  10 -10    0.28    0.02 
  -3  10 -10    0.45    0.03 
  -4  10 -10   18.70    0.45 
   6   9 -10    0.70    0.06 
   6   9 -10    0.69    0.05 
   5   9 -10    0.11    0.03 
   4   9 -10    0.89    0.06 
   3   9 -10    0.00    0.03 
   3   9 -10    0.05    0.02 
   2   9 -10    6.13    0.14 
  -3   9 -10    2.26    0.09 
  -3   9 -10    2.39    0.06 
  -3   9 -10    2.17    0.08 
  -4   9 -10    1.96    0.08 
  -4   9 -10    1.82    0.06 
  -5   9 -10    7.36    0.21 
  -6   9 -10    9.05    0.24 
   7   8 -10    4.38    0.16 
   7   8 -10    4.35    0.15 
   6   8 -10    0.01    0.03 
   6   8 -10    0.04    0.03 
   5   8 -10    0.22    0.05 
   5   8 -10    0.18    0.04 
   4   8 -10    1.02    0.07 
   3   8 -10    3.57    0.10 
   3   8 -10    3.63    0.13 
   2   8 -10    8.95    0.19 
   2   8 -10    8.81    0.19 
   1   8 -10    0.16    0.08 
   0   8 -10   11.04    0.42 
  -1   8 -10    3.73    0.22 
  -2   8 -10    7.25    0.32 
  -3   8 -10   18.19    0.36 
  -3   8 -10   18.40    0.45 
  -4   8 -10   18.05    0.36 
  -4   8 -10   17.14    0.44 
  -5   8 -10    4.88    0.15 
  -5   8 -10    4.53    0.15 
  -6   8 -10    1.12    0.07 
   8   7 -10    3.35    0.14 
  -8  -7  10    3.79    0.14 
   7   7 -10    0.45    0.05 
   7   7 -10    0.48    0.06 
   6   7 -10    0.19    0.05 
   6   7 -10    0.24    0.04 
   5   7 -10    1.25    0.10 
   5   7 -10    1.57    0.09 
   4   7 -10   66.06    1.55 
   4   7 -10   63.72    1.65 
   3   7 -10    3.05    0.09 
   3   7 -10    2.97    0.11 
   2   7 -10    0.44    0.03 
   2   7 -10    0.45    0.03 
   1   7 -10    7.82    0.33 
   0   7 -10    9.30    0.37 
  -1   7 -10    1.40    0.14 
  -2   7 -10    2.73    0.18 
  -3   7 -10    2.03    0.16 
  -3   7 -10    1.75    0.08 
  -3   7 -10    1.81    0.06 
  -4   7 -10    8.26    0.24 
  -5   7 -10    0.73    0.08 
  -5   7 -10    0.69    0.06 
  -6   7 -10    2.77    0.12 
  -6   7 -10    2.85    0.12 
  -6   7 -10    3.07    0.12 
  -7   7 -10    2.65    0.12 
  -7   7 -10    3.05    0.11 
   8   6 -10    0.01    0.03 
  -8  -6  10    0.00    0.04 
   7   6 -10    5.32    0.21 
   7   6 -10    5.34    0.19 
  -7  -6  10    5.45    0.21 
   6   6 -10    3.64    0.17 
   6   6 -10    3.73    0.15 
   5   6 -10    0.00    0.03 
   5   6 -10    0.01    0.04 
   4   6 -10   79.86    2.01 
   4   6 -10   78.78    1.88 
   3   6 -10    2.37    0.10 
   3   6 -10    2.33    0.08 
   2   6 -10    9.83    0.39 
   2   6 -10    9.98    0.20 
   2   6 -10    9.91    0.20 
   1   6 -10    1.90    0.15 
   0   6 -10    0.20    0.08 
  -1   6 -10    5.35    0.25 
  -2   6 -10    7.07    0.15 
  -2   6 -10    7.12    0.15 
  -2   6 -10    7.17    0.31 
  -3   6 -10    7.75    0.32 
  -3   6 -10    7.61    0.22 
  -3   6 -10    7.57    0.17 
  -4   6 -10    0.21    0.08 
  -4   6 -10    0.18    0.05 
  -4   6 -10    0.15    0.04 
  -5   6 -10    9.87    0.31 
  -5   6 -10    9.63    0.28 
  -6   6 -10   12.60    0.37 
  -6   6 -10   12.63    0.37 
  -6   6 -10   11.94    0.34 
  -7   6 -10    0.00    0.03 
  -7   6 -10   -0.01    0.04 
   9   5 -10    0.49    0.06 
  -9  -5  10    0.43    0.06 
   8   5 -10    5.46    0.21 
  -8  -5  10    5.11    0.20 
   7   5 -10    6.94    0.26 
   7   5 -10    7.01    0.23 
  -7  -5  10    6.99    0.25 
   6   5 -10    2.77    0.13 
   6   5 -10    2.62    0.15 
   5   5 -10    4.65    0.20 
   5   5 -10    4.71    0.17 
   4   5 -10    5.61    0.19 
   4   5 -10    6.11    0.22 
   2   5 -10    0.25    0.08 
   2   5 -10    0.15    0.02 
   1   5 -10    4.60    0.10 
   1   5 -10    4.63    0.10 
   1   5 -10    4.30    0.22 
   0   5 -10    3.16    0.18 
  -1   5 -10    8.59    0.17 
  -1   5 -10    8.69    0.18 
  -1   5 -10    8.36    0.33 
  -2   5 -10    4.26    0.22 
  -2   5 -10    4.28    0.10 
  -3   5 -10    0.84    0.07 
  -3   5 -10    0.75    0.11 
  -3   5 -10    0.94    0.08 
  -4   5 -10   10.83    0.41 
  -4   5 -10   10.66    0.34 
  -4   5 -10   11.12    0.31 
  -5   5 -10    4.47    0.19 
  -5   5 -10    4.28    0.23 
  -5   5 -10    4.80    0.17 
  -6   5 -10    0.01    0.04 
  -6   5 -10   -0.02    0.04 
  -7   5 -10    3.39    0.13 
  -7   5 -10    3.58    0.15 
  -7   5 -10    3.62    0.15 
  -7   5 -10    3.44    0.14 
   7  -5  10    3.39    0.14 
   9   4 -10    0.03    0.04 
  -9  -4  10    0.00    0.04 
   8   4 -10    1.89    0.15 
   8   4 -10    1.98    0.12 
  -8  -4  10    1.89    0.12 
   7   4 -10    0.15    0.06 
  -7  -4  10    0.27    0.07 
   6   4 -10    3.13    0.14 
   6   4 -10    3.50    0.17 
  -6  -4  10    3.36    0.17 
   5   4 -10    2.87    0.15 
   5   4 -10    2.69    0.12 
   4   4 -10    0.75    0.19 
   4   4 -10    0.99    0.09 
   3   4 -10   12.37    0.59 
   2   4 -10    2.95    0.17 
   1   4 -10    0.26    0.07 
   0   4 -10    2.28    0.15 
   0   4 -10    2.21    0.06 
  -1   4 -10    6.71    0.28 
  -1   4 -10    6.91    0.15 
  -2   4 -10    7.47    0.30 
  -3   4 -10    2.80    0.14 
  -3   4 -10    2.62    0.12 
  -3   4 -10    2.46    0.17 
  -4   4 -10    6.01    0.28 
  -4   4 -10    6.17    0.20 
  -4   4 -10    6.12    0.23 
  -5   4 -10    1.12    0.09 
  -5   4 -10    1.09    0.10 
  -5   4 -10    1.03    0.12 
  -6   4 -10   13.54    0.41 
  -6   4 -10   13.53    0.38 
   6  -4  10   13.22    0.43 
  -7   4 -10    0.05    0.05 
   7  -4  10    0.01    0.04 
  -8   4 -10    1.14    0.09 
   8  -4  10    1.12    0.08 
   9   3 -10    0.75    0.09 
   9   3 -10    0.81    0.08 
   8   3 -10    2.16    0.14 
   8   3 -10    2.60    0.16 
  -8  -3  10    2.23    0.13 
   7   3 -10    7.42    0.28 
   7   3 -10    6.92    0.30 
  -7  -3  10    7.64    0.27 
   6   3 -10    1.42    0.12 
  -6  -3  10    1.23    0.11 
   5   3 -10   47.83    1.20 
   5   3 -10   50.87    1.30 
   4   3 -10    2.79    0.29 
   3   3 -10    6.05    0.40 
   2   3 -10    6.11    0.38 
   1   3 -10    1.11    0.10 
   1   3 -10    1.59    0.21 
   0   3 -10    6.96    0.39 
  -1   3 -10    4.68    0.33 
  -2   3 -10   68.65    2.26 
  -3   3 -10   16.84    0.49 
  -4   3 -10    3.81    0.18 
  -4   3 -10    3.95    0.16 
  -5   3 -10    3.03    0.16 
  -5   3 -10    3.14    0.14 
  -6   3 -10    3.44    0.17 
   6  -3  10    3.47    0.17 
  -7   3 -10    4.52    0.18 
   7  -3  10    4.59    0.18 
  -8   3 -10    3.36    0.14 
  -8   3 -10    3.52    0.14 
   8  -3  10    3.31    0.13 
   9   2 -10    1.16    0.11 
  -9  -2  10    1.25    0.10 
   8   2 -10    5.06    0.23 
   8   2 -10    4.82    0.21 
   7   2 -10    1.58    0.15 
   7   2 -10    1.70    0.13 
  -7  -2  10    1.82    0.13 
   6   2 -10    0.08    0.05 
   6   2 -10    0.13    0.07 
  -6  -2  10    0.04    0.05 
   5   2 -10    7.73    0.28 
  -5  -2  10    7.75    0.28 
   4   2 -10    1.28    0.24 
   3   2 -10   17.58    0.79 
   2   2 -10   -0.01    0.08 
   1   2 -10   38.94    1.39 
   0   2 -10   25.27    0.99 
  -1   2 -10   11.91    0.59 
  -2   2 -10   76.76    2.53 
  -3   2 -10    3.39    0.16 
  -4   2 -10   36.43    0.91 
  -4   2 -10   37.70    0.99 
   4  -2  10   35.48    0.97 
  -5   2 -10    0.89    0.10 
   5  -2  10    0.59    0.09 
  -6   2 -10    0.31    0.07 
   6  -2  10    0.44    0.08 
  -7   2 -10    0.47    0.08 
  -7   2 -10    0.60    0.08 
   7  -2  10    0.77    0.08 
   8  -2  10    0.38    0.05 
   9   1 -10    0.33    0.07 
   9   1 -10    0.23    0.05 
  -9  -1  10    0.25    0.05 
   8   1 -10    1.11    0.12 
   8   1 -10    1.25    0.11 
  -8  -1  10    0.97    0.10 
   7   1 -10    7.68    0.29 
   7   1 -10    8.02    0.29 
   7   1 -10    7.99    0.32 
   6   1 -10    0.35    0.09 
   6   1 -10    0.36    0.08 
   6   1 -10    0.62    0.09 
   5   1 -10   17.44    0.52 
   5   1 -10   16.91    0.56 
   4   1 -10   19.62    0.90 
   3   1 -10    5.87    0.41 
   2   1 -10   20.02    0.86 
   1   1 -10   20.29    0.86 
   0   1 -10    0.60    0.17 
  -1   1 -10    3.34    0.31 
  -2   1 -10    0.82    0.19 
  -3   1 -10   21.31    0.61 
   3  -1  10   21.49    0.61 
  -4   1 -10    0.57    0.08 
   4  -1  10    0.50    0.09 
  -5   1 -10    0.13    0.06 
  -5   1 -10    0.36    0.08 
   5  -1  10    0.45    0.08 
  -6   1 -10    1.56    0.13 
  -6   1 -10    1.33    0.12 
   6  -1  10    1.71    0.12 
  -7   1 -10    0.73    0.08 
  -7   1 -10    0.75    0.09 
   7  -1  10    0.75    0.08 
   9   0 -10    0.05    0.04 
   9   0 -10    0.06    0.05 
   8   0 -10    2.83    0.16 
   8   0 -10    3.04    0.17 
  -8   0  10    2.98    0.15 
   7   0 -10   10.19    0.38 
   7   0 -10   10.24    0.35 
  -7   0  10   10.03    0.34 
   6   0 -10   15.12    0.47 
   6   0 -10   14.41    0.47 
   6   0 -10   15.14    0.51 
  -6   0  10   15.07    0.47 
   5   0 -10    2.04    0.14 
   5   0 -10    2.00    0.14 
   5   0 -10    1.74    0.15 
  -5   0  10    1.76    0.14 
   4   0 -10    1.68    0.13 
   4   0 -10    1.96    0.30 
   4   0 -10    1.53    0.14 
   3   0 -10   13.40    0.45 
   3   0 -10   13.58    0.70 
   2   0 -10    3.71    0.19 
   2   0 -10    3.40    0.33 
   1   0 -10    1.81    0.27 
   0   0 -10   32.21    1.26 
  -1   0 -10    0.51    0.16 
  -2   0 -10    0.94    0.10 
  -2   0 -10    0.66    0.10 
  -3   0 -10    6.10    0.25 
  -3   0 -10    5.79    0.26 
  -3   0 -10    6.10    0.23 
   3   0  10    6.45    0.25 
  -4   0 -10    0.12    0.07 
  -4   0 -10    0.06    0.06 
  -4   0 -10    0.06    0.06 
   4   0  10    0.05    0.06 
  -5   0 -10    4.28    0.21 
  -5   0 -10    4.36    0.19 
  -5   0 -10    4.16    0.20 
   5   0  10    4.48    0.20 
  -6   0 -10    0.13    0.06 
  -6   0 -10    0.19    0.06 
   6   0  10    0.32    0.06 
  -7   0 -10    7.57    0.27 
   7   0  10    7.71    0.24 
   9  -1 -10    7.55    0.25 
   9  -1 -10    7.92    0.27 
  -9   1  10    7.18    0.27 
   8  -1 -10    3.02    0.16 
   8  -1 -10    3.28    0.17 
  -8   1  10    3.12    0.18 
  -8   1  10    3.33    0.15 
   7  -1 -10    1.07    0.11 
   7  -1 -10    0.89    0.11 
  -7   1  10    0.90    0.10 
   6  -1 -10   55.40    1.58 
   6  -1 -10   58.50    1.53 
  -6   1  10   57.80    1.49 
   5  -1 -10    1.88    0.15 
   5  -1 -10    1.76    0.14 
  -5   1  10    2.10    0.14 
   4  -1 -10    8.18    0.32 
  -4   1  10    8.46    0.30 
   3  -1 -10    0.27    0.08 
   3  -1 -10    0.06    0.13 
   2  -1 -10    2.91    0.32 
   2  -1 -10    2.76    0.17 
   1  -1 -10   19.74    0.90 
   1  -1 -10   19.74    0.61 
   0  -1 -10    4.05    0.38 
   0  -1 -10    4.02    0.20 
  -1  -1 -10   39.28    1.11 
  -1  -1 -10   39.49    1.06 
  -2  -1 -10   26.96    0.80 
  -2  -1 -10   26.69    0.76 
   2   1  10   27.55    0.75 
  -3  -1 -10   10.04    0.38 
  -3  -1 -10   10.64    0.36 
  -3  -1 -10   10.84    0.36 
   3   1  10   10.67    0.36 
  -4  -1 -10    7.48    0.29 
  -4  -1 -10    6.90    0.29 
  -4  -1 -10    7.45    0.27 
   4   1  10    7.43    0.27 
  -5  -1 -10    2.47    0.15 
  -5  -1 -10    2.18    0.14 
   5   1  10    2.35    0.14 
  -6  -1 -10   21.73    0.64 
  -6  -1 -10   21.64    0.60 
   6   1  10   22.01    0.59 
   9  -2 -10    2.00    0.11 
  -9   2  10    1.89    0.12 
   8  -2 -10    8.70    0.30 
   8  -2 -10    8.30    0.29 
  -8   2  10    7.93    0.30 
   7  -2 -10    6.52    0.26 
   7  -2 -10    6.83    0.27 
  -7   2  10    6.34    0.28 
   6  -2 -10    5.80    0.26 
   6  -2 -10    6.52    0.26 
  -6   2  10    6.10    0.24 
  -6   2  10    6.18    0.28 
   5  -2 -10    4.91    0.23 
   5  -2 -10    4.71    0.23 
  -5   2  10    4.61    0.21 
   4  -2 -10    0.20    0.07 
   4  -2 -10    0.27    0.07 
  -4   2  10    0.43    0.08 
   3  -2 -10    0.04    0.06 
   3  -2 -10    0.03    0.06 
  -3   2  10    0.06    0.06 
   2  -2 -10   24.45    0.74 
  -2   2  10   24.50    0.70 
  -2   2  10   25.08    0.69 
   1  -2 -10    0.11    0.06 
  -1   2  10    0.17    0.07 
   0  -2 -10    7.51    0.30 
   0   2  10    7.44    0.28 
  -1  -2 -10    0.73    0.10 
  -1  -2 -10    0.91    0.11 
   1   2  10    0.72    0.10 
  -2  -2 -10    7.95    0.29 
  -2  -2 -10    8.18    0.31 
   2   2  10    7.39    0.28 
  -3  -2 -10    2.94    0.18 
  -3  -2 -10    2.94    0.17 
   3   2  10    2.98    0.17 
  -4  -2 -10    3.01    0.17 
  -4  -2 -10    2.97    0.17 
   4   2  10    2.89    0.16 
  -5  -2 -10   13.57    0.43 
  -5  -2 -10   14.98    0.46 
   5   2  10   14.04    0.41 
  -6  -2 -10    0.46    0.06 
  -6  -2 -10    0.49    0.07 
   9  -3 -10    1.00    0.08 
  -9   3  10    0.76    0.08 
   8  -3 -10    4.60    0.19 
  -8   3  10    4.53    0.20 
   7  -3 -10    0.15    0.06 
   7  -3 -10    0.04    0.06 
  -7   3  10    0.02    0.07 
   6  -3 -10    2.22    0.15 
   6  -3 -10    2.24    0.15 
  -6   3  10    2.14    0.17 
   5  -3 -10    3.21    0.18 
   5  -3 -10    3.36    0.19 
  -5   3  10    3.17    0.20 
   4  -3 -10    4.57    0.23 
   4  -3 -10    5.10    0.23 
  -4   3  10    4.83    0.24 
  -4   3  10    4.60    0.20 
  -4   3  10    4.35    0.20 
   3  -3 -10    0.91    0.11 
   3  -3 -10    0.60    0.10 
  -3   3  10    1.11    0.14 
  -3   3  10    0.76    0.09 
   2  -3 -10   14.27    0.46 
   2  -3 -10   13.89    0.46 
  -2   3  10   13.24    0.47 
  -2   3  10   13.72    0.43 
   1  -3 -10    6.96    0.28 
   1  -3 -10    6.97    0.29 
  -1   3  10    6.77    0.26 
   0  -3 -10    0.08    0.06 
   0  -3 -10    0.05    0.06 
   0   3  10    0.01    0.06 
  -1  -3 -10    1.36    0.13 
  -1  -3 -10    1.13    0.12 
   1   3  10    1.20    0.11 
  -2  -3 -10   19.46    0.61 
  -2  -3 -10   19.69    0.59 
   2   3  10   19.65    0.56 
  -3  -3 -10    0.09    0.06 
  -3  -3 -10    0.02    0.06 
   3   3  10    0.14    0.06 
  -4  -3 -10    8.44    0.31 
  -4  -3 -10    9.26    0.32 
   4   3  10    8.67    0.33 
  -5  -3 -10    0.07    0.05 
  -5  -3 -10    0.17    0.06 
   5   3  10    0.21    0.07 
  -6  -3 -10    1.24    0.08 
   6   3  10    1.27    0.10 
   8  -4 -10    0.17    0.05 
  -8   4  10    0.08    0.05 
   7  -4 -10    8.45    0.29 
  -7   4  10    8.05    0.30 
   6  -4 -10    1.22    0.12 
   6  -4 -10    1.07    0.10 
  -6   4  10    1.19    0.12 
   5  -4 -10    0.84    0.10 
   5  -4 -10    1.05    0.10 
  -5   4  10    1.31    0.13 
   4  -4 -10   26.92    0.77 
   4  -4 -10   25.72    0.77 
  -4   4  10   27.22    0.79 
   3  -4 -10   12.18    0.43 
   3  -4 -10   13.04    0.43 
  -3   4  10   12.63    0.42 
  -3   4  10   12.75    0.45 
   2  -4 -10    9.24    0.34 
   2  -4 -10    9.01    0.34 
  -2   4  10    8.55    0.35 
  -2   4  10    9.26    0.33 
   1  -4 -10    0.15    0.07 
   1  -4 -10    0.11    0.07 
  -1   4  10    0.09    0.08 
   0  -4 -10   11.18    0.38 
   0  -4 -10   10.83    0.38 
   0   4  10   10.98    0.40 
  -1  -4 -10    7.90    0.30 
  -1  -4 -10    7.43    0.29 
   1   4  10    7.35    0.31 
  -2  -4 -10   17.40    0.52 
  -2  -4 -10   16.48    0.52 
  -3  -4 -10    7.63    0.29 
  -3  -4 -10    7.96    0.29 
  -4  -4 -10    1.15    0.10 
  -4  -4 -10    1.09    0.10 
   4   4  10    1.25    0.12 
  -5  -4 -10    1.68    0.10 
   5   4  10    1.78    0.11 
   7  -5 -10    8.32    0.27 
  -7   5  10    8.04    0.28 
   6  -5 -10    0.15    0.06 
  -6   5  10    0.11    0.06 
   5  -5 -10   25.57    0.74 
  -5   5  10   26.57    0.76 
   4  -5 -10    0.39    0.08 
  -4   5  10    0.49    0.09 
  -4   5  10    0.40    0.08 
   3  -5 -10   31.29    0.86 
   3  -5 -10   29.20    0.85 
  -3   5  10   29.04    0.86 
  -3   5  10   31.13    0.87 
   2  -5 -10    5.37    0.23 
   2  -5 -10    5.06    0.22 
  -2   5  10    5.26    0.25 
  -2   5  10    4.90    0.23 
   1  -5 -10    2.79    0.15 
   1  -5 -10    2.85    0.17 
  -1   5  10    2.90    0.18 
  -1   5  10    2.64    0.16 
   0  -5 -10   29.37    0.83 
   0  -5 -10   28.81    0.83 
   0   5  10   29.66    0.85 
  -1  -5 -10    2.86    0.15 
  -1  -5 -10    2.62    0.16 
  -2  -5 -10    9.91    0.33 
  -2  -5 -10    9.64    0.33 
  -3  -5 -10    0.71    0.08 
  -4  -5 -10    3.28    0.15 
   4   5  10    3.38    0.16 
   6  -6 -10   15.79    0.45 
  -6   6  10   15.17    0.45 
   5  -6 -10    0.13    0.06 
  -5   6  10    0.07    0.06 
   4  -6 -10    0.92    0.09 
  -4   6  10    1.04    0.10 
  -4   6  10    1.00    0.10 
   3  -6 -10    0.53    0.08 
  -3   6  10    0.58    0.09 
  -3   6  10    0.44    0.08 
   2  -6 -10    0.06    0.06 
  -2   6  10    0.24    0.07 
  -2   6  10    0.13    0.06 
   1  -6 -10    1.70    0.13 
  -1   6  10    2.07    0.13 
  -1   6  10    1.36    0.13 
   0  -6 -10    4.74    0.20 
  -1  -6 -10   17.48    0.51 
  -2  -6 -10    1.02    0.10 
  -3  -6 -10    0.19    0.05 
   3   6  10    0.40    0.06 
   4  -7 -10    0.25    0.05 
  -4   7  10    0.22    0.05 
   3  -7 -10    0.05    0.05 
  -3   7  10    0.06    0.05 
   2  -7 -10    3.89    0.16 
  -2   7  10    3.43    0.16 
   1  -7 -10    0.30    0.06 
   0  -7 -10    2.07    0.11 
  -1  -7 -10    0.93    0.08 
   5  10 -11    0.00    0.02 
   4  10 -11    5.58    0.16 
   3  10 -11   10.04    0.21 
   3  10 -11   10.22    0.26 
   2  10 -11    3.46    0.09 
  -3  10 -11    3.71    0.08 
   6   9 -11    0.25    0.04 
   5   9 -11    0.43    0.04 
   4   9 -11    0.00    0.02 
   3   9 -11    1.86    0.08 
   3   9 -11    1.86    0.07 
   2   9 -11    0.09    0.02 
  -3   9 -11    3.06    0.10 
  -3   9 -11    3.08    0.08 
  -3   9 -11    3.02    0.10 
  -4   9 -11    0.05    0.02 
  -4   9 -11    0.05    0.03 
  -5   9 -11    1.08    0.06 
   7   8 -11    1.31    0.07 
   7   8 -11    1.22    0.07 
   6   8 -11    2.27    0.10 
   6   8 -11    2.51    0.10 
   5   8 -11    2.72    0.11 
   5   8 -11    2.73    0.12 
   4   8 -11   11.76    0.32 
   3   8 -11    0.35    0.04 
   3   8 -11    0.35    0.03 
   2   8 -11   11.88    0.25 
   0   8 -11    5.55    0.27 
  -1   8 -11   10.62    0.41 
  -2   8 -11    0.44    0.03 
  -2   8 -11    0.43    0.03 
  -3   8 -11    7.86    0.17 
  -3   8 -11    7.74    0.21 
  -4   8 -11    0.96    0.06 
  -5   8 -11    0.04    0.03 
  -5   8 -11    0.05    0.03 
  -6   8 -11    3.90    0.13 
   7   7 -11    1.00    0.08 
   7   7 -11    1.05    0.07 
   6   7 -11    1.13    0.09 
   6   7 -11    1.26    0.08 
   5   7 -11   32.01    0.80 
   5   7 -11   32.63    0.86 
   4   7 -11    1.75    0.10 
   4   7 -11    1.86    0.09 
   3   7 -11    9.81    0.22 
   3   7 -11    9.86    0.27 
   2   7 -11    0.59    0.04 
   1   7 -11    0.56    0.10 
   0   7 -11   41.88    1.24 
  -1   7 -11    5.77    0.28 
  -2   7 -11    0.57    0.10 
  -2   7 -11    0.51    0.03 
  -3   7 -11    6.51    0.15 
  -3   7 -11    6.61    0.19 
  -4   7 -11    0.66    0.06 
  -5   7 -11    5.60    0.18 
  -6   7 -11    3.11    0.12 
   8   6 -11    1.18    0.08 
  -8  -6  11    1.00    0.08 
   7   6 -11    0.03    0.03 
   7   6 -11    0.02    0.04 
  -7  -6  11    0.00    0.04 
   6   6 -11    3.27    0.16 
   6   6 -11    3.41    0.14 
   5   6 -11    9.44    0.31 
   5   6 -11    9.59    0.28 
   4   6 -11    0.55    0.06 
   4   6 -11    0.48    0.07 
   3   6 -11    2.97    0.12 
   2   6 -11    2.31    0.09 
   2   6 -11    2.23    0.07 
   1   6 -11   12.45    0.45 
   1   6 -11   11.94    0.24 
   1   6 -11   11.83    0.24 
   0   6 -11    0.18    0.08 
   0   6 -11    0.23    0.02 
   0   6 -11    0.23    0.02 
  -1   6 -11    3.33    0.08 
  -1   6 -11    3.45    0.08 
  -1   6 -11    3.11    0.20 
  -2   6 -11    9.25    0.20 
  -2   6 -11    9.49    0.37 
  -2   6 -11    9.46    0.26 
  -3   6 -11    3.34    0.12 
  -3   6 -11    3.65    0.21 
  -4   6 -11   17.25    0.49 
  -4   6 -11   17.97    0.46 
  -5   6 -11    6.89    0.23 
  -5   6 -11    6.84    0.21 
  -6   6 -11    7.97    0.24 
  -6   6 -11    8.46    0.26 
  -6   6 -11    8.21    0.25 
  -7   6 -11    0.22    0.04 
   8   5 -11    0.50    0.07 
  -8  -5  11    0.62    0.07 
   7   5 -11    4.86    0.17 
   7   5 -11    5.15    0.20 
  -7  -5  11    4.72    0.20 
   6   5 -11    1.18    0.10 
   6   5 -11    1.15    0.09 
   5   5 -11    3.70    0.15 
   5   5 -11    3.72    0.17 
   4   5 -11    1.44    0.09 
   4   5 -11    1.49    0.10 
   3   5 -11    1.22    0.10 
   3   5 -11    1.38    0.08 
   2   5 -11    6.19    0.15 
   1   5 -11    2.72    0.08 
   1   5 -11    2.75    0.17 
   0   5 -11    0.12    0.02 
   0   5 -11    0.07    0.07 
  -1   5 -11    1.36    0.05 
  -1   5 -11    1.65    0.14 
  -1   5 -11    1.33    0.07 
  -2   5 -11   15.68    0.41 
  -2   5 -11   15.99    0.54 
  -3   5 -11    0.82    0.07 
  -3   5 -11    0.68    0.08 
  -3   5 -11    0.59    0.10 
  -4   5 -11    0.59    0.07 
  -4   5 -11    0.74    0.08 
  -4   5 -11    0.43    0.09 
  -5   5 -11    3.03    0.13 
  -5   5 -11    3.05    0.14 
  -6   5 -11    2.48    0.12 
  -6   5 -11    2.36    0.11 
  -7   5 -11    1.22    0.07 
  -7   5 -11    1.05    0.08 
   7  -5  11    1.13    0.08 
   9   4 -11    0.16    0.04 
   8   4 -11   12.83    0.39 
  -8  -4  11   12.97    0.38 
   7   4 -11    0.09    0.05 
  -7  -4  11    0.05    0.05 
   6   4 -11    1.17    0.11 
   6   4 -11    1.19    0.09 
  -6  -4  11    0.99    0.10 
   5   4 -11    1.88    0.10 
   5   4 -11    1.83    0.12 
   4   4 -11    0.13    0.04 
   4   4 -11    0.17    0.05 
   3   4 -11    7.61    0.26 
   2   4 -11    1.67    0.12 
   1   4 -11    0.08    0.06 
   0   4 -11    6.52    0.28 
  -1   4 -11    0.18    0.06 
  -1   4 -11    0.20    0.07 
  -2   4 -11   48.38    1.24 
  -2   4 -11   47.12    1.38 
  -2   4 -11   48.65    1.16 
  -3   4 -11    5.01    0.18 
  -3   4 -11    4.97    0.20 
  -4   4 -11    0.06    0.05 
  -4   4 -11    0.22    0.05 
  -5   4 -11    0.40    0.06 
  -5   4 -11    0.64    0.08 
  -6   4 -11    2.08    0.12 
  -6   4 -11    1.87    0.10 
   6  -4  11    2.06    0.12 
  -7   4 -11    5.44    0.19 
   7  -4  11    5.66    0.19 
   9   3 -11    0.67    0.07 
  -9  -3  11    0.60    0.07 
   8   3 -11    0.78    0.08 
   8   3 -11    0.51    0.09 
   7   3 -11   -0.03    0.05 
  -7  -3  11   -0.11    0.04 
   6   3 -11    3.94    0.19 
  -6  -3  11    4.04    0.18 
   5   3 -11    2.64    0.15 
   5   3 -11    2.35    0.12 
   4   3 -11   25.87    0.72 
   4   3 -11   25.66    0.66 
   3   3 -11    0.08    0.04 
   3   3 -11   -0.02    0.10 
   2   3 -11    3.95    0.32 
   1   3 -11    4.72    0.34 
   0   3 -11    1.97    0.25 
  -1   3 -11    9.58    0.31 
  -1   3 -11    9.44    0.52 
  -2   3 -11    1.05    0.08 
  -2   3 -11    1.23    0.11 
  -3   3 -11   69.75    1.67 
  -3   3 -11   70.38    1.79 
  -4   3 -11   24.47    0.63 
  -4   3 -11   24.25    0.69 
  -5   3 -11    0.05    0.04 
  -5   3 -11    0.14    0.06 
   5  -3  11    0.11    0.06 
  -6   3 -11    7.66    0.27 
   6  -3  11    7.76    0.27 
  -7   3 -11    1.55    0.10 
   7  -3  11    1.84    0.10 
   9   2 -11    0.73    0.09 
  -9  -2  11    0.83    0.08 
   8   2 -11    2.57    0.16 
   8   2 -11    2.63    0.14 
  -8  -2  11    2.45    0.14 
   7   2 -11    2.24    0.14 
   7   2 -11    1.96    0.16 
   6   2 -11    4.87    0.24 
   6   2 -11    5.16    0.22 
   5   2 -11    0.33    0.07 
  -5  -2  11    0.29    0.07 
   4   2 -11    2.46    0.14 
   3   2 -11    6.41    0.24 
   3   2 -11    6.15    0.43 
   2   2 -11    4.74    0.36 
   1   2 -11    3.79    0.32 
   0   2 -11   32.66    1.25 
  -1   2 -11    6.67    0.24 
  -1   2 -11    6.26    0.43 
  -2   2 -11    0.79    0.07 
  -2   2 -11    0.57    0.08 
  -3   2 -11    6.59    0.22 
  -3   2 -11    6.29    0.25 
  -4   2 -11    0.08    0.04 
  -4   2 -11    0.09    0.06 
   4  -2  11    0.09    0.07 
  -5   2 -11    9.25    0.32 
   5  -2  11    9.60    0.32 
  -6   2 -11    0.09    0.05 
   6  -2  11    0.12    0.05 
  -7   2 -11    4.29    0.17 
   7  -2  11    4.52    0.16 
   9   1 -11    0.34    0.07 
  -9  -1  11    0.28    0.05 
   8   1 -11    3.12    0.17 
  -8  -1  11    2.75    0.14 
   7   1 -11    2.72    0.15 
   7   1 -11    2.31    0.17 
   7   1 -11    2.78    0.14 
  -7  -1  11    2.81    0.16 
   6   1 -11   45.98    1.31 
   6   1 -11   45.88    1.23 
   6   1 -11   46.55    1.24 
  -6  -1  11   46.99    1.23 
   5   1 -11    0.67    0.10 
   5   1 -11    0.62    0.09 
   5   1 -11    0.76    0.10 
  -5  -1  11    0.89    0.10 
   4   1 -11    6.09    0.24 
  -4  -1  11    6.12    0.25 
   3   1 -11    8.87    0.31 
   2   1 -11    4.82    0.21 
   2   1 -11    4.53    0.38 
   1   1 -11   10.18    0.57 
   0   1 -11    3.99    0.18 
   0   1 -11    4.09    0.35 
  -1   1 -11   14.15    0.44 
  -2   1 -11    0.15    0.06 
  -2   1 -11    0.17    0.05 
   2  -1  11    0.20    0.07 
  -3   1 -11    0.06    0.06 
   3  -1  11    0.06    0.06 
  -4   1 -11    1.56    0.13 
   4  -1  11    1.19    0.11 
  -5   1 -11    1.21    0.11 
  -5   1 -11    1.23    0.12 
   5  -1  11    1.39    0.12 
  -6   1 -11    1.92    0.13 
  -6   1 -11    2.19    0.13 
   6  -1  11    2.07    0.13 
   7  -1  11    5.20    0.18 
   9   0 -11    5.01    0.17 
   8   0 -11    0.05    0.05 
   8   0 -11    0.02    0.05 
  -8   0  11   -0.04    0.04 
   7   0 -11   11.59    0.37 
   7   0 -11   11.84    0.41 
  -7   0  11   10.88    0.36 
   6   0 -11    8.18    0.29 
   6   0 -11    7.29    0.31 
   6   0 -11    7.59    0.29 
  -6   0  11    8.18    0.29 
   5   0 -11   19.17    0.57 
   5   0 -11   19.04    0.62 
   5   0 -11   19.55    0.57 
  -5   0  11   18.89    0.57 
   4   0 -11    8.50    0.31 
   4   0 -11    8.52    0.30 
   4   0 -11    8.46    0.33 
  -4   0  11    8.78    0.31 
   3   0 -11    1.63    0.14 
   3   0 -11    1.30    0.12 
  -3   0  11    1.30    0.12 
   2   0 -11   12.73    0.44 
   2   0 -11   12.71    0.40 
   1   0 -11   -0.03    0.06 
   1   0 -11   -0.01    0.05 
   0   0 -11    9.14    0.35 
   0   0 -11    8.78    0.31 
   0   0  11    9.26    0.32 
   0   0  11    9.16    0.32 
  -1   0 -11    3.80    0.20 
  -1   0 -11    4.13    0.19 
   1   0  11    3.94    0.19 
  -2   0 -11    4.39    0.22 
  -2   0 -11    4.40    0.20 
   2   0  11    4.64    0.21 
  -3   0 -11    8.27    0.32 
  -3   0 -11    8.12    0.30 
   3   0  11    8.17    0.30 
  -4   0 -11    0.07    0.06 
  -4   0 -11    0.02    0.06 
   4   0  11    0.14    0.06 
  -5   0 -11    7.63    0.28 
  -5   0 -11    8.01    0.30 
   5   0  11    7.91    0.28 
  -6   0 -11    0.24    0.06 
  -6   0 -11    0.35    0.06 
   6   0  11    0.33    0.06 
   9  -1 -11    0.07    0.04 
  -9   1  11    0.09    0.06 
   8  -1 -11   11.53    0.38 
   8  -1 -11   11.06    0.35 
   7  -1 -11   23.10    0.67 
   7  -1 -11   24.26    0.71 
  -7   1  11   23.23    0.65 
   6  -1 -11    2.08    0.14 
   6  -1 -11    2.06    0.15 
  -6   1  11    2.12    0.14 
   5  -1 -11    7.63    0.29 
   5  -1 -11    7.40    0.31 
  -5   1  11    8.05    0.29 
   4  -1 -11    0.11    0.07 
   4  -1 -11    0.08    0.07 
  -4   1  11    0.21    0.07 
   3  -1 -11   21.66    0.64 
   3  -1 -11   21.80    0.64 
   3  -1 -11   22.23    0.68 
  -3   1  11   22.75    0.64 
   2  -1 -11   20.58    0.65 
   2  -1 -11   20.70    0.61 
   2  -1 -11   20.97    0.61 
  -2   1  11   21.41    0.62 
   1  -1 -11   14.31    0.44 
   1  -1 -11   13.86    0.47 
   1  -1 -11   13.33    0.44 
  -1   1  11   14.02    0.44 
  -1   1  11   14.36    0.44 
   0  -1 -11   16.39    0.50 
   0  -1 -11   16.25    0.53 
   0  -1 -11   15.88    0.50 
   0   1  11   16.57    0.49 
  -1  -1 -11    4.38    0.22 
  -1  -1 -11    5.19    0.22 
  -1  -1 -11    4.69    0.21 
   1   1  11    4.73    0.21 
  -2  -1 -11   16.86    0.51 
  -2  -1 -11   16.69    0.54 
  -2  -1 -11   16.63    0.51 
   2   1  11   17.13    0.51 
  -3  -1 -11    1.10    0.10 
  -3  -1 -11    0.76    0.10 
  -3  -1 -11    0.80    0.10 
   3   1  11    0.91    0.10 
  -4  -1 -11    3.87    0.20 
  -4  -1 -11    3.75    0.17 
   4   1  11    3.83    0.18 
  -5  -1 -11   -0.02    0.05 
   5   1  11    0.15    0.05 
  -6  -1 -11    0.59    0.08 
   6   1  11    0.65    0.06 
   9  -2 -11    4.28    0.15 
   8  -2 -11    0.16    0.05 
   8  -2 -11    0.06    0.05 
  -8   2  11    0.05    0.06 
   7  -2 -11    7.33    0.28 
   7  -2 -11    7.28    0.26 
  -7   2  11    6.88    0.28 
   6  -2 -11   -0.04    0.06 
   6  -2 -11    0.02    0.06 
  -6   2  11    0.07    0.06 
  -6   2  11    0.08    0.08 
   5  -2 -11    0.15    0.07 
   5  -2 -11    0.07    0.06 
  -5   2  11    0.18    0.06 
   4  -2 -11    2.73    0.18 
   4  -2 -11    3.04    0.17 
  -4   2  11    3.15    0.17 
   3  -2 -11    1.95    0.15 
   3  -2 -11    1.76    0.14 
  -3   2  11    1.64    0.13 
  -3   2  11    1.74    0.14 
   2  -2 -11    5.83    0.24 
   2  -2 -11    5.25    0.25 
  -2   2  11    6.09    0.24 
   1  -2 -11   11.10    0.38 
   1  -2 -11   11.38    0.41 
  -1   2  11   11.69    0.38 
   0  -2 -11    1.27    0.12 
   0  -2 -11    0.98    0.11 
   0   2  11    1.40    0.13 
  -1  -2 -11    0.76    0.10 
  -1  -2 -11    0.83    0.10 
   1   2  11    0.66    0.09 
  -2  -2 -11    0.12    0.07 
  -2  -2 -11    0.08    0.06 
   2   2  11    0.06    0.06 
  -3  -2 -11    8.91    0.32 
  -3  -2 -11    8.73    0.30 
   3   2  11    8.32    0.29 
  -4  -2 -11    6.59    0.26 
  -4  -2 -11    6.18    0.24 
   4   2  11    6.29    0.23 
  -5  -2 -11    0.25    0.05 
  -5  -2 -11    0.34    0.07 
   5   2  11    0.36    0.06 
   8  -3 -11    5.39    0.19 
  -8   3  11    5.35    0.21 
   7  -3 -11    5.50    0.21 
   7  -3 -11    5.53    0.21 
  -7   3  11    5.32    0.23 
   6  -3 -11    4.20    0.20 
   6  -3 -11    4.55    0.20 
  -6   3  11    4.72    0.22 
   5  -3 -11    2.85    0.17 
   5  -3 -11    3.13    0.17 
  -5   3  11    3.09    0.19 
   4  -3 -11    3.36    0.19 
   4  -3 -11    3.60    0.19 
  -4   3  11    3.59    0.21 
  -4   3  11    3.29    0.17 
   3  -3 -11    0.96    0.11 
   3  -3 -11    1.08    0.11 
  -3   3  11    1.36    0.12 
  -3   3  11    1.20    0.14 
   2  -3 -11    1.93    0.15 
   2  -3 -11    1.78    0.15 
  -2   3  11    1.78    0.17 
  -2   3  11    1.77    0.14 
   1  -3 -11   -0.03    0.06 
   1  -3 -11    0.01    0.06 
  -1   3  11    0.07    0.06 
   0  -3 -11   43.61    1.26 
   0  -3 -11   47.19    1.23 
   0   3  11   45.26    1.18 
  -1  -3 -11    1.84    0.14 
  -1  -3 -11    1.85    0.14 
   1   3  11    1.78    0.13 
  -2  -3 -11    3.91    0.19 
  -2  -3 -11    4.09    0.20 
   2   3  11    3.94    0.18 
  -3  -3 -11    3.00    0.16 
  -3  -3 -11    2.68    0.15 
   3   3  11    2.46    0.13 
  -4  -3 -11    1.14    0.10 
  -4  -3 -11    1.11    0.10 
   4   3  11    1.07    0.11 
  -5  -3 -11    6.38    0.21 
   5   3  11    6.40    0.23 
   8  -4 -11    0.68    0.07 
  -8   4  11    0.86    0.08 
   7  -4 -11    2.26    0.12 
  -7   4  11    2.33    0.14 
   6  -4 -11   21.37    0.61 
  -6   4  11   21.64    0.63 
   5  -4 -11    0.09    0.06 
   5  -4 -11    0.14    0.06 
  -5   4  11    0.20    0.08 
   4  -4 -11    7.93    0.30 
   4  -4 -11    8.18    0.30 
  -4   4  11    8.27    0.32 
   3  -4 -11   18.82    0.59 
   3  -4 -11   19.44    0.58 
  -3   4  11   19.71    0.61 
   2  -4 -11   -0.10    0.05 
   2  -4 -11   -0.03    0.05 
  -2   4  11   -0.04    0.07 
   1  -4 -11   24.29    0.73 
   1  -4 -11   25.20    0.72 
  -1   4  11   24.54    0.73 
   0  -4 -11    1.44    0.12 
   0  -4 -11    1.24    0.12 
   0   4  11    1.36    0.13 
  -1  -4 -11   14.56    0.46 
  -1  -4 -11   14.86    0.46 
  -2  -4 -11    1.82    0.12 
  -2  -4 -11    1.36    0.12 
  -3  -4 -11    0.15    0.05 
  -3  -4 -11    0.15    0.05 
  -4  -4 -11    4.40    0.17 
   4   4  11    4.39    0.18 
   7  -5 -11    1.66    0.09 
  -7   5  11    1.36    0.09 
   6  -5 -11    2.12    0.11 
  -6   5  11    1.78    0.12 
   5  -5 -11    6.84    0.25 
  -5   5  11    7.47    0.27 
   4  -5 -11   12.26    0.39 
  -4   5  11   12.40    0.41 
   3  -5 -11    0.92    0.10 
  -3   5  11    0.82    0.11 
   2  -5 -11    2.73    0.16 
   2  -5 -11    2.88    0.14 
  -2   5  11    2.80    0.17 
   1  -5 -11    0.83    0.09 
   1  -5 -11    0.93    0.09 
  -1   5  11    0.94    0.11 
   0  -5 -11    1.90    0.13 
   0  -5 -11    2.06    0.12 
   0   5  11    2.28    0.15 
  -1  -5 -11   17.00    0.50 
  -2  -5 -11    0.13    0.05 
  -3  -5 -11    7.39    0.24 
   3   5  11    7.40    0.25 
   5  -6 -11    8.18    0.26 
   4  -6 -11    0.29    0.06 
  -4   6  11    0.40    0.06 
   3  -6 -11    4.52    0.18 
  -3   6  11    4.56    0.19 
   2  -6 -11    0.11    0.05 
  -2   6  11    0.09    0.06 
   1  -6 -11    1.80    0.12 
   0  -6 -11    2.98    0.14 
  -1  -6 -11   11.42    0.34 
  -2  -6 -11    3.64    0.14 
   2   6  11    3.68    0.15 
   4  10 -12    2.30    0.08 
   3  10 -12    0.08    0.02 
   2  10 -12    0.03    0.01 
   2  10 -12    0.00    0.01 
   6   9 -12    0.10    0.02 
   5   9 -12    4.27    0.13 
   4   9 -12    5.23    0.16 
   3   9 -12    3.56    0.10 
   3   9 -12    3.58    0.12 
   2   9 -12    4.59    0.13 
   2   9 -12    4.73    0.11 
   1   9 -12    0.21    0.02 
   1   9 -12    0.25    0.02 
  -2   9 -12    6.67    0.14 
  -2   9 -12    6.60    0.14 
  -3   9 -12    1.30    0.04 
  -3   9 -12    1.25    0.06 
  -4   9 -12    0.07    0.02 
   6   8 -12    5.12    0.17 
   6   8 -12    5.57    0.17 
   5   8 -12   30.04    0.74 
   4   8 -12    0.07    0.03 
   3   8 -12    0.80    0.06 
   3   8 -12    0.88    0.05 
   2   8 -12    1.62    0.06 
   2   8 -12    1.55    0.07 
   1   8 -12   10.78    0.22 
   1   8 -12   10.39    0.21 
   0   8 -12    3.99    0.09 
   0   8 -12    4.04    0.09 
  -1   8 -12    7.89    0.16 
  -1   8 -12    7.92    0.16 
  -2   8 -12   15.83    0.31 
  -2   8 -12   15.43    0.39 
  -3   8 -12    3.21    0.08 
  -3   8 -12    3.16    0.11 
  -4   8 -12    7.47    0.21 
  -5   8 -12    0.81    0.05 
   7   7 -12    0.69    0.06 
   7   7 -12    0.61    0.06 
   6   7 -12    0.72    0.07 
   6   7 -12    0.74    0.06 
   5   7 -12    3.80    0.14 
   5   7 -12    3.69    0.15 
   4   7 -12    1.50    0.08 
   3   7 -12    2.81    0.11 
   2   7 -12    7.75    0.18 
   2   7 -12    7.61    0.22 
   1   7 -12    0.07    0.07 
   1   7 -12    0.06    0.02 
   0   7 -12    0.07    0.02 
   0   7 -12    0.05    0.02 
   0   7 -12   -0.02    0.06 
  -1   7 -12   12.18    0.45 
  -1   7 -12   12.12    0.25 
  -2   7 -12    1.28    0.05 
  -2   7 -12    1.30    0.07 
  -3   7 -12    0.27    0.04 
  -4   7 -12    4.28    0.14 
  -5   7 -12   10.49    0.28 
  -6   7 -12    2.98    0.11 
   8   6 -12    6.63    0.21 
   7   6 -12    0.02    0.04 
   7   6 -12    0.10    0.03 
  -7  -6  12    0.11    0.05 
   6   6 -12    3.42    0.13 
   6   6 -12    3.48    0.15 
   5   6 -12    1.64    0.10 
   5   6 -12    1.58    0.09 
   4   6 -12    0.44    0.06 
   4   6 -12    0.38    0.06 
   3   6 -12    1.55    0.09 
   2   6 -12    4.11    0.12 
   2   6 -12    4.53    0.15 
   1   6 -12    7.35    0.17 
   1   6 -12    7.38    0.21 
   1   6 -12    7.45    0.32 
   0   6 -12    2.11    0.07 
   0   6 -12    2.18    0.16 
   0   6 -12    2.11    0.09 
  -1   6 -12    0.70    0.04 
  -1   6 -12    0.62    0.11 
  -1   6 -12    0.67    0.05 
  -2   6 -12    2.82    0.09 
  -2   6 -12    2.85    0.11 
  -2   6 -12    2.78    0.18 
  -3   6 -12    0.10    0.04 
  -4   6 -12    0.67    0.06 
  -4   6 -12    0.79    0.07 
  -5   6 -12    8.43    0.25 
  -5   6 -12    8.70    0.26 
  -6   6 -12    0.20    0.04 
  -6   6 -12    0.17    0.04 
  -6   6 -12    0.22    0.04 
   8   5 -12    3.08    0.13 
   7   5 -12    1.61    0.11 
  -7  -5  12    1.50    0.10 
   6   5 -12   20.38    0.59 
   6   5 -12   21.15    0.54 
   5   5 -12    2.69    0.12 
   5   5 -12    2.96    0.15 
   4   5 -12   22.27    0.62 
   4   5 -12   22.43    0.58 
   3   5 -12    2.17    0.12 
   3   5 -12    1.89    0.10 
   2   5 -12    2.46    0.13 
   2   5 -12    2.54    0.11 
   1   5 -12    2.46    0.10 
   1   5 -12    2.39    0.17 
   0   5 -12    0.05    0.03 
   0   5 -12    0.09    0.03 
   0   5 -12    0.05    0.07 
  -1   5 -12   23.52    0.75 
  -1   5 -12   23.81    0.59 
  -2   5 -12    0.13    0.07 
  -2   5 -12   -0.03    0.04 
  -2   5 -12    0.00    0.03 
  -3   5 -12    8.39    0.24 
  -3   5 -12    7.92    0.27 
  -4   5 -12    0.28    0.05 
  -4   5 -12    0.41    0.06 
  -5   5 -12    1.84    0.10 
  -5   5 -12    2.03    0.11 
  -6   5 -12    8.73    0.25 
  -6   5 -12    8.59    0.26 
   8   4 -12    0.16    0.05 
   7   4 -12    3.28    0.15 
  -7  -4  12    3.16    0.16 
   6   4 -12    2.15    0.13 
   6   4 -12    2.09    0.11 
  -6  -4  12    2.55    0.14 
   5   4 -12    1.51    0.12 
   5   4 -12    1.47    0.09 
   4   4 -12    5.79    0.20 
   4   4 -12    5.68    0.22 
   3   4 -12   10.57    0.34 
   3   4 -12   10.44    0.30 
   2   4 -12   13.73    0.41 
   2   4 -12   14.04    0.38 
   1   4 -12    0.08    0.05 
   1   4 -12    0.13    0.04 
   0   4 -12    4.39    0.16 
   0   4 -12    4.64    0.18 
  -1   4 -12    0.43    0.05 
  -1   4 -12    0.53    0.07 
  -2   4 -12    2.43    0.11 
  -2   4 -12    2.67    0.14 
  -3   4 -12   25.73    0.71 
  -3   4 -12   26.49    0.66 
  -4   4 -12    1.99    0.12 
  -4   4 -12    2.14    0.11 
  -5   4 -12    2.99    0.13 
  -5   4 -12    3.27    0.15 
  -6   4 -12    2.51    0.11 
  -6   4 -12    2.50    0.12 
   6  -4  12    2.28    0.12 
  -9  -3  12    1.05    0.07 
   8   3 -12    0.11    0.05 
   8   3 -12    0.08    0.06 
  -8  -3  12    0.10    0.05 
   7   3 -12    3.10    0.15 
   6   3 -12    2.97    0.16 
   5   3 -12    0.07    0.05 
   5   3 -12    0.12    0.04 
   4   3 -12   14.46    0.44 
   4   3 -12   14.26    0.40 
   3   3 -12   13.73    0.38 
   3   3 -12   13.50    0.42 
   2   3 -12    2.73    0.12 
   2   3 -12    2.32    0.13 
   1   3 -12    3.36    0.13 
   1   3 -12    3.37    0.16 
   0   3 -12    0.05    0.05 
   0   3 -12    0.00    0.03 
  -1   3 -12   10.64    0.30 
  -1   3 -12   10.44    0.34 
  -2   3 -12    0.11    0.04 
  -2   3 -12    0.01    0.05 
  -3   3 -12    0.15    0.04 
  -3   3 -12    0.02    0.05 
  -4   3 -12    3.67    0.17 
  -4   3 -12    3.61    0.15 
  -5   3 -12    1.29    0.11 
  -5   3 -12    1.20    0.09 
   5  -3  12    1.29    0.11 
  -6   3 -12    0.05    0.05 
   6  -3  12    0.05    0.05 
  -9  -2  12    2.49    0.11 
   8   2 -12    2.11    0.14 
   8   2 -12    2.38    0.13 
  -8  -2  12    2.47    0.13 
   7   2 -12    6.83    0.28 
   7   2 -12    6.59    0.25 
  -7  -2  12    6.62    0.25 
   6   2 -12    0.02    0.06 
   6   2 -12    0.13    0.06 
  -6  -2  12    0.15    0.06 
   5   2 -12    8.66    0.31 
  -5  -2  12    8.74    0.31 
   4   2 -12   15.10    0.43 
   4   2 -12   16.49    0.48 
  -4  -2  12   14.72    0.47 
   3   2 -12   -0.04    0.04 
   3   2 -12   -0.05    0.03 
   2   2 -12    0.99    0.08 
   2   2 -12    0.83    0.09 
   1   2 -12    0.34    0.07 
   1   2 -12    0.32    0.05 
   0   2 -12    0.07    0.05 
   0   2 -12    0.07    0.04 
  -1   2 -12    8.24    0.29 
  -1   2 -12    7.85    0.25 
  -2   2 -12    4.98    0.19 
  -2   2 -12    5.39    0.22 
  -3   2 -12    0.64    0.08 
  -3   2 -12    0.81    0.08 
   3  -2  12    0.68    0.09 
  -4   2 -12    1.52    0.12 
   4  -2  12    1.66    0.13 
  -5   2 -12    0.11    0.06 
   5  -2  12    0.14    0.06 
  -6   2 -12    1.11    0.09 
   6  -2  12    1.07    0.09 
   8   1 -12    1.49    0.12 
  -8  -1  12    1.54    0.10 
   7   1 -12   10.74    0.37 
   7   1 -12    9.25    0.33 
  -7  -1  12   10.26    0.33 
   6   1 -12    0.55    0.09 
   6   1 -12    0.61    0.09 
  -6  -1  12    0.78    0.09 
   5   1 -12   13.38    0.48 
   5   1 -12   14.66    0.45 
  -5  -1  12   13.71    0.44 
   4   1 -12    1.24    0.12 
  -4  -1  12    1.51    0.12 
   3   1 -12    6.73    0.26 
  -3  -1  12    6.80    0.27 
   2   1 -12    1.95    0.13 
   2   1 -12    1.83    0.11 
  -2  -1  12    2.01    0.14 
   1   1 -12    7.21    0.26 
   1   1 -12    6.90    0.23 
  -1  -1  12    6.75    0.27 
   0   1 -12   17.87    0.51 
   0   1 -12   17.35    0.47 
   0  -1  12   16.72    0.52 
   0  -1  12   16.27    0.50 
  -1   1 -12    7.43    0.27 
  -1   1 -12    7.34    0.24 
   1  -1  12    7.24    0.28 
  -2   1 -12   23.76    0.68 
   2  -1  12   24.38    0.68 
  -3   1 -12    1.68    0.13 
   3  -1  12    1.52    0.13 
  -4   1 -12   16.82    0.51 
  -4   1 -12   16.39    0.53 
   4  -1  12   17.23    0.49 
  -5   1 -12   10.77    0.34 
  -5   1 -12   10.60    0.36 
   5  -1  12   10.30    0.33 
  -6   1 -12    0.47    0.06 
   6  -1  12    0.56    0.06 
   8   0 -12    5.48    0.22 
  -8   0  12    5.86    0.20 
   7   0 -12   13.00    0.39 
   7   0 -12   13.14    0.44 
  -7   0  12   13.16    0.40 
   6   0 -12    1.87    0.13 
   6   0 -12    1.87    0.15 
   6   0 -12    1.71    0.12 
  -6   0  12    1.93    0.13 
   5   0 -12    0.07    0.05 
   5   0 -12    0.04    0.06 
   5   0 -12    0.04    0.05 
  -5   0  12    0.00    0.05 
   4   0 -12    0.82    0.09 
   4   0 -12    0.83    0.10 
   4   0 -12    0.90    0.11 
  -4   0  12    0.73    0.10 
   3   0 -12    5.78    0.26 
   3   0 -12    5.90    0.24 
   3   0 -12    5.81    0.23 
  -3   0  12    5.93    0.24 
   2   0 -12    2.02    0.14 
   2   0 -12    1.78    0.15 
   2   0 -12    1.81    0.12 
  -2   0  12    1.87    0.14 
   1   0 -12   29.91    0.90 
   1   0 -12   30.94    0.86 
  -1   0  12   31.09    0.84 
  -1   0  12   31.99    0.86 
   0   0 -12    2.65    0.18 
   0   0 -12    3.08    0.17 
   0   0  12    2.95    0.17 
  -1   0 -12    1.89    0.14 
  -1   0 -12    1.77    0.15 
   1   0  12    1.99    0.15 
  -2   0 -12   18.91    0.61 
  -2   0 -12   19.43    0.58 
   2   0  12   20.42    0.58 
  -3   0 -12   11.71    0.41 
  -3   0 -12   11.94    0.38 
   3   0  12   11.53    0.38 
  -4   0 -12    6.28    0.24 
  -4   0 -12    6.53    0.26 
   4   0  12    6.03    0.23 
  -5   0 -12    0.58    0.08 
  -5   0 -12    0.47    0.07 
   5   0  12    0.52    0.07 
   6   0  12    8.39    0.25 
   8  -1 -12    1.12    0.08 
   7  -1 -12   39.33    1.09 
   7  -1 -12   39.32    1.04 
  -7   1  12   39.05    1.02 
   6  -1 -12    0.27    0.07 
   6  -1 -12    0.27    0.07 
  -6   1  12    0.31    0.07 
   5  -1 -12    0.47    0.08 
   5  -1 -12    0.38    0.08 
  -5   1  12    0.30    0.07 
   4  -1 -12    0.15    0.07 
   4  -1 -12    0.13    0.06 
  -4   1  12    0.19    0.07 
   3  -1 -12    0.04    0.06 
   3  -1 -12    0.08    0.07 
   3  -1 -12    0.07    0.06 
  -3   1  12    0.09    0.06 
   2  -1 -12    8.30    0.33 
   2  -1 -12    8.29    0.30 
   2  -1 -12    8.27    0.30 
  -2   1  12    8.23    0.30 
  -2   1  12    8.68    0.31 
   1  -1 -12    0.57    0.10 
   1  -1 -12    0.43    0.08 
   1  -1 -12    0.48    0.08 
  -1   1  12    0.63    0.09 
   0  -1 -12   21.04    0.62 
   0  -1 -12   21.09    0.62 
   0  -1 -12   20.93    0.66 
   0   1  12   22.02    0.62 
  -1  -1 -12    0.39    0.08 
  -1  -1 -12    0.33    0.07 
  -1  -1 -12    0.24    0.08 
   1   1  12    0.41    0.08 
  -2  -1 -12    5.81    0.23 
  -2  -1 -12    5.86    0.26 
  -2  -1 -12    6.11    0.24 
   2   1  12    5.84    0.24 
  -3  -1 -12   15.35    0.47 
  -3  -1 -12   14.46    0.43 
  -3  -1 -12   14.13    0.45 
   3   1  12   14.19    0.44 
  -4  -1 -12    0.74    0.09 
   4   1  12    0.69    0.08 
  -5  -1 -12    6.69    0.24 
   5   1  12    6.75    0.22 
   8  -2 -12    1.25    0.08 
  -8   2  12    1.37    0.10 
   7  -2 -12    3.51    0.15 
   7  -2 -12    3.36    0.16 
  -7   2  12    3.45    0.17 
   6  -2 -12    0.42    0.07 
   6  -2 -12    0.37    0.08 
  -6   2  12    0.49    0.07 
  -6   2  12    0.45    0.07 
   5  -2 -12    2.61    0.15 
   5  -2 -12    2.77    0.17 
  -5   2  12    2.65    0.15 
  -5   2  12    2.66    0.15 
   4  -2 -12    5.03    0.21 
   4  -2 -12    4.63    0.22 
  -4   2  12    4.63    0.20 
  -4   2  12    4.63    0.20 
   3  -2 -12    0.06    0.06 
   3  -2 -12   -0.01    0.05 
  -3   2  12    0.05    0.06 
   2  -2 -12    3.60    0.18 
   2  -2 -12    3.68    0.20 
  -2   2  12    3.86    0.19 
   1  -2 -12   19.30    0.62 
   1  -2 -12   20.75    0.60 
  -1   2  12   20.29    0.58 
   0  -2 -12    5.41    0.23 
   0  -2 -12    5.00    0.24 
   0   2  12    5.09    0.22 
  -1  -2 -12    9.57    0.31 
  -1  -2 -12    8.83    0.33 
   1   2  12    8.65    0.31 
  -2  -2 -12    0.03    0.06 
  -2  -2 -12    0.13    0.06 
   2   2  12    0.00    0.06 
  -3  -2 -12    0.13    0.06 
  -3  -2 -12    0.17    0.06 
   3   2  12    0.29    0.06 
  -4  -2 -12    2.26    0.13 
  -4  -2 -12    2.21    0.11 
   4   2  12    2.10    0.11 
   7  -3 -12    0.06    0.04 
  -7   3  12    0.14    0.06 
   6  -3 -12    4.71    0.19 
   6  -3 -12    4.60    0.19 
  -6   3  12    4.58    0.21 
   5  -3 -12    0.47    0.08 
   5  -3 -12    0.53    0.08 
  -5   3  12    0.54    0.09 
   4  -3 -12   21.62    0.62 
   4  -3 -12   19.57    0.59 
  -4   3  12   19.79    0.62 
   3  -3 -12    0.27    0.07 
   3  -3 -12    0.21    0.07 
  -3   3  12    0.21    0.07 
  -3   3  12    0.14    0.08 
   2  -3 -12    5.13    0.23 
   2  -3 -12    5.03    0.22 
  -2   3  12    5.21    0.21 
   1  -3 -12    0.71    0.10 
   1  -3 -12    0.81    0.09 
  -1   3  12    0.74    0.09 
   0  -3 -12    0.19    0.07 
   0  -3 -12    0.18    0.06 
   0   3  12    0.11    0.06 
  -1  -3 -12   22.50    0.65 
  -1  -3 -12   20.18    0.61 
   1   3  12   21.66    0.59 
  -2  -3 -12    3.13    0.16 
  -2  -3 -12    3.24    0.17 
   2   3  12    3.34    0.14 
  -3  -3 -12    4.18    0.18 
  -3  -3 -12    4.52    0.17 
  -4  -3 -12    0.02    0.04 
   7  -4 -12    0.00    0.04 
  -7   4  12    0.01    0.04 
   6  -4 -12    3.19    0.14 
  -6   4  12    3.20    0.16 
   5  -4 -12    7.03    0.24 
   5  -4 -12    6.62    0.24 
  -5   4  12    6.58    0.26 
   4  -4 -12    1.14    0.10 
   4  -4 -12    0.89    0.09 
  -4   4  12    1.22    0.12 
   3  -4 -12   11.27    0.37 
   3  -4 -12   11.64    0.37 
  -3   4  12   10.68    0.38 
   2  -4 -12    4.59    0.20 
   2  -4 -12    5.51    0.22 
  -2   4  12    4.52    0.22 
   1  -4 -12    5.06    0.21 
   1  -4 -12    4.49    0.20 
  -1   4  12    4.52    0.22 
   0  -4 -12    0.02    0.06 
   0  -4 -12   -0.10    0.04 
   0   4  12    0.16    0.07 
  -1  -4 -12    0.14    0.06 
  -1  -4 -12    0.10    0.06 
  -2  -4 -12    1.51    0.10 
  -2  -4 -12    1.50    0.11 
  -3  -4 -12    1.29    0.09 
   3   4  12    1.31    0.10 
   5  -5 -12    0.35    0.06 
  -5   5  12    0.30    0.06 
   4  -5 -12    7.88    0.26 
  -4   5  12    8.08    0.28 
   3  -5 -12    3.15    0.15 
  -3   5  12    3.26    0.16 
   2  -5 -12    0.74    0.08 
  -2   5  12    0.66    0.09 
   1  -5 -12    6.06    0.22 
  -1   5  12    6.39    0.24 
   0  -5 -12    0.06    0.04 
  -1  -5 -12    7.99    0.26 
  -2  -5 -12   -0.02    0.03 
   2   5  12   -0.02    0.04 
   3  -6 -12    1.49    0.09 
  -3   6  12    1.60    0.10 
   1  -6 -12    0.13    0.04 
   5   9 -13    6.04    0.17 
   4   9 -13    1.12    0.06 
   3   9 -13    2.20    0.07 
   3   9 -13    2.28    0.08 
   2   9 -13    1.88    0.06 
   2   9 -13    1.83    0.07 
   1   9 -13    5.97    0.12 
   1   9 -13    5.91    0.13 
  -2   9 -13    1.57    0.05 
  -2   9 -13    1.66    0.05 
   6   8 -13    2.69    0.10 
   5   8 -13   22.97    0.57 
   4   8 -13    0.02    0.02 
   3   8 -13    2.07    0.08 
   2   8 -13    0.11    0.02 
   2   8 -13    0.04    0.02 
   1   8 -13    0.30    0.03 
   1   8 -13    0.29    0.03 
   0   8 -13    6.29    0.14 
   0   8 -13    6.69    0.14 
  -1   8 -13    1.04    0.04 
  -2   8 -13    1.92    0.07 
  -2   8 -13    1.92    0.06 
  -3   8 -13    1.56    0.07 
  -3   8 -13    1.46    0.05 
  -4   8 -13    3.15    0.10 
   6   7 -13    1.58    0.08 
   6   7 -13    1.48    0.08 
   5   7 -13    6.29    0.19 
   5   7 -13    6.23    0.20 
   4   7 -13    0.10    0.03 
   3   7 -13    0.20    0.04 
   2   7 -13    0.32    0.03 
   2   7 -13    0.31    0.04 
   1   7 -13    5.20    0.13 
   1   7 -13    5.04    0.16 
   0   7 -13    0.09    0.02 
   0   7 -13    0.09    0.03 
  -1   7 -13   12.73    0.26 
  -1   7 -13   12.36    0.33 
  -2   7 -13    0.44    0.04 
  -2   7 -13    0.49    0.04 
  -3   7 -13    1.15    0.06 
  -4   7 -13    0.72    0.05 
  -5   7 -13    0.03    0.03 
   7   6 -13    4.38    0.16 
   7   6 -13    4.46    0.15 
   6   6 -13    2.04    0.10 
   6   6 -13    2.00    0.09 
   5   6 -13    0.26    0.04 
   5   6 -13    0.31    0.05 
   4   6 -13    5.59    0.20 
   4   6 -13    5.28    0.18 
   3   6 -13    0.04    0.03 
   3   6 -13    0.03    0.04 
   2   6 -13    4.50    0.15 
   1   6 -13    1.30    0.07 
   1   6 -13    1.21    0.06 
   0   6 -13   16.39    0.34 
   0   6 -13   16.07    0.56 
   0   6 -13   16.40    0.42 
  -1   6 -13    5.71    0.18 
  -2   6 -13    0.00    0.03 
  -3   6 -13    0.11    0.04 
  -4   6 -13    0.34    0.05 
  -4   6 -13    0.38    0.05 
  -5   6 -13    4.74    0.14 
  -5   6 -13    4.05    0.15 
  -5   6 -13    4.04    0.14 
  -8  -5  13    0.99    0.07 
   7   5 -13    0.11    0.04 
  -7  -5  13    0.07    0.04 
   6   5 -13    5.46    0.20 
   6   5 -13    5.28    0.18 
   5   5 -13    5.19    0.20 
   5   5 -13    5.49    0.18 
   4   5 -13    0.48    0.05 
   4   5 -13    0.40    0.06 
   3   5 -13   13.44    0.40 
   3   5 -13   13.62    0.37 
   2   5 -13    7.00    0.24 
   2   5 -13    7.10    0.22 
   1   5 -13    2.25    0.12 
   1   5 -13    2.27    0.10 
   0   5 -13    6.12    0.19 
   0   5 -13    5.86    0.21 
  -1   5 -13   13.84    0.40 
  -1   5 -13   14.28    0.38 
  -2   5 -13   22.15    0.61 
  -2   5 -13   22.45    0.57 
  -3   5 -13    1.37    0.09 
  -3   5 -13    1.35    0.08 
  -4   5 -13    2.39    0.12 
  -4   5 -13    2.34    0.11 
  -5   5 -13    2.94    0.12 
  -5   5 -13    2.91    0.11 
   8   4 -13    0.11    0.04 
  -8  -4  13    0.16    0.04 
   7   4 -13    0.23    0.05 
  -7  -4  13    0.14    0.05 
   6   4 -13    0.48    0.07 
   6   4 -13    0.58    0.06 
  -6  -4  13    0.59    0.08 
   5   4 -13    0.09    0.04 
   5   4 -13    0.10    0.05 
   4   4 -13    8.13    0.28 
   4   4 -13    8.27    0.25 
   3   4 -13    3.71    0.15 
   3   4 -13    3.71    0.17 
   2   4 -13   34.04    0.84 
   2   4 -13   33.72    0.90 
   1   4 -13    7.98    0.27 
   1   4 -13    8.43    0.25 
   0   4 -13    5.02    0.20 
   0   4 -13    5.28    0.18 
  -1   4 -13    7.89    0.24 
  -1   4 -13    8.01    0.27 
  -2   4 -13    4.42    0.16 
  -2   4 -13    4.43    0.18 
  -3   4 -13   19.87    0.52 
  -3   4 -13   19.63    0.56 
  -4   4 -13    2.06    0.10 
  -4   4 -13    2.30    0.12 
  -5   4 -13    0.09    0.04 
  -5   4 -13    0.06    0.04 
  -6   4 -13    0.89    0.07 
  -8  -3  13    1.72    0.10 
   7   3 -13    0.13    0.05 
  -7  -3  13    0.16    0.05 
   6   3 -13    3.67    0.17 
  -6  -3  13    4.19    0.18 
   5   3 -13   15.68    0.48 
   5   3 -13   15.91    0.44 
  -5  -3  13   16.30    0.48 
   4   3 -13    3.79    0.15 
   4   3 -13    3.65    0.18 
   3   3 -13    7.17    0.23 
   3   3 -13    7.24    0.26 
   2   3 -13    2.21    0.13 
   2   3 -13    2.47    0.11 
   1   3 -13    0.05    0.03 
   1   3 -13    0.10    0.05 
   0   3 -13    0.50    0.06 
   0   3 -13    0.54    0.08 
  -1   3 -13    4.93    0.18 
  -1   3 -13    4.93    0.20 
  -2   3 -13    2.35    0.11 
  -2   3 -13    1.92    0.13 
  -3   3 -13    0.31    0.06 
  -3   3 -13    0.29    0.05 
  -4   3 -13    0.03    0.04 
  -4   3 -13    0.00    0.04 
   4  -3  13    0.02    0.05 
  -5   3 -13    9.87    0.31 
   5  -3  13    9.70    0.30 
  -6   3 -13    2.00    0.10 
   6  -3  13    2.25    0.10 
   8   2 -13    7.56    0.25 
  -8  -2  13    7.76    0.25 
   7   2 -13    3.38    0.18 
   7   2 -13    3.64    0.16 
  -7  -2  13    3.75    0.16 
   6   2 -13    6.29    0.27 
   6   2 -13    6.69    0.25 
  -6  -2  13    6.74    0.25 
   5   2 -13   -0.06    0.04 
  -5  -2  13   -0.04    0.05 
   4   2 -13   10.52    0.35 
  -4  -2  13   10.31    0.35 
   3   2 -13    0.56    0.08 
   3   2 -13    0.60    0.07 
  -3  -2  13    0.65    0.09 
   2   2 -13    9.66    0.30 
   2   2 -13   10.11    0.33 
   1   2 -13   17.59    0.48 
   1   2 -13   17.72    0.52 
   0   2 -13    1.48    0.10 
   0   2 -13    1.46    0.12 
  -1   2 -13    0.27    0.07 
  -1   2 -13    0.39    0.06 
  -2   2 -13    0.57    0.08 
  -2   2 -13    0.57    0.06 
   2  -2  13    0.93    0.10 
  -3   2 -13    0.40    0.06 
  -3   2 -13    0.35    0.07 
   3  -2  13    0.44    0.08 
  -4   2 -13    7.13    0.25 
   4  -2  13    6.75    0.24 
  -5   2 -13    0.02    0.05 
   5  -2  13    0.06    0.05 
   6  -2  13   11.68    0.32 
  -8  -1  13    1.55    0.09 
   7   1 -13   12.24    0.41 
   7   1 -13   12.12    0.38 
  -7  -1  13   12.49    0.38 
   6   1 -13    0.96    0.09 
   6   1 -13    0.95    0.11 
  -6  -1  13    0.80    0.09 
   5   1 -13    5.26    0.22 
   5   1 -13    5.22    0.25 
  -5  -1  13    5.44    0.23 
   4   1 -13    1.08    0.12 
   4   1 -13    0.99    0.10 
  -4  -1  13    1.07    0.11 
   3   1 -13    0.04    0.05 
  -3  -1  13    0.11    0.06 
   2   1 -13    1.98    0.14 
  -2  -1  13    2.57    0.16 
   1   1 -13    5.11    0.21 
  -1  -1  13    4.58    0.21 
  -1  -1  13    4.62    0.21 
   0   1 -13    1.73    0.13 
   0  -1  13    1.68    0.14 
  -1   1 -13    0.36    0.07 
   1  -1  13    0.37    0.08 
  -2   1 -13    8.00    0.29 
   2  -1  13    8.29    0.29 
  -3   1 -13    8.03    0.29 
   3  -1  13    8.43    0.29 
  -4   1 -13    1.43    0.13 
  -4   1 -13    1.86    0.12 
   4  -1  13    1.94    0.12 
  -5   1 -13    3.32    0.15 
   5  -1  13    3.32    0.14 
  -8   0  13   15.61    0.43 
   7   0 -13    1.59    0.12 
  -7   0  13    1.38    0.10 
   6   0 -13    1.53    0.13 
  -6   0  13    1.72    0.12 
   5   0 -13    0.12    0.07 
   5   0 -13    0.03    0.05 
  -5   0  13   -0.01    0.05 
   4   0 -13   -0.03    0.06 
   4   0 -13    0.01    0.05 
  -4   0  13    0.06    0.06 
   3   0 -13   21.63    0.62 
   3   0 -13   21.16    0.66 
  -3   0  13   21.35    0.63 
   2   0 -13    0.10    0.07 
   2   0 -13    0.01    0.05 
  -2   0  13    0.13    0.06 
  -2   0  13   -0.03    0.06 
   1   0 -13    0.63    0.10 
   1   0 -13    0.51    0.08 
  -1   0  13    0.53    0.09 
   0   0 -13    2.32    0.16 
   0   0 -13    2.50    0.15 
   0   0  13    2.56    0.16 
  -1   0 -13    0.09    0.07 
  -1   0 -13   -0.07    0.05 
   1   0  13    0.13    0.07 
  -2   0 -13   16.63    0.50 
  -2   0 -13   16.29    0.52 
   2   0  13   16.60    0.49 
  -3   0 -13    9.62    0.32 
  -3   0 -13    9.69    0.34 
   3   0  13    9.32    0.31 
  -4   0 -13    2.72    0.14 
  -4   0 -13    2.78    0.15 
   4   0  13    2.63    0.13 
   5   0  13    0.02    0.04 
   7  -1 -13    0.34    0.07 
  -7   1  13    0.46    0.06 
  -7   1  13    0.39    0.06 
   6  -1 -13    1.49    0.10 
   6  -1 -13    1.69    0.13 
  -6   1  13    1.68    0.11 
  -6   1  13    1.74    0.11 
   5  -1 -13    0.12    0.06 
   5  -1 -13    0.16    0.06 
  -5   1  13    0.11    0.05 
   4  -1 -13    0.28    0.07 
   4  -1 -13    0.24    0.07 
  -4   1  13    0.06    0.06 
  -4   1  13    0.28    0.07 
   3  -1 -13    1.19    0.11 
   3  -1 -13    1.09    0.11 
   3  -1 -13    0.96    0.12 
  -3   1  13    1.00    0.10 
  -3   1  13    1.31    0.12 
   2  -1 -13    7.67    0.28 
   2  -1 -13    7.41    0.27 
   2  -1 -13    7.40    0.30 
  -2   1  13    7.60    0.28 
   1  -1 -13    4.70    0.21 
   1  -1 -13    5.00    0.23 
   1  -1 -13    4.79    0.20 
  -1   1  13    4.82    0.21 
   0  -1 -13    0.98    0.09 
   0  -1 -13    0.79    0.09 
   0  -1 -13    0.97    0.11 
   0   1  13    1.01    0.10 
  -1  -1 -13   13.55    0.43 
  -1  -1 -13   13.82    0.45 
   1   1  13   13.84    0.42 
  -2  -1 -13    1.10    0.10 
  -2  -1 -13    1.28    0.12 
   2   1  13    1.42    0.12 
  -3  -1 -13    5.59    0.23 
   3   1  13    5.67    0.21 
  -4  -1 -13    0.01    0.05 
   4   1  13    0.02    0.04 
   7  -2 -13    1.73    0.09 
   6  -2 -13    0.07    0.05 
   6  -2 -13    0.04    0.04 
   5  -2 -13   14.40    0.44 
   5  -2 -13   15.25    0.47 
  -5   2  13   14.76    0.42 
   4  -2 -13    7.87    0.29 
   4  -2 -13    7.44    0.27 
  -4   2  13    7.53    0.26 
   3  -2 -13    0.10    0.06 
   3  -2 -13    0.03    0.05 
  -3   2  13    0.18    0.06 
   2  -2 -13   10.63    0.37 
   2  -2 -13   10.34    0.34 
  -2   2  13    9.88    0.33 
   1  -2 -13   12.74    0.42 
   1  -2 -13   12.16    0.39 
  -1   2  13   12.05    0.38 
   0  -2 -13   25.89    0.73 
   0  -2 -13   27.32    0.78 
   0   2  13   25.78    0.71 
  -1  -2 -13    2.89    0.14 
  -1  -2 -13    2.62    0.16 
   1   2  13    2.74    0.14 
  -2  -2 -13    1.14    0.09 
  -2  -2 -13    1.16    0.11 
   2   2  13    1.16    0.10 
  -3  -2 -13    0.85    0.08 
   3   2  13    0.73    0.07 
   6  -3 -13   10.93    0.32 
  -6   3  13   10.76    0.34 
   5  -3 -13    3.56    0.16 
   5  -3 -13    3.74    0.15 
  -5   3  13    3.37    0.18 
   4  -3 -13   13.33    0.41 
   4  -3 -13   12.57    0.39 
  -4   3  13   12.02    0.41 
   3  -3 -13    1.98    0.13 
   3  -3 -13    1.83    0.12 
   2  -3 -13    5.75    0.22 
   2  -3 -13    6.38    0.25 
  -2   3  13    5.96    0.21 
   1  -3 -13   21.38    0.61 
   1  -3 -13   22.49    0.64 
  -1   3  13   21.28    0.59 
   0  -3 -13    0.10    0.05 
   0  -3 -13    0.10    0.06 
   0   3  13    0.01    0.05 
  -1  -3 -13    0.99    0.09 
  -1  -3 -13    0.82    0.09 
  -2  -3 -13    0.96    0.08 
   5  -4 -13    0.36    0.05 
  -5   4  13    0.16    0.06 
   4  -4 -13    4.83    0.18 
  -4   4  13    4.64    0.20 
   3  -4 -13    1.16    0.10 
  -3   4  13    1.31    0.11 
   2  -4 -13    4.86    0.19 
   2  -4 -13    4.83    0.19 
  -2   4  13    4.80    0.21 
   1  -4 -13    0.21    0.05 
   1  -4 -13    0.15    0.05 
  -1   4  13    0.29    0.07 
   0  -4 -13   16.36    0.46 
  -1  -4 -13    0.62    0.06 
   3  -5 -13   10.89    0.32 
  -3   5  13   10.96    0.33 
   2  -5 -13    0.11    0.04 
  -2   5  13    0.19    0.05 
   1  -5 -13    0.53    0.05 
   4   9 -14    0.03    0.02 
   3   9 -14    2.23    0.07 
   2   9 -14   -0.03    0.02 
   1   9 -14   11.73    0.23 
   5   8 -14    0.07    0.03 
   4   8 -14    0.13    0.03 
   3   8 -14    0.01    0.02 
   2   8 -14    4.82    0.14 
   2   8 -14    4.84    0.12 
   1   8 -14    4.19    0.12 
   1   8 -14    4.19    0.10 
   0   8 -14    2.03    0.07 
   0   8 -14    1.99    0.06 
  -1   8 -14    3.71    0.11 
  -1   8 -14    3.75    0.09 
  -2   8 -14    0.15    0.03 
  -2   8 -14    0.17    0.02 
  -3   8 -14   11.61    0.29 
   6   7 -14    0.97    0.06 
   5   7 -14    3.16    0.11 
   4   7 -14    1.98    0.09 
   3   7 -14    1.54    0.08 
   2   7 -14    0.15    0.03 
   1   7 -14    1.07    0.06 
   1   7 -14    1.19    0.05 
   0   7 -14   12.95    0.27 
   0   7 -14   12.69    0.33 
  -1   7 -14    0.33    0.04 
  -1   7 -14    0.34    0.03 
  -2   7 -14    6.10    0.18 
  -3   7 -14    0.00    0.03 
  -4   7 -14    1.94    0.08 
   6   6 -14    2.50    0.10 
   6   6 -14    2.39    0.11 
   5   6 -14    2.26    0.10 
   5   6 -14    1.99    0.10 
   4   6 -14    6.60    0.22 
   4   6 -14    6.64    0.20 
   3   6 -14   -0.02    0.04 
   3   6 -14    0.05    0.03 
   2   6 -14    0.56    0.05 
   1   6 -14    0.60    0.05 
   0   6 -14    1.45    0.08 
  -1   6 -14   22.06    0.55 
  -2   6 -14    0.02    0.03 
  -3   6 -14    0.96    0.07 
  -4   6 -14    0.86    0.06 
   7   5 -14    2.58    0.11 
  -7  -5  14    2.39    0.11 
   6   5 -14    0.48    0.06 
   6   5 -14    0.59    0.06 
  -6  -5  14    0.55    0.07 
   5   5 -14    5.92    0.20 
   5   5 -14    6.41    0.22 
   4   5 -14    0.37    0.06 
   4   5 -14    0.32    0.05 
   3   5 -14    0.83    0.07 
   3   5 -14    0.77    0.07 
   2   5 -14    5.48    0.18 
   2   5 -14    5.69    0.20 
   1   5 -14    0.62    0.07 
   1   5 -14    0.62    0.06 
   0   5 -14    8.92    0.26 
   0   5 -14    8.69    0.27 
  -1   5 -14    0.74    0.07 
  -1   5 -14    0.58    0.06 
  -2   5 -14   24.16    0.64 
  -2   5 -14   23.40    0.60 
  -3   5 -14    6.07    0.20 
  -3   5 -14    5.68    0.19 
  -4   5 -14    0.74    0.06 
  -4   5 -14    0.69    0.07 
  -5   5 -14    4.81    0.15 
   7   4 -14    1.90    0.10 
  -7  -4  14    1.89    0.10 
   6   4 -14    3.39    0.15 
  -6  -4  14    3.27    0.15 
   5   4 -14    0.81    0.07 
   5   4 -14    0.92    0.09 
   4   4 -14    5.07    0.18 
   4   4 -14    4.90    0.20 
   3   4 -14   15.36    0.41 
   3   4 -14   15.20    0.45 
   2   4 -14    2.49    0.13 
   2   4 -14    2.56    0.12 
   1   4 -14   25.36    0.69 
   1   4 -14   25.54    0.64 
   0   4 -14    0.02    0.04 
   0   4 -14    0.05    0.04 
  -1   4 -14    2.83    0.12 
  -1   4 -14    2.88    0.14 
  -2   4 -14    0.17    0.05 
  -2   4 -14    0.27    0.05 
  -3   4 -14   -0.01    0.04 
  -3   4 -14   -0.06    0.03 
  -4   4 -14    1.64    0.09 
  -4   4 -14    1.61    0.10 
  -5   4 -14    0.03    0.03 
  -5   4 -14    0.04    0.03 
   7   3 -14    5.81    0.20 
  -7  -3  14    5.59    0.20 
   6   3 -14    0.17    0.05 
  -6  -3  14    0.19    0.05 
   5   3 -14    6.43    0.23 
  -5  -3  14    6.12    0.23 
   4   3 -14    8.17    0.25 
   4   3 -14    8.20    0.28 
  -4  -3  14    8.21    0.29 
   3   3 -14    0.08    0.05 
   3   3 -14    0.18    0.04 
   2   3 -14    9.77    0.29 
   2   3 -14    9.39    0.32 
   1   3 -14    0.34    0.05 
   1   3 -14    0.37    0.07 
   0   3 -14    0.00    0.04 
   0   3 -14   -0.05    0.05 
  -1   3 -14    0.34    0.07 
  -1   3 -14    0.26    0.05 
  -2   3 -14    1.52    0.11 
  -2   3 -14    1.60    0.09 
  -3   3 -14    1.14    0.08 
  -3   3 -14    1.20    0.10 
   3  -3  14    1.31    0.11 
  -4   3 -14    1.21    0.09 
   4  -3  14    1.24    0.10 
  -5   3 -14    0.39    0.05 
   5  -3  14    0.34    0.05 
   7   2 -14    4.18    0.16 
  -7  -2  14    4.00    0.16 
   6   2 -14    6.57    0.24 
   6   2 -14    6.53    0.26 
  -6  -2  14    6.35    0.24 
   5   2 -14    7.80    0.27 
  -5  -2  14    7.02    0.27 
   4   2 -14    0.12    0.06 
  -4  -2  14    0.21    0.06 
   3   2 -14    7.13    0.27 
   3   2 -14    7.70    0.24 
  -3  -2  14    7.48    0.27 
   2   2 -14    0.07    0.04 
   2   2 -14    0.05    0.05 
  -2  -2  14    0.17    0.07 
   1   2 -14    2.06    0.11 
   1   2 -14    2.11    0.14 
  -1  -2  14    2.13    0.14 
  -1  -2  14    2.42    0.15 
   0   2 -14    0.03    0.04 
   0   2 -14    0.08    0.05 
   0  -2  14    0.04    0.06 
  -1   2 -14    0.64    0.07 
  -1   2 -14    0.72    0.09 
   1  -2  14    0.93    0.10 
  -2   2 -14    5.34    0.21 
  -2   2 -14    4.76    0.19 
   2  -2  14    5.59    0.22 
  -3   2 -14    2.23    0.13 
   3  -2  14    2.33    0.13 
  -4   2 -14    7.77    0.25 
   4  -2  14    7.77    0.25 
   5  -2  14    0.04    0.04 
   7   1 -14    0.21    0.05 
  -7  -1  14    0.26    0.05 
   6   1 -14    2.62    0.14 
   6   1 -14    2.51    0.15 
  -6  -1  14    2.75    0.14 
   5   1 -14    0.10    0.05 
   5   1 -14    0.10    0.06 
  -5  -1  14    0.05    0.05 
   4   1 -14   14.28    0.45 
   4   1 -14   15.27    0.49 
  -4  -1  14   14.53    0.45 
   3   1 -14    4.34    0.19 
  -3  -1  14    4.23    0.20 
   2   1 -14    8.32    0.29 
  -2  -1  14    7.99    0.30 
  -2  -1  14    8.52    0.29 
   1   1 -14    5.78    0.23 
  -1  -1  14    6.01    0.24 
   0   1 -14    3.75    0.18 
   0  -1  14    3.91    0.19 
  -1   1 -14    2.05    0.13 
   1  -1  14    2.22    0.14 
  -2   1 -14    7.03    0.25 
   2  -1  14    6.62    0.25 
  -3   1 -14    2.66    0.14 
   3  -1  14    2.48    0.14 
  -4   1 -14    5.21    0.19 
   4  -1  14    5.17    0.19 
  -7   0  14    3.65    0.14 
  -7   0  14    3.71    0.14 
   6   0 -14    0.17    0.06 
  -6   0  14    0.33    0.06 
   5   0 -14    0.85    0.10 
   5   0 -14    0.63    0.08 
  -5   0  14    0.72    0.08 
   4   0 -14    1.51    0.13 
   4   0 -14    1.40    0.11 
  -4   0  14    1.61    0.12 
  -4   0  14    1.54    0.12 
   3   0 -14   -0.01    0.05 
   3   0 -14    0.01    0.06 
  -3   0  14   -0.01    0.05 
  -3   0  14   -0.01    0.05 
   2   0 -14   10.25    0.34 
   2   0 -14   10.60    0.37 
  -2   0  14   10.04    0.34 
   1   0 -14    0.50    0.08 
   1   0 -14    0.32    0.08 
  -1   0  14    0.33    0.07 
   0   0 -14    0.93    0.09 
   0   0 -14    1.21    0.12 
   0   0  14    1.10    0.10 
  -1   0 -14    0.26    0.07 
  -1   0 -14    0.32    0.06 
   1   0  14    0.32    0.07 
  -2   0 -14   10.82    0.34 
  -2   0 -14   10.64    0.36 
   2   0  14   10.18    0.33 
  -3   0 -14    4.02    0.16 
  -3   0 -14    3.54    0.17 
   3   0  14    3.72    0.15 
   4   0  14    0.19    0.05 
  -6   1  14    3.16    0.13 
   5  -1 -14    4.14    0.19 
  -5   1  14    4.15    0.17 
   4  -1 -14    0.59    0.08 
  -4   1  14    0.48    0.07 
   3  -1 -14    5.04    0.22 
  -3   1  14    4.58    0.20 
   2  -1 -14    0.15    0.07 
   2  -1 -14    0.20    0.06 
  -2   1  14    0.08    0.06 
   1  -1 -14   12.64    0.41 
   1  -1 -14   13.77    0.44 
  -1   1  14   13.01    0.40 
   0  -1 -14    5.05    0.21 
   0  -1 -14    5.22    0.22 
   0   1  14    4.91    0.20 
  -1  -1 -14    6.92    0.26 
  -1  -1 -14    6.08    0.23 
   1   1  14    6.41    0.23 
  -2  -1 -14    6.61    0.25 
   2   1  14    7.22    0.23 
   3   1  14    0.04    0.04 
   5  -2 -14    5.47    0.19 
   4  -2 -14   11.03    0.36 
   4  -2 -14   11.42    0.33 
  -4   2  14   10.80    0.33 
   3  -2 -14    0.79    0.09 
   3  -2 -14    0.65    0.07 
  -3   2  14    0.82    0.08 
   2  -2 -14   12.52    0.41 
   2  -2 -14   13.09    0.38 
  -2   2  14   12.94    0.38 
   1  -2 -14    1.85    0.13 
   1  -2 -14    1.59    0.10 
  -1   2  14    1.67    0.11 
   0  -2 -14   11.03    0.36 
   0   2  14   11.02    0.33 
  -1  -2 -14    6.60    0.24 
   1   2  14    6.65    0.22 
   2   2  14   -0.10    0.03 
   4  -3 -14    0.19    0.04 
   3  -3 -14    5.32    0.18 
   2  -3 -14    0.17    0.06 
   2  -3 -14    0.07    0.04 
   1  -3 -14    5.57    0.19 
   0  -3 -14    4.88    0.17 
   4   8 -15    3.43    0.10 
   3   8 -15    2.86    0.09 
   2   8 -15    0.19    0.03 
   1   8 -15    0.87    0.05 
   0   8 -15    4.06    0.11 
  -1   8 -15    2.64    0.08 
  -2   8 -15    0.15    0.02 
   5   7 -15    1.17    0.06 
   4   7 -15    4.24    0.13 
   3   7 -15    0.22    0.03 
   2   7 -15    0.72    0.05 
   1   7 -15    0.03    0.02 
   0   7 -15    7.52    0.21 
  -1   7 -15    5.85    0.16 
  -2   7 -15    0.41    0.04 
  -3   7 -15    1.17    0.06 
   6   6 -15    2.05    0.08 
   5   6 -15    2.90    0.11 
   5   6 -15    2.99    0.11 
   4   6 -15    0.09    0.03 
   4   6 -15    0.13    0.04 
   3   6 -15    9.71    0.27 
   2   6 -15    1.64    0.08 
   1   6 -15    4.42    0.14 
   0   6 -15    0.91    0.06 
  -1   6 -15    9.26    0.25 
  -2   6 -15   10.61    0.28 
  -3   6 -15    2.14    0.09 
   6   5 -15    1.81    0.09 
   6   5 -15    2.12    0.09 
  -6  -5  15    1.96    0.10 
   5   5 -15    1.17    0.08 
   5   5 -15    1.12    0.07 
   4   5 -15    2.49    0.11 
   4   5 -15    2.37    0.10 
   3   5 -15    0.77    0.06 
   3   5 -15    0.92    0.08 
   2   5 -15    1.72    0.10 
   2   5 -15    1.88    0.09 
   1   5 -15    4.81    0.17 
   1   5 -15    4.81    0.16 
   0   5 -15    1.69    0.09 
   0   5 -15    1.69    0.09 
  -1   5 -15    1.15    0.07 
  -1   5 -15    1.08    0.08 
  -2   5 -15    0.32    0.05 
  -2   5 -15    0.41    0.05 
  -3   5 -15    1.58    0.08 
  -3   5 -15    1.11    0.07 
  -4   5 -15    0.05    0.03 
   6   4 -15    0.44    0.06 
  -6  -4  15    0.45    0.06 
   5   4 -15   14.33    0.40 
   5   4 -15   13.55    0.37 
  -5  -4  15   13.62    0.41 
   4   4 -15    2.17    0.10 
   4   4 -15    2.15    0.12 
   3   4 -15    2.09    0.10 
   3   4 -15    2.12    0.12 
   2   4 -15    6.36    0.20 
   2   4 -15    6.54    0.23 
   1   4 -15    0.48    0.06 
   1   4 -15    0.47    0.05 
   0   4 -15   13.82    0.38 
   0   4 -15   13.99    0.41 
  -1   4 -15    0.65    0.07 
  -1   4 -15    0.76    0.07 
  -2   4 -15    5.10    0.18 
  -2   4 -15    4.99    0.17 
  -3   4 -15    0.39    0.05 
  -3   4 -15    0.37    0.05 
  -7  -3  15    0.61    0.06 
   6   3 -15    1.48    0.09 
  -6  -3  15    1.45    0.10 
   5   3 -15   -0.03    0.04 
  -5  -3  15   -0.02    0.04 
   4   3 -15    6.61    0.23 
   4   3 -15    6.07    0.20 
  -4  -3  15    6.54    0.24 
   3   3 -15    1.15    0.10 
   3   3 -15    1.10    0.08 
  -3  -3  15    1.27    0.11 
   2   3 -15    7.98    0.27 
   2   3 -15    7.81    0.24 
   1   3 -15    4.32    0.18 
   1   3 -15    4.68    0.17 
   0   3 -15    0.36    0.05 
   0   3 -15    0.31    0.06 
  -1   3 -15    5.83    0.21 
  -1   3 -15    5.56    0.19 
  -2   3 -15    2.20    0.12 
  -2   3 -15    2.20    0.10 
   2  -3  15    2.17    0.13 
  -3   3 -15    4.06    0.14 
  -3   3 -15    4.14    0.16 
   3  -3  15    3.92    0.16 
  -7  -2  15    2.72    0.12 
   6   2 -15    1.27    0.09 
  -6  -2  15    1.22    0.09 
   5   2 -15    5.45    0.20 
  -5  -2  15    5.02    0.20 
   4   2 -15   10.17    0.32 
  -4  -2  15    9.79    0.32 
   3   2 -15    0.09    0.05 
  -3  -2  15    0.10    0.06 
  -3  -2  15    0.04    0.05 
   2   2 -15   25.09    0.70 
  -2  -2  15   25.56    0.70 
  -2  -2  15   25.90    0.71 
   1   2 -15    3.77    0.17 
   1   2 -15    3.92    0.16 
  -1  -2  15    3.63    0.17 
   0   2 -15    1.06    0.10 
   0  -2  15    1.03    0.10 
  -1   2 -15    7.76    0.25 
   1  -2  15    6.75    0.25 
  -2   2 -15    2.58    0.13 
   2  -2  15    2.25    0.13 
  -3   2 -15    4.10    0.16 
   3  -2  15    3.99    0.16 
   6   1 -15    2.85    0.13 
  -6  -1  15    2.65    0.12 
  -6  -1  15    2.82    0.13 
   5   1 -15    0.45    0.06 
   5   1 -15    0.38    0.07 
  -5  -1  15    0.36    0.06 
  -5  -1  15    0.50    0.07 
   4   1 -15    1.30    0.12 
   4   1 -15    1.09    0.10 
  -4  -1  15    1.21    0.11 
  -4  -1  15    1.37    0.11 
   3   1 -15    7.59    0.26 
  -3  -1  15    7.39    0.26 
  -3  -1  15    7.12    0.26 
   2   1 -15    0.09    0.05 
  -2  -1  15    0.20    0.06 
   1   1 -15    1.81    0.12 
  -1  -1  15    1.68    0.12 
   0   1 -15    0.75    0.08 
   0  -1  15    1.16    0.10 
  -1   1 -15    5.59    0.21 
   1  -1  15    6.04    0.22 
  -2   1 -15    4.99    0.19 
   2  -1  15    5.05    0.19 
  -3   1 -15    0.13    0.04 
   3  -1  15    0.12    0.04 
  -6   0  15   11.19    0.32 
   5   0 -15   -0.02    0.04 
  -5   0  15   -0.03    0.04 
   4   0 -15    0.28    0.06 
   4   0 -15    0.17    0.06 
  -4   0  15    0.31    0.06 
   3   0 -15    0.11    0.06 
   3   0 -15    0.43    0.07 
  -3   0  15    0.29    0.06 
   2   0 -15    5.29    0.20 
   2   0 -15    5.22    0.22 
  -2   0  15    5.05    0.20 
   1   0 -15    1.80    0.13 
   1   0 -15    1.71    0.12 
  -1   0  15    1.87    0.12 
   0   0 -15    0.27    0.07 
   0   0 -15    0.39    0.06 
   0   0  15    0.42    0.07 
  -1   0 -15    1.50    0.12 
  -1   0 -15    1.66    0.11 
   1   0  15    1.78    0.11 
  -2   0 -15    0.00    0.04 
   2   0  15    0.05    0.04 
   3   0  15    5.08    0.17 
  -5   1  15    9.65    0.28 
  -4   1  15    0.71    0.07 
   3  -1 -15    3.74    0.17 
  -3   1  15    4.03    0.16 
   2  -1 -15    0.03    0.05 
  -2   1  15    0.02    0.05 
   1  -1 -15    4.42    0.19 
   1  -1 -15    4.16    0.18 
  -1   1  15    4.22    0.17 
   0  -1 -15    2.37    0.14 
   0   1  15    2.56    0.12 
   1   1  15    0.00    0.04 
   2   1  15    1.52    0.08 
  -3   2  15    2.88    0.12 
  -2   2  15    1.62    0.09 
  -1   2  15    5.07    0.17 
   4   7 -16    3.56    0.11 
   3   7 -16    1.23    0.06 
   2   7 -16    0.98    0.05 
   1   7 -16    5.37    0.15 
   0   7 -16    3.64    0.11 
  -1   7 -16   18.02    0.44 
   4   6 -16    3.24    0.11 
   3   6 -16    1.80    0.08 
   2   6 -16    5.27    0.16 
   1   6 -16    0.06    0.03 
   0   6 -16    9.40    0.25 
  -1   6 -16    2.25    0.09 
  -2   6 -16   15.17    0.38 
   5   5 -16    1.48    0.07 
   4   5 -16    0.03    0.03 
   4   5 -16    0.07    0.03 
   3   5 -16    1.26    0.08 
   3   5 -16    1.46    0.08 
   2   5 -16    1.57    0.08 
   2   5 -16    1.43    0.08 
   1   5 -16    0.24    0.04 
   1   5 -16    0.34    0.04 
   0   5 -16    0.19    0.04 
   0   5 -16    0.10    0.03 
  -1   5 -16    0.08    0.03 
  -1   5 -16    0.03    0.03 
  -2   5 -16    1.11    0.06 
   5   4 -16    0.48    0.05 
  -5  -4  16    0.62    0.06 
   4   4 -16    0.12    0.04 
   4   4 -16    0.06    0.04 
   3   4 -16    2.90    0.13 
   3   4 -16    2.99    0.12 
   2   4 -16   14.75    0.39 
   2   4 -16   14.60    0.41 
   1   4 -16    1.37    0.09 
   1   4 -16    1.56    0.08 
   0   4 -16    1.15    0.08 
   0   4 -16    1.08    0.07 
  -1   4 -16    0.05    0.04 
  -1   4 -16    0.08    0.03 
  -2   4 -16    0.82    0.06 
  -2   4 -16    0.86    0.06 
   5   3 -16    0.17    0.04 
  -5  -3  16    0.24    0.05 
   4   3 -16   -0.01    0.04 
  -4  -3  16   -0.08    0.04 
  -4  -3  16    0.01    0.05 
   3   3 -16   13.18    0.38 
   3   3 -16   12.51    0.35 
  -3  -3  16   13.04    0.38 
  -3  -3  16   12.93    0.38 
   2   3 -16    3.95    0.16 
   2   3 -16    3.76    0.14 
  -2  -3  16    3.61    0.16 
   1   3 -16    0.78    0.07 
   1   3 -16    0.78    0.07 
  -1  -3  16    0.71    0.08 
   0   3 -16    1.99    0.09 
   0   3 -16    1.98    0.11 
   0  -3  16    1.79    0.12 
  -1   3 -16    4.67    0.17 
  -1   3 -16    5.05    0.16 
   1  -3  16    4.98    0.18 
  -2   3 -16    1.44    0.08 
   2  -3  16    1.41    0.09 
   5   2 -16   -0.02    0.03 
  -5  -2  16   -0.04    0.04 
  -5  -2  16   -0.02    0.04 
   4   2 -16   20.82    0.57 
  -4  -2  16   20.67    0.57 
  -4  -2  16   20.76    0.56 
   3   2 -16    0.55    0.07 
  -3  -2  16    0.37    0.07 
   2   2 -16    0.14    0.05 
  -2  -2  16    0.17    0.05 
   1   2 -16    0.21    0.05 
  -1  -2  16    0.12    0.06 
   0   2 -16    1.53    0.10 
   0  -2  16    1.57    0.11 
  -1   2 -16   28.79    0.76 
   1  -2  16   28.67    0.75 
  -2   2 -16    0.03    0.04 
   2  -2  16    0.04    0.04 
  -5  -1  16    1.31    0.09 
   4   1 -16    0.17    0.05 
  -4  -1  16    0.20    0.05 
   3   1 -16    5.73    0.21 
  -3  -1  16    5.99    0.21 
   2   1 -16    5.88    0.21 
  -2  -1  16    6.20    0.21 
   1   1 -16    0.60    0.07 
  -1  -1  16    0.66    0.07 
   0   1 -16    2.72    0.13 
   0  -1  16    2.63    0.13 
  -1   1 -16    1.54    0.09 
   1  -1  16    1.28    0.09 
  -4   0  16    0.17    0.04 
   3   0 -16    9.73    0.29 
  -3   0  16    9.11    0.28 
   2   0 -16    4.01    0.15 
  -2   0  16    3.61    0.15 
   1   0 -16   16.94    0.47 
  -1   0  16   16.67    0.46 
   0   0 -16    0.07    0.04 
   0   0  16    0.16    0.05 
   1   0  16    0.03    0.04 
   2   6 -17    1.55    0.07 
   1   6 -17    1.96    0.07 
   3   5 -17    0.43    0.04 
   2   5 -17    0.00    0.03 
   1   5 -17    0.10    0.03 
   0   5 -17    1.10    0.06 
   3   4 -17    1.14    0.06 
   2   4 -17    0.03    0.03 
   2   4 -17    0.04    0.03 
   1   4 -17    1.59    0.08 
   1   4 -17    1.55    0.08 
   0   4 -17    0.24    0.04 
   3   3 -17    1.44    0.08 
   2   3 -17    8.03    0.24 
  -2  -3  17    8.15    0.25 
   1   3 -17    5.96    0.19 
  -3  -2  17   10.12    0.30 
   2   2 -17    0.36    0.05 
  -2  -2  17    0.49    0.06 
  -1  -2  17    0.69    0.06 
;
loop_
_symmetry_equiv_pos_as_xyz
x,y,z
-x,-y,-z
loop_
_atom_site_label
_atom_site_type_symbol
_atom_site_fract_x
_atom_site_fract_y
_atom_site_fract_z
_atom_site_U_iso_or_equiv
_atom_site_occupancy
_atom_site_adp_type
_atom_site_refinement_flags_posn
Zn1 Zn 0.5000 0.5000 1.0000 0.0141 1.0000 Uani S
O1 O 0.61405(12) 0.62532(11) 0.90796(8) 0.0219 1.0000 Uani .
C3 C 0.71092(17) 0.74557(17) 0.95855(12) 0.0241 1.0000 Uani .
C4 C 0.6179(2) 0.86435(17) 0.96509(13) 0.0286 1.0000 Uani .
C5 C 0.49693(19) 0.81014(19) 0.87515(14) 0.0319 1.0000 Uani .
C6 C 0.52517(18) 0.66173(18) 0.83014(12) 0.0255 1.0000 Uani .
N1 N 0.30940(12) 0.58524(12) 0.97677(9) 0.0141 1.0000 Uani .
C8 C 0.19852(15) 0.53691(15) 0.89796(11) 0.0159 1.0000 Uani .
C9 C 0.19532(15) 0.41809(15) 0.81755(10) 0.0155 1.0000 Uani .
C10 C 0.06228(15) 0.38415(14) 0.74028(11) 0.0158 1.0000 Uani .
C11 C 0.06612(16) 0.38514(15) 0.64378(11) 0.0177 1.0000 Uani .
C12 C -0.06017(16) 0.35771(15) 0.57392(11) 0.0175 1.0000 Uani .
C13 C -0.19386(16) 0.32745(14) 0.59784(11) 0.0160 1.0000 Uani .
C14 C -0.19607(16) 0.32517(16) 0.69459(11) 0.0201 1.0000 Uani .
C15 C -0.07130(16) 0.35284(16) 0.76446(11) 0.0201 1.0000 Uani .
C16 C -0.33539(16) 0.29336(16) 0.52319(11) 0.0193 1.0000 Uani .
C17 C -0.38404(19) 0.14097(17) 0.50008(14) 0.0309 1.0000 Uani .
C18 C -0.45439(17) 0.37689(17) 0.56877(12) 0.0246 1.0000 Uani .
C19 C -0.31828(19) 0.3229(2) 0.42677(12) 0.0314 1.0000 Uani .
C20 C 0.30604(15) 0.32922(15) 0.80494(10) 0.0151 1.0000 Uani .
N2 N 0.43468(12) 0.34611(12) 0.86889(9) 0.0141 1.0000 Uani .
C22 C 0.50960(15) 0.23732(14) 0.83117(10) 0.0143 1.0000 Uani .
C23 C 0.64794(15) 0.21413(14) 0.87386(10) 0.0143 1.0000 Uani .
C24 C 0.73096(15) 0.29732(15) 0.96329(10) 0.0149 1.0000 Uani .
C25 C 0.87159(16) 0.26914(16) 1.00502(11) 0.0195 1.0000 Uani .
C26 C 0.91480(16) 0.37075(16) 1.09066(11) 0.0204 1.0000 Uani .
C27 C 0.71511(15) 0.09902(15) 0.81958(10) 0.0155 1.0000 Uani .
C28 C 0.78054(16) 0.00859(15) 0.77520(11) 0.0189 1.0000 Uani .
Si1 Si 0.91113(4) -0.09821(4) 0.71143(3) 0.0171 1.0000 Uani .
C30 C 0.9318(2) -0.04647(18) 0.59960(13) 0.0293 1.0000 Uani .
C31 C 1.08452(19) -0.0619(2) 0.80035(14) 0.0335 1.0000 Uani .
C32 C 0.8438(2) -0.28202(17) 0.67476(13) 0.0296 1.0000 Uani .
C33 C 0.42640(16) 0.14758(15) 0.74079(11) 0.0179 1.0000 Uani .
C34 C 0.30084(16) 0.20422(15) 0.72465(11) 0.0181 1.0000 Uani .
H31 H 0.7579 0.7400 1.0242 0.0315 1.0000 Uiso R
H32 H 0.7842 0.7502 0.9174 0.0309 1.0000 Uiso R
H41 H 0.5750 0.8841 1.0261 0.0347 1.0000 Uiso R
H42 H 0.6729 0.9474 0.9656 0.0347 1.0000 Uiso R
H51 H 0.3998 0.8137 0.8986 0.0403 1.0000 Uiso R
H52 H 0.4985 0.8596 0.8256 0.0404 1.0000 Uiso R
H61 H 0.5816 0.6518 0.7743 0.0323 1.0000 Uiso R
H62 H 0.4357 0.5983 0.8076 0.0324 1.0000 Uiso R
H111 H 0.1584 0.4062 0.6243 0.0218 1.0000 Uiso R
H121 H -0.0568 0.3590 0.5065 0.0239 1.0000 Uiso R
H141 H -0.2866 0.3050 0.7140 0.0258 1.0000 Uiso R
H151 H -0.0770 0.3549 0.8319 0.0267 1.0000 Uiso R
H171 H -0.4755 0.1205 0.4554 0.0481 1.0000 Uiso R
H172 H -0.3951 0.1212 0.5630 0.0485 1.0000 Uiso R
H173 H -0.3118 0.0851 0.4675 0.0483 1.0000 Uiso R
H181 H -0.5431 0.3541 0.5169 0.0397 1.0000 Uiso R
H182 H -0.4754 0.3539 0.6281 0.0408 1.0000 Uiso R
H183 H -0.4240 0.4749 0.5874 0.0396 1.0000 Uiso R
H193 H -0.4122 0.3003 0.3808 0.0488 1.0000 Uiso R
H192 H -0.2876 0.4205 0.4392 0.0488 1.0000 Uiso R
H191 H -0.2497 0.2662 0.3929 0.0486 1.0000 Uiso R
H251 H 0.9239 0.1922 0.9763 0.0242 1.0000 Uiso R
H261 H 1.0019 0.3813 1.1378 0.0258 1.0000 Uiso R
H301 H 1.0131 -0.0884 0.5711 0.0456 1.0000 Uiso R
H302 H 0.9505 0.0515 0.6198 0.0449 1.0000 Uiso R
H303 H 0.8408 -0.0761 0.5513 0.0451 1.0000 Uiso R
H313 H 1.1551 -0.1169 0.7674 0.0532 1.0000 Uiso R
H312 H 1.0722 -0.0880 0.8594 0.0526 1.0000 Uiso R
H311 H 1.1172 0.0344 0.8172 0.0531 1.0000 Uiso R
H321 H 0.9151 -0.3359 0.6443 0.0485 1.0000 Uiso R
H322 H 0.8244 -0.3095 0.7339 0.0475 1.0000 Uiso R
H323 H 0.7555 -0.2961 0.6280 0.0478 1.0000 Uiso R
H331 H 0.4574 0.0640 0.7004 0.0239 1.0000 Uiso R
H341 H 0.2221 0.1686 0.6688 0.0230 1.0000 Uiso R
loop_
_atom_site_aniso_label
_atom_site_aniso_U_11
_atom_site_aniso_U_22
_atom_site_aniso_U_33
_atom_site_aniso_U_23
_atom_site_aniso_U_13
_atom_site_aniso_U_12
Zn1 0.01254(14) 0.01309(14) 0.01347(14) -0.00084(10) 0.00112(10) 0.00408(10)
O1 0.0222(5) 0.0206(5) 0.0226(5) 0.0066(4) 0.0024(4) 0.0017(4)
C3 0.0188(7) 0.0286(9) 0.0242(8) 0.0086(7) 0.0022(6) -0.0042(6)
C4 0.0377(10) 0.0223(8) 0.0276(9) 0.0079(7) 0.0114(7) -0.0001(7)
C5 0.0279(9) 0.0337(10) 0.0402(10) 0.0206(8) 0.0048(8) 0.0052(7)
C6 0.0242(8) 0.0337(9) 0.0189(8) 0.0105(7) 0.0014(6) -0.0031(7)
N1 0.0140(6) 0.0142(6) 0.0129(6) 0.0015(5) 0.0028(4) 0.0031(4)
C8 0.0142(7) 0.0181(7) 0.0157(7) 0.0053(6) 0.0023(5) 0.0025(5)
C9 0.0145(7) 0.0169(7) 0.0152(7) 0.0048(6) 0.0026(5) 0.0002(5)
C10 0.0157(7) 0.0139(7) 0.0159(7) 0.0023(5) 0.0011(5) 0.0027(5)
C11 0.0164(7) 0.0180(7) 0.0184(7) 0.0040(6) 0.0051(6) 0.0014(5)
C12 0.0220(7) 0.0173(7) 0.0129(7) 0.0039(6) 0.0032(6) 0.0032(6)
C13 0.0184(7) 0.0122(7) 0.0158(7) 0.0028(5) 0.0003(6) 0.0023(5)
C14 0.0148(7) 0.0258(8) 0.0210(8) 0.0098(6) 0.0026(6) -0.0007(6)
C15 0.0194(7) 0.0271(8) 0.0155(7) 0.0092(6) 0.0027(6) 0.0009(6)
C16 0.0184(7) 0.0186(7) 0.0184(7) 0.0044(6) -0.0021(6) 0.0016(6)
C17 0.0292(9) 0.0209(8) 0.0320(9) -0.0006(7) -0.0100(7) -0.0030(7)
C18 0.0200(8) 0.0264(8) 0.0262(8) 0.0078(7) -0.0010(6) 0.0051(6)
C19 0.0271(9) 0.0468(11) 0.0200(8) 0.0126(8) -0.0032(7) 0.0049(8)
C20 0.0146(7) 0.0163(7) 0.0139(7) 0.0038(6) 0.0028(5) -0.0002(5)
N2 0.0132(6) 0.0137(6) 0.0142(6) 0.0021(5) 0.0032(4) 0.0026(4)
C22 0.0166(7) 0.0126(6) 0.0140(7) 0.0031(5) 0.0059(5) 0.0016(5)
C23 0.0166(7) 0.0128(7) 0.0149(7) 0.0039(5) 0.0069(5) 0.0033(5)
C24 0.0157(7) 0.0148(7) 0.0157(7) 0.0049(6) 0.0062(5) 0.0039(5)
C25 0.0187(7) 0.0205(7) 0.0192(7) 0.0048(6) 0.0035(6) 0.0090(6)
C26 0.0178(7) 0.0230(8) 0.0186(7) 0.0041(6) 0.0004(6) 0.0076(6)
C27 0.0169(7) 0.0150(7) 0.0149(7) 0.0047(6) 0.0030(5) 0.0016(5)
C28 0.0210(7) 0.0171(7) 0.0183(7) 0.0032(6) 0.0053(6) 0.0040(6)
Si1 0.0196(2) 0.01459(19) 0.0180(2) 0.00355(15) 0.00756(15) 0.00666(15)
C30 0.0411(10) 0.0269(9) 0.0256(8) 0.0099(7) 0.0171(7) 0.0128(7)
C31 0.0235(8) 0.0413(10) 0.0369(10) 0.0143(8) 0.0027(7) 0.0044(7)
C32 0.0398(10) 0.0162(8) 0.0329(9) 0.0036(7) 0.0129(8) 0.0055(7)
C33 0.0208(7) 0.0141(7) 0.0164(7) 0.0000(6) 0.0047(6) 0.0019(6)
C34 0.0181(7) 0.0170(7) 0.0160(7) 0.0010(6) 0.0015(5) -0.0009(5)
loop_
_atom_type_symbol
_atom_type_scat_dispersion_real
_atom_type_scat_dispersion_imag
_atom_type_scat_Cromer_Mann_a1
_atom_type_scat_Cromer_Mann_b1
_atom_type_scat_Cromer_Mann_a2
_atom_type_scat_Cromer_Mann_b2
_atom_type_scat_Cromer_Mann_a3
_atom_type_scat_Cromer_Mann_b3
_atom_type_scat_Cromer_Mann_a4
_atom_type_scat_Cromer_Mann_b4
_atom_type_scat_Cromer_Mann_c
_atom_type_scat_source
C 0.0181 0.0091 2.3100 20.8439 1.0200 10.2075 1.5886 0.5687 0.8650 51.6512
0.2156 'International Tables Vol C 4.2.6.8 and 6.1.1.4'
H 0.0000 0.0000 0.4930 10.5109 0.3229 26.1257 0.1402 3.1424 0.0408 57.7998
0.0030 'International Tables Vol C 4.2.6.8 and 6.1.1.4'
N 0.0311 0.0180 12.2126 0.0057 3.1322 9.8933 2.0125 28.9975 1.1663 0.5826
-11.5290 'International Tables Vol C 4.2.6.8 and 6.1.1.4'
Si 0.2541 0.3302 6.2915 2.4386 3.0353 32.3337 1.9891 0.6785 1.5410 81.6937
1.1407 'International Tables Vol C 4.2.6.8 and 6.1.1.4'
Zn -1.5491 0.6778 14.0743 3.2655 7.0318 0.2333 5.1652 10.3163 2.4100 58.7097
1.3041 'International Tables Vol C 4.2.6.8 and 6.1.1.4'
O 0.0492 0.0322 3.0485 13.2771 2.2868 5.7011 1.5463 0.3239 0.8670 32.9089
0.2508 'International Tables Vol C 4.2.6.8 and 6.1.1.4'
loop_
_geom_angle_atom_site_label_1
_geom_angle_site_symmetry_1
_geom_angle_atom_site_label_2
_geom_angle_atom_site_label_3
_geom_angle_site_symmetry_3
_geom_angle
_geom_angle_publ_flag
O1 2_667 Zn1 N2 2_667 88.23(4) yes
O1 2_667 Zn1 N1 2_667 91.21(4) yes
N2 2_667 Zn1 N1 2_667 89.39(5) yes
O1 2_667 Zn1 O1 . 180.00 yes
N2 2_667 Zn1 O1 . 91.77(4) yes
N1 2_667 Zn1 O1 . 88.79(4) yes
O1 2_667 Zn1 N1 . 88.79(4) yes
N2 2_667 Zn1 N1 . 90.61(5) yes
N1 2_667 Zn1 N1 . 179.99 yes
O1 . Zn1 N1 . 91.21(4) yes
O1 2_667 Zn1 N2 . 91.77(4) yes
N2 2_667 Zn1 N2 . 179.99 yes
N1 2_667 Zn1 N2 . 90.61(5) yes
O1 . Zn1 N2 . 88.23(4) yes
N1 . Zn1 N2 . 89.39(5) yes
Zn1 . O1 C3 . 120.61(9) yes
Zn1 . O1 C6 . 118.61(9) yes
C3 . O1 C6 . 104.36(12) yes
O1 . C3 C4 . 105.15(13) yes
O1 . C3 H31 . 110.1 no
C4 . C3 H31 . 113.9 no
O1 . C3 H32 . 107.7 no
C4 . C3 H32 . 110.0 no
H31 . C3 H32 . 109.9 no
C3 . C4 C5 . 103.78(14) yes
C3 . C4 H41 . 109.9 no
C5 . C4 H41 . 109.1 no
C3 . C4 H42 . 112.5 no
C5 . C4 H42 . 113.5 no
H41 . C4 H42 . 108.1 no
C4 . C5 C6 . 104.20(13) yes
C4 . C5 H51 . 109.3 no
C6 . C5 H51 . 109.5 no
C4 . C5 H52 . 113.4 no
C6 . C5 H52 . 109.9 no
H51 . C5 H52 . 110.3 no
C5 . C6 O1 . 105.76(13) yes
C5 . C6 H61 . 111.1 no
O1 . C6 H61 . 107.8 no
C5 . C6 H62 . 113.4 no
O1 . C6 H62 . 108.5 no
H61 . C6 H62 . 110.1 no
C24 2_667 N1 Zn1 . 126.31(10) yes
C24 2_667 N1 C8 . 106.63(12) yes
Zn1 . N1 C8 . 127.05(9) yes
C26 2_667 C8 N1 . 109.27(13) yes
C26 2_667 C8 C9 . 124.92(13) yes
N1 . C8 C9 . 125.81(13) yes
C8 . C9 C10 . 116.63(13) yes
C8 . C9 C20 . 125.31(13) yes
C10 . C9 C20 . 118.05(13) yes
C9 . C10 C11 . 121.96(13) yes
C9 . C10 C15 . 120.19(13) yes
C11 . C10 C15 . 117.84(13) yes
C10 . C11 C12 . 120.91(13) yes
C10 . C11 H111 . 119.8 no
C12 . C11 H111 . 119.3 no
C11 . C12 C13 . 121.49(13) yes
C11 . C12 H121 . 120.5 no
C13 . C12 H121 . 118.0 no
C12 . C13 C14 . 117.06(13) yes
C12 . C13 C16 . 123.54(13) yes
C14 . C13 C16 . 119.38(13) yes
C13 . C14 C15 . 121.80(14) yes
C13 . C14 H141 . 119.5 no
C15 . C14 H141 . 118.7 no
C10 . C15 C14 . 120.89(14) yes
C10 . C15 H151 . 119.2 no
C14 . C15 H151 . 119.9 no
C13 . C16 C17 . 108.58(12) yes
C13 . C16 C18 . 109.87(12) yes
C17 . C16 C18 . 108.28(13) yes
C13 . C16 C19 . 112.35(13) yes
C17 . C16 C19 . 108.93(14) yes
C18 . C16 C19 . 108.73(13) yes
C16 . C17 H171 . 108.5 no
C16 . C17 H172 . 109.2 no
H171 . C17 H172 . 110.2 no
C16 . C17 H173 . 109.8 no
H171 . C17 H173 . 108.8 no
H172 . C17 H173 . 110.2 no
C16 . C18 H181 . 107.1 no
C16 . C18 H182 . 111.2 no
H181 . C18 H182 . 109.8 no
C16 . C18 H183 . 110.1 no
H181 . C18 H183 . 109.7 no
H182 . C18 H183 . 108.9 no
C16 . C19 H193 . 109.9 no
C16 . C19 H192 . 110.9 no
H193 . C19 H192 . 108.2 no
C16 . C19 H191 . 111.1 no
H193 . C19 H191 . 106.4 no
H192 . C19 H191 . 110.2 no
C9 . C20 N2 . 125.17(13) yes
C9 . C20 C34 . 125.53(13) yes
N2 . C20 C34 . 109.27(12) yes
C20 . N2 Zn1 . 127.25(9) yes
C20 . N2 C22 . 106.75(12) yes
Zn1 . N2 C22 . 125.94(9) yes
N2 . C22 C23 . 125.54(13) yes
N2 . C22 C33 . 110.03(12) yes
C23 . C22 C33 . 124.43(13) yes
C22 . C23 C24 . 126.14(13) yes
C22 . C23 C27 . 117.73(13) yes
C24 . C23 C27 . 116.05(13) yes
C23 . C24 N1 2_667 125.41(13) yes
C23 . C24 C25 . 124.42(13) yes
N1 2_667 C24 C25 . 110.17(13) yes
C24 . C25 C26 . 106.71(13) yes
C24 . C25 H251 . 126.0 no
C26 . C25 H251 . 127.3 no
C8 2_667 C26 C25 . 107.23(13) yes
C8 2_667 C26 H261 . 124.6 no
C25 . C26 H261 . 128.1 no
C23 . C27 C28 . 175.25(15) yes
C27 . C28 Si1 . 167.32(14) yes
C28 . Si1 C30 . 107.43(7) yes
C28 . Si1 C31 . 106.50(8) yes
C30 . Si1 C31 . 111.13(9) yes
C28 . Si1 C32 . 110.37(8) yes
C30 . Si1 C32 . 110.09(8) yes
C31 . Si1 C32 . 111.19(9) yes
Si1 . C30 H301 . 109.4 no
Si1 . C30 H302 . 107.9 no
H301 . C30 H302 . 109.6 no
Si1 . C30 H303 . 108.7 no
H301 . C30 H303 . 110.7 no
H302 . C30 H303 . 110.5 no
Si1 . C31 H313 . 107.5 no
Si1 . C31 H312 . 110.6 no
H313 . C31 H312 . 108.5 no
Si1 . C31 H311 . 109.1 no
H313 . C31 H311 . 109.7 no
H312 . C31 H311 . 111.4 no
Si1 . C32 H321 . 109.0 no
Si1 . C32 H322 . 110.9 no
H321 . C32 H322 . 109.4 no
Si1 . C32 H323 . 108.1 no
H321 . C32 H323 . 109.8 no
H322 . C32 H323 . 109.5 no
C22 . C33 C34 . 106.77(13) yes
C22 . C33 H331 . 125.1 no
C34 . C33 H331 . 128.1 no
C20 . C34 C33 . 107.17(13) yes
C20 . C34 H341 . 126.1 no
C33 . C34 H341 . 126.7 no
loop_
_geom_bond_atom_site_label_1
_geom_bond_atom_site_label_2
_geom_bond_site_symmetry_2
_geom_bond_distance
_geom_bond_publ_flag
Zn1 O1 2_667 2.4089(11) yes
Zn1 N2 2_667 2.0604(12) yes
Zn1 N1 2_667 2.0515(12) yes
Zn1 O1 . 2.4089(11) yes
Zn1 N1 . 2.0515(12) yes
Zn1 N2 . 2.0604(12) yes
O1 C3 . 1.4371(19) yes
O1 C6 . 1.4416(19) yes
C3 C4 . 1.521(2) yes
C3 H31 . 0.997 no
C3 H32 . 0.974 no
C4 C5 . 1.535(3) yes
C4 H41 . 0.983 no
C4 H42 . 0.975 no
C5 C6 . 1.524(2) yes
C5 H51 . 1.013 no
C5 H52 . 0.987 no
C6 H61 . 1.003 no
C6 H62 . 0.992 no
N1 C24 2_667 1.3656(18) yes
N1 C8 . 1.3741(19) yes
C8 C26 2_667 1.451(2) yes
C8 C9 . 1.408(2) yes
C9 C10 . 1.4962(19) yes
C9 C20 . 1.409(2) yes
C10 C11 . 1.388(2) yes
C10 C15 . 1.394(2) yes
C11 C12 . 1.395(2) yes
C11 H111 . 0.979 no
C12 C13 . 1.390(2) yes
C12 H121 . 0.973 no
C13 C14 . 1.393(2) yes
C13 C16 . 1.5348(19) yes
C14 C15 . 1.384(2) yes
C14 H141 . 0.961 no
C15 H151 . 0.967 no
C16 C17 . 1.537(2) yes
C16 C18 . 1.540(2) yes
C16 C19 . 1.524(2) yes
C17 H171 . 0.967 no
C17 H172 . 0.996 no
C17 H173 . 0.987 no
C18 H181 . 1.001 no
C18 H182 . 0.987 no
C18 H183 . 0.981 no
C19 H193 . 0.994 no
C19 H192 . 0.988 no
C19 H191 . 0.972 no
C20 N2 . 1.3757(18) yes
C20 C34 . 1.445(2) yes
N2 C22 . 1.3642(18) yes
C22 C23 . 1.413(2) yes
C22 C33 . 1.442(2) yes
C23 C24 . 1.410(2) yes
C23 C27 . 1.438(2) yes
C24 C25 . 1.445(2) yes
C25 C26 . 1.352(2) yes
C25 H251 . 0.968 no
C26 H261 . 0.961 no
C27 C28 . 1.209(2) yes
C28 Si1 . 1.8408(15) yes
Si1 C30 . 1.8582(17) yes
Si1 C31 . 1.8636(18) yes
Si1 C32 . 1.8614(17) yes
C30 H301 . 0.974 no
C30 H302 . 0.964 no
C30 H303 . 0.991 no
C31 H313 . 0.973 no
C31 H312 . 0.978 no
C31 H311 . 0.971 no
C32 H321 . 0.958 no
C32 H322 . 1.003 no
C32 H323 . 0.963 no
C33 C34 . 1.356(2) yes
C33 H331 . 0.968 no
C34 H341 . 0.976 no
