#------------------------------------------------------------------------------
#$Date: 2019-08-14 03:26:17 +0300 (Wed, 14 Aug 2019) $
#$Revision: 217514 $
#$URL: file:///home/coder/svn-repositories/cod/cif/1/55/22/1552202.cif $
#------------------------------------------------------------------------------
#
# This file is available in the Crystallography Open Database (COD),
# http://www.crystallography.net/
#
# All data on this site have been placed in the public domain by the
# contributors.
#
data_1552202
loop_
_publ_author_name
'El Abbassi, Maria'
'Zwick, Patrick'
'Rates, Alfredo'
'Stefani, Davide'
'Prescimone, Alessandro'
'Mayor, Marcel'
'van der Zant, Herre S. J.'
'Duli\'c, Diana'
_publ_section_title
;
 Unravelling the conductance path through single-porphyrin junctions
;
_journal_name_full               'Chemical Science'
_journal_paper_doi               10.1039/C9SC02497B
_journal_year                    2019
_chemical_compound_source        'Patrick Zwick'
_chemical_formula_moiety         'C68 H88 N4 O5 Si2 Zn1'
_chemical_formula_sum            'C68 H88 N4 O5 Si2 Zn'
_chemical_formula_weight         1163.02
_chemical_melting_point          ?
_chemical_name_systematic
'[5,15-dimesityl-10,20-bis((trimethylsilyl)ethynyl)porphyrinato]zinc(II)'
_space_group_IT_number           2
_space_group_name_Hall           '-P 1'
_space_group_name_H-M_alt        'P -1'
_symmetry_cell_setting           triclinic
_symmetry_space_group_name_Hall  '-P 1'
_symmetry_space_group_name_H-M   'P -1'
_atom_sites_solution_hydrogens   difmap
_atom_sites_solution_primary     other
_audit_creation_date             2018-05-15
_audit_creation_method           CRYSTALS_ver_14.61_build_6949
_audit_update_record
;
2019-04-16 deposited with the CCDC.    2019-08-13 downloaded from the CCDC.
;
_cell_angle_alpha                111.916(3)
_cell_angle_beta                 107.689(3)
_cell_angle_gamma                94.609(3)
_cell_formula_units_Z            1
_cell_length_a                   10.0930(6)
_cell_length_b                   12.9691(8)
_cell_length_c                   13.7220(8)
_cell_measurement_reflns_used    9904
_cell_measurement_temperature    123
_cell_measurement_theta_max      70
_cell_measurement_theta_min      4
_cell_volume                     1548.96(17)
_computing_cell_refinement       'Apex2 (Bruker AXS, 2006)'
_computing_data_collection       'Apex2 (Bruker AXS, 2006)'
_computing_data_reduction        'Apex2 (Bruker AXS, 2006)'
_computing_molecular_graphics    'CAMERON (Watkin et al., 1996)'
_computing_publication_material  'CRYSTALS (Betteridge et al., 2003)'
_computing_structure_refinement  'CRYSTALS (Betteridge et al., 2003)'
_computing_structure_solution    'Superflip (Palatinus & Chapuis, 2007)'
_diffrn_ambient_temperature      123
_diffrn_measured_fraction_theta_full 0.976
_diffrn_measured_fraction_theta_max 0.946
_diffrn_measurement_device       Area
_diffrn_measurement_device_type  'Bruker Kappa Apex2'
_diffrn_measurement_method       '\f & \w scans'
_diffrn_radiation_monochromator  graphite
_diffrn_radiation_type           'Cu K\a'
_diffrn_radiation_wavelength     1.54180
_diffrn_reflns_av_R_equivalents  0.064
_diffrn_reflns_av_unetI/netI     0.101
_diffrn_reflns_limit_h_max       10
_diffrn_reflns_limit_h_min       -12
_diffrn_reflns_limit_k_max       15
_diffrn_reflns_limit_k_min       -15
_diffrn_reflns_limit_l_max       15
_diffrn_reflns_limit_l_min       -16
_diffrn_reflns_number            16711
_diffrn_reflns_theta_full        68.000
_diffrn_reflns_theta_max         70.441
_diffrn_reflns_theta_min         3.723
_diffrn_standards_number         0
_exptl_absorpt_coefficient_mu    1.331
_exptl_absorpt_correction_T_max  0.96
_exptl_absorpt_correction_T_min  0.71
_exptl_absorpt_correction_type   multi-scan
_exptl_absorpt_process_details   'SADABS (Siemens, 1996)'
_exptl_crystal_colour            violet
_exptl_crystal_density_diffrn    1.247
_exptl_crystal_density_meas      ?
_exptl_crystal_density_method    'not measured'
_exptl_crystal_description       plate
_exptl_crystal_F_000             622
_exptl_crystal_recrystallization_method
; 
THF / MeOH
;
_exptl_crystal_size_max          0.130
_exptl_crystal_size_mid          0.120
_exptl_crystal_size_min          0.030
_refine_diff_density_max         1.13
_refine_diff_density_min         -0.96
_refine_ls_extinction_method     None
_refine_ls_goodness_of_fit_ref   0.9320
_refine_ls_hydrogen_treatment    mixed
_refine_ls_matrix_type           full
_refine_ls_number_parameters     331
_refine_ls_number_reflns         5571
_refine_ls_number_restraints     0
_refine_ls_R_factor_all          0.0999
_refine_ls_R_factor_gt           0.0841
_refine_ls_shift/su_max          0.0002538
_refine_ls_shift/su_mean         0.0000147
_refine_ls_structure_factor_coef Fsqd
_refine_ls_weighting_details
;
 Method= Modified Sheldrick 
 w=1/[\s^2^(F^2^) + ( 0.11P)^2^ + 6.78P] 
 ,where P=(max(Fo^2^,0) + 2Fc^2^)/3 
;
_refine_ls_weighting_scheme      calc
_refine_ls_wR_factor_all         0.2288
_refine_ls_wR_factor_gt          0.2113
_refine_ls_wR_factor_ref         0.2281
_reflns_limit_h_max              11
_reflns_limit_h_min              -12
_reflns_limit_k_max              14
_reflns_limit_k_min              -15
_reflns_limit_l_max              16
_reflns_limit_l_min              0
_reflns_number_gt                4342
_reflns_number_total             5605
_reflns_threshold_expression     I>2.0\s(I)
_oxford_diffrn_Wilson_B_factor   0.00
_oxford_diffrn_Wilson_scale      0.00
_oxford_refine_ls_r_factor_ref   0.0996
_oxford_refine_ls_scale          0.16744(19)
_oxford_reflns_number_all        5577
_oxford_structure_analysis_title 'ZWP405_123K_0m in P-1'
_iucr_refine_instructions_details
;
#
# Punched on 15/05/18 at 14:50:48
#
#LIST     12                                                                    
BLOCK SCALE X'S 
CONT ZN(1,U'S) UNTIL C(29) 
CONT O(30,U[ISO]) UNTIL C(34) 
CONT C(35,U[ISO]) UNTIL C(42) 
CONT O(2,U[ISO]) UNTIL C(1) 
RIDE C   (   8,X'S) H   (  81,X'S) 
RIDE C   (  10,X'S) H   ( 101,X'S) H   ( 102,X'S) H   ( 103,X'S) 
RIDE C   (  11,X'S) H   ( 111,X'S) 
RIDE C   (  13,X'S) H   ( 131,X'S) H   ( 132,X'S) H   ( 133,X'S) 
RIDE C   (  14,X'S) H   ( 141,X'S) H   ( 142,X'S) H   ( 143,X'S) 
RIDE C   (  18,X'S) H   ( 181,X'S) 
RIDE C   (  19,X'S) H   ( 191,X'S) 
RIDE C   (  22,X'S) H   ( 221,X'S) 
RIDE C   (  23,X'S) H   ( 231,X'S) 
RIDE C   (  27,X'S) H   ( 271,X'S) H   ( 272,X'S) H   ( 273,X'S) 
RIDE C   (  28,X'S) H   ( 281,X'S) H   ( 282,X'S) H   ( 283,X'S) 
RIDE C   (  29,X'S) H   ( 291,X'S) H   ( 292,X'S) H   ( 293,X'S) 
RIDE C   (  31,X'S) H   ( 311,X'S) H   ( 312,X'S) 
RIDE C   (  32,X'S) H   ( 321,X'S) H   ( 322,X'S) 
RIDE C   (  33,X'S) H   ( 331,X'S) H   ( 332,X'S) 
RIDE C   (  34,X'S) H   ( 341,X'S) H   ( 342,X'S) 
RIDE C   (  35,X'S) H   ( 351,X'S) H   ( 352,X'S) 
RIDE C   (  36,X'S) H   ( 361,X'S) H   ( 362,X'S) 
RIDE C   (  37,X'S) H   ( 371,X'S) H   ( 372,X'S) 
RIDE C   (  38,X'S) H   ( 381,X'S) H   ( 382,X'S) 
RIDE C   (  39,X'S) H   ( 391,X'S) H   ( 392,X'S) 
RIDE C   (  40,X'S) H   ( 401,X'S) H   ( 402,X'S) 
RIDE C   (  41,X'S) H   ( 411,X'S) H   ( 412,X'S) 
RIDE C   (  42,X'S) H   ( 421,X'S) H   ( 422,X'S) 
RIDE C   (   2,X'S) H   (  21,X'S) H   (  22,X'S) 
RIDE C   (   3,X'S) H   (  31,X'S) H   (  32,X'S) 
RIDE C   (  16,X'S) 
RIDE C   (   1,X'S) 
END                                                                             
#
# Punched on 15/05/18 at 14:50:48
#
#LIST     16                                                                    
NO 
REM   HREST   START (DO NOT REMOVE THIS LINE) 
REM   HREST   END (DO NOT REMOVE THIS LINE) 
END                                                                             
;
_cod_data_source_file            c9sc02497b2.cif
_cod_data_source_block           ZWP405_123K
_cod_depositor_comments
;
The following automatic conversions were performed:

'_chemical_melting_point' value 'not measured' was changed to '?' -
the value is undefined or not given.

'_exptl_crystal_density_meas' value 'not measured' was changed to '?'
- the value is perceived as not measured.

Automatic conversion script
Id: cif_fix_values 4973 2017-02-22 13:04:09Z antanas 
;
_cod_original_sg_symbol_H-M      'P -1 '
_cod_original_formula_sum        'C68 H88 N4 O5 Si2 Zn1'
_cod_database_code               1552202
_oxford_refine_reflns_threshold_expression_ref I>-3.0\s(I)
_iucr_refine_reflections_details
; 
# An asterisk in column 34 indicates a format overflow 
# Data was input as F-squared 
  -1   0   0  110.16    8.34 
  -1   0   0  103.74    8.36 
  -1   0   0  100.41   11.02 
  -1   0   0   92.01   10.93 
  -1   0   0  110.27   12.97 
   1   0   0  104.24    8.96 
  -2   0   0   77.12    8.44 
  -2   0   0   65.46    7.19 
  -2   0   0   56.83    7.11 
  -2   0   0   67.85    6.48 
  -2   0   0   70.02    5.40 
  -2   0   0   59.26    5.39 
   2   0   0   67.47    5.76 
   2   0   0   71.67    5.75 
  -3   0   0    0.17    0.34 
  -3   0   0    0.06    0.30 
  -3   0   0   -0.05    0.09 
  -3   0   0    0.18    0.08 
  -3   0   0    0.16    0.24 
  -3   0   0    0.05    0.37 
   3   0   0    0.15    0.19 
   3   0   0    0.09    0.15 
  -4   0   0    0.70    0.29 
  -4   0   0    1.22    0.48 
  -4   0   0    1.23    0.16 
  -4   0   0    0.74    0.42 
  -4   0   0    1.56    0.51 
  -4   0   0    1.07    0.24 
   4   0   0    1.69    0.23 
  -5   0   0   14.91    1.74 
  -5   0   0   11.41    1.84 
  -5   0   0   13.48    1.42 
  -5   0   0   14.69    1.57 
  -5   0   0   15.75    1.13 
  -6   0   0   30.24    2.47 
  -6   0   0   26.84    3.19 
  -6   0   0   31.89    2.23 
  -6   0   0   27.72    3.03 
  -6   0   0   25.46    2.76 
  -7   0   0   14.69    1.84 
  -7   0   0   13.04    1.64 
  -7   0   0   17.62    1.28 
  -7   0   0   17.98    1.45 
  -8   0   0    0.26    0.24 
  -8   0   0    0.93    0.31 
  -8   0   0    0.62    0.50 
  -8   0   0    0.53    0.53 
  -8   0   0    0.74    0.37 
  -9   0   0    0.34    0.50 
  -9   0   0    0.34    0.37 
  -9   0   0    0.39    0.32 
 -10   0   0    7.97    0.72 
 -10   0   0    7.14    0.78 
 -10   0   0    7.90    0.94 
 -11   0   0    2.42    0.33 
 -11   0   0    1.85    0.35 
 -11   1   0    2.67    0.38 
 -10   1   0    2.45    0.40 
 -10   1   0    2.27    0.42 
 -10   1   0    2.53    0.58 
  -9   1   0    0.22    0.38 
  -9   1   0   -0.23    0.30 
  -9   1   0    0.18    0.52 
  -9   1   0   -0.15    0.26 
  -8   1   0    1.05    0.44 
  -8   1   0    1.79    0.40 
  -8   1   0    1.16    0.28 
  -8   1   0    1.14    0.33 
  -7   1   0    3.64    0.35 
  -7   1   0    3.61    0.50 
  -7   1   0    3.23    0.66 
  -7   1   0    2.86    0.54 
  -6   1   0   74.34    7.98 
  -6   1   0   87.84    6.00 
  -6   1   0   80.56    6.57 
  -6   1   0   69.79    7.30 
  -5   1   0   24.49    2.30 
  -5   1   0   25.35    1.85 
  -5   1   0   23.94    2.53 
  -5   1   0   19.34    2.60 
  -4   1   0    6.59    1.09 
  -4   1   0    7.09    0.76 
  -4   1   0    6.92    0.55 
  -4   1   0    6.47    0.80 
  -4   1   0    6.50    0.71 
  -4   1   0    7.62    0.99 
  -4   1   0    6.47    0.93 
  -4   1   0    7.28    0.95 
  -4   1   0    5.62    0.62 
   3  -1   0  199.89   16.16 
   3  -1   0  204.89   16.15 
   3  -1   0  164.70   15.65 
  -3   1   0  193.00   19.92 
  -3   1   0  183.46   15.14 
  -3   1   0  195.20   15.15 
  -3   1   0  193.32   17.13 
  -3   1   0  182.28   20.07 
  -3   1   0  198.01   23.66 
  -3   1   0  198.95   18.16 
  -3   1   0  157.99   14.11 
   2  -1   0   27.33    2.30 
   2  -1   0   26.68    2.31 
  -2   1   0   23.98    2.15 
  -2   1   0   27.36    2.63 
  -2   1   0   28.63    2.15 
  -2   1   0   23.86    3.44 
  -2   1   0   26.58    2.86 
   1  -1   0  210.32   18.90 
   1  -1   0  240.69   18.93 
  -1   1   0  226.72   27.63 
  -1   1   0  235.60   17.74 
  -1   1   0  218.90   18.92 
  -1   1   0  197.96   17.75 
  -1   1   0  213.04   23.27 
  -1   1   0  218.19   18.93 
   0  -1   0  139.03   15.78 
   0  -1   0  143.87   12.54 
   0  -1   0  159.68   12.57 
   0   1   0  135.83   12.53 
   0   1   0  141.39   15.68 
   0   1   0  152.03   12.59 
  -1  -1   0   39.29    4.50 
  -1  -1   0   39.25    3.39 
  -1  -1   0   46.05    3.38 
  -1  -1   0   39.86    3.61 
   1   1   0   43.07    3.62 
   1   1   0   42.42    3.63 
  -2  -1   0   64.14    7.16 
  -2  -1   0   71.23    5.37 
  -2  -1   0   70.78    5.38 
  -2  -1   0   66.10    6.46 
   2   1   0   67.52    5.74 
   2   1   0   59.31    5.75 
  -3  -1   0   36.38    2.88 
  -3  -1   0   36.82    3.53 
  -3  -1   0   35.07    2.61 
  -3  -1   0   33.57    3.88 
  -3  -1   0   37.74    3.92 
  -3  -1   0   34.86    2.88 
   3   1   0   38.41    3.10 
   3   1   0   31.48    3.11 
  -4  -1   0   10.92    1.22 
  -4  -1   0   11.84    1.43 
  -4  -1   0   12.10    1.12 
  -4  -1   0   13.42    1.35 
  -4  -1   0   10.60    0.89 
  -5  -1   0   -0.22    0.51 
  -5  -1   0   -0.06    0.25 
  -5  -1   0   -0.03    0.22 
  -5  -1   0    0.19    0.32 
  -5  -1   0   -0.01    0.27 
  -5  -1   0    0.15    0.13 
  -6  -1   0   46.09    4.58 
  -6  -1   0   45.27    3.33 
  -6  -1   0   38.75    4.08 
  -6  -1   0   45.74    4.47 
  -6  -1   0   42.77    3.66 
  -7  -1   0    0.01    0.19 
  -7  -1   0    0.30    0.74 
  -7  -1   0   -0.31    0.40 
  -8  -1   0    0.76    0.36 
  -8  -1   0    0.48    0.49 
  -8  -1   0    0.31    0.32 
  -9  -1   0    1.68    0.57 
  -9  -1   0    1.88    0.36 
  -9  -1   0    2.36    0.40 
 -10  -1   0    7.71    0.77 
 -10  -1   0    7.57    0.71 
 -11   2   0    0.46    0.22 
 -11   2   0    0.51    0.30 
 -10   2   0    0.62    0.34 
 -10   2   0    0.34    0.52 
  -9   2   0    7.13    0.81 
  -9   2   0    7.94    0.97 
  -9   2   0    6.48    0.80 
  -9   2   0    8.11    0.67 
  -8   2   0   -0.19    0.24 
  -8   2   0   -0.06    0.37 
  -8   2   0   -0.08    0.40 
  -7   2   0   13.77    1.11 
  -7   2   0   14.04    1.28 
  -6   2   0   28.76    4.37 
  -6   2   0   45.30    4.37 
  -6   2   0   31.86    3.60 
  -6   2   0   37.74    3.99 
  -6   2   0   40.79    3.24 
  -6   2   0   41.54    2.93 
  -5   2   0    8.63    1.56 
  -5   2   0   11.99    1.59 
  -5   2   0   13.33    1.31 
  -5   2   0   11.87    1.39 
  -5   2   0   13.03    0.95 
  -5   2   0   13.20    1.86 
  -5   2   0   10.51    1.22 
  -4   2   0   24.94    1.85 
  -4   2   0   24.18    1.89 
  -4   2   0   22.89    1.78 
  -4   2   0   27.14    2.66 
  -4   2   0   20.15    1.89 
  -4   2   0   20.83    2.63 
  -4   2   0   22.61    3.15 
  -4   2   0   25.37    2.43 
  -4   2   0   22.85    1.95 
  -4   2   0   22.74    1.71 
  -4   2   0   20.21    2.19 
  -4   2   0   25.61    2.23 
   3  -2   0    7.52    0.75 
   3  -2   0    8.28    0.73 
  -3   2   0    6.75    0.66 
  -3   2   0    5.71    1.18 
  -3   2   0    7.99    0.57 
  -3   2   0    7.07    0.94 
  -3   2   0    7.82    0.65 
  -3   2   0    7.10    0.80 
  -3   2   0    8.06    0.65 
  -3   2   0    5.75    0.92 
   2  -2   0  426.57   36.63 
   2  -2   0  477.39   36.66 
  -2   2   0  443.51   34.41 
  -2   2   0  440.68   34.40 
  -2   2   0  407.05   36.64 
  -2   2   0  418.37   36.65 
  -2   2   0  385.24   45.12 
   1  -2   0   90.39    7.78 
   1  -2   0   88.37    7.76 
  -1   2   0   89.33    6.77 
  -1   2   0   87.92    7.77 
  -1   2   0   93.72    7.78 
  -1   2   0   89.09    7.51 
  -1   2   0   97.31    7.27 
  -1   2   0   85.84    7.26 
   0  -2   0  285.06   28.01 
   0  -2   0  356.70   27.99 
   0  -2   0  350.17   34.74 
   0   2   0  289.45   28.01 
   0   2   0  352.44   28.05 
  -1  -2   0   79.07    6.18 
  -1  -2   0   80.07    7.42 
  -1  -2   0   68.50    6.61 
  -1  -2   0   77.21    6.61 
  -1  -2   0   69.86    8.19 
   1   2   0   75.56    6.63 
   1   2   0   86.08    6.63 
  -2  -2   0  180.36   12.99 
  -2  -2   0  155.20   12.99 
  -2  -2   0  167.79   17.20 
  -2  -2   0  149.84   17.09 
  -2  -2   0  160.79   15.53 
  -2  -2   0  172.69   11.82 
  -2  -2   0  150.07   13.84 
   2   2   0  173.95   13.87 
   2   2   0  141.06   13.87 
  -3  -2   0    6.97    0.95 
  -3  -2   0    7.26    0.95 
  -3  -2   0    6.17    0.61 
  -3  -2   0    7.49    0.62 
  -3  -2   0    7.08    0.54 
  -3  -2   0    7.39    0.86 
   3   2   0    6.94    0.70 
  -4  -2   0    1.31    0.47 
  -4  -2   0    1.38    0.13 
  -4  -2   0    1.10    0.21 
  -4  -2   0    2.02    0.56 
  -4  -2   0    1.27    0.26 
  -4  -2   0    1.02    0.46 
  -4  -2   0    1.18    0.32 
  -5  -2   0    9.47    1.34 
  -5  -2   0   10.13    1.27 
  -5  -2   0    9.59    1.39 
  -5  -2   0    9.72    0.97 
  -5  -2   0    9.04    1.06 
  -6  -2   0    2.42    0.76 
  -6  -2   0    1.75    0.46 
  -7  -2   0   11.68    1.00 
  -7  -2   0    7.29    1.49 
  -7  -2   0   10.28    0.91 
  -7  -2   0   10.22    0.93 
  -8  -2   0    2.07    0.35 
  -8  -2   0    2.63    0.59 
  -8  -2   0    2.90    0.40 
  -8  -2   0    3.02    0.43 
  -9  -2   0    8.60    0.83 
  -9  -2   0    8.08    0.78 
 -10  -2   0   11.20    0.98 
 -11   3   0    0.02    0.43 
 -11   3   0    0.25    0.29 
 -10   3   0   14.33    1.21 
 -10   3   0   11.55    1.29 
  -9   3   0   -0.29    0.42 
  -9   3   0    0.50    0.27 
  -9   3   0    0.48    0.39 
  -9   3   0    0.34    0.57 
  -8   3   0    1.50    0.30 
  -8   3   0    1.56    0.40 
  -8   3   0    1.76    0.46 
  -7   3   0    3.05    0.51 
  -7   3   0    2.84    0.32 
  -6   3   0    8.99    0.92 
  -6   3   0    9.85    1.57 
  -6   3   0    8.92    0.74 
  -5   3   0   45.53    4.03 
  -5   3   0   41.54    3.26 
  -5   3   0   41.20    5.64 
  -4   3   0   14.05    2.27 
  -4   3   0   15.40    1.22 
  -4   3   0   16.48    1.31 
  -4   3   0   14.73    1.86 
  -4   3   0   16.82    1.18 
  -4   3   0   16.21    1.57 
  -4   3   0   15.25    1.31 
  -4   3   0   14.55    1.36 
  -4   3   0   16.14    1.31 
   3  -3   0   20.27    1.91 
   3  -3   0   19.40    1.94 
  -3   3   0   22.16    1.59 
  -3   3   0   23.74    1.77 
  -3   3   0   24.15    1.76 
  -3   3   0   17.23    2.36 
  -3   3   0   21.64    2.04 
  -3   3   0   22.44    1.70 
  -3   3   0   18.64    2.90 
   2  -3   0   37.78    3.41 
   2  -3   0   38.34    3.30 
  -2   3   0   43.17    3.03 
  -2   3   0   39.49    3.12 
  -2   3   0   35.73    3.28 
  -2   3   0   32.69    2.85 
  -2   3   0   32.91    3.26 
  -2   3   0   36.65    3.03 
   1  -3   0   89.45    7.60 
   1  -3   0   75.67    7.62 
  -1   3   0   90.32    6.62 
  -1   3   0   98.05    7.34 
  -1   3   0   91.42    7.65 
  -1   3   0   78.74    7.62 
  -1   3   0   93.08    7.11 
  -1   3   0   86.77    7.10 
   0  -3   0   28.73    2.94 
   0  -3   0   38.61    2.94 
   0  -3   0   33.16    3.52 
   0   3   0   29.98    2.96 
   0   3   0   35.04    3.00 
   0   3   0   31.05    2.50 
  -1  -3   0    1.56    0.22 
  -1  -3   0    1.84    0.30 
  -1  -3   0    1.66    0.20 
  -1  -3   0    1.96    0.41 
  -1  -3   0    1.92    0.30 
  -1  -3   0    1.46    0.23 
  -1  -3   0    1.81    0.37 
   1   3   0    1.85    0.32 
   1   3   0    1.72    0.37 
   1   3   0    2.12    0.19 
  -2  -3   0    8.46    0.73 
  -2  -3   0    8.28    0.95 
  -2  -3   0    9.47    0.65 
  -2  -3   0    6.98    0.72 
  -2  -3   0    7.78    1.02 
   2   3   0    7.03    0.86 
   2   3   0    9.14    0.86 
  -3  -3   0    2.37    0.54 
  -3  -3   0    2.11    0.28 
  -3  -3   0    2.22    0.23 
  -3  -3   0    2.03    0.49 
  -3  -3   0    2.20    0.54 
  -3  -3   0    1.82    0.31 
  -3  -3   0    2.07    0.27 
  -4  -3   0  108.80    7.81 
  -4  -3   0  110.86   10.39 
  -4  -3   0  119.77   11.53 
  -4  -3   0   99.91    9.79 
  -4  -3   0   91.74    8.59 
  -4  -3   0   99.10   11.40 
  -4  -3   0  117.46    8.60 
  -5  -3   0    2.72    0.89 
  -5  -3   0    1.91    0.41 
  -6  -3   0   14.00    1.81 
  -7  -3   0   -0.06    0.26 
  -7  -3   0    0.11    0.24 
  -7  -3   0    0.00    0.28 
  -8  -3   0   11.81    1.00 
  -8  -3   0   11.08    1.09 
  -8  -3   0   11.82    1.03 
  -9  -3   0   15.56    1.28 
  -9  -3   0   14.44    1.28 
 -10  -3   0    4.22    0.44 
 -11   4   0    5.63    0.68 
 -11   4   0    6.74    0.63 
 -10   4   0   -0.01    0.40 
 -10   4   0   -0.45    0.33 
 -10   4   0   -0.32    0.51 
  -9   4   0    2.33    0.65 
  -9   4   0    0.78    0.41 
  -9   4   0    1.46    0.29 
  -9   4   0    0.66    0.50 
  -8   4   0    5.87    0.51 
  -8   4   0    5.05    0.62 
  -8   4   0    4.10    0.62 
  -8   4   0    6.10    0.87 
  -8   4   0    4.81    0.69 
  -7   4   0    0.96    0.46 
  -7   4   0    1.29    0.24 
  -6   4   0   11.69    1.00 
  -6   4   0   10.87    2.00 
  -6   4   0   14.20    1.20 
  -6   4   0   14.21    1.41 
  -5   4   0   10.52    0.99 
  -5   4   0   12.19    1.17 
  -5   4   0    8.09    1.73 
  -5   4   0   10.46    0.83 
  -5   4   0    9.73    0.88 
  -5   4   0   11.01    0.88 
  -4   4   0   -0.28    0.20 
  -4   4   0    0.30    0.39 
  -4   4   0    0.22    0.14 
  -4   4   0   -0.03    0.30 
  -4   4   0   -0.19    0.19 
  -4   4   0    0.13    0.64 
  -4   4   0   -0.73    0.24 
  -3   4   0   17.10    1.48 
  -3   4   0   17.18    2.45 
  -3   4   0   19.18    1.47 
  -3   4   0   18.29    1.42 
  -3   4   0   16.97    1.72 
  -3   4   0   16.50    1.33 
   2  -4   0    9.78    0.98 
   2  -4   0    9.66    1.03 
  -2   4   0   10.41    0.79 
  -2   4   0    9.72    0.86 
  -2   4   0   11.69    0.88 
  -2   4   0    9.36    1.58 
  -2   4   0    9.16    1.03 
  -2   4   0    9.83    1.03 
   1  -4   0    2.50    0.45 
   1  -4   0    3.34    0.32 
   1  -4   0    3.00    0.43 
  -1   4   0    3.53    0.35 
  -1   4   0    3.27    0.31 
  -1   4   0    3.98    0.39 
  -1   4   0    2.83    0.51 
   0  -4   0    1.02    0.20 
   0  -4   0    1.28    0.35 
   0   4   0    1.22    0.24 
   0   4   0    1.39    0.47 
   0   4   0    2.08    0.24 
  -1  -4   0   49.39    4.83 
  -1  -4   0   47.43    3.60 
  -1  -4   0   44.66    4.28 
  -1  -4   0   49.67    5.23 
   1   4   0   47.49    3.60 
   1   4   0   53.00    3.67 
  -2  -4   0   74.49    7.41 
  -2  -4   0   74.55    8.11 
  -2  -4   0   75.24    6.14 
  -2  -4   0   80.41    5.57 
  -2  -4   0   73.14    8.15 
  -3  -4   0   28.55    1.95 
  -3  -4   0   25.52    2.70 
  -3  -4   0   24.58    2.16 
  -3  -4   0   24.07    2.95 
  -3  -4   0   26.31    2.94 
  -4  -4   0   10.48    0.90 
  -4  -4   0   10.31    0.91 
  -4  -4   0   10.53    0.80 
  -4  -4   0    9.84    1.35 
  -4  -4   0    8.44    1.31 
  -4  -4   0   10.43    1.29 
  -5  -4   0   27.58    3.25 
  -6  -4   0    2.03    0.94 
  -6  -4   0    2.56    0.32 
  -7  -4   0    8.28    0.72 
  -7  -4   0    8.35    0.75 
  -7  -4   0    7.29    0.77 
  -8  -4   0   15.62    1.34 
  -8  -4   0   16.94    1.37 
  -8  -4   0   15.61    1.45 
  -9  -4   0    3.55    0.41 
  -9  -4   0    3.35    0.42 
 -10  -4   0    6.67    0.60 
 -10  -4   0    6.29    0.58 
 -11   5   0    0.03    0.26 
 -11   5   0   -0.18    0.17 
 -10   5   0   -0.28    0.30 
 -10   5   0   -0.22    0.21 
 -10   5   0   -0.48    0.40 
  -9   5   0    5.84    0.52 
  -9   5   0    4.93    0.67 
  -9   5   0    5.45    0.61 
  -9   5   0    4.73    0.55 
  -8   5   0    2.49    0.54 
  -8   5   0    3.25    0.76 
  -8   5   0    3.53    0.38 
  -8   5   0    2.75    0.59 
  -7   5   0    4.64    0.74 
  -7   5   0    5.63    0.49 
  -6   5   0    0.63    0.41 
  -6   5   0    1.07    0.31 
  -6   5   0    0.79    0.18 
  -5   5   0   -0.13    0.19 
  -5   5   0   -0.16    0.14 
  -5   5   0    0.01    0.44 
  -5   5   0   -0.41    0.19 
  -5   5   0   -0.17    0.26 
  -5   5   0   -0.32    0.17 
  -4   5   0   44.99    3.08 
  -4   5   0   37.15    5.52 
  -4   5   0   42.56    3.90 
  -4   5   0   40.13    3.24 
  -4   5   0   40.32    3.40 
  -3   5   0    7.92    0.79 
  -3   5   0    9.18    0.94 
  -3   5   0    8.05    1.43 
  -3   5   0    8.47    0.69 
   2  -5   0   15.99    1.17 
  -2   5   0   13.36    1.55 
  -2   5   0   15.71    1.16 
  -2   5   0   13.52    2.36 
   1  -5   0   10.41    0.82 
  -1   5   0    6.92    1.10 
  -1   5   0   12.75    0.88 
  -1   5   0   10.43    0.82 
  -1   5   0   10.31    0.97 
   0  -5   0   51.51    3.86 
   0  -5   0   61.00    4.65 
   0   5   0   45.56    3.87 
  -1  -5   0   28.31    2.04 
  -1  -5   0   25.07    2.81 
   1   5   0   27.51    2.06 
  -2  -5   0    7.75    1.10 
  -2  -5   0    8.62    1.16 
  -2  -5   0    9.11    0.71 
  -3  -5   0   14.14    1.67 
  -3  -5   0   16.32    1.80 
  -3  -5   0   13.66    1.12 
  -4  -5   0   88.00    6.54 
  -4  -5   0   85.81    8.78 
  -4  -5   0   92.00    7.22 
  -5  -5   0    0.65    1.00 
  -5  -5   0    0.74    0.20 
  -6  -5   0    3.40    0.44 
  -6  -5   0    3.80    0.43 
  -6  -5   0    3.45    0.39 
  -7  -5   0   13.46    1.13 
  -7  -5   0   13.04    1.22 
  -7  -5   0   13.67    1.15 
  -8  -5   0    0.80    0.24 
  -8  -5   0    1.43    0.32 
  -8  -5   0    1.51    0.29 
  -9  -5   0    3.82    0.50 
  -9  -5   0    3.89    0.45 
  -9  -5   0    3.93    0.41 
  -9  -5   0    4.11    0.43 
 -11   6   0   -0.06    0.18 
 -10   6   0    0.80    0.41 
 -10   6   0    0.70    0.57 
  -9   6   0    0.82    0.66 
  -9   6   0    0.77    0.22 
  -8   6   0    3.83    0.64 
  -8   6   0    4.80    0.44 
  -8   6   0    3.85    0.51 
  -8   6   0    4.29    0.61 
  -7   6   0    2.47    0.74 
  -7   6   0    2.50    0.59 
  -7   6   0    1.88    0.28 
  -6   6   0   14.92    1.40 
  -6   6   0   14.86    1.62 
  -5   6   0    6.57    0.65 
  -5   6   0    5.72    0.69 
  -5   6   0    5.05    0.59 
  -5   6   0    6.04    0.54 
  -5   6   0    5.83    0.84 
  -4   6   0    0.50    0.23 
  -4   6   0    0.39    0.47 
  -4   6   0    0.42    0.21 
  -3   6   0   24.07    2.25 
  -3   6   0   22.19    1.87 
  -3   6   0   23.19    1.76 
   2  -6   0   15.78    1.24 
  -2   6   0   18.97    1.32 
  -2   6   0   12.60    1.64 
   1  -6   0   10.58    0.88 
  -1   6   0   11.76    0.94 
  -1   6   0   11.04    0.89 
   0  -6   0    0.13    0.22 
   0   6   0    0.16    0.26 
  -1  -6   0    2.27    0.26 
  -1  -6   0    1.91    0.56 
   1   6   0    2.59    0.32 
  -2  -6   0    1.72    0.24 
  -2  -6   0    1.12    0.45 
  -2  -6   0    0.89    0.36 
  -3  -6   0   36.00    2.68 
  -3  -6   0   35.35    3.73 
  -4  -6   0    1.43    0.28 
  -4  -6   0    1.14    0.36 
  -4  -6   0    1.25    0.57 
  -5  -6   0    1.58    0.25 
  -5  -6   0    1.54    0.35 
  -5  -6   0    1.18    0.35 
  -5  -6   0    1.23    0.21 
  -6  -6   0    5.03    0.57 
  -6  -6   0    5.78    0.52 
  -7  -6   0    0.48    0.23 
  -7  -6   0    0.15    0.13 
  -7  -6   0   -0.03    0.27 
  -8  -6   0    5.71    0.55 
  -8  -6   0    5.24    0.57 
  -8  -6   0    5.20    0.51 
  -8  -6   0    5.30    0.52 
  -9  -6   0   -0.07    0.16 
 -11   7   0   -0.22    0.17 
 -10   7   0    0.38    0.56 
  -9   7   0    8.05    0.85 
  -9   7   0    6.42    0.83 
  -8   7   0   -0.79    0.56 
  -8   7   0   -0.19    0.47 
  -8   7   0    1.04    0.75 
  -7   7   0    9.50    1.24 
  -7   7   0    7.44    0.89 
  -7   7   0   10.03    1.01 
  -7   7   0    7.69    0.97 
   6  -7   0    0.83    0.29 
  -6   7   0    0.66    0.34 
  -6   7   0    0.52    0.52 
  -5   7   0    6.85    0.88 
  -5   7   0    6.40    0.75 
  -5   7   0    6.16    0.56 
  -5   7   0    4.29    0.58 
  -4   7   0    1.57    0.45 
  -4   7   0    1.68    0.58 
  -4   7   0    1.88    0.32 
  -3   7   0    5.75    0.81 
  -3   7   0    6.32    0.57 
  -3   7   0    6.36    0.68 
   2  -7   0   33.76    2.55 
  -2   7   0   38.16    2.67 
  -2   7   0   29.58    3.27 
   1  -7   0    0.67    0.24 
  -1   7   0    0.58    0.27 
  -1   7   0    0.92    0.30 
   0  -7   0    3.59    0.42 
   0   7   0    3.33    0.45 
  -1  -7   0    0.46    0.36 
  -1  -7   0    0.32    0.17 
  -2  -7   0   25.95    1.92 
  -2  -7   0   23.35    2.72 
  -3  -7   0    9.92    0.74 
  -3  -7   0    8.70    1.29 
  -3  -7   0    7.12    0.85 
  -4  -7   0    0.96    0.26 
  -4  -7   0    1.36    0.33 
  -4  -7   0    0.54    0.36 
  -4  -7   0    0.82    0.22 
  -4  -7   0    1.29    0.29 
  -5  -7   0    2.98    0.33 
  -5  -7   0    2.31    0.44 
  -5  -7   0    3.26    0.43 
   5   7   0    2.78    0.42 
  -6  -7   0    0.06    0.20 
  -6  -7   0    0.25    0.25 
   6   7   0    0.09    0.28 
  -7  -7   0    9.10    0.84 
  -7  -7   0    9.69    0.89 
  -7  -7   0    8.95    0.82 
   7   7   0   10.67    0.99 
  -8  -7   0    1.19    0.21 
  -8  -7   0    1.30    0.23 
  -8  -7   0    1.25    0.28 
   8   7   0    1.08    0.29 
 -10   8   0    2.69    0.45 
  -9   8   0    1.27    0.26 
  -9   8   0    1.83    0.70 
  -8   8   0    6.19    0.98 
  -8   8   0    3.87    0.56 
  -8   8   0    5.24    0.69 
  -7   8   0    0.12    0.19 
  -7   8   0    0.29    0.47 
  -7   8   0   -0.57    0.83 
  -6   8   0    5.56    0.75 
  -6   8   0    4.06    0.54 
  -5   8   0   11.30    1.13 
  -5   8   0   14.22    1.32 
  -5   8   0   14.08    1.10 
  -4   8   0    0.93    0.29 
  -4   8   0    1.46    0.34 
  -4   8   0    0.90    0.33 
  -3   8   0    5.43    0.53 
  -3   8   0    4.21    0.51 
  -2   8   0    1.01    0.37 
   1  -8   0    2.87    0.34 
  -1   8   0    1.98    0.43 
  -1   8   0    2.12    0.37 
   0  -8   0    0.88    0.30 
   0   8   0    0.29    0.33 
  -1  -8   0   33.43    3.83 
  -1  -8   0   39.45    3.12 
  -1  -8   0   35.40    2.74 
  -2  -8   0    2.11    0.75 
  -2  -8   0    2.91    0.36 
  -3  -8   0    0.12    0.26 
  -3  -8   0    0.16    0.33 
  -3  -8   0    0.07    0.24 
  -4  -8   0   -0.21    0.34 
  -4  -8   0    0.00    0.20 
  -4  -8   0    0.02    0.32 
  -4  -8   0    0.02    0.22 
   4   8   0    0.00    0.31 
  -5  -8   0    0.26    0.19 
  -5  -8   0    0.35    0.31 
  -6  -8   0   17.55    1.55 
  -6  -8   0   15.97    1.45 
   6   8   0   19.54    1.76 
  -7  -8   0   -0.03    0.26 
  -7  -8   0   -0.21    0.23 
   7   8   0   -0.19    0.26 
   8   8   0   11.94    1.19 
 -10   9   0    0.26    0.21 
   9  -9   0    2.71    0.34 
  -9   9   0    1.89    0.39 
   8  -9   0    2.19    0.34 
  -8   9   0    1.85    0.51 
  -8   9   0    1.57    0.31 
  -8   9   0    1.68    0.86 
  -7   9   0    0.87    0.25 
  -7   9   0    1.52    0.25 
  -7   9   0    1.59    0.41 
  -7   9   0    1.27    0.25 
  -6   9   0    1.88    0.33 
  -6   9   0    1.81    0.66 
  -5   9   0    2.01    0.31 
  -5   9   0    1.79    0.61 
  -5   9   0    2.87    0.68 
  -4   9   0   14.17    1.14 
  -4   9   0   12.64    1.16 
  -3   9   0    1.64    0.35 
  -3   9   0    2.29    0.41 
  -2   9   0    2.65    0.39 
   1  -9   0    0.58    0.33 
   1  -9   0    0.68    0.30 
  -1   9   0    0.83    0.37 
   0  -9   0   43.86    3.46 
   0  -9   0   46.91    3.92 
  -1  -9   0    6.59    1.30 
  -1  -9   0    8.92    0.73 
  -1  -9   0    9.08    0.88 
  -2  -9   0    5.95    0.58 
  -2  -9   0    5.21    0.67 
  -2  -9   0    5.55    0.55 
   2   9   0    5.73    0.71 
  -3  -9   0    0.44    0.25 
  -3  -9   0    0.52    0.36 
   3   9   0    0.43    0.37 
  -4  -9   0    0.82    0.35 
  -4  -9   0    0.77    0.23 
  -4  -9   0    1.38    0.32 
   4   9   0    0.62    0.37 
  -5  -9   0   16.65    1.42 
  -6  -9   0   -0.10    0.23 
  -6  -9   0    0.36    0.26 
   6   9   0    0.01    0.27 
  -7  -9   0   11.34    1.00 
   7   9   0   11.16    1.14 
 -10  10   0    0.75    0.20 
   9 -10   0   -0.19    0.21 
  -9  10   0   -0.10    0.22 
   8 -10   0   -0.07    0.25 
  -8  10   0   -0.53    0.71 
  -8  10   0    0.11    0.18 
  -7  10   0    1.78    0.27 
  -7  10   0    1.30    0.39 
  -7  10   0    1.81    0.35 
  -7  10   0    1.60    0.32 
  -6  10   0    0.62    0.58 
  -6  10   0    0.64    0.39 
  -6  10   0    0.43    0.24 
  -5  10   0   15.41    1.33 
  -5  10   0   11.37    1.32 
  -5  10   0   12.37    1.48 
  -4  10   0   -0.25    0.43 
  -4  10   0   -0.11    0.23 
  -4  10   0    0.03    0.17 
  -4  10   0    0.31    0.57 
  -3  10   0    1.10    0.44 
  -3  10   0    2.21    0.34 
  -3  10   0    2.67    0.50 
  -2  10   0    4.86    0.82 
  -2  10   0    3.27    0.58 
   1 -10   0   21.26    1.93 
   1 -10   0   23.00    1.74 
  -1  10   0   22.14    1.82 
   0 -10   0    1.33    0.40 
   0 -10   0    2.37    0.51 
   0 -10   0    1.45    0.47 
   0  10   0    2.75    0.47 
  -1 -10   0   20.49    1.72 
  -1 -10   0   17.51    1.77 
   1  10   0   20.77    2.00 
  -2 -10   0   10.84    1.08 
  -2 -10   0   11.51    1.02 
   2  10   0   11.28    1.22 
  -3 -10   0    1.16    0.26 
  -3 -10   0    0.72    0.36 
   3  10   0    1.08    0.41 
  -4 -10   0    4.59    0.52 
  -4 -10   0    3.93    0.54 
  -4 -10   0    4.53    0.45 
   4  10   0    4.83    0.60 
   6  10   0   11.56    1.16 
   9 -11   0   -0.08    0.18 
  -9  11   0    0.02    0.18 
   8 -11   0    0.11    0.23 
  -8  11   0    0.02    0.26 
   7 -11   0    0.00    0.26 
  -7  11   0   -0.08    0.26 
  -6  11   0    3.86    0.96 
  -6  11   0    3.74    0.47 
  -5  11   0    0.99    0.27 
  -5  11   0    1.15    0.59 
  -4  11   0   18.58    1.52 
  -4  11   0   16.03    1.87 
  -3  11   0    3.56    0.48 
  -3  11   0    2.77    0.67 
  -3  11   0    1.04    0.43 
  -2  11   0    3.42    0.61 
  -2  11   0    3.01    0.77 
   1 -11   0    2.11    0.43 
   1 -11   0    3.35    0.47 
  -1  11   0    2.33    0.41 
  -1  11   0    2.81    0.66 
   0 -11   0   21.49    2.14 
   0 -11   0   26.20    2.16 
   0  11   0   24.04    2.07 
  -1 -11   0   21.32    1.79 
  -1 -11   0   20.34    1.83 
   1  11   0   20.11    2.08 
  -2 -11   0   -0.15    0.35 
  -2 -11   0   -0.35    0.25 
   2  11   0   -0.05    0.38 
  -3 -11   0    9.67    0.96 
  -3 -11   0   10.76    0.90 
   3  11   0    9.54    1.08 
  -4 -11   0    0.24    0.27 
  -4 -11   0    0.23    0.10 
   4  11   0    0.00    0.30 
   8 -12   0   -0.09    0.19 
  -8  12   0   -0.03    0.20 
   7 -12   0    1.66    0.31 
  -7  12   0    2.07    0.44 
   6 -12   0   -0.20    0.25 
  -6  12   0    0.26    0.27 
  -6  12   0    0.16    0.16 
  -5  12   0    5.05    0.55 
  -4  12   0    0.35    0.23 
  -4  12   0    0.29    0.49 
  -3  12   0    7.12    0.90 
  -3  12   0    6.38    0.74 
   2 -12   0    0.04    0.41 
  -2  12   0   -0.38    0.51 
  -2  12   0   -0.22    0.65 
   1 -12   0    6.52    0.68 
   1 -12   0    5.96    0.68 
  -1  12   0    7.54    0.92 
  -1  12   0    5.62    0.62 
   0 -12   0   39.26    3.51 
   0  12   0   45.02    4.23 
   0  12   0   37.93    3.40 
  -1 -12   0    0.59    0.36 
  -1 -12   0    0.90    0.28 
   1  12   0    0.94    0.37 
   1  12   0    0.66    0.48 
  -2 -12   0    7.02    0.65 
  -2 -12   0    6.53    0.69 
  -3 -12   0    0.11    0.25 
  -3 -12   0    0.18    0.10 
   3  12   0    0.29    0.30 
   4  12   0    1.21    0.31 
   4  12   0    1.92    0.34 
   7 -13   0    0.44    0.19 
  -7  13   0    0.05    0.18 
   6 -13   0    3.65    0.40 
  -6  13   0    3.95    0.39 
   5 -13   0    0.22    0.10 
  -5  13   0    0.57    0.18 
  -5  13   0    1.19    0.37 
   4 -13   0    3.01    0.41 
  -4  13   0    2.94    0.53 
  -4  13   0    3.16    0.42 
   3 -13   0    2.86    0.42 
  -3  13   0    3.42    0.55 
  -3  13   0    3.01    0.44 
   2 -13   0    0.18    0.38 
  -2  13   0    0.43    0.60 
  -2  13   0    0.25    0.48 
   1 -13   0   17.61    1.56 
   1 -13   0   16.39    1.52 
   1 -13   0   17.14    1.55 
  -1  13   0   19.43    1.51 
  -1  13   0   18.31    1.90 
   0 -13   0    2.38    0.46 
   0  13   0    3.20    0.49 
   0  13   0    2.42    0.69 
  -1 -13   0    2.80    0.42 
  -1 -13   0    3.50    0.41 
   1  13   0    3.30    0.56 
   1  13   0    3.60    0.42 
  -2 -13   0    2.16    0.26 
   2  13   0    2.80    0.44 
  -5  14   0    0.07    0.19 
   4 -14   0    1.04    0.25 
  -4  14   0    0.39    0.34 
  -4  14   0    0.83    0.18 
   3 -14   0    0.02    0.22 
  -3  14   0   -0.16    0.33 
  -3  14   0   -0.13    0.17 
   2 -14   0    2.49    0.39 
  -2  14   0    2.18    0.46 
  -1  14   0   -0.11    0.35 
   0  14   0   13.34    1.45 
   1  14  -1    1.16    0.40 
  -1 -14   1    1.09    0.19 
  -1  14  -1   -0.03    0.38 
   1 -14   1   -0.03    0.13 
   1 -14   1   -0.06    0.26 
  -2  14  -1    0.11    0.20 
  -2  14  -1    0.14    0.37 
   2 -14   1    0.02    0.26 
  -3  14  -1    0.31    0.44 
  -4  14  -1    0.07    0.16 
   4 -14   1    0.03    0.26 
  -5  14  -1    0.66    0.54 
  -5  14  -1    1.33    0.24 
   5 -14   1    1.07    0.28 
  -6  14  -1    0.11    0.20 
   3  13  -1    5.77    0.64 
  -3 -13   1    5.00    0.46 
   2  13  -1    0.26    0.43 
  -2 -13   1   -0.28    0.20 
  -2 -13   1    0.02    0.30 
   1  13  -1    0.72    0.33 
  -1 -13   1   -0.22    0.29 
  -1 -13   1   -0.03    0.29 
   0  13  -1   -0.10    0.34 
   0 -13   1   -0.15    0.43 
   0 -13   1    0.02    0.31 
  -1  13  -1    0.07    0.52 
  -1  13  -1    0.26    0.38 
   1 -13   1    0.22    0.34 
   1 -13   1    0.41    0.30 
  -2  13  -1    1.25    0.43 
  -2  13  -1    1.00    0.52 
  -2  13  -1    1.44    0.53 
   2 -13   1    1.75    0.36 
  -3  13  -1    0.24    0.49 
  -4  13  -1    2.43    0.40 
   4 -13   1    2.27    0.38 
  -5  13  -1   -0.16    0.26 
  -5  13  -1   -0.12    0.17 
   5 -13   1   -0.08    0.25 
  -6  13  -1    0.03    0.14 
  -6  13  -1    0.05    0.25 
   6 -13   1   -0.06    0.08 
  -7  13  -1    0.11    0.20 
   7 -13   1    0.04    0.19 
   4  12  -1    2.00    0.38 
   3  12  -1    0.06    0.35 
  -3 -12   1    0.00    0.28 
  -3 -12   1   -0.17    0.10 
   2  12  -1    0.09    0.41 
  -2 -12   1   -0.04    0.36 
  -1 -12   1    4.28    0.54 
  -1 -12   1    4.45    0.49 
  -1 -12   1    4.26    0.55 
   0  12  -1    0.16    0.52 
   0 -12   1    0.33    0.30 
   0 -12   1    0.11    0.43 
  -1  12  -1    1.91    0.39 
  -1  12  -1    4.51    0.65 
   1 -12   1    2.98    0.47 
  -2  12  -1    0.43    0.37 
  -2  12  -1    2.09    0.59 
  -2  12  -1    0.46    0.41 
   2 -12   1    0.67    0.36 
  -3  12  -1    7.97    1.08 
  -4  12  -1    0.66    0.59 
  -4  12  -1    0.26    0.23 
   4 -12   1    0.19    0.11 
  -5  12  -1    8.64    0.79 
  -5  12  -1    7.84    0.90 
   5 -12   1    7.39    0.83 
  -6  12  -1    2.41    0.37 
  -6  12  -1    2.03    0.37 
  -6  12  -1    2.41    0.53 
   6 -12   1    2.79    0.36 
  -7  12  -1    0.61    0.30 
   7 -12   1    0.28    0.24 
  -8  12  -1    2.34    0.39 
   8 -12   1    2.21    0.30 
   6  11  -1    0.00    0.18 
   5  11  -1    1.16    0.32 
  -5 -11   1    0.65    0.26 
   4  11  -1    1.19    0.36 
  -4 -11   1    1.08    0.19 
  -4 -11   1    1.17    0.32 
   3  11  -1   -0.20    0.38 
  -3 -11   1    0.11    0.24 
  -3 -11   1   -0.28    0.31 
   2  11  -1   10.75    1.27 
  -2 -11   1   11.92    1.16 
   1  11  -1    6.85    0.83 
  -1 -11   1    5.96    0.71 
  -1 -11   1    6.79    0.74 
  -1 -11   1    6.94    0.65 
   0  11  -1   12.31    1.10 
   0 -11   1   10.89    0.99 
   0 -11   1   10.56    1.09 
   0 -11   1    9.62    1.11 
  -1  11  -1    0.71    0.34 
  -1  11  -1    1.00    0.56 
   1 -11   1    0.96    0.35 
  -2  11  -1   16.59    1.45 
  -2  11  -1   15.48    1.81 
  -2  11  -1   17.78    1.59 
  -3  11  -1    0.66    0.55 
  -3  11  -1    0.69    0.77 
  -4  11  -1    3.75    0.58 
  -5  11  -1    3.26    0.49 
  -6  11  -1    1.13    0.88 
  -6  11  -1    1.65    0.28 
  -6  11  -1    0.91    0.25 
  -7  11  -1    2.59    0.39 
  -7  11  -1    2.90    0.34 
  -7  11  -1    2.46    0.53 
   7 -11   1    2.81    0.39 
  -8  11  -1    0.24    0.25 
   8 -11   1    0.27    0.23 
  -9  11  -1    0.34    0.19 
   9 -11   1    0.51    0.17 
   7  10  -1   -0.26    0.22 
   6  10  -1    2.67    0.44 
  -6 -10   1    3.15    0.40 
   5  10  -1    3.22    0.49 
  -5 -10   1    3.53    0.61 
  -5 -10   1    3.13    0.44 
   4  10  -1    0.10    0.38 
  -4 -10   1   -0.11    0.29 
  -4 -10   1   -0.08    0.21 
   3  10  -1    1.92    0.47 
  -3 -10   1    2.06    0.31 
  -3 -10   1    1.90    0.42 
   2  10  -1   22.92    2.37 
  -2 -10   1   23.44    2.12 
   1  10  -1   38.27    3.48 
  -1 -10   1   35.97    2.69 
  -1 -10   1   34.04    3.04 
  -1 -10   1   35.42    3.02 
  -1 -10   1   33.75    3.07 
   0 -10   1    7.57    0.68 
   0 -10   1    5.63    0.62 
   0 -10   1    7.71    0.95 
   0 -10   1    7.96    0.85 
  -1  10  -1   18.63    1.61 
   1 -10   1   20.57    1.56 
  -2  10  -1   -0.15    0.37 
   2 -10   1   -0.07    0.31 
  -3  10  -1   14.96    1.52 
  -3  10  -1   12.68    1.17 
  -5  10  -1    2.66    0.70 
  -5  10  -1    3.17    0.67 
  -6  10  -1    5.08    1.13 
  -6  10  -1    4.19    0.58 
  -6  10  -1    7.29    0.80 
  -7  10  -1    0.14    0.18 
  -7  10  -1    0.07    0.32 
  -7  10  -1    0.02    0.19 
   7 -10   1   -0.19    0.25 
  -8  10  -1    0.27    0.30 
  -8  10  -1    0.26    0.20 
   8 -10   1   -0.10    0.24 
  -9  10  -1    0.08    0.23 
   9 -10   1    0.47    0.19 
 -10  10  -1   -0.10    0.17 
   7   9  -1    6.23    0.69 
   6   9  -1    4.66    0.59 
  -6  -9   1    4.48    0.52 
  -6  -9   1    5.31    0.48 
  -6  -9   1    4.76    0.51 
   5   9  -1    8.62    0.92 
  -5  -9   1    9.15    0.80 
  -5  -9   1    7.54    0.83 
  -5  -9   1    8.40    0.73 
  -5  -9   1    7.85    0.88 
   4   9  -1    1.85    0.42 
  -4  -9   1    1.41    0.32 
  -4  -9   1    1.75    0.39 
  -4  -9   1    1.61    0.26 
   3   9  -1   20.61    1.88 
  -3  -9   1   17.91    1.60 
  -3  -9   1   17.56    1.45 
  -3  -9   1   18.08    1.67 
  -2  -9   1   27.52    2.41 
  -2  -9   1   24.31    2.16 
  -2  -9   1   32.41    2.50 
  -1  -9   1    7.38    1.09 
  -1  -9   1    4.92    0.77 
   0   9  -1   47.66    3.34 
   0  -9   1   49.45    3.30 
   0  -9   1   34.47    4.47 
   0  -9   1   41.34    3.74 
  -1   9  -1    8.81    0.83 
   1  -9   1    9.42    0.80 
  -2   9  -1    3.96    0.48 
  -2   9  -1    3.64    0.59 
  -2   9  -1    3.85    0.62 
   2  -9   1    3.30    0.43 
  -3   9  -1    1.40    0.61 
  -3   9  -1    2.15    0.37 
  -3   9  -1    2.85    0.44 
   3  -9   1    2.11    0.36 
  -4   9  -1    0.65    0.27 
  -4   9  -1    0.99    0.36 
  -4   9  -1    0.04    0.37 
  -5   9  -1    6.30    1.03 
  -5   9  -1    6.18    0.84 
  -5   9  -1    6.52    0.66 
  -5   9  -1    6.33    0.90 
  -6   9  -1   -3.76    0.89 
  -6   9  -1    0.00    0.32 
  -6   9  -1   -0.10    0.19 
  -6   9  -1    0.83    0.56 
  -7   9  -1    2.21    0.44 
  -7   9  -1    3.73    0.60 
  -7   9  -1    2.87    0.39 
  -8   9  -1    0.35    0.32 
  -8   9  -1    0.74    0.24 
   8  -9   1    0.37    0.26 
  -9   9  -1    0.03    0.18 
  -9   9  -1   -0.17    0.24 
   9  -9   1   -0.14    0.19 
 -10   9  -1    0.17    0.21 
  10  -9   1    0.25    0.16 
   8   8  -1    8.58    0.84 
  -8  -8   1    7.62    0.70 
  -8  -8   1    8.22    0.71 
  -8  -8   1    8.11    0.75 
   7   8  -1    0.96    0.32 
  -7  -8   1    1.29    0.22 
  -7  -8   1    1.41    0.29 
   6   8  -1   13.50    1.27 
  -6  -8   1   13.23    1.13 
  -6  -8   1   11.46    1.04 
  -6  -8   1   11.47    1.15 
   5   8  -1    2.29    0.40 
  -5  -8   1    2.33    0.41 
  -5  -8   1    2.06    0.28 
  -5  -8   1    1.70    0.52 
   4   8  -1    4.72    0.60 
  -4  -8   1    4.87    0.49 
  -4  -8   1    4.92    0.60 
  -4  -8   1    5.62    0.55 
  -4  -8   1    4.52    0.46 
  -3  -8   1   14.80    1.18 
  -3  -8   1   16.03    1.37 
  -3  -8   1   12.72    1.84 
  -2  -8   1    8.71    1.51 
  -2  -8   1    9.58    0.93 
  -2  -8   1    9.84    1.07 
  -2  -8   1    6.67    0.75 
  -1  -8   1   33.29    3.82 
  -1  -8   1   39.10    2.78 
   0   8  -1    2.01    0.33 
   0  -8   1    1.63    0.28 
  -1   8  -1    0.12    0.35 
  -1   8  -1   -0.21    0.26 
   1  -8   1   -0.14    0.23 
  -2   8  -1    4.05    0.49 
  -2   8  -1    4.95    0.67 
  -2   8  -1    5.38    0.60 
   2  -8   1    4.58    0.47 
  -3   8  -1    1.62    0.58 
  -3   8  -1    1.47    0.29 
  -3   8  -1    1.05    0.32 
  -4   8  -1   10.71    1.05 
  -4   8  -1   13.02    1.01 
  -4   8  -1   13.53    1.43 
   4  -8   1   11.95    1.08 
  -5   8  -1    0.16    0.66 
  -5   8  -1    0.40    0.34 
  -5   8  -1    0.32    0.56 
   5  -8   1    0.94    0.28 
  -6   8  -1    0.23    0.35 
  -6   8  -1    0.72    0.57 
  -6   8  -1    0.53    0.22 
  -7   8  -1    0.63    0.51 
  -7   8  -1    0.72    0.19 
  -7   8  -1    0.97    0.61 
  -7   8  -1    1.18    0.85 
  -7   8  -1    0.53    0.38 
  -8   8  -1    2.38    0.64 
  -8   8  -1    1.66    0.79 
  -9   8  -1   -0.07    0.23 
  -9   8  -1   -0.15    0.17 
 -10   8  -1    0.49    0.24 
  -9  -7   1    4.52    0.42 
  -8  -7   1    0.46    0.18 
  -8  -7   1    0.07    0.13 
  -8  -7   1    1.09    0.27 
  -7  -7   1   14.85    1.30 
  -7  -7   1   15.74    1.40 
  -7  -7   1   16.40    1.35 
  -6  -7   1    6.23    0.59 
  -6  -7   1    5.96    0.67 
  -6  -7   1    6.08    0.66 
  -6  -7   1    5.87    0.56 
  -5  -7   1    1.38    0.28 
  -5  -7   1    0.81    0.21 
  -5  -7   1    1.17    0.35 
  -4  -7   1    8.83    1.39 
  -4  -7   1   10.63    0.77 
  -4  -7   1    8.19    0.78 
  -4  -7   1    9.44    0.91 
  -3  -7   1   11.33    0.84 
  -3  -7   1   12.24    1.42 
  -3  -7   1    7.96    1.11 
  -2  -7   1   43.31    3.88 
  -2  -7   1   44.01    4.47 
  -2  -7   1   35.91    3.04 
  -1  -7   1    0.25    0.20 
  -1  -7   1    0.12    0.32 
   0   7  -1    7.75    0.69 
   0  -7   1    8.38    0.67 
  -1   7  -1    7.60    0.74 
  -1   7  -1    7.29    0.65 
   1  -7   1    7.77    0.64 
  -2   7  -1    2.11    0.46 
  -2   7  -1    1.88    0.29 
  -2   7  -1    2.38    0.41 
  -2   7  -1    1.51    0.88 
   2  -7   1    1.77    0.29 
  -3   7  -1    0.44    0.24 
  -3   7  -1   -0.02    0.36 
  -3   7  -1    0.54    0.49 
  -4   7  -1    1.19    0.57 
  -4   7  -1    0.48    0.24 
  -4   7  -1    0.57    0.23 
  -5   7  -1   11.48    0.88 
  -5   7  -1   11.76    1.27 
  -5   7  -1   11.65    1.08 
  -5   7  -1    8.34    0.92 
   5  -7   1   10.07    0.95 
  -6   7  -1    3.98    0.62 
  -6   7  -1    4.80    0.71 
  -7   7  -1    6.93    0.95 
  -7   7  -1    4.98    0.72 
  -7   7  -1    5.58    0.81 
  -7   7  -1    4.68    0.73 
  -8   7  -1    2.58    0.57 
  -8   7  -1    3.28    0.76 
  -8   7  -1    2.85    0.45 
  -9   7  -1    6.12    0.83 
  -9   7  -1    7.79    0.98 
 -10   7  -1    0.04    0.22 
 -11   7  -1    0.03    0.18 
  -9  -6   1    1.58    0.31 
  -9  -6   1    1.56    0.23 
  -9  -6   1    1.21    0.37 
  -9  -6   1    1.15    0.24 
  -8  -6   1    4.54    0.49 
  -8  -6   1    4.47    0.52 
  -8  -6   1    4.32    0.45 
  -7  -6   1    0.60    0.32 
  -6  -6   1    0.03    0.28 
  -6  -6   1    0.07    0.20 
  -5  -6   1    7.44    1.21 
  -5  -6   1    6.87    0.73 
  -5  -6   1    7.03    0.69 
  -4  -6   1    0.51    0.46 
  -4  -6   1    0.81    0.36 
  -4  -6   1    0.63    0.27 
  -4  -6   1    0.54    0.22 
  -3  -6   1   64.16    4.70 
  -3  -6   1   62.79    6.35 
  -2  -6   1    6.10    1.10 
  -2  -6   1    5.59    0.55 
  -2  -6   1    5.88    0.74 
  -1  -6   1    3.79    0.36 
  -1  -6   1    3.35    0.66 
   0   6  -1    0.36    0.22 
   0   6  -1    0.24    0.26 
   0  -6   1    0.21    0.17 
  -1   6  -1   -0.02    0.21 
  -1   6  -1   -0.01    0.29 
   1  -6   1   -0.29    0.21 
  -2   6  -1   11.32    1.13 
  -2   6  -1   10.24    0.87 
  -2   6  -1   10.85    1.75 
  -2   6  -1   10.85    0.95 
   2  -6   1   10.93    0.88 
  -3   6  -1   20.14    3.28 
  -3   6  -1   21.90    1.89 
  -3   6  -1   23.03    1.77 
  -3   6  -1   27.31    2.28 
  -4   6  -1    9.75    1.79 
  -4   6  -1   10.00    0.80 
  -4   6  -1    8.68    0.84 
  -4   6  -1   11.12    1.13 
  -5   6  -1    0.41    0.54 
  -5   6  -1    0.53    0.22 
  -5   6  -1    0.34    0.39 
   5  -6   1    0.11    0.21 
  -6   6  -1    3.36    0.35 
  -6   6  -1    4.18    0.61 
  -6   6  -1    3.34    0.54 
  -7   6  -1    0.14    0.70 
  -7   6  -1    0.10    0.22 
  -7   6  -1    0.00    0.52 
  -8   6  -1   22.20    2.04 
  -8   6  -1   18.65    1.77 
  -8   6  -1   18.05    1.52 
  -9   6  -1    6.09    0.74 
  -9   6  -1    6.39    0.64 
 -10   6  -1    1.48    0.52 
 -11   6  -1    2.11    0.34 
 -10  -5   1    0.14    0.16 
  -9  -5   1    3.51    0.50 
  -9  -5   1    2.93    0.39 
  -9  -5   1    3.33    0.43 
  -8  -5   1    4.19    0.54 
  -8  -5   1    4.68    0.47 
  -8  -5   1    5.24    0.50 
  -7  -5   1    0.06    0.26 
  -7  -5   1    0.17    0.31 
  -7  -5   1    0.00    0.13 
  -6  -5   1   21.36    1.67 
  -6  -5   1   19.47    1.77 
  -6  -5   1   19.82    1.69 
  -5  -5   1    0.59    0.45 
  -5  -5   1    0.70    0.35 
  -4  -5   1   17.05    1.50 
  -4  -5   1   17.68    1.48 
  -4  -5   1   19.17    2.01 
  -4  -5   1   19.31    1.34 
  -4  -5   1   17.36    2.12 
  -4  -5   1   14.52    1.71 
  -4  -5   1   18.10    2.14 
  -3  -5   1    1.14    0.53 
  -3  -5   1    0.91    0.39 
  -3  -5   1    0.95    0.49 
  -3  -5   1    1.36    0.28 
  -3  -5   1    1.35    0.21 
  -3  -5   1    1.20    0.32 
  -2  -5   1   57.02    5.79 
  -2  -5   1   51.27    5.75 
  -2  -5   1   53.80    4.93 
  -2  -5   1   52.16    5.40 
  -2  -5   1   48.80    3.91 
   1   5  -1    1.69    0.25 
  -1  -5   1    2.13    0.50 
  -1  -5   1    1.88    0.22 
   0   5  -1   14.39    1.32 
   0   5  -1   15.32    1.17 
   0   5  -1   13.85    1.13 
   0  -5   1   15.87    1.13 
   0  -5   1   13.82    1.39 
  -1   5  -1    9.21    1.11 
  -1   5  -1   10.02    0.85 
  -1   5  -1    9.89    0.79 
  -1   5  -1   11.48    0.96 
   1  -5   1    7.34    0.99 
   1  -5   1   11.17    0.80 
  -2   5  -1    3.21    0.42 
  -2   5  -1    3.22    0.48 
  -2   5  -1    3.81    0.86 
  -2   5  -1    2.97    0.33 
   2  -5   1    3.51    0.35 
  -3   5  -1   14.74    1.24 
  -3   5  -1   15.31    1.48 
  -3   5  -1   14.22    1.12 
  -3   5  -1   14.13    2.20 
  -4   5  -1   10.87    1.21 
  -4   5  -1   10.38    1.90 
  -4   5  -1   10.52    1.02 
  -4   5  -1   10.66    0.89 
  -4   5  -1   12.31    0.89 
  -4   5  -1   12.16    1.02 
  -5   5  -1   12.24    1.16 
  -5   5  -1   11.00    1.10 
  -5   5  -1   13.41    0.97 
  -5   5  -1   11.95    0.98 
  -5   5  -1    9.18    2.07 
  -5   5  -1   13.20    1.09 
  -5   5  -1   12.49    1.35 
   5  -5   1   12.56    1.06 
  -6   5  -1    2.14    0.47 
  -6   5  -1    1.51    0.97 
  -6   5  -1    2.89    0.62 
  -6   5  -1    1.71    0.26 
  -7   5  -1    6.24    0.80 
  -7   5  -1    6.28    0.56 
  -8   5  -1   12.29    0.96 
  -8   5  -1   11.47    1.12 
  -8   5  -1   10.22    1.22 
  -8   5  -1   12.74    1.17 
  -9   5  -1    0.19    0.44 
  -9   5  -1    0.91    0.59 
  -9   5  -1   -0.09    0.37 
 -10   5  -1   -0.04    0.31 
 -10   5  -1    0.20    0.21 
 -10   5  -1    0.05    0.40 
 -11   5  -1   -0.05    0.17 
 -10  -4   1   -0.04    0.21 
  -9  -4   1    7.59    0.80 
  -9  -4   1    6.75    0.70 
  -9  -4   1    8.71    0.72 
  -8  -4   1    0.18    0.30 
  -8  -4   1    0.72    0.24 
  -8  -4   1    0.39    0.29 
  -7  -4   1    3.16    0.45 
  -7  -4   1    3.16    0.38 
  -6  -4   1    4.11    0.55 
  -6  -4   1    4.11    0.61 
  -6  -4   1    2.76    0.92 
  -6  -4   1    3.22    0.37 
  -5  -4   1   38.07    3.83 
  -5  -4   1   35.92    3.45 
  -4  -4   1   21.24    1.90 
  -4  -4   1   22.54    2.62 
  -4  -4   1   22.79    2.18 
  -4  -4   1   22.99    1.89 
  -4  -4   1   23.14    2.62 
  -4  -4   1   25.15    2.45 
  -4  -4   1   22.82    1.70 
  -3  -4   1    1.19    0.48 
  -3  -4   1    1.07    0.29 
  -3  -4   1    0.75    0.34 
  -3  -4   1    1.34    0.24 
  -3  -4   1    1.02    0.23 
  -3  -4   1    1.23    0.49 
  -3  -4   1    1.26    0.19 
  -2  -4   1   47.35    5.19 
  -2  -4   1   49.42    5.16 
  -2  -4   1   44.11    4.40 
  -2  -4   1   45.41    4.78 
  -2  -4   1   48.59    3.86 
   1   4  -1    0.86    0.23 
   1   4  -1    1.72    0.30 
   1   4  -1    1.65    0.33 
   1   4  -1    0.84    0.32 
   1   4  -1    1.15    0.18 
  -1  -4   1    0.80    0.29 
  -1  -4   1    1.00    0.27 
  -1  -4   1    1.09    0.33 
  -1  -4   1    0.84    0.18 
  -1  -4   1    0.92    0.20 
  -1  -4   1    1.04    0.16 
  -1  -4   1    0.96    0.26 
   0   4  -1    3.72    0.50 
   0   4  -1    4.95    0.41 
   0   4  -1    3.47    0.53 
   0   4  -1    5.01    0.48 
   0   4  -1    4.21    0.60 
   0  -4   1    3.83    0.43 
   0  -4   1    4.30    0.38 
  -1   4  -1   46.04    3.15 
  -1   4  -1   41.49    3.69 
  -1   4  -1   43.45    3.05 
   1  -4   1   36.87    3.62 
   1  -4   1   36.59    3.65 
  -2   4  -1    0.52    0.15 
  -2   4  -1    0.41    0.34 
  -2   4  -1    0.54    0.24 
  -2   4  -1    0.66    0.27 
  -2   4  -1    0.67    0.20 
  -2   4  -1    0.35    0.51 
  -2   4  -1    0.58    0.18 
  -2   4  -1    0.60    0.24 
   2  -4   1    0.42    0.24 
   2  -4   1    0.54    0.25 
  -3   4  -1    5.76    1.21 
  -3   4  -1    6.32    0.65 
  -3   4  -1    7.89    0.63 
  -3   4  -1    6.81    0.65 
  -3   4  -1    7.41    0.80 
  -3   4  -1    6.61    0.55 
  -4   4  -1  103.97    8.00 
  -4   4  -1  110.20    7.72 
  -4   4  -1  112.47    8.51 
  -4   4  -1   97.60    7.98 
  -4   4  -1  100.12    8.51 
  -4   4  -1   92.44   13.48 
  -4   4  -1  108.40    9.67 
   4  -4   1  111.74    8.52 
  -5   4  -1    1.11    0.21 
  -5   4  -1    0.76    0.20 
  -5   4  -1    1.38    0.82 
  -5   4  -1    0.52    0.22 
  -5   4  -1    0.90    0.25 
  -5   4  -1    1.01    0.46 
  -6   4  -1    0.54    0.39 
  -6   4  -1   -0.03    0.50 
  -6   4  -1    0.76    0.75 
  -6   4  -1   -0.07    0.18 
  -7   4  -1    7.86    0.70 
  -7   4  -1    9.34    0.90 
  -8   4  -1   -0.05    0.28 
  -8   4  -1    0.67    0.45 
  -8   4  -1    0.51    0.38 
  -8   4  -1    0.65    0.57 
  -8   4  -1    0.14    0.25 
  -9   4  -1    3.80    0.60 
  -9   4  -1    5.20    0.75 
  -9   4  -1    3.68    0.55 
  -9   4  -1    3.76    0.43 
 -10   4  -1    0.03    0.46 
 -10   4  -1    0.47    0.33 
 -10   4  -1   -0.09    0.42 
 -11   4  -1    0.50    0.27 
 -11   4  -1    0.92    0.22 
 -10  -3   1    4.79    0.50 
  -9  -3   1    3.50    0.45 
  -9  -3   1    3.91    0.42 
  -8  -3   1   18.77    1.68 
  -8  -3   1   17.35    1.57 
  -8  -3   1   19.86    1.95 
  -8  -3   1   19.90    1.60 
  -7  -3   1    0.91    0.23 
  -7  -3   1    0.41    0.29 
  -7  -3   1    0.94    0.50 
  -7  -3   1    0.83    0.33 
  -6  -3   1   35.66    3.56 
  -6  -3   1   34.53    3.27 
  -6  -3   1   32.27    3.73 
  -5  -3   1    1.75    0.60 
  -5  -3   1    1.52    0.65 
  -5  -3   1    1.25    0.60 
  -5  -3   1    2.35    1.09 
  -5  -3   1    2.07    0.35 
  -4  -3   1   18.63    1.85 
  -4  -3   1   21.27    2.27 
  -4  -3   1   18.81    2.01 
  -4  -3   1   19.47    2.07 
  -3  -3   1   15.56    1.42 
  -3  -3   1   16.68    1.81 
  -3  -3   1   17.50    1.98 
  -3  -3   1   16.70    1.63 
  -3  -3   1   17.82    1.42 
  -3  -3   1   18.02    1.28 
  -3  -3   1   17.91    1.98 
   2   3  -1  401.67   36.83 
  -2  -3   1  454.37   34.53 
  -2  -3   1  367.32   31.43 
  -2  -3   1  477.21   34.54 
  -2  -3   1  432.57   41.31 
  -2  -3   1  446.75   45.35 
  -2  -3   1  425.97   45.68 
   1   3  -1   35.61    3.82 
   1   3  -1   42.76    3.71 
   1   3  -1   49.16    3.86 
  -1  -3   1   44.95    4.72 
  -1  -3   1   46.30    4.70 
  -1  -3   1   43.74    3.83 
  -1  -3   1   40.54    3.84 
  -1  -3   1   45.21    3.56 
  -1  -3   1   47.87    4.31 
   0   3  -1  179.74   14.72 
   0   3  -1  171.12   12.78 
   0   3  -1  155.49   14.66 
   0  -3   1  178.35   14.72 
  -1   3  -1   49.38    4.27 
  -1   3  -1   52.92    4.09 
  -1   3  -1   47.81    4.22 
  -1   3  -1   48.19    3.95 
  -1   3  -1   49.85    3.69 
  -1   3  -1   52.47    3.94 
   1  -3   1   42.22    4.26 
   1  -3   1   44.22    4.23 
  -2   3  -1   33.34    2.69 
  -2   3  -1   40.36    2.97 
  -2   3  -1   33.58    2.80 
  -2   3  -1   37.10    2.98 
  -2   3  -1   37.22    3.09 
  -2   3  -1   36.32    3.23 
   2  -3   1   40.36    3.06 
   2  -3   1   33.13    3.22 
   2  -3   1   35.81    3.24 
  -3   3  -1    0.14    0.21 
  -3   3  -1    0.08    0.15 
  -3   3  -1    0.09    0.52 
  -3   3  -1    0.13    0.12 
  -3   3  -1    0.34    0.20 
  -3   3  -1    0.03    0.30 
  -3   3  -1    0.02    0.22 
  -3   3  -1    0.14    0.29 
   3  -3   1    0.09    0.21 
   3  -3   1    0.27    0.29 
  -4   3  -1   43.65    4.03 
  -4   3  -1   46.35    6.51 
  -4   3  -1   55.53    5.43 
  -4   3  -1   51.55    4.03 
  -4   3  -1   53.13    3.64 
  -4   3  -1   48.17    4.61 
  -4   3  -1   43.53    3.78 
   4  -3   1   53.34    4.03 
  -5   3  -1   16.00    1.49 
  -5   3  -1   17.99    1.81 
  -5   3  -1   18.82    2.64 
  -5   3  -1   15.60    2.17 
  -5   3  -1   18.49    1.39 
  -5   3  -1   19.30    1.49 
  -6   3  -1   15.11    2.36 
  -6   3  -1   16.14    1.39 
  -6   3  -1   14.46    1.19 
  -7   3  -1    0.38    0.21 
  -7   3  -1   -0.23    0.40 
  -8   3  -1    0.05    0.41 
  -8   3  -1    0.19    0.59 
  -8   3  -1    0.34    0.25 
  -8   3  -1   -0.33    0.36 
  -9   3  -1   -0.26    0.38 
  -9   3  -1   -0.30    0.43 
  -9   3  -1   -0.08    0.51 
  -9   3  -1   -0.53    0.26 
 -10   3  -1    5.46    0.66 
 -10   3  -1    7.01    0.81 
 -11   3  -1    0.29    0.39 
 -11   3  -1    0.02    0.28 
 -11  -2   1    4.27    0.43 
 -10  -2   1    0.54    0.28 
 -10  -2   1    0.06    0.31 
  -9  -2   1    7.42    0.73 
  -9  -2   1    6.06    0.68 
  -9  -2   1    7.82    0.93 
  -8  -2   1    0.56    0.53 
  -8  -2   1    0.57    0.53 
  -8  -2   1    0.49    0.34 
  -8  -2   1    0.63    0.32 
  -8  -2   1    0.99    0.26 
  -7  -2   1    9.04    0.83 
  -7  -2   1    6.90    1.41 
  -7  -2   1    9.28    1.04 
  -7  -2   1   10.91    1.17 
  -6  -2   1    0.41    0.61 
  -6  -2   1    0.29    0.16 
  -6  -2   1    0.13    0.19 
  -6  -2   1    0.16    0.28 
  -5  -2   1   -0.05    0.70 
  -5  -2   1   -0.01    0.15 
  -5  -2   1   -0.07    0.47 
  -5  -2   1    0.08    0.13 
  -5  -2   1    0.03    0.26 
  -5  -2   1    0.11    0.32 
  -4  -2   1    7.93    0.99 
  -4  -2   1    8.11    1.06 
  -4  -2   1    7.43    0.86 
  -4  -2   1    7.69    0.80 
  -4  -2   1    8.45    1.14 
   3   2  -1    0.51    0.17 
  -3  -2   1    0.39    0.34 
  -3  -2   1    0.45    0.27 
  -3  -2   1    0.49    0.08 
  -3  -2   1    0.54    0.24 
  -3  -2   1    0.41    0.11 
   2   2  -1  809.11   68.41 
  -2  -2   1  805.32   64.24 
  -2  -2   1  861.28   84.23 
  -2  -2   1  745.65   84.81 
  -2  -2   1  801.07   64.29 
  -2  -2   1  772.02   76.64 
   1   2  -1   18.17    1.52 
   1   2  -1   15.90    1.56 
  -1  -2   1   17.11    1.91 
  -1  -2   1   18.80    1.56 
  -1  -2   1   19.60    1.44 
  -1  -2   1   17.90    1.76 
  -1  -2   1   17.53    1.93 
  -1  -2   1   15.92    1.55 
   0   2  -1    0.25    0.12 
   0   2  -1    0.02    0.17 
   0   2  -1    0.07    0.12 
   0  -2   1    0.11    0.12 
   0  -2   1    0.08    0.17 
  -1   2  -1   31.67    2.76 
  -1   2  -1   27.72    2.56 
  -1   2  -1   31.67    2.64 
  -1   2  -1   36.43    2.73 
  -1   2  -1   32.85    2.55 
  -1   2  -1   32.41    4.03 
   1  -2   1   31.08    2.63 
   1  -2   1   27.01    2.74 
   1  -2   1   31.22    2.76 
  -2   2  -1    0.36    0.20 
  -2   2  -1    0.36    0.17 
  -2   2  -1    0.57    0.20 
  -2   2  -1    0.51    0.23 
  -2   2  -1    0.18    0.26 
  -2   2  -1    0.11    0.28 
  -2   2  -1    0.52    0.19 
  -2   2  -1    0.59    0.50 
   2  -2   1    0.47    0.20 
   2  -2   1    0.21    0.20 
   2  -2   1    0.29    0.19 
  -3   2  -1    1.65    0.34 
  -3   2  -1    1.17    0.38 
  -3   2  -1    1.37    0.23 
  -3   2  -1    1.52    0.15 
  -3   2  -1    1.27    0.55 
  -3   2  -1    0.74    0.38 
  -3   2  -1    1.55    0.22 
   3  -2   1    1.02    0.30 
   3  -2   1    1.35    0.28 
   3  -2   1    1.40    0.18 
   3  -2   1    1.54    0.24 
  -4   2  -1   49.20    3.69 
  -4   2  -1   49.72    3.33 
  -4   2  -1   50.67    5.02 
  -4   2  -1   44.23    4.22 
  -4   2  -1   41.53    3.68 
  -4   2  -1   39.00    5.92 
  -4   2  -1   41.50    3.46 
  -5   2  -1   40.81    4.36 
  -5   2  -1   38.59    3.03 
  -5   2  -1   38.66    3.75 
  -5   2  -1   39.47    4.45 
  -5   2  -1   40.27    5.23 
  -6   2  -1    0.01    0.29 
  -6   2  -1   -0.05    0.37 
  -6   2  -1   -0.31    0.31 
  -6   2  -1   -0.12    0.17 
  -7   2  -1    1.37    0.40 
  -7   2  -1    1.85    0.27 
  -8   2  -1    0.55    0.41 
  -8   2  -1    1.30    0.26 
  -8   2  -1    0.71    0.54 
  -8   2  -1    0.76    0.40 
  -9   2  -1    7.15    0.67 
  -9   2  -1    7.72    0.81 
  -9   2  -1    7.79    0.93 
  -9   2  -1    7.61    0.84 
 -10   2  -1    0.79    0.47 
 -10   2  -1    1.43    0.36 
 -11   2  -1    0.30    0.28 
 -11  -1   1    4.72    0.51 
 -11  -1   1    4.61    0.49 
 -10  -1   1    4.59    0.70 
 -10  -1   1    4.26    0.50 
 -10  -1   1    4.23    0.53 
  -9  -1   1    0.24    0.31 
  -9  -1   1    0.24    0.33 
  -9  -1   1    0.58    0.55 
  -8  -1   1   17.71    1.45 
  -8  -1   1   18.23    1.35 
  -8  -1   1   17.35    1.98 
  -8  -1   1   17.65    1.55 
  -8  -1   1   12.63    1.73 
  -8  -1   1   16.78    1.77 
  -7  -1   1    2.44    1.05 
  -7  -1   1    6.04    0.79 
  -7  -1   1    4.65    0.69 
  -7  -1   1    5.79    0.48 
  -6  -1   1    2.10    0.23 
  -6  -1   1    1.37    0.68 
  -6  -1   1    1.98    0.37 
  -6  -1   1    1.88    0.33 
  -6  -1   1    1.86    0.47 
  -5  -1   1   25.89    2.87 
  -5  -1   1   20.57    2.80 
  -5  -1   1   24.37    2.27 
  -5  -1   1   24.62    1.84 
  -5  -1   1   24.85    2.49 
  -5  -1   1   19.79    2.74 
   4   1  -1    9.97    0.79 
  -4  -1   1    8.79    1.07 
  -4  -1   1    8.92    1.40 
  -4  -1   1    7.97    0.85 
  -4  -1   1    6.22    1.10 
  -3  -1   1   13.39    1.40 
  -3  -1   1   12.64    1.28 
  -3  -1   1    9.60    1.35 
  -2  -1   1   65.09    6.33 
  -2  -1   1   64.42    6.93 
   1   1  -1   75.96    6.84 
  -1  -1   1   74.39    8.67 
  -1  -1   1   93.42    8.75 
  -1  -1   1   84.03    6.63 
   0   1  -1   32.56    2.48 
   0   1  -1   26.77    2.40 
   0   1  -1   29.55    2.49 
   0  -1   1   26.89    2.48 
   0  -1   1   30.85    2.49 
   0  -1   1   24.56    2.40 
  -1   1  -1   33.00    2.80 
  -1   1  -1   35.95    2.78 
  -1   1  -1   33.92    4.39 
  -1   1  -1   36.19    3.00 
  -1   1  -1   34.54    2.91 
  -1   1  -1   33.70    2.99 
   1  -1   1   35.95    2.89 
   1  -1   1   34.33    3.00 
   1  -1   1   31.87    3.00 
  -2   1  -1   19.83    2.00 
  -2   1  -1   19.19    1.75 
  -2   1  -1   17.35    2.19 
  -2   1  -1   22.03    1.63 
  -2   1  -1   19.40    1.77 
  -2   1  -1   20.61    1.65 
  -2   1  -1   18.83    2.64 
   2  -1   1   18.10    1.62 
   2  -1   1   20.88    1.77 
   2  -1   1   21.89    1.73 
   2  -1   1   20.22    1.79 
  -3   1  -1    2.99    0.33 
  -3   1  -1    2.61    0.33 
  -3   1  -1    3.15    0.56 
  -3   1  -1    2.81    0.53 
  -3   1  -1    3.11    0.42 
  -3   1  -1    2.98    0.52 
  -3   1  -1    3.18    0.26 
  -3   1  -1    3.64    0.68 
   3  -1   1    3.63    0.42 
   3  -1   1    3.35    0.45 
   3  -1   1    2.97    0.29 
   3  -1   1    4.05    0.39 
  -4   1  -1   19.09    1.44 
  -4   1  -1   13.79    1.41 
  -4   1  -1   17.55    2.05 
  -4   1  -1   17.61    1.90 
  -4   1  -1   19.69    1.27 
  -4   1  -1   13.69    1.63 
  -4   1  -1   17.12    1.33 
  -4   1  -1   16.67    2.39 
  -4   1  -1   19.19    2.10 
  -5   1  -1    5.91    0.86 
  -5   1  -1   10.12    1.15 
  -5   1  -1    6.53    1.06 
  -5   1  -1    7.69    0.59 
  -5   1  -1    5.82    0.75 
  -5   1  -1    6.80    1.10 
  -6   1  -1   11.52    1.45 
  -6   1  -1   13.93    1.00 
  -6   1  -1    9.74    1.27 
  -6   1  -1   13.87    1.14 
  -7   1  -1    1.10    0.49 
  -7   1  -1    1.43    0.39 
  -7   1  -1    1.36    0.24 
  -8   1  -1   14.91    1.52 
  -8   1  -1   15.59    1.34 
  -8   1  -1   13.83    1.16 
  -8   1  -1   14.27    1.32 
  -8   1  -1   13.32    1.24 
  -9   1  -1    1.17    0.41 
  -9   1  -1    0.75    0.30 
  -9   1  -1    1.87    0.51 
 -10   1  -1    2.00    0.37 
 -10   1  -1    1.58    0.50 
 -10   1  -1    1.24    0.38 
 -11   0   1    6.38    0.62 
 -11   0   1    6.25    0.66 
 -10   0   1    1.71    0.33 
 -10   0   1    2.09    0.59 
 -10   0   1    1.61    0.39 
  -9   0   1   -0.23    0.54 
  -9   0   1    0.63    0.32 
  -9   0   1    0.10    0.36 
  -8   0   1    4.24    0.79 
  -8   0   1    6.85    0.69 
  -8   0   1    5.04    0.93 
  -8   0   1    6.22    0.70 
  -8   0   1    6.75    0.56 
  -8   0   1    6.54    0.63 
  -7   0   1    3.80    1.26 
  -7   0   1    7.31    0.91 
  -7   0   1    8.47    0.67 
  -7   0   1    8.38    0.79 
  -7   0   1    8.78    1.03 
  -6   0   1    7.95    0.89 
  -6   0   1    8.86    0.66 
  -6   0   1    8.18    0.78 
  -6   0   1    6.38    0.77 
  -6   0   1    9.29    1.25 
  -6   0   1    9.00    1.02 
  -6   0   1    6.19    1.23 
  -5   0   1    3.80    0.76 
  -5   0   1    3.53    0.43 
  -5   0   1    3.75    0.77 
  -5   0   1    3.77    0.34 
  -5   0   1    3.13    0.56 
  -5   0   1    5.66    0.70 
  -5   0   1    4.17    0.49 
  -4   0   1   19.74    2.09 
  -4   0   1   22.92    2.70 
  -4   0   1   14.57    2.90 
  -4   0   1   25.28    2.28 
  -3   0   1    0.17    0.32 
  -3   0   1    0.22    0.37 
  -3   0   1    0.29    0.26 
  -2   0   1  193.61   21.52 
  -2   0   1  208.58   21.30 
   1   0  -1  136.18   11.38 
  -1   0   1  128.41   11.38 
  -1   0   1  138.81   14.44 
  -1   0   1  142.89   14.53 
   0   0  -1   71.36    5.69 
   0   0  -1   64.00    5.67 
   0   0  -1   60.38    5.51 
   0   0   1   66.99    5.69 
   0   0   1   67.32    5.67 
  -1   0  -1    5.08    0.48 
  -1   0  -1    5.76    0.48 
  -1   0  -1    5.81    0.55 
  -1   0  -1    5.38    0.78 
  -1   0  -1    5.88    0.53 
   1   0   1    5.58    0.56 
   1   0   1    5.25    0.53 
   1   0   1    5.89    0.54 
  -2   0  -1   50.12    6.33 
  -2   0  -1   53.58    6.39 
  -2   0  -1   64.19    7.51 
  -2   0  -1   64.57    4.79 
  -2   0  -1   61.96    5.75 
  -2   0  -1   61.83    5.12 
  -2   0  -1   56.90    5.12 
  -2   0  -1   60.88    4.80 
   2   0   1   60.18    5.13 
   2   0   1   57.15    5.15 
  -3   0  -1   13.08    1.52 
  -3   0  -1   14.62    1.57 
  -3   0  -1   14.06    1.38 
  -3   0  -1   13.44    0.95 
  -3   0  -1   11.64    1.06 
  -3   0  -1   11.83    1.08 
  -3   0  -1   12.85    1.76 
   3   0   1   10.59    1.20 
   3   0   1   13.45    1.17 
   3   0   1   12.02    1.18 
  -4   0  -1    0.16    0.19 
  -4   0  -1    0.15    0.11 
  -4   0  -1    0.23    0.14 
  -4   0  -1    0.02    0.19 
  -4   0  -1   -0.15    0.45 
  -4   0  -1    0.03    0.36 
  -4   0  -1    0.07    0.27 
  -4   0  -1    0.21    0.13 
  -4   0  -1    0.33    0.43 
  -5   0  -1   49.71    4.42 
  -5   0  -1   41.45    4.36 
  -5   0  -1   37.39    3.98 
  -5   0  -1   46.73    3.27 
  -5   0  -1   38.55    4.81 
  -6   0  -1    1.94    0.24 
  -6   0  -1    2.16    0.35 
  -6   0  -1    2.26    0.49 
  -7   0  -1    9.10    0.86 
  -7   0  -1    8.31    0.87 
  -7   0  -1    8.75    0.72 
  -8   0  -1   10.59    1.05 
  -8   0  -1   10.71    0.89 
  -8   0  -1   11.82    1.21 
  -8   0  -1   10.31    0.97 
  -9   0  -1    0.96    0.31 
  -9   0  -1    0.99    0.53 
  -9   0  -1    0.96    0.37 
 -10   0  -1   -0.49    0.31 
 -10   0  -1    0.15    0.28 
 -11   1   1    1.57    0.33 
 -11   1   1    1.87    0.49 
 -11   1   1    1.20    0.35 
 -10   1   1    2.33    0.61 
 -10   1   1    2.19    0.44 
 -10   1   1    2.27    0.35 
  -9   1   1    0.86    0.39 
  -9   1   1    0.38    0.55 
  -9   1   1    0.51    0.28 
  -9   1   1    0.94    0.33 
  -8   1   1    3.80    0.82 
  -8   1   1    3.24    0.62 
  -8   1   1    3.56    0.46 
  -8   1   1    4.05    0.40 
  -8   1   1    3.18    0.52 
  -8   1   1    3.53    0.52 
  -7   1   1   17.69    1.53 
  -7   1   1   18.32    1.36 
  -7   1   1   17.93    1.99 
  -7   1   1   14.11    1.74 
  -6   1   1    0.00    0.31 
  -6   1   1   -0.08    0.49 
  -6   1   1    0.13    0.41 
  -6   1   1   -0.03    0.16 
  -6   1   1   -0.14    0.29 
  -6   1   1   -0.21    0.57 
  -6   1   1   -0.19    0.28 
  -5   1   1   46.10    4.25 
  -5   1   1   51.04    4.66 
  -5   1   1   43.05    5.07 
  -5   1   1   46.04    3.48 
  -5   1   1   46.24    3.77 
  -5   1   1   37.99    5.05 
  -4   1   1    0.48    0.37 
  -4   1   1    0.25    0.26 
  -4   1   1    0.24    0.64 
  -4   1   1    0.46    0.28 
  -4   1   1    0.70    0.43 
  -4   1   1    0.36    0.73 
  -4   1   1    0.33    0.45 
   3  -1  -1   62.26    5.28 
  -3   1   1   64.33    6.02 
  -3   1   1   64.78    6.60 
  -3   1   1   51.83    4.64 
  -3   1   1   58.14    7.78 
  -3   1   1   67.80    6.57 
   2  -1  -1   70.62    5.35 
   2  -1  -1   51.09    5.30 
  -2   1   1   62.56    6.69 
  -2   1   1   61.14    4.66 
   1  -1  -1  170.87   15.50 
  -1   1   1  197.89   14.54 
  -1   1   1  172.41   15.51 
  -1   1   1  166.87   14.54 
  -1   1   1  175.23   15.02 
  -1   1   1  201.82   15.53 
   0  -1  -1    1.43    0.20 
   0  -1  -1    1.40    0.22 
   0   1   1    1.47    0.23 
   0   1   1    1.52    0.20 
  -1  -1  -1    6.93    0.67 
  -1  -1  -1    6.81    0.66 
  -1  -1  -1    7.98    0.73 
  -1  -1  -1    7.50    0.82 
  -1  -1  -1    9.15    0.77 
   1   1   1    8.03    0.78 
   1   1   1    8.55    0.74 
  -2  -1  -1   99.24    7.70 
  -2  -1  -1  109.40    8.46 
  -2  -1  -1  117.03    8.47 
  -2  -1  -1  107.48   10.13 
  -2  -1  -1  108.89    9.04 
  -2  -1  -1  103.28   11.25 
  -2  -1  -1   96.80    9.02 
   2   1   1   99.28    9.06 
   2   1   1  103.03    9.04 
  -3  -1  -1   25.16    2.16 
  -3  -1  -1   27.63    1.96 
  -3  -1  -1   27.59    2.65 
  -3  -1  -1   25.29    2.17 
  -3  -1  -1   26.46    3.00 
  -3  -1  -1   26.12    2.96 
  -4  -1  -1   97.07   10.21 
  -4  -1  -1   87.85    7.65 
  -4  -1  -1  101.61    6.95 
  -4  -1  -1   93.40    7.67 
  -4  -1  -1   94.11    9.25 
  -5  -1  -1    0.95    0.47 
  -5  -1  -1    1.00    0.36 
  -5  -1  -1    1.05    0.61 
  -5  -1  -1    3.26    0.65 
  -5  -1  -1    1.40    0.18 
  -6  -1  -1    7.89    0.66 
  -6  -1  -1    8.23    0.77 
  -7  -1  -1   11.31    1.08 
  -7  -1  -1   11.38    0.99 
  -8  -1  -1   -0.42    0.50 
  -8  -1  -1    0.05    0.35 
  -8  -1  -1   -0.24    0.28 
  -9  -1  -1    0.10    0.33 
  -9  -1  -1    0.05    0.29 
 -10  -1  -1    0.05    0.26 
 -10  -1  -1    0.21    0.30 
 -11   2   1    1.36    0.35 
 -11   2   1    1.29    0.27 
 -10   2   1    2.30    0.61 
 -10   2   1    2.67    0.45 
  -9   2   1    2.05    0.49 
  -9   2   1    2.29    0.47 
  -9   2   1    3.22    0.64 
  -9   2   1    2.61    0.36 
  -8   2   1   11.23    0.90 
  -8   2   1   10.34    1.05 
  -8   2   1   10.69    1.05 
  -7   2   1    1.52    0.24 
  -7   2   1    1.75    0.44 
  -7   2   1    1.68    0.40 
  -7   2   1    0.85    0.63 
  -6   2   1    0.00    0.16 
  -6   2   1    0.01    0.31 
  -6   2   1    0.88    0.49 
  -6   2   1    0.12    0.30 
  -6   2   1    0.02    0.32 
  -6   2   1   -0.06    0.60 
  -5   2   1    0.89    0.16 
  -5   2   1    1.01    0.57 
  -5   2   1   -0.09    0.55 
  -5   2   1    1.19    0.30 
  -5   2   1    0.96    0.32 
  -5   2   1    0.89    0.47 
  -5   2   1    0.83    0.39 
  -5   2   1    0.83    0.53 
   4  -2  -1   17.33    1.44 
  -4   2   1   14.75    2.42 
  -4   2   1   16.35    1.62 
  -4   2   1   11.16    1.39 
  -4   2   1    8.81    2.17 
  -4   2   1   14.03    1.83 
  -4   2   1   18.41    1.40 
  -4   2   1   14.04    2.18 
   3  -2  -1  381.37   31.31 
   3  -2  -1  362.65   31.34 
  -3   2   1  344.29   38.60 
  -3   2   1  351.20   27.37 
  -3   2   1  386.69   29.41 
  -3   2   1  369.48   29.40 
   2  -2  -1  846.64   76.27 
  -2   2   1  784.83   94.78 
  -2   2   1 1000.00   71.70 
  -2   2   1  928.61  111.60 
   1  -2  -1   18.97    1.64 
   1  -2  -1   16.34    1.63 
  -1   2   1   18.29    1.38 
  -1   2   1   19.10    1.48 
  -1   2   1   17.83    1.48 
  -1   2   1   20.19    1.66 
  -1   2   1   16.02    1.63 
   0  -2  -1  205.84   16.67 
   0  -2  -1  184.37   16.66 
   0   2   1  183.26   16.67 
   0   2   1  203.66   16.67 
   0   2   1  193.71   14.50 
  -1  -2  -1  150.72   14.48 
  -1  -2  -1  208.51   15.47 
  -1  -2  -1  181.58   15.45 
  -1  -2  -1  169.00   19.14 
  -1  -2  -1  153.50   14.48 
  -1  -2  -1  194.72   17.30 
   1   2   1  180.38   15.47 
   1   2   1  201.35   13.43 
  -2  -2  -1   17.42    1.73 
  -2  -2  -1   21.54    1.74 
  -2  -2  -1   22.04    2.12 
  -2  -2  -1   21.46    1.57 
  -2  -2  -1   19.85    2.37 
   2   2   1   23.84    1.58 
   2   2   1   18.58    1.92 
   2   2   1   21.17    1.91 
  -3  -2  -1   90.96    6.67 
  -3  -2  -1   93.01    9.80 
  -3  -2  -1   87.06    9.74 
  -3  -2  -1   87.22    7.34 
  -3  -2  -1   96.79    8.83 
  -3  -2  -1   89.86    7.34 
  -4  -2  -1    7.22    0.64 
  -4  -2  -1    7.30    0.93 
  -4  -2  -1    7.85    1.07 
  -4  -2  -1    5.86    0.63 
  -4  -2  -1    6.82    0.55 
  -4  -2  -1    7.32    1.03 
  -5  -2  -1    7.69    1.09 
  -7  -2  -1    1.03    0.24 
  -7  -2  -1    1.13    0.26 
  -8  -2  -1    0.11    0.14 
  -8  -2  -1    0.05    0.28 
  -9  -2  -1    4.76    0.51 
 -10  -2  -1    5.29    0.52 
 -11   3   1    1.09    0.25 
 -11   3   1    0.77    0.33 
 -10   3   1    0.95    0.47 
 -10   3   1    0.10    0.37 
 -10   3   1    0.69    0.26 
  -9   3   1    8.32    0.97 
  -9   3   1    9.96    0.97 
  -9   3   1    9.82    0.83 
  -9   3   1   11.01    1.21 
  -8   3   1    2.99    0.48 
  -8   3   1    3.39    0.52 
  -8   3   1    2.86    0.36 
  -7   3   1    0.38    0.39 
  -7   3   1    0.45    0.20 
  -6   3   1   -0.06    0.36 
  -6   3   1   -0.32    0.30 
  -6   3   1   -0.27    0.16 
  -5   3   1    2.26    0.78 
  -5   3   1    3.86    0.52 
  -5   3   1    4.87    0.59 
  -5   3   1    3.94    0.88 
  -5   3   1    4.53    0.48 
  -5   3   1    3.85    0.35 
  -4   3   1   48.14    3.45 
  -4   3   1   47.46    5.77 
  -4   3   1   44.63    3.55 
  -4   3   1   39.39    3.66 
  -4   3   1   48.81    4.13 
  -4   3   1   34.55    4.87 
   3  -3  -1  238.76   19.28 
  -3   3   1  216.92   16.86 
  -3   3   1  204.99   20.45 
  -3   3   1  224.69   18.09 
  -3   3   1  231.22   16.47 
  -3   3   1  232.82   18.09 
   2  -3  -1   43.38    4.38 
   2  -3  -1   54.93    4.31 
  -2   3   1   43.16    4.36 
  -2   3   1   48.16    6.33 
  -2   3   1   49.80    4.13 
  -2   3   1   53.62    4.02 
   1  -3  -1   44.29    3.84 
   1  -3  -1   41.35    3.87 
   1  -3  -1   42.56    3.89 
  -1   3   1   43.84    3.57 
  -1   3   1   43.97    3.33 
  -1   3   1   38.58    3.87 
  -1   3   1   49.72    3.92 
  -1   3   1   44.70    3.26 
  -1   3   1   47.03    3.57 
   0  -3  -1    7.32    0.92 
   0  -3  -1    7.80    0.64 
   0  -3  -1    8.13    0.85 
   0  -3  -1    8.03    0.84 
   0  -3  -1    7.25    0.79 
   0   3   1    8.60    0.85 
   0   3   1    9.80    0.64 
   0   3   1    7.18    0.85 
  -1  -3  -1    0.67    0.19 
  -1  -3  -1    1.34    0.39 
  -1  -3  -1    1.13    0.31 
  -1  -3  -1    1.19    0.17 
  -1  -3  -1    0.90    0.27 
   1   3   1    1.31    0.14 
   1   3   1    1.17    0.30 
   1   3   1    1.04    0.34 
  -2  -3  -1  115.40    7.59 
  -2  -3  -1   86.96   11.07 
  -2  -3  -1  114.08   10.03 
  -2  -3  -1   96.05    8.35 
  -3  -3  -1   56.29    5.25 
  -3  -3  -1   66.78    7.05 
  -3  -3  -1   68.88    4.77 
  -3  -3  -1   67.22    7.02 
  -4  -3  -1   28.34    2.39 
  -4  -3  -1   30.47    3.31 
  -4  -3  -1   23.81    2.37 
  -4  -3  -1   31.87    2.99 
  -4  -3  -1   28.75    2.15 
  -4  -3  -1   33.49    3.32 
  -5  -3  -1   -0.05    0.58 
  -6  -3  -1    0.94    0.23 
  -7  -3  -1    1.67    0.29 
  -7  -3  -1    1.65    0.31 
  -7  -3  -1    1.43    0.29 
  -8  -3  -1    6.95    0.62 
  -8  -3  -1    6.23    0.65 
  -9  -3  -1   11.15    0.96 
  -9  -3  -1   11.07    0.97 
 -10  -3  -1    0.24    0.22 
 -11   4   1    0.42    0.48 
 -11   4   1    1.02    0.31 
 -10   4   1    0.61    0.43 
 -10   4   1    0.97    0.36 
 -10   4   1    1.37    0.58 
  -9   4   1    3.14    0.59 
  -9   4   1    4.13    0.80 
  -9   4   1    3.76    0.42 
  -9   4   1    3.46    0.51 
  -8   4   1    6.36    0.79 
  -8   4   1    7.46    0.62 
  -8   4   1    6.29    0.73 
  -7   4   1   -0.12    0.43 
  -7   4   1    0.00    0.20 
  -6   4   1    7.28    0.69 
  -6   4   1    6.38    0.81 
  -6   4   1    5.86    0.56 
  -6   4   1    4.80    0.47 
  -5   4   1   -0.21    0.30 
  -5   4   1   -0.17    0.32 
  -5   4   1   -0.04    0.13 
  -5   4   1   -0.02    0.37 
  -4   4   1   73.39    6.67 
  -4   4   1   89.54    6.60 
  -4   4   1   74.44    6.36 
  -4   4   1   89.87    7.65 
  -4   4   1   79.60    6.78 
  -3   4   1  152.68   14.51 
  -3   4   1  162.09   12.82 
  -3   4   1  157.14   12.83 
  -3   4   1  155.55   20.02 
  -3   4   1  167.92   11.67 
   2  -4  -1   13.50    1.56 
  -2   4   1   14.65    1.36 
  -2   4   1   18.44    2.25 
  -2   4   1   15.80    1.22 
   1  -4  -1   25.85    1.85 
   1  -4  -1   22.43    2.22 
  -1   4   1   24.10    2.32 
  -1   4   1   26.07    1.90 
  -1   4   1   24.72    1.86 
   0  -4  -1    1.69    0.36 
   0  -4  -1    2.39    0.26 
   0   4   1    2.64    0.26 
   0   4   1    1.95    0.39 
   0   4   1    2.48    0.45 
  -1  -4  -1   21.16    2.15 
  -1  -4  -1   19.58    1.53 
  -1  -4  -1   20.29    2.28 
   1   4   1   16.89    1.55 
   1   4   1   23.49    1.56 
  -2  -4  -1    1.74    0.54 
  -2  -4  -1    1.83    0.53 
  -2  -4  -1    1.78    0.24 
  -3  -4  -1    3.39    0.73 
  -3  -4  -1    3.59    0.74 
  -3  -4  -1    4.22    0.38 
  -3  -4  -1    5.52    1.41 
  -4  -4  -1    3.13    0.69 
  -4  -4  -1    2.19    0.27 
  -5  -4  -1    0.11    0.65 
  -6  -4  -1    0.44    0.27 
  -6  -4  -1    0.51    0.23 
  -6  -4  -1    0.36    0.30 
  -7  -4  -1    6.45    0.60 
  -7  -4  -1    6.37    0.61 
  -7  -4  -1    6.02    0.63 
  -8  -4  -1   15.13    1.26 
  -8  -4  -1   14.73    1.35 
  -8  -4  -1   15.28    1.28 
  -9  -4  -1    1.38    0.27 
  -9  -4  -1    0.86    0.28 
 -11   5   1    0.06    0.20 
 -10   5   1   -0.28    0.59 
 -10   5   1    0.85    0.43 
  -9   5   1    4.96    0.48 
  -9   5   1    4.85    0.64 
  -9   5   1    4.81    0.52 
  -9   5   1    3.72    0.63 
  -8   5   1    1.80    0.29 
  -8   5   1    1.17    0.42 
  -8   5   1    1.83    0.53 
  -8   5   1    2.25    0.71 
  -7   5   1    5.07    0.46 
  -7   5   1    4.86    0.69 
  -6   5   1    1.10    0.41 
  -6   5   1    0.49    0.47 
  -6   5   1    0.67    0.24 
  -6   5   1    0.65    0.18 
  -5   5   1   17.09    1.46 
  -5   5   1   17.49    1.45 
  -5   5   1   16.61    1.52 
  -5   5   1   18.50    1.77 
  -4   5   1    7.19    1.05 
  -4   5   1    5.83    1.00 
  -4   5   1    5.93    0.86 
  -3   5   1   -0.27    0.35 
  -3   5   1   -0.03    0.22 
  -3   5   1   -0.15    0.27 
  -2   5   1    0.31    0.34 
   1  -5  -1    0.45    0.20 
  -1   5   1    0.08    0.21 
  -1   5   1    0.26    0.28 
  -1   5   1    0.15    0.21 
   0  -5  -1   10.87    0.86 
   0   5   1   10.94    0.89 
  -1  -5  -1    5.20    0.45 
  -1  -5  -1    4.89    0.79 
   1   5   1    5.15    0.49 
  -2  -5  -1   10.26    0.85 
  -2  -5  -1   11.14    1.32 
  -3  -5  -1   14.47    1.83 
  -3  -5  -1   14.03    1.10 
  -3  -5  -1   13.17    1.75 
  -4  -5  -1    2.81    0.33 
  -4  -5  -1    3.05    0.80 
  -5  -5  -1    4.92    0.54 
  -5  -5  -1    4.81    0.46 
  -5  -5  -1    4.60    1.01 
  -6  -5  -1    2.02    0.35 
  -6  -5  -1    2.06    0.35 
  -6  -5  -1    2.32    0.30 
  -7  -5  -1   21.41    1.94 
  -7  -5  -1   23.45    1.85 
  -7  -5  -1   21.88    1.83 
  -8  -5  -1    2.72    0.36 
  -8  -5  -1    3.37    0.35 
  -8  -5  -1    3.00    0.42 
  -9  -5  -1    2.42    0.31 
  -9  -5  -1    3.55    0.36 
 -11   6   1    0.38    0.20 
 -10   6   1    2.99    0.40 
 -10   6   1    4.40    0.74 
  -9   6   1   -0.49    0.69 
  -9   6   1    0.06    0.18 
  -9   6   1   -0.42    0.45 
  -8   6   1    9.27    0.96 
  -8   6   1   11.65    1.27 
  -8   6   1    8.40    0.88 
  -7   6   1    0.31    0.52 
  -6   6   1    3.16    0.45 
  -5   6   1    5.80    0.62 
  -5   6   1    6.35    0.72 
  -5   6   1    7.41    0.67 
  -5   6   1    5.85    0.52 
  -4   6   1    0.02    0.51 
  -3   6   1    1.19    0.33 
  -3   6   1    1.18    0.27 
  -2   6   1   23.74    1.86 
   1  -6  -1   38.83    2.89 
  -1   6   1   40.55    2.98 
  -1   6   1   36.74    2.90 
   0  -6  -1    1.44    0.25 
   0   6   1    1.33    0.29 
   0   6   1    1.52    0.29 
  -1  -6  -1    0.45    0.34 
  -1  -6  -1    0.36    0.16 
  -2  -6  -1    1.71    0.65 
  -2  -6  -1    2.12    0.28 
  -3  -6  -1    0.43    0.94 
  -3  -6  -1    0.56    0.25 
  -4  -6  -1    4.82    0.46 
  -4  -6  -1    3.76    0.55 
  -4  -6  -1    4.50    0.98 
  -4  -6  -1    4.26    0.42 
  -5  -6  -1    3.20    0.37 
  -5  -6  -1    3.97    0.44 
  -5  -6  -1    3.52    0.38 
   5   6   1    3.73    0.47 
  -6  -6  -1   24.11    2.05 
  -6  -6  -1   24.08    2.17 
   6   6   1   26.79    2.45 
  -7  -6  -1    0.96    0.28 
  -7  -6  -1    0.97    0.22 
  -7  -6  -1    1.07    0.26 
  -7  -6  -1    1.25    0.25 
   7   6   1    0.82    0.29 
  -8  -6  -1    3.40    0.42 
  -8  -6  -1    3.34    0.37 
  -8  -6  -1    4.27    0.42 
   8   6   1    3.48    0.44 
 -11   7   1    1.93    0.34 
 -10   7   1    0.20    0.61 
  -9   7   1    0.67    0.29 
  -9   7   1    0.40    0.47 
  -9   7   1    0.33    0.20 
  -8   7   1    0.03    0.77 
  -8   7   1    0.00    0.21 
  -7   7   1    3.43    0.70 
  -7   7   1    5.00    0.96 
  -7   7   1    2.67    0.56 
  -6   7   1    0.05    0.23 
  -5   7   1    0.96    0.47 
  -5   7   1    0.30    0.14 
  -5   7   1    0.37    0.24 
  -4   7   1    2.23    0.50 
  -3   7   1    2.65    0.44 
  -3   7   1    2.67    0.37 
  -2   7   1    8.74    0.83 
  -2   7   1    7.80    0.77 
   1  -7  -1    1.19    0.27 
  -1   7   1    1.48    0.31 
  -1   7   1    1.48    0.33 
   0  -7  -1   10.45    0.83 
   0   7   1    9.47    0.87 
  -1  -7  -1   20.87    1.58 
  -1  -7  -1   19.60    2.28 
  -2  -7  -1   -0.56    0.22 
  -2  -7  -1    0.07    0.35 
  -2  -7  -1   -0.31    0.28 
  -3  -7  -1    1.29    0.55 
  -3  -7  -1    1.02    0.38 
  -4  -7  -1    3.97    0.39 
  -4  -7  -1    4.09    0.51 
  -4  -7  -1    4.26    0.44 
  -4  -7  -1    3.50    0.41 
  -4  -7  -1    2.68    0.52 
   4   7   1    4.75    0.51 
  -5  -7  -1   25.74    2.22 
  -5  -7  -1   28.59    2.37 
  -5  -7  -1   27.87    2.32 
   5   7   1   27.15    2.67 
  -6  -7  -1    0.82    0.24 
  -6  -7  -1    0.31    0.20 
   6   7   1    0.75    0.29 
  -7  -7  -1    4.39    0.47 
  -7  -7  -1    4.25    0.42 
   7   7   1    4.09    0.51 
  -8  -7  -1    2.16    0.29 
   8   7   1    1.95    0.33 
 -11   8   1    0.19    0.17 
 -10   8   1    1.09    0.29 
  -9   8   1   -0.12    0.26 
  -9   8   1    0.28    0.45 
  -8   8   1    0.11    0.82 
  -8   8   1    0.19    0.46 
  -7   8   1    1.29    0.63 
  -7   8   1    1.66    0.41 
  -7   8   1    1.10    0.48 
  -6   8   1    0.25    0.61 
  -6   8   1    0.34    0.23 
  -5   8   1    4.51    0.54 
  -5   8   1    4.28    0.43 
  -4   8   1    4.57    0.56 
  -4   8   1    4.93    0.54 
  -3   8   1    8.98    0.83 
  -3   8   1    9.59    0.84 
  -2   8   1    0.14    0.33 
   1  -8  -1    4.03    0.45 
  -1   8   1    3.59    0.48 
   0  -8  -1   10.68    1.07 
   0  -8  -1   12.69    0.96 
  -1  -8  -1    2.55    0.79 
  -1  -8  -1    3.39    0.36 
  -1  -8  -1    3.58    0.48 
  -2  -8  -1    0.38    0.46 
  -2  -8  -1    0.19    0.30 
  -2  -8  -1    1.17    0.29 
  -2  -8  -1    0.84    0.37 
  -3  -8  -1    1.17    0.32 
  -3  -8  -1    1.39    0.31 
  -4  -8  -1   10.97    1.22 
  -4  -8  -1   13.90    1.20 
  -4  -8  -1   11.36    1.10 
  -4  -8  -1   14.77    1.16 
   4   8   1   13.91    1.34 
  -5  -8  -1    1.65    0.24 
  -5  -8  -1    1.18    0.34 
  -5  -8  -1    2.35    0.36 
  -5  -8  -1    1.84    0.25 
   5   8   1    1.51    0.36 
  -6  -8  -1    6.34    0.62 
  -6  -8  -1    6.36    0.56 
   6   8   1    5.87    0.69 
  -7  -8  -1    1.59    0.28 
  -7  -8  -1    1.39    0.26 
   7   8   1    1.78    0.29 
 -10   9   1   -0.03    0.19 
   9  -9  -1    0.12    0.22 
  -9   9   1    0.05    0.25 
  -9   9   1    0.11    0.17 
  -8   9   1   -0.13    0.47 
  -8   9   1   -0.08    0.79 
  -7   9   1   -0.27    0.30 
   5  -9  -1    5.00    0.57 
  -5   9   1    4.03    0.81 
  -4   9   1    0.00    0.62 
  -4   9   1    0.73    0.36 
  -3   9   1    1.47    0.49 
  -3   9   1    1.93    0.37 
   2  -9  -1    4.68    0.61 
  -2   9   1    4.58    0.67 
   1  -9  -1    3.34    0.42 
   1  -9  -1    3.17    0.47 
   0  -9  -1   14.29    1.34 
   0  -9  -1   17.74    1.55 
   0   9   1   21.93    1.49 
  -1  -9  -1   14.51    1.18 
  -1  -9  -1   11.11    1.05 
  -1  -9  -1   13.83    1.24 
  -2  -9  -1    2.85    0.38 
  -2  -9  -1    2.44    0.49 
   2   9   1    2.77    0.47 
  -3  -9  -1    1.39    0.29 
  -4  -9  -1    3.24    0.37 
  -4  -9  -1    4.05    0.44 
  -4  -9  -1    2.50    0.46 
   4   9   1    3.38    0.49 
  -5  -9  -1    7.53    0.83 
  -5  -9  -1   10.35    0.76 
  -5  -9  -1    8.38    0.81 
   5   9   1    8.30    0.93 
  -6  -9  -1    0.95    0.26 
  -6  -9  -1    1.31    0.25 
   6   9   1    1.23    0.30 
 -10  10   1    0.00    0.16 
   9 -10  -1    1.86    0.28 
  -9  10   1    1.07    0.29 
  -8  10   1    0.68    0.71 
  -7  10   1    0.87    0.34 
  -6  10   1    0.15    0.22 
  -5  10   1    3.26    0.52 
  -4  10   1    5.68    0.84 
  -4  10   1    8.72    1.01 
  -3  10   1   -0.67    0.60 
  -3  10   1    0.09    0.41 
  -3  10   1    0.26    0.37 
   2 -10  -1   13.72    1.38 
  -2  10   1   17.23    1.75 
  -2  10   1   13.02    1.35 
   1 -10  -1    6.85    0.75 
   1 -10  -1    7.28    0.68 
  -1  10   1    6.21    0.67 
  -1  10   1    8.10    0.98 
  -1  10   1    7.66    0.82 
   0 -10  -1    4.60    0.61 
   0 -10  -1    4.72    0.54 
   0  10   1    6.04    0.74 
  -1 -10  -1   -0.01    0.27 
  -1 -10  -1   -0.04    0.37 
   1  10   1    0.04    0.37 
   1  10   1   -0.03    0.17 
  -2 -10  -1   -0.07    0.26 
  -2 -10  -1    0.93    0.35 
   2  10   1   -0.59    0.38 
  -3 -10  -1   -0.05    0.22 
  -4 -10  -1   16.44    1.43 
  -4 -10  -1   13.92    1.44 
  -4 -10  -1   17.61    1.40 
   4  10   1   16.22    1.63 
  -5 -10  -1    1.68    0.31 
   5  10   1    1.08    0.32 
   9 -11  -1    0.20    0.18 
  -9  11   1   -0.07    0.16 
   8 -11  -1    4.09    0.45 
  -8  11   1    3.12    0.53 
  -7  11   1    0.24    0.26 
  -6  11   1    3.26    0.59 
  -6  11   1    2.39    0.38 
  -5  11   1   -0.09    0.21 
  -5  11   1    0.11    0.19 
  -4  11   1    1.32    0.51 
  -4  11   1    1.82    0.60 
  -3  11   1    5.95    0.66 
  -3  11   1    5.70    0.87 
   2 -11  -1   27.61    2.45 
  -2  11   1   30.09    2.60 
  -2  11   1   25.65    2.40 
   1 -11  -1   13.28    1.25 
   1 -11  -1   14.51    1.26 
  -1  11   1   11.73    1.18 
  -1  11   1   15.94    1.58 
   0 -11  -1    1.53    0.41 
   0 -11  -1    1.29    0.31 
   0  11   1    0.71    0.29 
  -1 -11  -1    7.24    0.76 
  -1 -11  -1    6.98    0.70 
   1  11   1    7.69    0.74 
  -2 -11  -1   -0.10    0.33 
  -2 -11  -1    0.00    0.23 
   2  11   1   -0.35    0.36 
  -3 -11  -1    7.99    0.72 
  -4 -11  -1    4.70    0.40 
   4  11   1    3.68    0.52 
   8 -12  -1    1.50    0.23 
  -8  12   1    0.86    0.24 
   7 -12  -1    0.95    0.18 
  -7  12   1    0.59    0.27 
  -6  12   1   -0.12    0.13 
  -6  12   1    0.03    0.66 
  -6  12   1    0.10    0.38 
  -5  12   1    0.81    0.22 
  -5  12   1    1.11    0.47 
  -4  12   1    2.69    0.49 
  -3  12   1    0.38    0.33 
  -3  12   1    1.00    0.38 
  -3  12   1    0.39    0.48 
   2 -12  -1   29.83    2.66 
   2 -12  -1   28.33    2.67 
  -2  12   1   31.93    2.59 
  -2  12   1   32.06    2.79 
   1 -12  -1    3.60    0.50 
  -1  12   1    4.93    0.71 
  -1  12   1    2.69    0.41 
   0 -12  -1    1.54    0.37 
   0 -12  -1    0.49    0.27 
   0  12   1    0.52    0.37 
  -1 -12  -1    1.60    0.38 
  -1 -12  -1    2.22    0.30 
   1  12   1    1.38    0.37 
   1  12   1    1.60    0.49 
  -2 -12  -1    7.05    0.73 
  -2 -12  -1    8.12    0.70 
   2  12   1    7.22    0.90 
  -3 -12  -1    1.06    0.16 
  -7  13   1    0.56    0.20 
   6 -13  -1    0.25    0.10 
  -6  13   1    0.66    0.33 
  -6  13   1    0.32    0.20 
   5 -13  -1    1.11    0.27 
   5 -13  -1    0.84    0.17 
  -5  13   1    0.83    0.18 
  -5  13   1    0.42    0.58 
  -5  13   1    1.50    0.39 
   4 -13  -1    0.30    0.32 
  -4  13   1    0.88    0.40 
   3 -13  -1    8.25    0.80 
  -3  13   1    8.76    0.81 
  -3  13   1    8.13    0.97 
  -2  13   1   14.02    1.35 
  -2  13   1   12.99    1.22 
   1 -13  -1   11.89    1.20 
  -1  13   1   13.44    1.17 
  -1  13   1   15.61    1.28 
  -1  13   1   13.86    1.47 
   0 -13  -1    9.48    0.84 
   0  13   1    7.79    1.06 
   0  13   1    9.79    0.83 
  -1 -13  -1    0.81    0.27 
   1  13   1    1.70    0.29 
   1  13   1    1.48    0.40 
  -3  14   1    1.26    0.33 
  -3  14   1    0.62    0.18 
  -1  14   1   -0.15    0.27 
  -4  15  -2    0.14    0.18 
   2  14  -2    0.38    0.33 
  -2 -14   2    0.33    0.10 
   1  14  -2    2.42    0.50 
  -1 -14   2    2.39    0.29 
   0  14  -2   -0.17    0.44 
   0 -14   2    0.09    0.12 
   0 -14   2   -0.03    0.27 
  -1  14  -2    1.57    0.59 
   1 -14   2    1.43    0.41 
  -2  14  -2   -0.03    0.39 
  -2  14  -2   -0.16    0.20 
   2 -14   2    0.14    0.27 
  -3  14  -2    0.90    0.50 
   3 -14   2    1.00    0.36 
  -4  14  -2    0.83    0.23 
   4 -14   2    1.23    0.31 
  -5  14  -2    0.40    0.24 
  -5  14  -2    0.20    0.14 
   5 -14   2    0.18    0.26 
  -6  14  -2    0.47    0.23 
   3  13  -2   -0.36    0.31 
  -3 -13   2    0.01    0.09 
   2  13  -2    5.14    0.71 
  -2 -13   2    6.05    0.61 
  -2 -13   2    6.12    0.55 
   1  13  -2    1.80    0.49 
  -1 -13   2    0.89    0.35 
  -1 -13   2    1.75    0.25 
  -1 -13   2    1.52    0.36 
   0  13  -2    0.59    0.40 
   0  13  -2    1.84    0.53 
   0 -13   2    1.30    0.38 
   0 -13   2    1.39    0.35 
  -1  13  -2   -0.01    0.51 
  -1  13  -2    0.09    0.67 
   1 -13   2    0.03    0.37 
   1 -13   2    0.06    0.42 
  -2  13  -2   -0.62    0.49 
  -2  13  -2    0.13    0.51 
   2 -13   2   -0.34    0.34 
  -3  13  -2    0.09    0.56 
   3 -13   2    0.15    0.39 
  -4  13  -2    2.02    0.53 
  -4  13  -2    1.11    0.26 
   4 -13   2    0.52    0.31 
  -5  13  -2    1.00    0.22 
  -5  13  -2    0.89    0.31 
   5 -13   2    1.40    0.26 
   5 -13   2    0.64    0.32 
  -6  13  -2    1.31    0.21 
  -6  13  -2    1.23    0.22 
  -6  13  -2    1.05    0.29 
   6 -13   2    1.23    0.19 
   6 -13   2    1.12    0.29 
  -7  13  -2    0.28    0.22 
   7 -13   2    0.37    0.18 
   5  12  -2    5.72    0.65 
   4  12  -2    0.16    0.35 
  -4 -12   2    0.24    0.31 
   3  12  -2    0.60    0.40 
  -3 -12   2    1.56    0.33 
  -3 -12   2    0.82    0.15 
   2  12  -2    0.23    0.42 
  -2 -12   2   -0.05    0.41 
  -2 -12   2    0.01    0.33 
   1  12  -2    9.24    1.09 
  -1 -12   2    9.42    0.95 
  -1 -12   2    9.88    0.94 
  -1 -12   2   10.02    0.91 
   0  12  -2    0.46    0.31 
   0 -12   2    1.78    0.41 
   0 -12   2    1.66    0.35 
   0 -12   2    1.46    0.38 
  -1  12  -2    1.45    0.70 
  -1  12  -2    1.48    0.51 
   1 -12   2    0.65    0.46 
  -2  12  -2    1.49    0.46 
  -2  12  -2    0.81    0.63 
  -2  12  -2    0.44    0.37 
   2 -12   2    0.54    0.34 
  -3  12  -2    0.01    0.34 
  -4  12  -2    4.02    0.52 
   4 -12   2    3.47    0.41 
  -5  12  -2    0.07    0.20 
  -5  12  -2    0.12    0.52 
   5 -12   2   -0.17    0.26 
  -6  12  -2   -0.02    0.79 
  -6  12  -2    0.74    0.21 
  -6  12  -2    0.41    0.19 
   6 -12   2    0.61    0.25 
  -7  12  -2    0.24    0.25 
   7 -12   2    0.27    0.22 
  -8  12  -2    0.36    0.20 
   8 -12   2    0.13    0.17 
   6  11  -2    3.79    0.49 
   5  11  -2   -0.02    0.22 
  -5 -11   2    0.07    0.26 
   4  11  -2    0.63    0.39 
  -4 -11   2    1.02    0.38 
  -4 -11   2    0.46    0.22 
   3  11  -2    0.61    0.42 
  -3 -11   2    0.92    0.35 
  -3 -11   2    0.65    0.27 
   2  11  -2   21.97    2.06 
  -2 -11   2   18.00    1.76 
  -2 -11   2   19.68    1.85 
  -2 -11   2   21.91    1.85 
   1  11  -2    0.84    0.46 
  -1 -11   2    1.12    0.30 
  -1 -11   2    0.62    0.48 
  -1 -11   2    0.47    0.38 
  -1 -11   2    0.83    0.36 
   0  11  -2   -0.18    0.48 
   0  11  -2    0.95    0.32 
   0 -11   2    0.94    0.40 
   0 -11   2    0.61    0.30 
   0 -11   2    0.49    0.49 
   0 -11   2   -0.33    0.36 
  -1  11  -2    2.42    0.56 
  -1  11  -2    1.79    0.74 
  -1  11  -2    2.98    0.50 
   1 -11   2    1.39    0.27 
   1 -11   2    1.43    0.47 
  -2  11  -2    0.41    0.57 
  -2  11  -2   -0.32    0.41 
  -2  11  -2    0.13    0.42 
  -2  11  -2   -0.13    0.24 
   2 -11   2   -0.14    0.34 
  -3  11  -2    0.18    0.27 
  -3  11  -2    0.40    0.38 
  -4  11  -2    0.24    0.38 
  -5  11  -2    4.37    0.61 
  -5  11  -2    6.09    0.79 
   5 -11   2    5.11    0.58 
  -6  11  -2    3.09    0.64 
  -6  11  -2    2.92    0.45 
  -6  11  -2    2.91    0.44 
   6 -11   2    2.98    0.42 
  -7  11  -2    2.59    0.53 
  -7  11  -2    1.95    0.35 
  -7  11  -2    1.64    0.30 
   7 -11   2    1.82    0.33 
  -8  11  -2    0.13    0.24 
   8 -11   2    0.03    0.20 
  -9  11  -2   -0.16    0.18 
   9 -11   2    0.12    0.15 
  -7 -10   2    1.42    0.49 
   6  10  -2    0.44    0.31 
  -6 -10   2    0.18    0.31 
  -6 -10   2   -0.12    0.25 
   5  10  -2    1.71    0.34 
  -5 -10   2    1.85    0.32 
  -5 -10   2    1.99    0.39 
   4  10  -2    0.82    0.44 
  -4 -10   2    0.69    0.23 
  -4 -10   2    1.36    0.41 
   3  10  -2   18.47    1.81 
  -3 -10   2   17.36    1.58 
  -3 -10   2   17.32    1.53 
   2  10  -2    8.73    0.93 
  -2 -10   2    8.65    0.83 
  -2 -10   2    7.31    0.75 
  -2 -10   2    7.83    0.91 
  -2 -10   2    7.65    0.71 
  -1 -10   2    5.56    0.55 
  -1 -10   2    5.61    0.63 
  -1 -10   2    4.97    0.54 
  -1 -10   2    4.32    0.72 
  -1 -10   2    5.78    0.61 
   0 -10   2    3.52    0.44 
   0 -10   2    2.43    0.34 
   0 -10   2    2.00    0.78 
   0 -10   2    3.56    0.50 
  -1  10  -2    0.00    0.59 
  -1  10  -2   -0.37    0.36 
   1 -10   2    0.00    0.41 
   1 -10   2   -0.03    0.30 
  -2  10  -2   15.00    1.25 
  -2  10  -2   15.58    1.58 
   2 -10   2   14.18    1.21 
  -3  10  -2    0.53    0.41 
  -3  10  -2    1.49    0.38 
  -3  10  -2    2.19    0.44 
  -4  10  -2    6.52    0.87 
  -4  10  -2    7.41    0.75 
  -5  10  -2    1.78    0.66 
  -5  10  -2    1.08    0.59 
  -5  10  -2    1.07    0.42 
  -6  10  -2   10.27    0.99 
  -6  10  -2   11.05    1.20 
  -6  10  -2    9.41    0.99 
   6 -10   2   10.44    1.06 
  -7  10  -2    0.77    0.37 
  -7  10  -2   -0.31    0.59 
  -7  10  -2   -0.34    0.16 
   7 -10   2   -0.29    0.26 
  -8  10  -2    1.01    0.25 
  -8  10  -2    0.87    0.32 
   8 -10   2    0.94    0.26 
  -9  10  -2    0.01    0.21 
   9 -10   2   -0.40    0.18 
   8   9  -2    3.51    0.42 
  -8  -9   2    3.04    0.37 
  -7  -9   2    0.52    0.39 
   6   9  -2    3.39    0.50 
  -6  -9   2    3.77    0.47 
  -6  -9   2    3.65    0.41 
   5   9  -2    0.89    0.24 
  -5  -9   2    0.33    0.34 
  -5  -9   2    0.05    0.21 
  -5  -9   2    0.10    0.33 
  -5  -9   2    0.19    0.10 
   4   9  -2   18.70    1.93 
  -4  -9   2   19.98    1.74 
  -4  -9   2   17.36    1.70 
  -3  -9   2    7.89    1.15 
  -3  -9   2   11.37    1.01 
  -3  -9   2   10.24    0.92 
  -3  -9   2   10.97    0.85 
  -2  -9   2   11.26    1.52 
  -2  -9   2   11.89    1.76 
  -2  -9   2   16.98    1.34 
  -2  -9   2   16.27    1.17 
  -1  -9   2   17.01    2.14 
  -1  -9   2   19.77    1.47 
  -1  -9   2   21.02    1.67 
  -1  -9   2   16.02    1.87 
   0   9  -2   -0.07    0.32 
   0  -9   2    0.02    0.24 
   0  -9   2    0.04    0.32 
  -1   9  -2    9.34    0.83 
   1  -9   2   10.09    0.88 
   1  -9   2    8.83    0.81 
  -2   9  -2    7.92    0.99 
  -2   9  -2    8.29    0.77 
  -2   9  -2    9.69    0.77 
   2  -9   2    8.04    0.74 
   2  -9   2    7.91    0.79 
  -3   9  -2   18.66    1.39 
  -3   9  -2   14.90    1.70 
  -3   9  -2   17.51    1.43 
   3  -9   2   17.60    1.49 
  -4   9  -2    0.00    0.34 
  -4   9  -2   -0.24    0.65 
  -5   9  -2   16.40    1.44 
  -5   9  -2   18.28    1.71 
  -5   9  -2   16.59    1.97 
  -5   9  -2   20.52    1.70 
  -6   9  -2    3.00    0.45 
  -6   9  -2    3.30    0.59 
  -6   9  -2    2.58    0.40 
  -6   9  -2    2.64    0.53 
  -7   9  -2    1.09    0.83 
  -7   9  -2    0.89    0.22 
  -7   9  -2    0.72    0.62 
   7  -9   2    0.89    0.29 
  -8   9  -2    0.28    0.21 
  -8   9  -2    0.44    0.30 
   8  -9   2    0.46    0.24 
  -9   9  -2    0.31    0.24 
   9  -9   2   -0.16    0.19 
 -10   9  -2    1.78    0.34 
  10  -9   2    2.15    0.26 
  -8  -8   2    3.03    0.37 
  -8  -8   2    4.08    0.43 
  -8  -8   2    3.96    0.37 
  -7  -8   2    8.27    0.70 
  -7  -8   2    6.43    0.79 
  -6  -8   2   11.90    1.03 
  -6  -8   2   12.01    1.11 
  -6  -8   2   11.55    1.00 
  -5  -8   2   19.57    1.61 
  -5  -8   2   18.22    1.68 
  -5  -8   2   20.10    1.68 
  -5  -8   2   17.70    1.55 
  -4  -8   2   36.70    3.47 
  -4  -8   2   47.09    3.66 
  -4  -8   2   44.32    3.71 
  -4  -8   2   43.25    4.20 
  -3  -8   2   18.77    1.41 
  -3  -8   2   16.22    1.82 
  -3  -8   2   19.50    1.62 
  -3  -8   2   17.18    2.15 
  -2  -8   2   15.96    2.00 
  -2  -8   2   19.94    1.36 
  -2  -8   2   15.30    1.74 
  -1  -8   2    2.39    0.31 
  -1  -8   2    1.93    0.66 
   0   8  -2    6.13    0.58 
   0  -8   2    6.48    0.60 
   0  -8   2    5.61    0.54 
  -1   8  -2   12.67    1.05 
   1  -8   2   13.69    1.08 
  -2   8  -2   92.37    8.48 
  -2   8  -2   95.39    7.01 
  -2   8  -2   88.85    6.81 
   2  -8   2   95.00    7.50 
   2  -8   2   89.08    6.80 
  -3   8  -2   -0.05    0.18 
  -3   8  -2   -0.22    0.27 
   3  -8   2    0.36    0.23 
  -4   8  -2   10.52    1.31 
  -4   8  -2   14.31    1.06 
   4  -8   2   13.29    1.14 
  -5   8  -2    0.14    0.12 
  -5   8  -2    0.14    0.53 
  -5   8  -2    1.14    0.67 
   5  -8   2    0.06    0.27 
  -6   8  -2    2.78    0.63 
  -6   8  -2    2.54    0.57 
  -6   8  -2    2.58    0.55 
  -7   8  -2    3.72    0.71 
  -7   8  -2    3.44    0.64 
  -7   8  -2    3.69    0.61 
  -7   8  -2    2.88    0.39 
   7  -8   2    2.96    0.42 
  -8   8  -2    1.77    0.31 
  -8   8  -2    1.61    0.36 
   8  -8   2    1.61    0.30 
  -9   8  -2    0.58    0.20 
  -9   8  -2    0.36    0.25 
   9  -8   2    0.41    0.20 
 -10   8  -2    0.30    0.21 
  10  -8   2    0.02    0.15 
  -9  -7   2   -0.06    0.17 
  -9  -7   2    0.41    0.23 
  -9  -7   2    0.01    0.17 
  -8  -7   2   21.03    1.76 
  -8  -7   2   20.03    1.70 
  -8  -7   2   19.40    1.65 
  -7  -7   2    0.61    0.26 
  -6  -7   2   -0.28    0.37 
  -6  -7   2   -0.10    0.36 
  -6  -7   2    0.17    0.14 
  -6  -7   2    0.47    0.26 
  -5  -7   2   16.74    1.48 
  -5  -7   2   17.66    1.43 
  -5  -7   2   17.90    1.52 
  -5  -7   2   17.89    1.55 
  -5  -7   2   15.79    1.76 
  -4  -7   2   79.79    6.51 
  -4  -7   2   75.97    7.27 
  -4  -7   2   71.86    8.11 
  -3  -7   2   20.19    1.52 
  -3  -7   2   19.02    2.22 
  -3  -7   2   19.82    1.95 
  -2  -7   2   19.35    1.39 
  -2  -7   2   16.93    1.77 
  -2  -7   2   17.67    2.02 
  -1  -7   2   13.42    1.66 
  -1  -7   2   15.65    1.16 
   0   7  -2   21.38    1.61 
   0   7  -2   18.71    1.54 
   0  -7   2   20.15    1.53 
   0  -7   2   20.25    1.68 
  -1   7  -2   41.45    3.19 
  -1   7  -2   47.22    3.31 
   1  -7   2   40.06    3.23 
  -2   7  -2   36.17    3.35 
  -2   7  -2   36.80    2.79 
  -2   7  -2   33.69    2.66 
  -2   7  -2   30.68    4.88 
   2  -7   2   35.19    2.67 
   2  -7   2   38.44    2.93 
  -3   7  -2   48.73    3.69 
  -3   7  -2   45.95    3.54 
   3  -7   2   47.71    3.89 
  -4   7  -2    0.16    0.93 
  -4   7  -2    0.40    0.26 
  -4   7  -2   -0.04    0.23 
   4  -7   2    0.11    0.22 
  -5   7  -2    0.02    0.27 
  -5   7  -2    0.15    0.45 
  -5   7  -2    0.29    1.00 
  -5   7  -2    0.35    0.58 
   5  -7   2    0.36    0.24 
  -6   7  -2    8.81    1.05 
  -6   7  -2   10.26    1.03 
  -7   7  -2    0.35    0.23 
  -7   7  -2   -0.59    0.47 
  -7   7  -2    0.76    0.67 
  -7   7  -2    0.64    0.17 
  -7   7  -2    0.40    0.34 
  -7   7  -2    0.95    0.58 
  -8   7  -2    2.60    0.35 
  -8   7  -2    3.08    0.49 
  -8   7  -2    2.31    0.41 
  -9   7  -2    0.05    0.17 
  -9   7  -2    0.37    0.24 
 -10   7  -2    3.59    0.48 
 -10  -6   2    0.62    0.16 
  -9  -6   2    9.63    0.89 
  -9  -6   2    9.93    0.84 
  -9  -6   2    8.87    0.82 
  -8  -6   2   -0.13    0.22 
  -8  -6   2    0.81    0.25 
  -8  -6   2    1.23    0.31 
  -6  -6   2   12.70    1.15 
  -6  -6   2   10.14    1.15 
  -6  -6   2   13.40    1.04 
  -5  -6   2   16.63    1.71 
  -5  -6   2   18.02    2.06 
  -5  -6   2   16.64    1.84 
  -5  -6   2   16.74    1.50 
  -4  -6   2  130.74   12.93 
  -4  -6   2  126.20   11.91 
  -3  -6   2   22.10    1.63 
  -3  -6   2   20.87    2.08 
  -3  -6   2   21.55    2.34 
  -2  -6   2    0.80    0.37 
  -2  -6   2    0.95    0.21 
  -2  -6   2    1.06    0.31 
  -1  -6   2    2.58    0.28 
  -1  -6   2    2.31    0.53 
  -1  -6   2    2.15    0.27 
   0   6  -2   28.11    2.12 
   0   6  -2   30.37    2.20 
   0  -6   2   25.77    2.32 
   0  -6   2   29.01    2.12 
  -1   6  -2   16.31    1.28 
  -1   6  -2   15.90    1.36 
   1  -6   2   17.75    1.31 
  -2   6  -2   93.67    7.02 
  -2   6  -2   93.21   12.26 
  -2   6  -2   95.33    8.75 
  -2   6  -2   94.10    7.22 
   2  -6   2   99.85    7.03 
  -3   6  -2    7.87    1.59 
  -3   6  -2    8.76    0.82 
  -3   6  -2    9.69    0.99 
  -3   6  -2    7.97    0.71 
   3  -6   2    8.73    0.77 
  -4   6  -2    1.14    0.24 
  -4   6  -2    1.12    0.20 
  -4   6  -2    0.64    0.93 
  -4   6  -2    0.93    0.30 
   4  -6   2    1.09    0.24 
  -5   6  -2   15.00    1.76 
  -5   6  -2   17.87    1.42 
  -5   6  -2   16.00    2.84 
  -5   6  -2   18.84    1.64 
  -5   6  -2   19.76    1.40 
   5  -6   2   19.28    1.54 
  -6   6  -2    7.89    0.72 
  -6   6  -2    9.74    0.92 
  -6   6  -2    9.08    1.17 
  -7   6  -2    6.52    1.12 
  -7   6  -2    6.14    0.83 
  -7   6  -2    6.60    0.58 
  -8   6  -2    0.98    0.31 
  -8   6  -2    0.79    0.50 
  -8   6  -2    0.31    0.25 
  -9   6  -2    1.98    0.33 
  -9   6  -2    1.39    0.33 
 -10   6  -2    1.55    0.33 
 -10  -5   2   17.75    1.55 
 -10  -5   2   19.05    1.52 
  -9  -5   2    0.01    0.22 
  -9  -5   2    0.77    0.40 
  -8  -5   2    3.72    0.44 
  -8  -5   2    3.62    0.42 
  -8  -5   2    4.06    0.50 
  -7  -5   2    0.26    0.52 
  -6  -5   2    0.62    0.75 
  -6  -5   2    0.03    0.42 
  -6  -5   2    0.01    0.20 
  -5  -5   2   31.00    3.16 
  -5  -5   2   34.62    3.44 
  -5  -5   2   34.99    3.55 
  -4  -5   2  135.74   17.04 
  -4  -5   2  167.31   14.56 
  -4  -5   2  174.37   16.96 
  -4  -5   2  151.22   15.55 
  -3  -5   2   13.39    1.72 
  -3  -5   2   14.22    1.26 
  -3  -5   2   15.11    1.72 
  -3  -5   2   14.72    1.24 
  -3  -5   2   14.12    1.65 
  -3  -5   2   15.04    1.12 
  -3  -5   2   15.11    1.43 
  -2  -5   2   25.36    2.37 
  -2  -5   2   24.26    2.58 
  -2  -5   2   24.26    2.10 
  -2  -5   2   26.02    1.88 
   1   5  -2   38.04    2.82 
  -1  -5   2   35.88    3.10 
  -1  -5   2   36.69    3.78 
  -1  -5   2   41.23    2.82 
   0   5  -2   30.29    2.45 
   0   5  -2   28.67    2.17 
   0   5  -2   29.69    2.10 
   0   5  -2   23.83    2.60 
   0  -5   2   28.66    2.11 
   0  -5   2   25.65    2.53 
  -1   5  -2   12.14    1.48 
  -1   5  -2   15.88    1.22 
  -1   5  -2   15.64    1.14 
   1  -5   2   12.77    1.42 
   1  -5   2   16.55    1.19 
  -2   5  -2  101.63    7.58 
  -2   5  -2  103.98    9.44 
  -2   5  -2   96.75   13.16 
  -2   5  -2  118.06    7.80 
   2  -5   2   94.90    8.37 
   2  -5   2  104.47    7.60 
  -3   5  -2    7.29    0.76 
  -3   5  -2    8.76    1.50 
  -3   5  -2    8.07    0.65 
  -3   5  -2    8.95    0.93 
   3  -5   2    7.66    0.71 
  -4   5  -2   38.42    3.43 
  -4   5  -2   34.80    4.98 
  -4   5  -2   35.22    2.67 
  -4   5  -2   36.09    2.76 
   4  -5   2   35.18    2.95 
  -5   5  -2    5.81    0.49 
  -5   5  -2    4.23    0.58 
  -5   5  -2    4.73    0.78 
  -5   5  -2    5.10    0.63 
  -5   5  -2    5.81    0.48 
  -5   5  -2    4.58    1.33 
  -6   5  -2   11.86    1.29 
  -6   5  -2   10.30    0.87 
  -6   5  -2   11.57    1.07 
  -6   5  -2    9.87    0.90 
  -7   5  -2    0.69    0.34 
  -7   5  -2    0.58    0.25 
  -7   5  -2    0.46    0.49 
  -8   5  -2    8.25    0.95 
  -8   5  -2    6.61    0.63 
  -8   5  -2    7.69    0.83 
  -8   5  -2    6.53    0.76 
  -9   5  -2   -0.28    0.35 
  -9   5  -2    0.07    0.52 
  -9   5  -2   -1.08    0.45 
 -10   5  -2    5.77    0.68 
 -10   5  -2    7.09    0.66 
 -10  -4   2    1.75    0.34 
 -10  -4   2    2.16    0.31 
  -9  -4   2    0.88    0.45 
  -9  -4   2    1.03    0.30 
  -9  -4   2    1.31    0.27 
  -8  -4   2    2.09    0.32 
  -8  -4   2    2.15    0.36 
  -8  -4   2    2.26    0.42 
  -7  -4   2    3.58    0.60 
  -7  -4   2    4.79    0.70 
  -6  -4   2    4.63    0.82 
  -6  -4   2    4.98    0.69 
  -6  -4   2    3.42    0.97 
  -5  -4   2    0.00    0.31 
  -5  -4   2    0.00    0.32 
  -5  -4   2   -0.13    0.28 
  -4  -4   2  105.53   11.21 
  -4  -4   2  112.42   12.37 
  -4  -4   2  126.06   12.26 
  -4  -4   2  109.53   10.48 
  -3  -4   2    1.50    0.25 
  -3  -4   2    1.73    0.24 
  -3  -4   2    1.68    0.30 
  -3  -4   2    1.22    0.37 
  -3  -4   2    1.59    0.51 
  -3  -4   2    1.53    0.49 
  -3  -4   2    1.64    0.20 
  -2  -4   2    1.33    0.36 
  -2  -4   2    1.46    0.41 
  -2  -4   2    1.31    0.17 
  -2  -4   2    0.75    0.19 
  -2  -4   2    0.91    0.21 
  -2  -4   2    1.38    0.26 
  -2  -4   2    1.09    0.18 
  -2  -4   2    0.92    0.32 
   1   4  -2   -0.08    0.15 
   1   4  -2   -0.02    0.19 
   1   4  -2   -0.30    0.21 
   1   4  -2    0.57    0.32 
  -1  -4   2    0.01    0.12 
  -1  -4   2    0.16    0.29 
  -1  -4   2    0.06    0.22 
  -1  -4   2    0.03    0.18 
  -1  -4   2   -0.10    0.10 
  -1  -4   2    0.14    0.17 
  -1  -4   2    0.01    0.11 
   0   4  -2    9.22    0.94 
   0   4  -2    8.80    0.84 
   0   4  -2   10.31    0.83 
   0   4  -2    8.99    0.70 
   0  -4   2    7.28    0.75 
   0  -4   2    7.48    0.71 
   0  -4   2    8.19    0.84 
   0  -4   2    6.89    0.85 
   0  -4   2    8.90    0.71 
   0  -4   2    8.84    0.67 
  -1   4  -2   34.13    3.31 
  -1   4  -2   40.46    2.84 
  -1   4  -2   39.50    2.73 
   1  -4   2   40.36    3.02 
   1  -4   2   33.45    3.30 
   1  -4   2   33.67    3.27 
   1  -4   2   34.54    2.79 
  -2   4  -2    1.90    0.63 
  -2   4  -2    2.79    0.38 
  -2   4  -2    2.72    0.40 
  -2   4  -2    2.76    0.35 
  -2   4  -2    2.28    0.24 
  -2   4  -2    2.05    0.45 
   2  -4   2    2.75    0.27 
   2  -4   2    2.21    0.38 
   2  -4   2    2.52    0.29 
   2  -4   2    2.71    0.34 
  -3   4  -2   32.06    3.03 
  -3   4  -2   30.19    4.31 
  -3   4  -2   29.39    2.36 
  -3   4  -2   33.89    2.65 
   3  -4   2   33.25    2.61 
  -4   4  -2    7.99    1.11 
  -4   4  -2    7.37    0.91 
  -4   4  -2    5.89    0.72 
  -4   4  -2    7.67    0.63 
  -4   4  -2    7.29    0.61 
  -4   4  -2    7.30    1.48 
   4  -4   2    8.13    0.67 
  -5   4  -2   29.46    2.65 
  -5   4  -2   34.11    2.72 
  -5   4  -2   26.84    2.64 
  -5   4  -2   34.75    2.37 
  -5   4  -2   33.29    2.46 
  -5   4  -2   30.36    3.08 
  -5   4  -2   32.24    4.47 
  -6   4  -2    2.04    1.00 
  -6   4  -2    3.23    0.70 
  -6   4  -2    3.06    0.33 
  -6   4  -2    2.17    0.49 
  -7   4  -2    2.61    0.44 
  -7   4  -2    2.64    0.34 
  -7   4  -2    3.05    0.53 
  -8   4  -2    0.53    0.56 
  -8   4  -2    0.79    0.43 
  -8   4  -2    0.72    0.27 
  -8   4  -2    0.31    0.40 
  -9   4  -2   10.70    0.97 
  -9   4  -2   10.13    1.11 
  -9   4  -2    8.54    0.96 
 -10   4  -2    6.02    0.58 
 -10   4  -2    4.60    0.60 
 -11  -3   2    0.04    0.20 
 -10  -3   2    8.51    0.78 
  -9  -3   2    2.19    0.33 
  -8  -3   2    0.09    0.45 
  -8  -3   2    0.20    0.30 
  -8  -3   2   -0.14    0.43 
  -8  -3   2   -0.03    0.49 
  -8  -3   2   -0.21    0.51 
  -8  -3   2   -0.22    0.22 
  -7  -3   2   19.67    2.35 
  -7  -3   2   20.38    1.90 
  -7  -3   2   14.95    2.37 
  -6  -3   2    4.02    0.86 
  -6  -3   2    3.01    0.96 
  -5  -3   2   17.46    1.77 
  -5  -3   2   17.20    1.62 
  -5  -3   2   15.22    2.01 
  -5  -3   2   16.78    2.00 
  -5  -3   2   15.99    1.92 
  -4  -3   2    3.41    0.75 
  -4  -3   2    2.67    0.42 
  -4  -3   2    1.71    0.63 
  -4  -3   2    2.28    0.70 
   3   3  -2   39.26    3.25 
  -3  -3   2   36.81    2.73 
  -3  -3   2   40.78    3.44 
  -3  -3   2   39.00    4.03 
  -3  -3   2   38.12    3.02 
  -3  -3   2   32.29    3.00 
  -3  -3   2   34.43    4.04 
  -3  -3   2   36.81    3.70 
   2   3  -2   40.96    4.26 
   2   3  -2   50.36    4.15 
   2   3  -2   50.04    4.26 
  -2  -3   2   51.41    3.98 
  -2  -3   2   44.84    3.96 
  -2  -3   2   50.99    3.96 
  -2  -3   2   49.22    4.79 
  -2  -3   2   51.85    5.24 
  -2  -3   2   44.34    5.26 
  -2  -3   2   54.71    3.60 
   1   3  -2  189.18   18.03 
   1   3  -2  198.02   18.08 
   1   3  -2  216.99   17.50 
  -1  -3   2  205.57   18.05 
  -1  -3   2  186.19   18.04 
  -1  -3   2  213.48   16.94 
  -1  -3   2  226.76   20.22 
  -1  -3   2  221.22   16.99 
  -1  -3   2  235.00   16.91 
   0   3  -2   13.54    1.22 
   0   3  -2   13.53    1.15 
   0   3  -2   14.63    1.13 
   0  -3   2   11.42    1.03 
   0  -3   2   11.85    1.03 
   0  -3   2   11.27    1.15 
   0  -3   2   12.55    1.10 
   0  -3   2   11.62    1.18 
  -1   3  -2  288.61   24.37 
  -1   3  -2  314.05   24.32 
  -1   3  -2  302.92   22.82 
  -1   3  -2  299.89   23.58 
  -1   3  -2  276.44   35.59 
   1  -3   2  293.58   23.56 
   1  -3   2  272.57   24.36 
   1  -3   2  239.47   24.33 
   1  -3   2  267.30   22.92 
  -2   3  -2   12.08    2.04 
  -2   3  -2   15.90    1.34 
  -2   3  -2   14.06    1.39 
  -2   3  -2   15.58    1.09 
  -2   3  -2   16.68    1.25 
  -2   3  -2   13.76    1.24 
  -2   3  -2   14.13    1.42 
   2  -3   2   14.38    1.38 
   2  -3   2   15.43    1.27 
   2  -3   2   12.10    1.36 
   2  -3   2   13.95    1.21 
  -3   3  -2    1.27    0.33 
  -3   3  -2    0.16    0.37 
  -3   3  -2    0.68    0.24 
  -3   3  -2    0.89    0.62 
  -3   3  -2    1.21    0.15 
  -3   3  -2    0.65    0.23 
   3  -3   2    0.74    0.33 
   3  -3   2    0.99    0.17 
  -4   3  -2   19.41    1.89 
  -4   3  -2   14.23    1.57 
  -4   3  -2   16.82    1.16 
  -4   3  -2   16.21    2.39 
  -4   3  -2   13.76    1.21 
  -4   3  -2   15.44    1.35 
  -4   3  -2   12.21    1.33 
   4  -3   2   16.11    1.29 
  -5   3  -2   15.20    1.22 
  -5   3  -2   17.57    1.16 
  -5   3  -2   15.54    1.32 
  -5   3  -2   14.25    1.61 
  -5   3  -2   15.97    2.37 
  -5   3  -2   11.82    1.31 
  -5   3  -2   16.02    1.94 
  -6   3  -2   41.30    6.04 
  -6   3  -2   47.96    3.79 
  -6   3  -2   43.63    3.44 
  -7   3  -2    0.19    0.40 
  -7   3  -2    0.20    0.34 
  -7   3  -2   -0.22    0.22 
  -8   3  -2    0.00    0.26 
  -8   3  -2   -0.14    0.39 
  -8   3  -2    0.19    0.50 
  -8   3  -2    0.61    0.42 
  -9   3  -2    4.32    0.66 
  -9   3  -2    3.80    0.56 
  -9   3  -2    4.03    0.58 
 -10   3  -2   -0.11    0.32 
 -10   3  -2   -0.37    0.43 
 -11  -2   2    3.07    0.36 
 -10  -2   2    5.37    0.54 
 -10  -2   2    4.96    0.59 
  -9  -2   2    0.70    0.54 
  -9  -2   2    0.25    0.32 
  -9  -2   2    0.05    0.35 
  -8  -2   2    1.81    0.56 
  -8  -2   2    1.44    0.30 
  -8  -2   2    1.89    0.35 
  -8  -2   2    1.35    0.36 
  -8  -2   2    1.62    0.56 
  -8  -2   2    1.65    0.54 
  -8  -2   2    0.96    0.49 
  -7  -2   2    2.50    1.41 
  -6  -2   2   18.39    2.08 
  -5  -2   2   33.01    2.74 
  -5  -2   2   39.23    4.04 
  -5  -2   2   34.42    3.74 
  -5  -2   2   36.02    3.36 
  -5  -2   2   40.26    3.99 
  -5  -2   2   34.72    3.65 
   4   2  -2   61.97    5.70 
  -4  -2   2   70.53    7.22 
  -4  -2   2   65.85    6.63 
  -4  -2   2   66.92    7.38 
  -4  -2   2   65.44    6.11 
   3   2  -2    0.58    0.28 
  -3  -2   2    1.06    0.36 
  -3  -2   2    0.87    0.30 
  -3  -2   2    0.91    0.35 
   2   2  -2   99.59    8.31 
   2   2  -2   92.20    8.54 
   2   2  -2  111.18    8.54 
  -2  -2   2   99.82   10.60 
  -2  -2   2   98.78    9.60 
  -2  -2   2  103.29    8.00 
  -2  -2   2   98.18    8.01 
  -2  -2   2   92.16   10.53 
   1   2  -2   12.58    1.02 
   1   2  -2   11.18    0.97 
   1   2  -2   10.24    0.96 
  -1  -2   2   11.38    0.97 
  -1  -2   2   10.71    0.88 
  -1  -2   2   10.09    0.88 
  -1  -2   2   10.67    0.96 
  -1  -2   2   10.01    0.97 
  -1  -2   2   10.36    1.10 
  -1  -2   2   10.63    1.19 
  -1  -2   2    9.69    0.91 
   0   2  -2   69.57    5.48 
   0   2  -2   70.24    5.68 
   0   2  -2   69.82    5.64 
   0  -2   2   60.07    5.47 
   0  -2   2   58.31    5.29 
   0  -2   2   64.57    5.65 
   0  -2   2   69.92    5.67 
   0  -2   2   61.61    5.29 
  -1   2  -2   34.21    4.52 
  -1   2  -2   38.24    3.08 
  -1   2  -2   37.51    3.12 
  -1   2  -2   36.89    2.86 
  -1   2  -2   36.32    3.00 
   1  -2   2   35.18    3.11 
   1  -2   2   32.19    2.85 
   1  -2   2   32.18    3.08 
   1  -2   2   34.05    2.97 
  -2   2  -2    3.23    0.42 
  -2   2  -2    4.59    0.45 
  -2   2  -2    3.56    0.51 
  -2   2  -2    3.84    0.51 
  -2   2  -2    3.91    0.32 
  -2   2  -2    3.44    0.77 
  -2   2  -2    3.94    0.40 
   2  -2   2    4.27    0.46 
   2  -2   2    3.61    0.35 
   2  -2   2    3.84    0.50 
   2  -2   2    4.14    0.45 
  -3   2  -2    3.41    0.51 
  -3   2  -2    3.22    0.42 
  -3   2  -2    2.63    0.76 
  -3   2  -2    4.39    0.32 
  -3   2  -2    3.48    0.41 
  -3   2  -2    3.14    0.63 
   3  -2   2    3.98    0.36 
   3  -2   2    4.28    0.56 
   3  -2   2    3.97    0.47 
  -4   2  -2   -0.26    0.58 
  -4   2  -2   -0.03    0.34 
  -4   2  -2    0.32    0.48 
  -4   2  -2   -0.03    0.18 
  -4   2  -2    0.03    0.22 
  -4   2  -2    0.10    0.13 
  -4   2  -2    0.03    0.20 
  -4   2  -2    0.02    0.47 
  -5   2  -2   32.96    2.57 
  -5   2  -2   38.92    2.77 
  -5   2  -2   28.94    2.74 
  -5   2  -2   32.10    4.54 
  -5   2  -2   33.67    3.86 
  -6   2  -2    6.74    0.60 
  -6   2  -2    7.21    0.72 
  -7   2  -2    0.07    0.34 
  -7   2  -2   -0.21    0.37 
  -7   2  -2   -0.07    0.21 
  -8   2  -2    6.24    0.87 
  -8   2  -2    6.37    0.65 
  -8   2  -2    6.92    0.75 
  -8   2  -2    6.77    0.75 
  -8   2  -2    6.92    0.60 
  -9   2  -2   -0.02    0.45 
  -9   2  -2   -0.01    0.38 
 -10   2  -2    8.07    0.93 
 -10   2  -2    8.21    0.81 
 -11  -1   2    5.17    0.54 
 -11  -1   2    6.26    0.60 
 -10  -1   2    0.03    0.35 
 -10  -1   2    0.29    0.28 
 -10  -1   2    0.79    0.56 
  -9  -1   2    5.68    0.63 
  -9  -1   2    4.80    0.76 
  -9  -1   2    5.43    0.58 
  -9  -1   2    5.57    0.81 
  -8  -1   2    0.31    0.33 
  -8  -1   2    0.43    0.43 
  -8  -1   2    0.00    0.29 
  -8  -1   2    0.13    0.47 
  -7  -1   2   19.98    1.47 
  -7  -1   2   18.63    1.86 
  -7  -1   2   11.24    2.61 
  -6  -1   2    0.79    0.60 
  -6  -1   2    0.49    0.18 
  -6  -1   2    0.56    0.31 
  -6  -1   2    0.52    0.37 
  -6  -1   2    0.54    0.50 
  -5  -1   2   11.29    1.33 
  -5  -1   2    8.80    1.51 
  -5  -1   2   10.86    1.07 
  -5  -1   2   14.00    0.96 
  -5  -1   2   13.10    1.53 
  -5  -1   2   13.90    1.22 
   4   1  -2    2.26    0.40 
  -4  -1   2    3.57    0.79 
  -4  -1   2    2.39    0.48 
  -4  -1   2    3.51    0.41 
  -4  -1   2    2.39    0.59 
  -4  -1   2    2.75    0.80 
   3   1  -2    0.33    0.19 
  -3  -1   2    0.31    0.24 
  -3  -1   2    0.30    0.25 
  -3  -1   2    0.21    0.25 
   2   1  -2   37.57    3.38 
  -2  -1   2   41.24    3.93 
  -2  -1   2   41.54    4.32 
  -2  -1   2   40.42    4.31 
   1   1  -2    3.07    0.35 
   1   1  -2    3.74    0.32 
   1   1  -2    3.40    0.35 
  -1  -1   2    3.47    0.29 
  -1  -1   2    2.88    0.28 
  -1  -1   2    2.91    0.34 
   0   1  -2  113.92    9.72 
   0   1  -2  121.19    9.74 
   0   1  -2  112.31    9.44 
   0  -1   2  118.68    9.75 
   0  -1   2  111.06    9.71 
   0  -1   2  102.72    9.15 
  -1   1  -2  121.37    9.25 
  -1   1  -2  120.50    9.60 
  -1   1  -2  120.62   14.45 
  -1   1  -2  124.31    9.91 
  -1   1  -2  115.28    9.88 
  -1   1  -2  101.98    9.26 
   1  -1   2  113.29    9.58 
   1  -1   2  107.04    9.88 
   1  -1   2  110.10    9.90 
  -2   1  -2    4.94    0.55 
  -2   1  -2    4.73    0.80 
  -2   1  -2    5.31    0.44 
  -2   1  -2    4.29    0.36 
  -2   1  -2    4.37    0.50 
  -2   1  -2    4.23    0.46 
   2  -1   2    4.56    0.56 
   2  -1   2    4.82    0.51 
   2  -1   2    4.04    0.40 
   2  -1   2    4.82    0.54 
  -3   1  -2   19.89    2.35 
  -3   1  -2   18.99    1.91 
  -3   1  -2   21.02    1.68 
  -3   1  -2   21.95    1.50 
  -3   1  -2   17.71    1.69 
  -3   1  -2   20.66    2.31 
  -3   1  -2   20.74    2.74 
   3  -1   2   21.01    1.82 
   3  -1   2   18.68    1.65 
  -4   1  -2   25.50    2.14 
  -4   1  -2   28.68    2.33 
  -4   1  -2   27.44    2.29 
  -4   1  -2   32.37    3.25 
  -4   1  -2   24.54    2.85 
  -4   1  -2   30.49    2.90 
  -4   1  -2   33.44    3.75 
  -4   1  -2   23.59    3.12 
  -5   1  -2    6.14    0.88 
  -5   1  -2    6.19    1.10 
  -5   1  -2    7.92    0.60 
  -5   1  -2    6.24    0.64 
  -5   1  -2    8.44    0.69 
  -5   1  -2    6.89    1.17 
  -6   1  -2   -0.15    0.29 
  -6   1  -2    0.13    0.18 
  -7   1  -2   19.21    1.64 
  -7   1  -2   22.92    1.84 
  -7   1  -2   21.19    1.88 
  -8   1  -2    0.00    0.15 
  -8   1  -2   -0.02    0.38 
  -8   1  -2    0.05    0.48 
  -8   1  -2    0.33    0.24 
  -8   1  -2    0.11    0.42 
  -9   1  -2    0.79    0.31 
  -9   1  -2    1.25    0.52 
  -9   1  -2    0.99    0.39 
 -10   1  -2    1.62    0.34 
 -10   1  -2    1.00    0.34 
 -11   0   2    0.80    0.32 
 -11   0   2    1.33    0.34 
 -11   0   2    0.85    0.50 
 -10   0   2    0.98    0.32 
 -10   0   2    1.14    0.38 
 -10   0   2    1.19    0.56 
  -9   0   2    1.84    0.39 
  -9   0   2    2.09    0.72 
  -9   0   2    2.43    0.61 
  -9   0   2    1.95    0.51 
  -9   0   2    1.07    0.41 
  -8   0   2    0.12    0.61 
  -8   0   2   -0.19    0.34 
  -8   0   2    0.14    0.24 
  -8   0   2    0.24    0.39 
  -8   0   2   -0.14    0.41 
  -8   0   2    0.14    0.33 
  -7   0   2    0.81    0.21 
  -7   0   2    0.57    0.46 
  -7   0   2    0.47    0.36 
  -7   0   2    0.84    0.38 
  -6   0   2   12.11    1.64 
  -6   0   2    7.63    2.18 
  -6   0   2   13.76    2.22 
  -6   0   2   15.12    1.47 
  -6   0   2   11.65    1.29 
  -5   0   2   13.70    1.85 
  -5   0   2   16.36    1.24 
  -5   0   2   16.79    1.55 
  -5   0   2   13.17    1.89 
  -5   0   2   16.80    1.37 
  -5   0   2   13.97    1.71 
  -5   0   2   19.86    1.91 
  -4   0   2    0.20    0.31 
  -4   0   2    0.17    0.54 
  -4   0   2    0.22    0.24 
  -4   0   2    0.04    0.32 
  -4   0   2    0.61    0.48 
   3   0  -2    3.28    0.37 
  -3   0   2    3.69    0.33 
  -3   0   2    3.97    0.56 
  -3   0   2    4.21    0.58 
   2   0  -2   78.25    6.32 
  -2   0   2   82.52    8.09 
  -2   0   2   71.74    8.05 
  -2   0   2   79.64    7.34 
  -2   0   2   67.20    6.32 
   1   0  -2   59.72    5.64 
   1   0  -2   64.76    5.47 
  -1   0   2   67.42    5.28 
  -1   0   2   68.00    5.47 
  -1   0   2   61.60    5.64 
  -1   0   2   75.89    5.64 
  -1   0   2   61.31    5.27 
   0   0  -2   66.71    5.77 
   0   0  -2   79.32    8.64 
   0   0  -2   63.85    5.93 
   0   0  -2   74.09    5.96 
   0   0   2   62.08    5.76 
   0   0   2   65.24    5.93 
   0   0   2   70.10    5.96 
  -1   0  -2  388.52   33.50 
  -1   0  -2  372.23   31.44 
  -1   0  -2  366.19   31.45 
  -1   0  -2  410.89   48.93 
   1   0   2  395.97   33.50 
   1   0   2  393.23   32.50 
   1   0   2  413.34   33.53 
  -2   0  -2   33.82    2.82 
  -2   0  -2   27.65    2.78 
  -2   0  -2   28.92    2.35 
  -2   0  -2   33.15    2.59 
  -2   0  -2   32.92    4.09 
  -2   0  -2   33.37    2.60 
   2   0   2   31.24    2.81 
   2   0   2   33.80    2.75 
   2   0   2   31.41    2.84 
  -3   0  -2   22.29    2.04 
  -3   0  -2   17.32    1.66 
  -3   0  -2   21.73    2.28 
  -3   0  -2   20.48    1.64 
  -3   0  -2   19.36    1.47 
  -3   0  -2   18.47    2.31 
  -3   0  -2   18.85    2.63 
  -4   0  -2    4.55    0.50 
  -4   0  -2    6.30    0.85 
  -4   0  -2    5.16    0.55 
  -4   0  -2    4.79    0.45 
  -4   0  -2    5.81    0.89 
  -4   0  -2    5.48    0.95 
  -4   0  -2    6.08    0.44 
  -5   0  -2    1.93    0.24 
  -5   0  -2    2.10    0.22 
  -5   0  -2    2.30    0.31 
  -5   0  -2    2.04    0.28 
  -6   0  -2   15.36    1.28 
  -6   0  -2   13.59    1.14 
  -7   0  -2    8.97    0.75 
  -7   0  -2    9.46    0.90 
  -7   0  -2    8.82    0.82 
  -8   0  -2   10.43    1.00 
  -8   0  -2   10.72    1.15 
  -8   0  -2    9.59    0.93 
  -9   0  -2    2.80    0.40 
  -9   0  -2    3.47    0.47 
  -9   0  -2    3.26    0.60 
 -10   0  -2    3.31    0.40 
 -10   0  -2    2.03    0.38 
 -11   1   2    0.25    0.34 
 -11   1   2    0.32    0.29 
 -11   1   2    0.32    0.50 
 -10   1   2    0.90    0.38 
 -10   1   2    1.41    0.58 
 -10   1   2    0.98    0.38 
  -9   1   2    1.65    0.42 
  -9   1   2    1.57    0.48 
  -9   1   2    1.76    0.63 
  -9   1   2    2.41    0.37 
  -8   1   2   -0.27    0.63 
  -8   1   2   -0.07    0.37 
  -8   1   2   -0.22    0.24 
  -8   1   2    0.86    0.36 
  -8   1   2   -0.26    0.41 
  -7   1   2    3.83    0.73 
  -7   1   2    3.97    0.48 
  -7   1   2    3.62    0.36 
  -7   1   2    2.78    0.51 
  -7   1   2    3.79    0.57 
  -6   1   2    0.67    0.37 
  -6   1   2    0.86    0.66 
  -6   1   2    1.28    0.44 
  -6   1   2    0.45    0.70 
  -6   1   2    1.31    0.53 
  -5   1   2    2.48    0.54 
  -5   1   2    1.34    0.20 
  -5   1   2    1.85    0.45 
  -5   1   2    1.85    0.63 
  -5   1   2    1.55    0.31 
  -5   1   2    2.28    0.37 
  -4   1   2   18.70    2.75 
  -4   1   2   24.17    2.43 
  -4   1   2   25.53    1.95 
  -4   1   2   21.79    2.22 
  -3   1   2    3.15    0.45 
  -3   1   2    2.51    0.50 
  -3   1   2    2.88    0.31 
   2  -1  -2  312.28   29.05 
   2  -1  -2  341.21   29.08 
  -2   1   2  355.26   27.28 
  -2   1   2  337.39   28.18 
  -2   1   2  363.25   27.28 
  -2   1   2  328.27   25.35 
   1  -1  -2   33.90    3.00 
   1  -1  -2   34.55    2.99 
  -1   1   2   36.00    2.89 
  -1   1   2   30.72    2.99 
  -1   1   2   32.76    2.57 
  -1   1   2   35.80    2.77 
  -1   1   2   34.44    2.77 
  -1   1   2   34.67    2.99 
   0  -1  -2    3.88    0.48 
   0  -1  -2    3.12    0.39 
   0   1   2    2.96    0.28 
   0   1   2    3.44    0.40 
   0   1   2    2.76    0.41 
   0   1   2    3.24    0.45 
  -1  -1  -2   64.27    5.54 
  -1  -1  -2   47.72    4.64 
  -1  -1  -2   61.06    4.97 
  -1  -1  -2   47.61    4.21 
   1   1   2   61.96    4.98 
   1   1   2   62.55    5.01 
  -2  -1  -2   34.16    2.77 
  -2  -1  -2   38.71    3.35 
  -2  -1  -2   39.55    3.04 
  -2  -1  -2   31.14    2.52 
  -2  -1  -2   29.93    3.75 
  -2  -1  -2   32.25    2.79 
   2   1   2   34.47    3.01 
   2   1   2   31.75    3.04 
  -3  -1  -2   42.82    4.60 
  -3  -1  -2   39.31    3.08 
  -3  -1  -2   42.41    3.39 
  -3  -1  -2   38.36    3.41 
  -3  -1  -2   45.06    4.12 
  -3  -1  -2   43.00    4.64 
  -4  -1  -2   14.64    1.60 
  -4  -1  -2    9.82    0.91 
  -4  -1  -2   13.99    1.56 
  -4  -1  -2   10.66    1.01 
  -4  -1  -2   10.82    1.04 
  -4  -1  -2   13.11    1.36 
  -4  -1  -2   12.85    0.90 
  -5  -1  -2    6.19    0.62 
  -5  -1  -2    7.27    0.61 
  -5  -1  -2    5.91    0.62 
  -7  -1  -2    7.50    0.73 
  -7  -1  -2    9.09    0.81 
  -7  -1  -2    7.34    0.71 
  -8  -1  -2    5.91    0.62 
  -8  -1  -2    4.91    0.57 
  -9  -1  -2    0.88    0.33 
  -9  -1  -2    1.18    0.30 
 -10  -1  -2    0.39    0.24 
 -12   2   2    0.02    0.16 
 -11   2   2    0.59    0.34 
 -11   2   2    0.40    0.47 
 -10   2   2    3.27    0.50 
 -10   2   2    3.81    0.70 
  -9   2   2    0.40    0.60 
  -9   2   2    0.17    0.42 
  -9   2   2    0.22    0.37 
  -9   2   2    0.29    0.21 
  -8   2   2   -0.43    0.39 
  -8   2   2   -0.14    0.24 
  -8   2   2    0.97    0.34 
  -7   2   2    1.83    0.25 
  -7   2   2    1.73    0.43 
  -7   2   2    1.95    0.45 
  -7   2   2    2.22    0.64 
  -7   2   2    1.45    0.38 
  -6   2   2    4.91    0.50 
  -6   2   2    3.07    1.48 
  -6   2   2    5.22    1.15 
  -6   2   2    3.98    0.79 
  -6   2   2    4.41    0.93 
  -5   2   2   11.54    1.04 
  -5   2   2   10.53    1.18 
  -5   2   2    9.48    1.35 
  -5   2   2   11.06    0.90 
  -5   2   2    8.42    0.79 
   4  -2  -2    9.95    0.93 
  -4   2   2   11.21    1.18 
  -4   2   2    8.33    1.42 
  -4   2   2   10.95    1.03 
  -4   2   2    9.04    1.47 
  -4   2   2    6.78    1.28 
   3  -2  -2  433.87   34.04 
   3  -2  -2  403.23   34.03 
  -3   2   2  395.14   31.93 
  -3   2   2  423.48   31.94 
  -3   2   2  371.87   29.72 
  -3   2   2  349.84   49.70 
  -3   2   2  410.96   42.16 
  -3   2   2  393.13   29.07 
   2  -2  -2  131.71   10.82 
   2  -2  -2  114.66   10.81 
  -2   2   2  135.93    9.22 
  -2   2   2  140.13   10.12 
  -2   2   2  130.77   10.12 
  -2   2   2  108.54   10.79 
  -2   2   2  119.67   10.81 
  -2   2   2  118.63   10.45 
  -2   2   2  130.46    9.42 
   1  -2  -2  140.70   13.52 
   1  -2  -2  163.01   13.54 
  -1   2   2  158.05   12.65 
  -1   2   2  167.94   12.65 
  -1   2   2  142.85   13.53 
  -1   2   2  157.07   13.09 
  -1   2   2  163.50   13.54 
  -1   2   2  161.98   11.76 
   0  -2  -2    5.41    0.62 
   0  -2  -2    6.21    0.67 
   0   2   2    5.87    0.47 
   0   2   2    5.82    0.64 
   0   2   2    5.64    0.67 
  -1  -2  -2   11.32    1.01 
  -1  -2  -2    8.52    0.75 
  -1  -2  -2   10.04    1.06 
   1   2   2   10.85    0.99 
   1   2   2   10.17    1.02 
   1   2   2    9.06    0.79 
   1   2   2    9.98    0.76 
  -2  -2  -2   38.54    3.17 
  -2  -2  -2   39.35    4.70 
  -2  -2  -2   46.37    4.21 
   2   2   2   46.24    3.22 
  -3  -2  -2   37.46    4.25 
  -3  -2  -2   34.08    2.82 
  -3  -2  -2   42.26    3.81 
  -3  -2  -2   40.10    4.27 
  -4  -2  -2    8.50    1.24 
  -4  -2  -2    7.73    1.22 
  -4  -2  -2    8.35    0.66 
  -4  -2  -2    7.45    0.75 
  -4  -2  -2    9.82    1.08 
  -5  -2  -2    0.56    0.21 
  -5  -2  -2   -0.47    0.25 
  -6  -2  -2   12.83    1.08 
  -7  -2  -2    3.97    0.43 
  -7  -2  -2    3.48    0.40 
  -8  -2  -2    0.41    0.29 
  -8  -2  -2    0.57    0.22 
  -9  -2  -2    1.11    0.29 
 -12   3   2    0.10    0.18 
 -11   3   2    0.69    0.24 
 -11   3   2    1.65    0.34 
 -10   3   2    1.15    0.39 
 -10   3   2    1.28    0.48 
 -10   3   2    1.29    0.58 
  -9   3   2   21.40    1.94 
  -9   3   2   15.53    1.61 
  -9   3   2   18.12    1.64 
  -8   3   2    0.72    0.27 
  -8   3   2    1.01    0.42 
  -8   3   2    1.10    0.35 
  -7   3   2    4.31    0.54 
  -7   3   2    3.41    0.37 
  -7   3   2    4.41    0.57 
  -6   3   2    4.34    0.56 
  -5   3   2   11.10    0.97 
  -5   3   2   12.38    1.10 
  -5   3   2   13.23    1.28 
  -5   3   2   13.99    1.11 
  -4   3   2  283.65   21.40 
  -4   3   2  247.94   19.44 
  -3   3   2  249.58   20.65 
  -3   3   2  277.02   18.81 
  -3   3   2  258.34   20.65 
  -3   3   2  242.51   19.24 
   2  -3  -2    1.78    0.36 
   2  -3  -2    1.96    0.37 
  -2   3   2    2.20    0.25 
  -2   3   2    1.90    0.25 
  -2   3   2    2.31    0.24 
  -2   3   2    1.50    0.29 
  -2   3   2    1.71    0.37 
   1  -3  -2    0.42    0.21 
   1  -3  -2    0.54    0.24 
  -1   3   2    0.44    0.18 
  -1   3   2    0.77    0.15 
  -1   3   2    0.56    0.15 
  -1   3   2    0.64    0.25 
   0  -3  -2   12.09    0.89 
   0  -3  -2   11.49    1.16 
   0  -3  -2   10.77    1.32 
   0   3   2    9.72    1.13 
   0   3   2   12.70    0.91 
  -1  -3  -2   25.87    2.04 
  -1  -3  -2   27.80    2.51 
  -1  -3  -2   25.41    3.03 
  -1  -3  -2   27.32    2.77 
   1   3   2   26.07    2.07 
   1   3   2   30.79    2.08 
  -2  -3  -2   51.40    5.79 
  -2  -3  -2   50.84    3.93 
  -2  -3  -2   56.93    5.23 
  -3  -3  -2   27.64    2.64 
  -3  -3  -2   24.37    2.93 
  -3  -3  -2   26.03    2.90 
  -3  -3  -2   23.62    1.91 
  -4  -3  -2    2.68    0.30 
  -4  -3  -2    3.05    0.66 
  -6  -3  -2   10.10    0.98 
  -6  -3  -2   10.74    0.97 
  -6  -3  -2   11.31    1.06 
  -6  -3  -2   13.29    1.02 
  -7  -3  -2    0.11    0.24 
  -7  -3  -2    0.12    0.22 
  -7  -3  -2    0.64    0.29 
  -8  -3  -2    4.11    0.48 
  -8  -3  -2    4.44    0.44 
  -9  -3  -2    1.88    0.30 
  -9  -3  -2    1.80    0.31 
 -12   4   2    1.62    0.30 
 -11   4   2    0.09    0.19 
 -11   4   2   -0.04    0.30 
 -10   4   2    6.75    0.81 
 -10   4   2    6.40    0.76 
 -10   4   2    7.70    0.74 
  -9   4   2    6.70    0.75 
  -9   4   2    6.72    0.81 
  -9   4   2    7.17    0.75 
  -9   4   2    8.44    1.03 
  -8   4   2    2.98    0.56 
  -8   4   2    3.34    0.37 
  -7   4   2    2.67    0.30 
  -7   4   2    2.86    0.51 
  -6   4   2    2.83    0.54 
  -6   4   2    4.23    0.58 
  -5   4   2   58.47    5.01 
  -5   4   2   66.70    5.10 
  -5   4   2   73.67    5.44 
  -4   4   2   91.78    8.57 
  -4   4   2  118.40    8.54 
  -3   4   2   60.20    4.67 
  -3   4   2   55.72    4.38 
  -3   4   2   55.81    4.67 
  -3   4   2   59.32    4.25 
  -3   4   2   56.01    4.72 
  -2   4   2   13.35    1.08 
   1  -4  -2   11.64    0.86 
  -1   4   2   10.23    0.88 
  -1   4   2    9.73    1.15 
  -1   4   2   11.45    0.88 
   0  -4  -2    4.22    0.39 
   0   4   2    4.31    0.40 
  -1  -4  -2    0.52    0.15 
  -1  -4  -2    0.68    0.61 
   1   4   2    0.13    0.15 
   1   4   2    0.07    0.29 
  -2  -4  -2   46.31    4.54 
  -2  -4  -2   44.32    3.37 
  -3  -4  -2    0.46    0.21 
  -3  -4  -2    1.04    0.53 
  -3  -4  -2    0.56    0.58 
  -4  -4  -2   13.84    1.10 
  -5  -4  -2    5.05    0.48 
  -6  -4  -2    5.97    0.54 
  -6  -4  -2    5.33    0.60 
  -6  -4  -2    5.55    0.58 
  -6  -4  -2    6.07    0.57 
  -7  -4  -2    7.88    0.72 
  -7  -4  -2    7.74    0.76 
  -7  -4  -2    7.39    0.71 
   7   4   2    8.68    0.86 
  -8  -4  -2    1.27    0.30 
  -8  -4  -2    1.20    0.27 
  -8  -4  -2    1.07    0.23 
   8   4   2    1.53    0.29 
  -9  -4  -2    2.34    0.27 
  -9  -4  -2    2.44    0.29 
   9   4   2    2.01    0.31 
 -11   5   2    4.10    0.52 
 -10   5   2    0.34    0.44 
 -10   5   2   -0.18    0.24 
 -10   5   2    0.06    0.62 
  -9   5   2    5.63    0.91 
  -9   5   2    4.91    0.65 
  -9   5   2    4.97    0.66 
  -8   5   2   10.43    1.00 
  -8   5   2   10.17    1.14 
  -8   5   2   10.50    1.30 
  -7   5   2    0.41    0.20 
  -7   5   2    0.30    0.46 
  -6   5   2    9.95    1.32 
  -6   5   2   13.16    1.21 
  -5   5   2   35.31    3.07 
  -5   5   2   41.35    2.94 
  -5   5   2   37.83    3.08 
  -4   5   2    0.45    0.28 
  -4   5   2    0.18    0.29 
  -4   5   2    0.12    0.21 
  -3   5   2   11.99    0.95 
  -3   5   2   11.47    1.00 
  -2   5   2   13.92    1.15 
  -2   5   2   14.14    1.12 
   1  -5  -2    6.51    0.54 
  -1   5   2    4.88    0.55 
  -1   5   2    6.84    0.56 
   0  -5  -2    1.85    0.28 
   0   5   2    1.73    0.27 
  -1  -5  -2   46.43    4.60 
  -1  -5  -2   40.72    3.31 
   1   5   2   47.82    3.36 
  -2  -5  -2    0.91    0.23 
  -2  -5  -2    1.66    0.57 
  -3  -5  -2   18.97    1.49 
  -3  -5  -2   19.22    2.17 
  -4  -5  -2    2.86    0.36 
  -4  -5  -2    2.72    0.31 
  -5  -5  -2    9.89    0.86 
  -5  -5  -2    9.82    0.84 
  -5  -5  -2    9.37    0.92 
  -5  -5  -2    9.12    0.88 
   5   5   2   10.24    1.02 
  -6  -5  -2   15.87    1.29 
  -6  -5  -2   13.08    1.33 
  -6  -5  -2   15.74    1.38 
  -6  -5  -2   16.62    1.31 
   6   5   2   16.79    1.55 
  -7  -5  -2   11.80    1.07 
  -7  -5  -2   11.66    1.00 
  -7  -5  -2   11.92    1.02 
   7   5   2   11.96    1.20 
  -8  -5  -2    0.20    0.18 
  -8  -5  -2    0.76    0.29 
  -8  -5  -2    0.31    0.25 
   8   5   2    0.31    0.23 
 -11   6   2    0.65    0.22 
 -10   6   2   -0.14    0.61 
 -10   6   2    0.11    0.39 
  -9   6   2    3.25    0.56 
  -9   6   2    3.36    0.81 
  -9   6   2    2.45    0.39 
  -6   6   2    0.16    0.51 
  -5   6   2   35.34    2.71 
  -5   6   2   33.43    2.84 
  -5   6   2   35.41    2.62 
  -4   6   2    0.14    0.31 
  -3   6   2    4.30    0.45 
  -3   6   2    3.92    0.52 
  -2   6   2   26.84    2.09 
  -2   6   2   27.89    2.16 
   1  -6  -2   -0.28    0.23 
  -1   6   2    0.71    0.28 
  -1   6   2    0.36    0.26 
   0  -6  -2    0.51    0.23 
   0   6   2    0.94    0.34 
   0   6   2    0.78    0.25 
  -1  -6  -2    4.45    0.42 
   1   6   2    4.61    0.54 
  -2  -6  -2   21.43    2.57 
  -2  -6  -2   24.79    1.83 
  -3  -6  -2    0.24    0.29 
  -3  -6  -2    0.00    0.19 
  -3  -6  -2    0.28    0.25 
  -3  -6  -2   -0.04    0.37 
  -4  -6  -2   16.65    1.48 
  -4  -6  -2   16.46    1.39 
  -4  -6  -2   17.92    1.34 
  -5  -6  -2   11.38    1.03 
  -5  -6  -2   11.50    0.99 
  -5  -6  -2   12.23    1.07 
   5   6   2   11.48    1.19 
  -6  -6  -2   14.78    1.21 
  -6  -6  -2   14.08    1.29 
   6   6   2   14.33    1.45 
  -7  -6  -2    7.21    0.64 
  -7  -6  -2    7.20    0.61 
  -7  -6  -2    6.58    0.67 
   7   6   2    6.35    0.73 
  -8  -6  -2    0.61    0.27 
   8   6   2    0.43    0.23 
 -11   7   2    0.54    0.20 
 -10   7   2   -0.05    0.42 
 -10   7   2    0.53    0.26 
  -9   7   2    1.60    0.74 
  -9   7   2    1.54    0.49 
  -8   7   2    8.28    1.25 
  -7   7   2    1.48    0.88 
  -7   7   2   -0.58    0.41 
  -7   7   2    1.37    0.65 
  -6   7   2    1.63    0.53 
  -5   7   2    3.20    0.47 
  -5   7   2    4.09    0.48 
  -4   7   2    5.87    0.73 
  -3   7   2    1.18    0.38 
  -3   7   2    1.38    0.27 
  -2   7   2    5.02    0.58 
  -2   7   2    5.27    0.51 
   1  -7  -2   30.83    2.37 
  -1   7   2   31.85    2.46 
   0  -7  -2   -0.03    0.34 
   0  -7  -2   -0.15    0.25 
   0   7   2   -0.25    0.36 
  -1  -7  -2   31.51    2.29 
  -1  -7  -2   27.69    3.23 
  -2  -7  -2    0.17    0.39 
  -2  -7  -2    0.33    0.27 
  -2  -7  -2    0.16    0.32 
  -3  -7  -2    5.98    0.53 
  -3  -7  -2    4.80    0.66 
  -3  -7  -2    6.41    0.59 
  -3  -7  -2    5.33    0.58 
  -4  -7  -2    7.58    0.96 
  -4  -7  -2   10.30    0.95 
  -4  -7  -2    9.34    0.89 
  -4  -7  -2   10.00    0.84 
   4   7   2   10.87    1.03 
  -5  -7  -2   15.06    1.23 
  -5  -7  -2   12.40    1.26 
  -5  -7  -2   15.74    1.31 
   5   7   2   16.23    1.48 
  -6  -7  -2   10.54    0.87 
  -6  -7  -2   10.61    0.93 
   6   7   2    9.47    1.05 
  -7  -7  -2    0.10    0.22 
  -7  -7  -2    0.03    0.17 
   7   7   2   -0.03    0.23 
 -11   8   2    1.20    0.26 
 -10   8   2    0.07    0.22 
  -9   8   2    0.00    0.45 
  -9   8   2    0.13    0.26 
  -8   8   2    1.07    0.64 
  -7   8   2    8.32    0.83 
  -7   8   2   10.69    1.20 
  -7   8   2    8.69    1.04 
   6  -8  -2    4.91    0.62 
  -6   8   2    4.23    0.86 
  -6   8   2    3.29    0.61 
  -5   8   2    1.63    0.42 
  -5   8   2    2.21    0.47 
  -4   8   2   36.07    3.00 
  -3   8   2    0.72    0.23 
  -2   8   2    0.23    0.19 
   1  -8  -2   -0.12    0.27 
  -1   8   2    0.03    0.41 
   0  -8  -2   15.45    1.11 
   0  -8  -2    8.99    1.64 
   0  -8  -2   13.13    1.24 
   0   8   2   15.19    1.22 
  -1  -8  -2    0.10    0.32 
  -1  -8  -2    0.33    0.42 
  -1  -8  -2    0.17    0.20 
  -2  -8  -2   13.97    1.11 
  -2  -8  -2    9.97    1.23 
  -2  -8  -2   15.97    1.21 
   2   8   2   12.67    1.36 
  -3  -8  -2    7.50    0.64 
  -3  -8  -2    5.03    0.69 
  -3  -8  -2    5.64    0.67 
   3   8   2    6.27    0.72 
  -4  -8  -2    3.78    0.39 
  -4  -8  -2    2.86    0.47 
  -4  -8  -2    2.77    0.36 
  -4  -8  -2    4.19    0.46 
   4   8   2    3.14    0.48 
  -5  -8  -2    6.51    0.60 
  -5  -8  -2    7.37    0.69 
  -5  -8  -2    6.88    0.62 
   5   8   2    6.82    0.76 
  -6  -8  -2    1.09    0.26 
  -6  -8  -2    1.18    0.24 
   6   8   2    0.90    0.30 
   7   8   2    5.48    0.58 
 -10   9   2    2.26    0.38 
  -9   9   2    0.69    0.18 
  -9   9   2    0.72    0.27 
  -8   9   2    0.45    0.59 
  -8   9   2   -0.65    0.42 
  -7   9   2    0.95    0.34 
  -7   9   2    0.66    0.25 
   6  -9  -2    0.46    0.36 
  -6   9   2   -0.09    0.53 
   5  -9  -2    1.70    0.36 
  -5   9   2    1.63    0.64 
  -5   9   2    0.98    0.39 
  -4   9   2   10.19    1.05 
  -3   9   2    3.35    0.56 
  -3   9   2    2.77    0.62 
   2  -9  -2    5.45    0.65 
  -2   9   2    5.77    0.72 
  -2   9   2    5.99    0.73 
   1  -9  -2   34.97    2.96 
   1  -9  -2   34.36    2.64 
  -1   9   2   34.51    2.72 
   0  -9  -2    0.03    0.20 
   0  -9  -2   -0.18    0.36 
   0   9   2   -0.25    0.51 
   0   9   2   -0.17    0.30 
  -1  -9  -2    2.56    0.41 
  -2  -9  -2   11.97    1.34 
  -2  -9  -2   15.09    1.28 
   2   9   2   15.34    1.48 
  -3  -9  -2    1.01    0.32 
  -3  -9  -2    1.06    0.35 
  -3  -9  -2    1.33    0.26 
   3   9   2    1.02    0.37 
  -4  -9  -2    1.31    0.33 
  -4  -9  -2    1.79    0.26 
  -4  -9  -2    1.85    0.33 
   4   9   2    1.83    0.37 
  -5  -9  -2    0.41    0.22 
   5   9   2    0.95    0.28 
   6   9   2    9.06    0.93 
 -10  10   2    0.06    0.17 
   9 -10  -2    0.21    0.22 
  -9  10   2    0.07    0.21 
  -8  10   2    0.21    0.64 
  -8  10   2    0.25    0.51 
  -7  10   2    1.36    0.83 
  -7  10   2    1.38    0.60 
  -6  10   2    0.56    0.40 
  -5  10   2    0.06    0.31 
  -5  10   2    0.02    0.55 
  -5  10   2   -0.06    0.39 
  -4  10   2    9.36    1.03 
   3 -10  -2    1.14    0.32 
   3 -10  -2    1.18    0.39 
  -3  10   2    1.54    0.44 
  -3  10   2    0.71    0.37 
  -3  10   2    1.13    0.66 
   2 -10  -2    1.08    0.37 
   2 -10  -2    0.68    0.16 
  -2  10   2    0.63    0.52 
  -2  10   2    1.30    0.56 
   1 -10  -2    0.04    0.39 
  -1  10   2    0.43    0.30 
  -1  10   2    1.31    0.59 
   0 -10  -2   -0.19    0.37 
   0  10   2   -0.04    0.29 
  -1 -10  -2   -0.23    0.27 
  -2 -10  -2    2.09    0.41 
  -2 -10  -2    1.65    0.30 
   2  10   2    1.10    0.40 
  -3 -10  -2    8.33    0.87 
  -3 -10  -2    9.55    0.80 
   3  10   2    8.18    0.95 
  -4 -10  -2    2.42    0.31 
  -4 -10  -2    1.69    0.34 
  -4 -10  -2    2.87    0.28 
   4  10   2    2.53    0.39 
   5  10   2    4.95    0.56 
   9 -11  -2    1.47    0.21 
  -9  11   2    0.42    0.19 
   8 -11  -2    0.27    0.21 
  -8  11   2    0.38    0.49 
  -7  11   2    0.18    0.44 
  -7  11   2    0.09    0.26 
  -6  11   2    0.67    0.35 
  -5  11   2    3.14    0.42 
  -5  11   2    2.74    0.63 
  -4  11   2    0.16    0.32 
  -4  11   2    0.04    0.41 
   3 -11  -2   12.55    1.31 
  -3  11   2   16.02    1.28 
  -3  11   2   14.75    1.61 
   2 -11  -2    1.65    0.39 
  -2  11   2    2.23    0.56 
   1 -11  -2    0.69    0.36 
  -1  11   2    0.36    0.29 
  -1  11   2    0.79    0.58 
   0 -11  -2    0.54    0.38 
   0 -11  -2    0.15    0.27 
   0  11   2   -0.18    0.50 
   0  11   2   -0.19    0.36 
  -1 -11  -2    3.17    0.33 
   1  11   2    0.46    0.49 
  -2 -11  -2   14.32    1.19 
  -2 -11  -2   14.46    1.24 
   2  11   2   11.72    1.48 
  -3 -11  -2    1.16    0.19 
   3  11   2   -0.04    0.33 
   8 -12  -2    0.01    0.17 
   7 -12  -2    0.75    0.15 
  -7  12   2    0.26    0.17 
  -7  12   2    1.16    0.50 
  -6  12   2    0.06    0.26 
  -6  12   2   -0.12    0.49 
  -5  12   2    3.56    0.43 
  -5  12   2    4.07    0.58 
  -5  12   2    3.59    0.60 
  -4  12   2    9.81    0.96 
   3 -12  -2    1.86    0.35 
  -3  12   2    1.00    0.35 
  -3  12   2    2.70    0.55 
  -3  12   2    2.84    0.39 
   2 -12  -2    0.52    0.36 
  -2  12   2    0.58    0.48 
  -2  12   2    0.10    0.45 
   1 -12  -2   -0.69    0.34 
  -1  12   2    0.17    0.47 
  -1  12   2   -0.03    0.47 
  -1  12   2   -0.13    0.25 
   0 -12  -2    0.09    0.32 
   0 -12  -2    0.20    0.22 
   0  12   2    0.06    0.47 
   0  12   2    0.04    0.31 
  -1 -12  -2    8.62    0.78 
   1  12   2    8.73    0.84 
  -2 -12  -2    0.63    0.19 
   2  12   2    0.26    0.34 
   6 -13  -2    0.48    0.09 
  -6  13   2    0.50    0.42 
   5 -13  -2    2.45    0.33 
  -5  13   2    1.14    0.62 
  -5  13   2    2.53    0.31 
  -5  13   2    3.75    0.46 
  -4  13   2    1.48    0.30 
  -3  13   2    2.74    0.51 
  -3  13   2    2.56    0.46 
  -2  13   2    0.98    0.32 
  -2  13   2    1.43    0.41 
   1 -13  -2   -0.13    0.24 
  -1  13   2    0.06    0.35 
  -1  13   2    0.10    0.27 
  -1  13   2    0.63    0.38 
   0  13   2    9.56    0.81 
   0  13   2    8.98    1.01 
   0 -15   3    3.33    0.34 
   1 -15   3    0.34    0.34 
   1 -15   3    0.38    0.12 
  -2  15  -3    3.30    0.43 
   2 -15   3    3.71    0.40 
  -3  15  -3   -0.03    0.13 
   3 -15   3    0.10    0.24 
  -4  15  -3    0.10    0.18 
   3  14  -3    4.06    0.52 
   2  14  -3   -0.23    0.34 
  -2 -14   3    0.00    0.24 
  -2 -14   3   -0.03    0.10 
   1  14  -3    5.48    0.85 
  -1 -14   3    5.23    0.61 
   0  14  -3   -0.07    0.46 
   0 -14   3    0.06    0.29 
   0 -14   3   -0.17    0.12 
   1 -14   3    2.28    0.47 
   1 -14   3    2.31    0.30 
  -2  14  -3   -0.11    0.18 
   2 -14   3   -0.37    0.28 
  -3  14  -3    0.17    0.19 
   3 -14   3    0.15    0.29 
  -4  14  -3    5.69    0.63 
   4 -14   3    6.81    0.64 
  -5  14  -3   -0.14    0.23 
  -5  14  -3   -0.23    0.15 
   5 -14   3   -0.03    0.26 
  -6  14  -3    0.17    0.19 
   4  13  -3    7.47    0.82 
   3  13  -3   -0.15    0.36 
  -3 -13   3   -0.10    0.26 
  -3 -13   3    0.11    0.10 
   2  13  -3    8.47    1.05 
  -2 -13   3    9.63    0.91 
  -2 -13   3   11.10    0.90 
  -2 -13   3    9.17    0.85 
  -1 -13   3    2.09    0.42 
  -1 -13   3    1.22    0.41 
   0  13  -3    0.39    0.52 
   0  13  -3    0.33    0.42 
   0 -13   3    0.55    0.35 
   0 -13   3    0.32    0.36 
   1 -13   3    0.03    0.14 
   1 -13   3   -0.26    0.40 
  -2  13  -3    1.13    0.33 
  -2  13  -3    1.41    0.29 
   2 -13   3    1.22    0.37 
  -3  13  -3    4.39    0.56 
   3 -13   3    4.51    0.52 
  -4  13  -3    2.94    0.61 
  -4  13  -3    2.41    0.40 
   4 -13   3    2.14    0.37 
  -5  13  -3    0.16    0.19 
  -5  13  -3   -0.23    0.27 
  -5  13  -3   -0.04    0.18 
   5 -13   3   -0.06    0.26 
   5 -13   3    0.02    0.08 
  -6  13  -3    0.24    0.17 
  -6  13  -3    0.48    0.28 
  -6  13  -3    0.21    0.16 
   6 -13   3    0.14    0.20 
  -7  13  -3    0.16    0.20 
   7 -13   3    0.42    0.17 
   5  12  -3    7.01    0.75 
   4  12  -3   -0.07    0.23 
  -4 -12   3   -0.05    0.28 
  -4 -12   3   -0.10    0.09 
   3  12  -3    6.10    0.72 
  -3 -12   3    5.64    0.70 
  -3 -12   3    4.60    0.62 
   2  12  -3    5.82    0.73 
  -2 -12   3    4.92    0.50 
  -2 -12   3    5.46    0.59 
  -2 -12   3    5.02    0.60 
   1  12  -3   -0.45    0.56 
  -1 -12   3    0.23    0.39 
  -1 -12   3    0.65    0.43 
  -1 -12   3   -0.12    0.38 
   0  12  -3    1.30    0.35 
   0 -12   3    1.86    0.40 
   0 -12   3    2.42    0.40 
  -1  12  -3   -0.20    0.54 
   1 -12   3   -0.14    0.44 
  -2  12  -3    0.08    0.35 
  -2  12  -3   -0.07    0.34 
   2 -12   3    0.39    0.32 
  -3  12  -3   -0.20    0.23 
  -4  12  -3    3.52    0.50 
   4 -12   3    3.59    0.46 
  -5  12  -3   -0.52    0.32 
  -5  12  -3   -0.05    0.20 
  -5  12  -3    0.14    0.21 
   5 -12   3    0.00    0.24 
  -6  12  -3    0.07    0.19 
  -6  12  -3    0.23    0.18 
  -6  12  -3    0.15    0.30 
  -6  12  -3    0.33    0.19 
   6 -12   3    0.16    0.23 
  -7  12  -3    1.41    0.32 
  -7  12  -3    1.75    0.23 
   7 -12   3    1.15    0.26 
  -8  12  -3    0.39    0.19 
   8 -12   3    0.12    0.15 
   6  11  -3   18.85    1.83 
  -6 -11   3   17.71    1.63 
  -6 -11   3   17.69    1.63 
   5  11  -3    0.53    0.34 
  -5 -11   3    0.91    0.29 
   4  11  -3    3.52    0.53 
  -4 -11   3    4.63    0.53 
  -4 -11   3    4.50    0.42 
   3  11  -3    0.29    0.42 
  -3 -11   3    0.40    0.44 
  -3 -11   3    0.52    0.33 
   2  11  -3   -0.56    0.44 
  -2 -11   3    0.02    0.34 
  -2 -11   3    0.01    0.36 
  -2 -11   3   -0.33    0.45 
  -2 -11   3   -0.20    0.30 
   1  11  -3    0.79    0.58 
  -1 -11   3    0.72    0.62 
  -1 -11   3    0.41    0.36 
  -1 -11   3    0.65    0.41 
  -1 -11   3    0.61    0.47 
   0  11  -3    0.36    0.30 
   0  11  -3   -0.15    0.48 
   0 -11   3    0.36    0.31 
   0 -11   3   -0.03    0.36 
   0 -11   3    0.40    0.21 
  -1  11  -3    3.90    0.67 
  -1  11  -3    3.50    0.66 
   1 -11   3    3.57    0.56 
   1 -11   3    2.54    0.37 
  -2  11  -3    0.10    0.31 
  -2  11  -3   -0.08    0.41 
  -2  11  -3    0.14    0.25 
   2 -11   3   -0.76    0.31 
  -3  11  -3    1.76    0.44 
  -3  11  -3    1.03    0.45 
   3 -11   3    2.21    0.35 
  -4  11  -3   -0.39    0.36 
   4 -11   3    0.39    0.27 
  -5  11  -3   11.46    1.05 
  -5  11  -3    9.03    0.88 
   5 -11   3    7.91    0.91 
  -6  11  -3    0.78    0.24 
  -6  11  -3    0.72    0.26 
  -6  11  -3    0.46    0.24 
  -6  11  -3    0.87    0.37 
   6 -11   3    0.44    0.28 
  -7  11  -3    0.16    0.22 
  -7  11  -3    0.34    0.29 
  -7  11  -3    0.27    0.15 
   7 -11   3   -0.17    0.23 
  -8  11  -3    0.36    0.24 
   8 -11   3    0.74    0.20 
   9 -11   3    0.00    0.13 
   7  10  -3   12.42    1.26 
  -7 -10   3   11.71    1.05 
  -7 -10   3   13.59    1.13 
   6  10  -3    0.08    0.35 
  -6 -10   3    0.02    0.33 
  -6 -10   3    0.24    0.36 
  -6 -10   3    0.43    0.28 
   5  10  -3   -0.14    0.26 
  -5 -10   3   -0.21    0.25 
  -5 -10   3    0.00    0.33 
   4  10  -3   -0.04    0.26 
  -4 -10   3   -0.60    0.32 
  -4 -10   3   -0.65    0.43 
  -4 -10   3    0.00    0.11 
   3  10  -3   -0.22    0.50 
  -3 -10   3   -0.01    0.46 
  -3 -10   3   -0.47    0.44 
  -3 -10   3   -0.16    0.27 
  -3 -10   3   -0.05    0.45 
   2  10  -3    0.86    0.43 
  -2 -10   3    1.38    0.30 
  -2 -10   3    1.52    0.31 
  -2 -10   3    1.29    0.40 
  -2 -10   3    0.64    0.51 
  -2 -10   3    1.57    0.41 
  -1 -10   3    0.19    0.31 
  -1 -10   3    0.13    0.57 
  -1 -10   3    0.74    0.44 
  -1 -10   3    0.33    0.36 
  -1 -10   3    0.74    0.37 
   0 -10   3   35.58    2.65 
   0 -10   3   33.99    3.66 
  -1  10  -3   -0.18    0.34 
  -1  10  -3    0.14    0.50 
   1 -10   3   -0.13    0.28 
   1 -10   3    0.03    0.62 
   1 -10   3    0.14    0.31 
  -2  10  -3   16.29    1.64 
  -2  10  -3   15.38    1.27 
   2 -10   3   14.69    1.25 
  -3  10  -3    1.85    0.44 
  -3  10  -3    2.48    0.42 
  -3  10  -3    1.18    0.45 
  -4  10  -3    9.45    0.83 
  -4  10  -3    7.90    1.02 
   4 -10   3    8.40    0.89 
  -5  10  -3   14.95    1.38 
  -5  10  -3   12.71    1.57 
  -5  10  -3   17.25    1.51 
   5 -10   3   15.26    1.49 
  -6  10  -3    0.13    0.38 
  -6  10  -3    0.57    0.24 
  -6  10  -3    0.33    0.22 
  -6  10  -3   -0.02    0.23 
   6 -10   3    0.12    0.26 
  -7  10  -3    0.10    0.16 
  -7  10  -3    0.31    0.24 
  -7  10  -3    0.33    0.30 
   7 -10   3    0.14    0.25 
  -8  10  -3    0.72    0.27 
  -8  10  -3    0.55    0.22 
   8 -10   3    0.73    0.21 
  -9  10  -3    0.58    0.23 
   9 -10   3    0.60    0.17 
  -8  -9   3   -0.01    0.22 
  -8  -9   3    0.17    0.22 
  -8  -9   3   -0.51    0.16 
   7   9  -3    1.24    0.34 
  -7  -9   3    1.10    0.33 
  -7  -9   3    0.97    0.21 
  -7  -9   3    1.36    0.28 
  -7  -9   3    1.41    0.28 
   6   9  -3   10.76    1.07 
  -6  -9   3   10.35    1.00 
  -6  -9   3    9.04    0.90 
  -6  -9   3    8.15    1.02 
   5   9  -3    0.68    0.28 
  -5  -9   3    1.14    0.24 
  -5  -9   3    0.85    0.31 
  -5  -9   3    0.65    0.36 
  -5  -9   3    1.54    0.49 
  -5  -9   3    0.55    0.24 
   4   9  -3   11.19    1.16 
  -4  -9   3   12.66    1.08 
  -4  -9   3   10.48    1.07 
  -4  -9   3   10.61    1.24 
  -4  -9   3   11.60    1.01 
  -3  -9   3    7.51    0.62 
  -3  -9   3    7.20    0.89 
  -3  -9   3    6.30    0.68 
  -3  -9   3    7.08    0.79 
  -2  -9   3    8.72    0.78 
  -2  -9   3    6.42    0.91 
  -2  -9   3    8.02    0.68 
  -2  -9   3    6.51    1.13 
  -1  -9   3   21.69    1.94 
  -1  -9   3   20.67    1.68 
  -1  -9   3   17.63    2.78 
   0   9  -3    0.60    0.30 
   0  -9   3    0.30    0.53 
   0  -9   3    0.37    0.23 
  -1   9  -3   44.91    3.72 
   1  -9   3   51.36    3.74 
   1  -9   3   53.66    4.12 
  -2   9  -3    4.19    0.68 
  -2   9  -3    2.13    1.21 
  -2   9  -3    3.83    0.45 
   2  -9   3    3.28    0.43 
   2  -9   3    3.19    0.43 
  -3   9  -3   11.59    0.92 
  -3   9  -3    8.66    1.11 
   3  -9   3   10.95    0.97 
  -4   9  -3    3.30    0.45 
  -4   9  -3    2.42    0.57 
  -5   9  -3    7.17    0.70 
  -5   9  -3   12.53    1.27 
  -5   9  -3    8.38    0.85 
  -5   9  -3    9.62    1.01 
  -6   9  -3   -0.10    0.33 
  -6   9  -3   -0.10    0.19 
  -6   9  -3    0.67    0.38 
  -6   9  -3    0.26    0.23 
  -6   9  -3    0.21    0.23 
   6  -9   3    0.12    0.25 
  -7   9  -3    0.92    0.21 
  -7   9  -3    0.67    0.34 
  -7   9  -3    0.14    0.62 
   7  -9   3    0.93    0.27 
  -8   9  -3    3.69    0.57 
  -8   9  -3    3.95    0.51 
   8  -9   3    4.15    0.46 
  -9   9  -3   -0.21    0.22 
   9  -9   3    0.05    0.16 
  -9  -8   3    3.60    0.34 
  -8  -8   3    7.11    0.64 
  -8  -8   3    7.43    0.71 
  -8  -8   3    7.16    0.64 
  -7  -8   3    3.08    0.36 
  -7  -8   3    2.98    0.36 
  -7  -8   3    3.97    0.47 
  -7  -8   3    3.09    0.42 
  -6  -8   3    7.86    0.84 
  -6  -8   3    7.70    0.86 
  -6  -8   3    6.90    0.69 
  -6  -8   3    6.84    0.69 
  -5  -8   3   17.79    1.62 
  -5  -8   3   17.06    1.49 
  -5  -8   3   20.40    1.62 
  -5  -8   3   15.54    1.84 
  -5  -8   3   18.69    1.54 
  -4  -8   3   12.62    1.82 
  -4  -8   3   14.88    1.31 
  -4  -8   3   14.69    1.50 
  -3  -8   3    1.78    0.27 
  -3  -8   3    1.00    0.51 
  -3  -8   3    1.63    0.58 
  -2  -8   3   28.60    2.65 
  -2  -8   3   26.91    2.08 
  -2  -8   3   27.07    2.92 
  -1  -8   3    0.11    0.87 
  -1  -8   3    0.78    0.29 
   0   8  -3  105.56    7.71 
   0  -8   3   95.50   10.18 
   0  -8   3  104.21    7.70 
   0  -8   3  110.99    8.49 
  -1   8  -3   10.99    0.92 
   1  -8   3   11.71    1.00 
   1  -8   3   10.66    0.92 
  -2   8  -3   22.13    1.72 
  -2   8  -3   15.13    3.35 
  -2   8  -3   22.23    2.20 
   2  -8   3   23.87    1.89 
   2  -8   3   24.03    1.74 
  -3   8  -3   21.17    1.62 
  -3   8  -3   22.77    2.14 
   3  -8   3   19.32    1.76 
  -4   8  -3    2.84    0.51 
  -4   8  -3    2.26    0.40 
   4  -8   3    2.39    0.38 
  -5   8  -3    0.18    0.31 
  -5   8  -3    0.62    0.31 
  -5   8  -3    0.03    0.50 
  -6   8  -3    3.05    0.34 
  -6   8  -3    2.83    0.59 
  -6   8  -3    3.69    0.47 
  -6   8  -3    3.65    0.61 
  -6   8  -3    4.62    0.68 
   6  -8   3    3.74    0.45 
  -7   8  -3   -0.10    0.58 
  -7   8  -3    0.05    0.68 
  -7   8  -3    0.12    0.16 
   7  -8   3    0.36    0.25 
  -8   8  -3    0.05    0.25 
  -8   8  -3    0.10    0.21 
   8  -8   3    0.00    0.14 
  -9   8  -3    2.56    0.36 
  -9   8  -3    2.28    0.43 
   9  -8   3    2.56    0.31 
  10  -8   3    0.17    0.14 
  -9  -7   3    0.01    0.18 
  -8  -7   3    1.06    0.25 
  -8  -7   3    1.01    0.17 
  -7  -7   3    0.24    0.26 
  -7  -7   3    0.59    0.15 
  -7  -7   3    0.38    0.32 
  -7  -7   3    0.52    0.37 
  -6  -7   3   64.15    5.29 
  -6  -7   3   63.36    5.92 
  -6  -7   3   59.01    5.16 
  -6  -7   3   63.54    5.01 
  -6  -7   3   59.31    5.33 
  -5  -7   3   50.76    5.92 
  -5  -7   3   61.53    4.65 
  -5  -7   3   60.26    5.45 
  -5  -7   3   56.18    4.89 
  -4  -7   3    0.22    0.24 
  -4  -7   3    0.09    0.30 
  -4  -7   3    0.69    0.17 
  -4  -7   3    0.18    0.38 
  -4  -7   3    0.40    0.47 
  -3  -7   3   60.31    6.05 
  -2  -7   3    5.69    0.66 
  -2  -7   3    5.31    0.85 
  -2  -7   3    5.37    0.49 
  -1  -7   3   14.81    2.27 
  -1  -7   3   16.96    1.35 
   0   7  -3   76.23    5.64 
   0  -7   3   77.79    6.22 
   0  -7   3   75.08    5.64 
  -1   7  -3   35.74    2.74 
   1  -7   3   39.60    3.03 
   1  -7   3   34.46    2.76 
  -2   7  -3    4.46    0.61 
  -2   7  -3    3.76    0.41 
  -2   7  -3    3.31    1.19 
   2  -7   3    4.08    0.44 
   2  -7   3    4.15    0.43 
  -3   7  -3    4.66    1.48 
  -3   7  -3    7.25    0.61 
  -3   7  -3    5.96    0.76 
   3  -7   3    7.71    0.66 
  -4   7  -3    3.47    0.39 
  -4   7  -3    2.65    1.25 
  -4   7  -3    2.62    0.50 
   4  -7   3    3.44    0.41 
  -5   7  -3   10.86    0.90 
  -5   7  -3    9.59    1.18 
  -5   7  -3   11.84    1.11 
  -5   7  -3   11.89    0.92 
   5  -7   3   10.79    0.99 
  -6   7  -3    2.21    0.26 
  -6   7  -3    2.66    0.58 
  -6   7  -3    2.13    0.46 
  -6   7  -3    1.81    0.24 
  -6   7  -3    2.06    0.35 
  -7   7  -3   -0.40    0.70 
  -7   7  -3   -0.11    0.23 
  -7   7  -3    0.06    0.15 
  -7   7  -3    0.06    0.26 
  -7   7  -3    0.17    0.20 
   7  -7   3    0.27    0.24 
  -8   7  -3    8.27    0.68 
   8  -7   3    8.44    0.84 
  -9   7  -3    0.11    0.23 
  -9   7  -3    0.48    0.18 
   9  -7   3    0.60    0.17 
  10  -7   3   -0.15    0.14 
 -10  -6   3   -0.02    0.16 
  -8  -6   3    1.66    0.29 
  -8  -6   3    1.01    0.58 
  -8  -6   3    1.82    0.50 
  -7  -6   3    5.76    0.92 
  -7  -6   3    7.23    0.80 
  -7  -6   3    8.38    0.99 
  -7  -6   3    7.93    0.76 
  -7  -6   3    7.92    0.70 
  -6  -6   3   97.94    8.58 
  -6  -6   3  110.08    8.19 
  -6  -6   3  105.56    9.56 
  -6  -6   3   93.42    8.67 
  -5  -6   3    5.05    0.68 
  -5  -6   3    5.02    0.58 
  -5  -6   3    5.15    1.03 
  -4  -6   3   27.75    2.87 
  -4  -6   3   25.81    2.18 
  -4  -6   3   26.38    2.53 
  -3  -6   3    9.48    0.86 
  -3  -6   3    8.63    1.18 
  -2  -6   3   35.22    3.89 
  -2  -6   3   41.69    3.63 
  -2  -6   3   38.62    2.88 
  -1  -6   3    1.71    0.66 
  -1  -6   3    1.56    0.27 
   0   6  -3   23.97    1.80 
   0  -6   3   21.95    1.97 
   0  -6   3   25.91    1.81 
  -1   6  -3   27.46    2.12 
   1  -6   3   31.61    2.14 
   1  -6   3   26.31    2.34 
  -2   6  -3    0.25    0.61 
  -2   6  -3    0.18    0.36 
  -2   6  -3    0.00    0.19 
   2  -6   3    0.22    0.26 
   2  -6   3    0.04    0.18 
  -3   6  -3   29.95    2.58 
  -3   6  -3   28.52    3.80 
  -3   6  -3   23.68    1.99 
   3  -6   3   26.09    2.20 
  -4   6  -3    0.36    0.40 
  -4   6  -3    0.74    0.47 
  -4   6  -3   -0.47    0.89 
  -4   6  -3    0.69    0.22 
  -4   6  -3    0.43    0.11 
   4  -6   3    0.64    0.23 
  -5   6  -3    0.88    1.21 
  -5   6  -3    4.20    0.72 
  -5   6  -3    3.68    0.39 
  -5   6  -3    3.30    0.55 
  -5   6  -3    3.38    0.38 
   5  -6   3    3.80    0.41 
  -6   6  -3   18.88    1.57 
  -6   6  -3   17.36    1.35 
  -6   6  -3   14.36    1.68 
  -7   6  -3    5.01    0.48 
  -7   6  -3    4.49    0.96 
  -7   6  -3    4.10    0.70 
  -7   6  -3    4.65    0.49 
  -8   6  -3    1.79    0.42 
  -8   6  -3    2.15    0.54 
  -8   6  -3    1.94    0.31 
  -8   6  -3    1.79    0.35 
  -9   6  -3    5.67    0.71 
  -9   6  -3    5.91    0.63 
 -10   6  -3    2.47    0.35 
 -10  -5   3    4.10    0.47 
 -10  -5   3    5.02    0.48 
 -10  -5   3    5.15    0.56 
 -10  -5   3    4.30    0.44 
  -8  -5   3    1.74    0.51 
  -8  -5   3    1.52    0.65 
  -8  -5   3    2.02    0.55 
  -7  -5   3   34.60    3.21 
  -7  -5   3   38.61    3.57 
  -7  -5   3   42.93    3.88 
  -7  -5   3   31.76    3.14 
  -7  -5   3   37.73    3.04 
  -7  -5   3   39.11    3.24 
  -6  -5   3   12.06    1.97 
  -6  -5   3   17.12    1.43 
  -6  -5   3   17.63    1.54 
  -6  -5   3   17.11    2.51 
  -6  -5   3   17.56    1.78 
  -5  -5   3   58.77    6.04 
  -5  -5   3   60.15    5.56 
  -4  -5   3   12.07    1.09 
  -4  -5   3   11.88    1.36 
  -4  -5   3    8.43    1.28 
  -3  -5   3    6.64    1.02 
  -3  -5   3    7.71    0.70 
  -3  -5   3    7.61    1.46 
  -2  -5   3   15.66    1.42 
  -2  -5   3   18.33    1.47 
  -2  -5   3   16.61    1.29 
  -2  -5   3   17.29    1.82 
  -2  -5   3   18.44    1.64 
  -1  -5   3   12.82    1.63 
  -1  -5   3   12.50    1.04 
   0   5  -3   38.78    2.88 
   0   5  -3   42.63    3.36 
   0  -5   3   36.08    3.18 
   0  -5   3   37.13    3.47 
   0  -5   3   40.85    2.90 
  -1   5  -3    0.89    0.17 
  -1   5  -3    0.50    0.58 
  -1   5  -3    0.58    0.30 
  -1   5  -3    1.24    0.38 
   1  -5   3    0.70    0.30 
   1  -5   3    0.89    0.23 
   1  -5   3    0.80    0.18 
  -2   5  -3    1.59    0.73 
  -2   5  -3    2.08    0.43 
  -2   5  -3    2.43    0.27 
   2  -5   3    2.54    0.32 
   2  -5   3    2.36    0.29 
  -3   5  -3    2.41    0.98 
  -3   5  -3    3.99    0.57 
  -3   5  -3    2.70    0.30 
   3  -5   3    2.96    0.34 
  -4   5  -3   95.94   12.97 
  -4   5  -3  107.22    9.20 
  -4   5  -3   96.92    7.32 
   4  -5   3   97.95    8.09 
  -5   5  -3    0.27    0.49 
  -5   5  -3   -0.23    0.88 
  -5   5  -3    0.30    0.22 
  -5   5  -3   -0.32    0.37 
  -5   5  -3   -0.04    0.20 
  -6   5  -3   11.90    0.97 
  -6   5  -3   11.33    1.14 
  -6   5  -3   11.46    1.41 
  -7   5  -3    1.78    0.42 
  -7   5  -3    2.42    0.33 
  -7   5  -3    1.94    0.30 
  -7   5  -3    2.71    0.51 
  -8   5  -3    5.22    0.63 
  -8   5  -3    4.02    0.46 
  -8   5  -3    4.58    0.58 
  -9   5  -3    9.44    0.94 
  -9   5  -3    9.36    0.94 
 -10   5  -3    0.15    0.27 
 -10  -4   3    0.28    0.26 
 -10  -4   3    0.46    0.27 
  -8  -4   3    7.95    1.03 
  -8  -4   3    7.64    1.21 
  -8  -4   3    6.55    0.91 
  -8  -4   3   10.26    0.93 
  -8  -4   3    8.73    1.47 
  -7  -4   3    1.20    0.46 
  -7  -4   3    0.30    0.25 
  -7  -4   3    0.01    0.41 
  -7  -4   3   -0.45    0.37 
  -6  -4   3   82.56    8.41 
  -6  -4   3   87.89    7.32 
  -6  -4   3   64.90    7.98 
  -5  -4   3    0.07    0.30 
  -5  -4   3   -0.03    0.28 
  -5  -4   3   -0.01    0.34 
  -5  -4   3    0.31    0.56 
  -4  -4   3    4.97    0.81 
  -4  -4   3    4.70    0.82 
  -4  -4   3    6.94    0.88 
  -4  -4   3    5.78    0.63 
  -3  -4   3    2.60    0.31 
  -3  -4   3    3.16    0.80 
  -3  -4   3    2.27    0.60 
  -3  -4   3    2.37    0.26 
   2   4  -3   70.54    7.16 
  -2  -4   3   88.53    8.74 
  -2  -4   3   73.75    6.67 
  -2  -4   3   85.56    6.64 
  -2  -4   3   84.60    6.05 
  -2  -4   3   89.15    7.57 
  -2  -4   3   79.34    7.99 
  -2  -4   3   85.77    6.67 
   1   4  -3   68.00    5.78 
   1   4  -3   66.55    5.85 
  -1  -4   3   70.11    6.47 
  -1  -4   3   65.93    5.42 
  -1  -4   3   67.72    5.37 
  -1  -4   3   67.69    5.40 
  -1  -4   3   64.67    5.78 
  -1  -4   3   62.31    4.90 
   0   4  -3   11.17    1.05 
   0   4  -3    9.52    1.10 
   0   4  -3   11.34    1.04 
   0  -4   3   12.22    0.96 
   0  -4   3    9.93    1.06 
   0  -4   3   10.27    0.85 
   0  -4   3   10.07    0.92 
   0  -4   3   12.36    1.00 
  -1   4  -3   19.30    3.12 
  -1   4  -3   25.59    2.05 
  -1   4  -3   22.74    2.18 
  -1   4  -3   23.68    2.18 
  -1   4  -3   23.09    1.73 
   1  -4   3   20.78    2.12 
   1  -4   3   24.01    2.01 
   1  -4   3   23.95    1.76 
   1  -4   3   24.06    1.91 
  -2   4  -3    1.03    0.40 
  -2   4  -3    0.71    0.57 
  -2   4  -3    1.31    0.17 
  -2   4  -3    1.21    0.42 
  -2   4  -3    0.98    0.32 
   2  -4   3    1.21    0.20 
   2  -4   3    0.91    0.23 
   2  -4   3    1.39    0.31 
  -3   4  -3   47.27    3.77 
  -3   4  -3   54.24    4.76 
   3  -4   3   52.06    4.16 
  -4   4  -3    1.08    0.20 
  -4   4  -3    0.25    0.63 
  -4   4  -3    0.68    0.44 
   4  -4   3    1.25    0.21 
  -5   4  -3   35.91    2.50 
  -5   4  -3   30.03    4.75 
  -5   4  -3   33.38    2.60 
  -5   4  -3   32.17    2.88 
  -5   4  -3   33.95    3.25 
  -6   4  -3   13.77    1.50 
  -6   4  -3   12.44    1.19 
  -6   4  -3   11.76    1.02 
  -7   4  -3    0.01    0.36 
  -7   4  -3   -0.12    0.24 
  -7   4  -3    0.02    0.43 
  -8   4  -3   10.98    1.06 
  -8   4  -3   10.35    1.06 
  -8   4  -3   10.95    0.91 
  -9   4  -3    1.39    0.45 
  -9   4  -3    1.55    0.40 
 -10   4  -3    2.77    0.40 
 -11  -3   3    0.44    0.21 
 -10  -3   3    3.25    0.42 
 -10  -3   3    3.86    0.47 
  -9  -3   3    6.59    0.70 
  -8  -3   3    1.25    0.65 
  -8  -3   3    0.78    0.51 
  -8  -3   3    0.91    0.54 
  -8  -3   3    0.79    0.48 
  -8  -3   3    0.75    0.67 
  -8  -3   3    0.45    0.90 
  -7  -3   3   60.04    6.06 
  -7  -3   3   61.24    4.79 
  -7  -3   3   56.99    5.55 
  -6  -3   3    0.72    0.37 
  -6  -3   3    0.18    0.90 
  -6  -3   3    0.53    0.45 
  -5  -3   3   -0.21    0.36 
  -5  -3   3   -0.10    0.25 
  -5  -3   3    0.12    0.36 
  -5  -3   3    0.03    0.52 
  -5  -3   3   -0.01    0.28 
  -4  -3   3   17.36    1.57 
  -4  -3   3   17.36    1.93 
  -4  -3   3   13.48    1.77 
  -4  -3   3   16.15    1.90 
   3   3  -3    6.31    0.60 
  -3  -3   3    5.31    0.93 
  -3  -3   3    5.67    0.43 
  -3  -3   3    4.73    0.88 
   2   3  -3   32.74    3.01 
   2   3  -3   32.79    3.04 
   2   3  -3   33.80    2.95 
  -2  -3   3   35.17    2.78 
  -2  -3   3   35.16    2.81 
  -2  -3   3   36.80    3.70 
  -2  -3   3   32.75    3.39 
  -2  -3   3   34.79    2.53 
   1   3  -3  106.73    8.94 
   1   3  -3  109.32    9.24 
   1   3  -3  115.68    9.20 
  -1  -3   3  102.40    8.63 
  -1  -3   3  105.89    7.84 
  -1  -3   3  112.63    8.60 
  -1  -3   3  100.58    9.20 
  -1  -3   3  110.76    9.20 
  -1  -3   3   94.05    8.92 
  -1  -3   3  106.16    8.65 
  -1  -3   3  111.48   10.30 
   0   3  -3   85.45    7.04 
   0   3  -3   96.72    7.24 
   0   3  -3   81.65    7.29 
   0  -3   3   74.79    6.78 
   0  -3   3   83.33    6.78 
   0  -3   3   82.09    7.24 
   0  -3   3   83.73    6.75 
   0  -3   3   84.27    7.01 
   0  -3   3   82.13    7.27 
  -1   3  -3    2.79    0.26 
  -1   3  -3    3.20    0.35 
  -1   3  -3    2.64    0.64 
  -1   3  -3    3.20    0.43 
  -1   3  -3    2.89    0.48 
  -1   3  -3    3.57    0.40 
   1  -3   3    2.52    0.29 
   1  -3   3    2.84    0.38 
   1  -3   3    2.80    0.39 
   1  -3   3    2.85    0.45 
  -2   3  -3   60.24    6.52 
  -2   3  -3   70.24    5.21 
  -2   3  -3   69.45    6.03 
  -2   3  -3   72.85    6.24 
   2  -3   3   69.93    5.75 
   2  -3   3   76.86    5.24 
   2  -3   3   72.56    6.17 
   2  -3   3   73.90    5.96 
  -3   3  -3    0.86    0.60 
  -3   3  -3    0.78    0.16 
  -3   3  -3    0.56    0.36 
  -3   3  -3    0.06    0.40 
   3  -3   3    1.03    0.17 
  -4   3  -3   46.80    4.51 
  -4   3  -3   36.55    3.78 
  -4   3  -3   38.79    2.96 
  -4   3  -3   38.61    5.46 
  -5   3  -3   82.39    8.04 
  -5   3  -3   90.06    8.26 
  -5   3  -3   98.65   12.83 
  -5   3  -3  101.53    9.18 
  -5   3  -3  107.85    7.56 
  -5   3  -3  111.79    7.27 
  -6   3  -3    2.33    0.32 
  -6   3  -3    2.01    0.43 
  -7   3  -3    6.13    0.76 
  -7   3  -3    7.31    0.63 
  -7   3  -3    7.47    0.76 
  -8   3  -3   -0.02    0.37 
  -8   3  -3   -0.11    0.25 
  -8   3  -3    0.12    0.38 
  -9   3  -3    2.37    0.44 
  -9   3  -3    2.34    0.48 
 -10   3  -3    0.26    0.29 
 -11  -2   3    2.25    0.35 
 -10  -2   3   -0.43    0.33 
 -10  -2   3    0.09    0.27 
 -10  -2   3   -0.48    0.53 
  -8  -2   3   21.42    2.03 
  -8  -2   3   17.80    2.67 
  -8  -2   3   26.19    1.95 
  -8  -2   3   20.15    2.39 
  -7  -2   3    0.94    0.76 
  -7  -2   3    1.41    0.39 
  -7  -2   3    2.45    0.49 
  -6  -2   3    9.31    1.38 
  -6  -2   3   11.74    2.00 
  -6  -2   3   13.24    1.26 
  -5  -2   3    2.79    0.53 
  -5  -2   3    1.50    0.66 
  -5  -2   3    2.71    0.37 
  -5  -2   3    2.07    0.57 
  -5  -2   3    0.91    0.89 
  -5  -2   3    2.46    0.69 
   4   2  -3    3.45    0.55 
  -4  -2   3    4.06    0.74 
  -4  -2   3    4.75    0.66 
  -4  -2   3    4.85    0.78 
  -4  -2   3    5.21    0.53 
   3   2  -3    8.12    0.94 
  -3  -2   3    5.42    1.23 
  -3  -2   3    7.78    1.21 
   2   2  -3   58.75    4.90 
   2   2  -3   56.61    5.03 
   2   2  -3   60.31    5.00 
  -2  -2   3   61.79    6.19 
  -2  -2   3   53.59    4.70 
  -2  -2   3   50.78    4.88 
  -2  -2   3   67.12    4.67 
  -2  -2   3   56.79    5.64 
  -2  -2   3   55.42    4.68 
   1   2  -3  389.00   30.02 
   1   2  -3  338.93   29.13 
   1   2  -3  340.34   30.05 
  -1  -2   3  332.19   30.01 
  -1  -2   3  349.78   28.18 
  -1  -2   3  372.67   28.20 
  -1  -2   3  392.80   30.04 
  -1  -2   3  300.07   29.11 
  -1  -2   3  341.41   28.32 
   0   2  -3   20.57    1.85 
   0   2  -3   21.41    1.77 
   0   2  -3   20.52    1.79 
   0  -2   3   20.41    1.83 
   0  -2   3   19.07    1.64 
   0  -2   3   21.20    1.80 
   0  -2   3   20.06    1.64 
   0  -2   3   18.34    1.66 
   0  -2   3   18.70    1.75 
  -1   2  -3    3.31    0.50 
  -1   2  -3    3.14    0.40 
  -1   2  -3    3.35    0.65 
  -1   2  -3    2.60    0.33 
  -1   2  -3    3.11    0.27 
  -1   2  -3    3.79    0.49 
   1  -2   3    2.63    0.40 
   1  -2   3    2.56    0.30 
   1  -2   3    3.13    0.42 
   1  -2   3    3.17    0.49 
  -2   2  -3   12.30    1.19 
  -2   2  -3   13.61    1.23 
  -2   2  -3   10.01    1.18 
  -2   2  -3   11.74    1.04 
  -2   2  -3   12.00    0.91 
  -2   2  -3   10.55    1.06 
  -2   2  -3   11.36    1.79 
   2  -2   3   12.50    1.15 
   2  -2   3   12.28    1.01 
   2  -2   3   13.05    1.22 
   2  -2   3   12.51    1.14 
  -3   2  -3    3.40    0.45 
  -3   2  -3    4.17    0.33 
  -3   2  -3    3.24    0.69 
  -3   2  -3    3.43    0.52 
  -3   2  -3    3.14    0.84 
   3  -2   3    3.98    0.37 
  -4   2  -3    9.60    1.00 
  -4   2  -3   13.13    1.84 
  -4   2  -3   12.58    1.20 
  -4   2  -3    8.77    1.43 
  -4   2  -3   10.49    1.51 
  -4   2  -3   11.92    0.86 
  -5   2  -3    0.45    0.16 
  -5   2  -3    0.90    0.22 
  -5   2  -3    0.28    0.25 
  -5   2  -3    0.74    0.28 
  -5   2  -3    0.39    0.57 
  -5   2  -3    1.14    0.72 
  -6   2  -3   17.74    1.34 
  -6   2  -3   15.38    1.48 
  -7   2  -3    0.80    0.39 
  -7   2  -3    1.67    0.39 
  -7   2  -3    1.04    0.25 
  -7   2  -3    1.14    0.27 
  -8   2  -3    4.18    0.48 
  -8   2  -3    4.51    0.57 
  -8   2  -3    4.33    0.44 
  -8   2  -3    4.19    0.58 
  -9   2  -3    1.33    0.40 
 -10   2  -3    9.05    0.87 
 -11  -1   3    2.82    0.39 
 -11  -1   3    1.61    0.29 
 -10  -1   3    2.51    0.43 
 -10  -1   3    2.19    0.63 
 -10  -1   3    2.18    0.38 
  -9  -1   3   10.48    1.09 
  -8  -1   3    4.98    0.70 
  -8  -1   3    5.89    1.07 
  -8  -1   3    4.70    0.93 
  -8  -1   3    7.34    0.72 
  -7  -1   3    6.00    0.71 
  -7  -1   3    4.23    0.59 
  -7  -1   3    2.93    0.99 
  -7  -1   3    3.46    0.54 
  -6  -1   3    0.33    0.32 
  -6  -1   3    0.38    0.43 
  -6  -1   3    0.41    0.18 
  -6  -1   3    0.06    0.67 
  -6  -1   3    0.16    0.78 
  -6  -1   3    0.14    0.33 
  -6  -1   3    0.34    0.28 
  -5  -1   3    6.21    0.62 
  -5  -1   3    4.90    0.91 
  -5  -1   3    5.19    0.86 
  -5  -1   3    3.02    0.87 
  -5  -1   3    6.95    0.81 
  -5  -1   3    5.14    0.50 
  -4  -1   3   42.68    3.93 
  -4  -1   3   46.15    4.62 
  -4  -1   3   38.94    4.61 
  -4  -1   3   41.67    4.28 
  -3  -1   3   39.16    4.44 
  -3  -1   3   42.56    4.08 
  -3  -1   3   41.58    4.44 
   2   1  -3    2.21    0.24 
   2   1  -3    1.88    0.35 
  -2  -1   3    1.67    0.31 
  -2  -1   3    2.32    0.20 
  -2  -1   3    1.97    0.42 
   1   1  -3  141.15   11.12 
   1   1  -3  137.88   10.81 
   1   1  -3  128.13   11.15 
  -1  -1   3  139.45   10.43 
  -1  -1   3  133.20   10.48 
  -1  -1   3  116.38   10.81 
  -1  -1   3  125.76   11.14 
  -1  -1   3  114.78   10.43 
  -1  -1   3  129.64   11.11 
   0   1  -3  171.17   13.55 
   0   1  -3  156.05   13.12 
   0   1  -3  155.46   13.51 
   0   1  -3  170.12   19.72 
   0  -1   3  173.87   12.65 
   0  -1   3  148.26   12.71 
   0  -1   3  132.31   13.10 
   0  -1   3  149.95   13.50 
   0  -1   3  158.27   13.54 
  -1   1  -3    7.20    0.68 
  -1   1  -3    7.47    0.96 
  -1   1  -3    4.98    0.46 
  -1   1  -3    6.56    0.54 
  -1   1  -3    6.13    0.62 
  -1   1  -3    7.39    0.72 
   1  -1   3    4.47    0.51 
   1  -1   3    6.11    0.69 
   1  -1   3    5.81    0.64 
   1  -1   3    5.88    0.61 
  -2   1  -3    5.46    0.49 
  -2   1  -3    6.36    0.65 
  -2   1  -3    4.55    0.39 
  -2   1  -3    3.85    0.52 
  -2   1  -3    4.81    0.50 
  -2   1  -3    5.54    0.87 
   2  -1   3    4.34    0.43 
   2  -1   3    5.08    0.54 
   2  -1   3    5.87    0.65 
  -3   1  -3   70.93    9.31 
  -3   1  -3   80.15    5.93 
  -3   1  -3   77.57    7.88 
  -3   1  -3   63.93    6.70 
  -3   1  -3   72.23    5.37 
  -4   1  -3    5.43    0.56 
  -4   1  -3    5.70    0.46 
  -4   1  -3    6.17    0.97 
  -4   1  -3    6.40    1.03 
  -4   1  -3    5.38    0.96 
  -4   1  -3    4.81    0.48 
  -5   1  -3    1.83    0.34 
  -5   1  -3    2.88    0.27 
  -5   1  -3    3.17    0.31 
  -5   1  -3    2.60    0.35 
  -6   1  -3    0.15    0.29 
  -6   1  -3    0.35    0.20 
  -7   1  -3    7.24    0.59 
  -7   1  -3    7.56    0.72 
  -7   1  -3    6.34    0.74 
  -7   1  -3    5.91    0.64 
  -8   1  -3   -0.07    0.37 
  -8   1  -3   -0.24    0.15 
  -9   1  -3    3.63    0.43 
  -9   1  -3    3.60    0.50 
 -10   1  -3    4.21    0.45 
 -10   1  -3    3.75    0.45 
 -11   0   3    0.86    0.33 
 -11   0   3    0.77    0.35 
 -11   0   3    1.15    0.51 
 -10   0   3    3.29    0.65 
 -10   0   3    2.98    0.39 
 -10   0   3    2.38    0.46 
  -9   0   3    1.10    0.47 
  -9   0   3    0.74    0.45 
  -8   0   3    1.23    0.75 
  -8   0   3    1.21    0.84 
  -8   0   3    1.10    0.53 
  -8   0   3    1.53    1.10 
  -8   0   3    1.25    0.56 
  -7   0   3    0.19    0.35 
  -7   0   3   -0.05    0.31 
  -7   0   3   -0.01    0.35 
  -7   0   3   -0.13    0.20 
  -7   0   3    0.09    0.47 
  -6   0   3    6.50    1.38 
  -6   0   3    4.56    1.55 
  -6   0   3    8.26    1.08 
  -6   0   3    8.51    0.96 
  -5   0   3   36.00    4.22 
  -5   0   3   28.53    4.10 
  -5   0   3   36.73    2.92 
  -5   0   3   43.37    3.15 
  -5   0   3   39.21    3.54 
  -4   0   3    2.39    0.58 
  -4   0   3    1.77    0.39 
  -4   0   3    3.83    0.48 
  -4   0   3    2.57    0.34 
  -4   0   3    1.89    0.47 
   3   0  -3   54.99    4.76 
  -3   0   3   55.64    6.11 
  -3   0   3   54.06    4.27 
  -3   0   3   63.37    5.58 
   2   0  -3    0.62    0.16 
   2   0  -3    0.36    0.25 
   2   0  -3    0.23    0.22 
  -2   0   3    0.62    0.11 
  -2   0   3    0.37    0.13 
  -2   0   3    0.41    0.13 
  -2   0   3    0.36    0.21 
   1   0  -3    4.21    0.51 
   1   0  -3    4.16    0.51 
   1   0  -3    3.77    0.44 
  -1   0   3    4.22    0.51 
  -1   0   3    4.27    0.48 
  -1   0   3    4.02    0.38 
  -1   0   3    4.01    0.44 
  -1   0   3    4.46    0.40 
   0   0  -3    2.90    0.36 
   0   0  -3    3.51    0.47 
   0   0  -3    3.49    0.41 
   0   0   3    3.02    0.37 
   0   0   3    3.25    0.46 
   0   0   3    2.28    0.31 
   0   0   3    3.03    0.40 
  -1   0  -3    9.40    0.90 
  -1   0  -3    9.68    1.26 
  -1   0  -3   10.97    0.96 
  -1   0  -3    7.69    0.81 
  -1   0  -3    8.16    0.78 
   1   0   3    8.77    0.89 
   1   0   3    9.45    0.96 
   1   0   3   10.04    0.90 
  -2   0  -3   11.73    1.56 
  -2   0  -3   10.49    0.86 
   2   0   3   11.23    0.92 
  -3   0  -3   10.96    1.80 
  -3   0  -3   15.07    1.62 
  -3   0  -3   12.86    0.99 
  -3   0  -3   13.27    1.66 
  -4   0  -3    0.60    0.16 
  -4   0  -3    1.07    0.55 
  -4   0  -3    0.67    0.16 
  -4   0  -3    0.62    0.38 
  -5   0  -3    5.73    0.48 
  -5   0  -3    6.17    0.47 
  -5   0  -3    4.84    0.55 
  -5   0  -3    4.52    0.54 
  -6   0  -3   25.57    1.94 
  -6   0  -3   24.30    2.15 
  -7   0  -3    4.99    0.55 
  -7   0  -3    4.19    0.49 
  -8   0  -3    0.79    0.31 
  -8   0  -3    1.18    0.37 
  -9   0  -3    1.02    0.34 
  -9   0  -3    0.95    0.29 
 -10   0  -3    6.28    0.60 
 -11   1   3    8.35    0.99 
 -11   1   3    8.11    0.76 
 -11   1   3    7.66    0.81 
 -10   1   3    4.26    0.73 
 -10   1   3    4.61    0.53 
 -10   1   3    3.66    0.55 
  -9   1   3    2.20    0.50 
  -9   1   3    2.72    0.55 
  -9   1   3    3.08    0.78 
  -8   1   3    0.12    0.86 
  -8   1   3    0.12    0.42 
  -8   1   3    0.32    0.60 
  -8   1   3    0.05    0.59 
  -8   1   3    0.09    0.45 
  -7   1   3   -0.10    0.36 
  -7   1   3   -0.36    0.32 
  -7   1   3   -0.07    0.19 
  -7   1   3   -0.02    0.51 
  -7   1   3   -0.16    0.35 
  -6   1   3   16.60    1.28 
  -6   1   3   13.52    1.65 
  -6   1   3   11.63    1.49 
  -6   1   3   10.13    2.00 
  -5   1   3   -0.06    0.49 
  -5   1   3   -0.07    0.13 
  -5   1   3   -0.09    0.28 
  -5   1   3   -0.11    0.24 
  -5   1   3   -0.04    0.36 
  -5   1   3    0.13    0.40 
  -4   1   3   47.40    3.90 
  -4   1   3   39.22    4.24 
  -4   1   3   43.72    4.53 
  -4   1   3   37.19    3.20 
   3  -1  -3   10.77    1.02 
  -3   1   3   11.74    0.86 
  -3   1   3    9.92    0.95 
   2  -1  -3    7.36    0.75 
   2  -1  -3    7.83    0.80 
  -2   1   3    7.85    0.66 
  -2   1   3    7.33    0.63 
  -2   1   3    7.85    0.62 
  -2   1   3    8.23    0.74 
  -2   1   3    8.15    0.67 
   1  -1  -3  199.78   18.59 
   1  -1  -3  214.76   18.62 
  -1   1   3  231.31   16.20 
  -1   1   3  211.16   15.89 
  -1   1   3  212.19   17.43 
  -1   1   3  219.03   18.04 
  -1   1   3  213.74   18.60 
  -1   1   3  247.49   17.44 
  -1   1   3  200.40   18.61 
   0  -1  -3   26.92    2.17 
   0  -1  -3   23.31    2.11 
   0   1   3   22.19    2.11 
   0   1   3   23.69    2.15 
   0   1   3   23.63    1.78 
   0   1   3   22.78    1.78 
   0   1   3   21.86    2.07 
   0   1   3   23.59    1.92 
  -1  -1  -3   17.17    1.36 
  -1  -1  -3   22.07    1.73 
   1   1   3   17.37    1.40 
   1   1   3   18.51    1.67 
   1   1   3   16.99    1.39 
  -2  -1  -3   17.86    1.30 
   2   1   3   15.87    1.36 
  -3  -1  -3   31.30    3.23 
  -3  -1  -3   25.87    2.08 
  -3  -1  -3   27.32    3.17 
  -4  -1  -3    0.46    0.16 
  -4  -1  -3    0.26    0.59 
  -4  -1  -3    0.38    0.50 
  -5  -1  -3   12.60    0.95 
  -5  -1  -3   11.49    1.08 
  -6  -1  -3    1.84    0.29 
  -6  -1  -3    1.69    0.32 
  -6  -1  -3    1.72    0.34 
  -7  -1  -3    0.71    0.34 
  -7  -1  -3    0.99    0.25 
  -7  -1  -3    1.28    0.29 
  -8  -1  -3    1.12    0.30 
  -8  -1  -3    0.94    0.35 
  -9  -1  -3    1.85    0.32 
 -12   2   3    0.49    0.19 
 -11   2   3   -0.29    0.33 
 -11   2   3   -0.28    0.20 
 -10   2   3    5.61    0.81 
 -10   2   3    4.74    0.61 
  -9   2   3    1.11    0.41 
  -8   2   3   -0.48    0.38 
  -8   2   3   -0.19    0.55 
  -8   2   3   -0.42    0.42 
  -7   2   3    5.64    0.74 
  -7   2   3    5.38    0.67 
  -7   2   3    5.85    0.51 
  -7   2   3    5.66    0.61 
  -7   2   3    6.05    0.93 
  -6   2   3    4.10    0.84 
  -6   2   3    5.00    0.56 
  -6   2   3    2.91    0.64 
  -5   2   3   -0.08    0.27 
  -5   2   3   -0.21    0.42 
  -5   2   3    0.13    0.14 
  -5   2   3    0.10    0.13 
  -5   2   3   -0.13    0.24 
  -4   2   3   16.28    1.56 
  -4   2   3   22.30    1.87 
   3  -2  -3   83.81    7.44 
  -3   2   3   79.97    6.30 
  -3   2   3   86.96    6.92 
  -3   2   3   84.54    6.45 
  -3   2   3   93.20    6.91 
   2  -2  -3   54.08    4.64 
   2  -2  -3   50.24    4.62 
  -2   2   3   48.19    4.61 
  -2   2   3   53.19    3.99 
  -2   2   3   52.07    3.91 
  -2   2   3   58.86    4.29 
  -2   2   3   51.26    4.46 
  -2   2   3   54.26    4.28 
   1  -2  -3   47.26    4.35 
   1  -2  -3   51.69    4.38 
  -1   2   3   48.43    4.03 
  -1   2   3   53.79    3.74 
  -1   2   3   45.87    4.35 
  -1   2   3   51.43    4.22 
  -1   2   3   52.19    3.68 
  -1   2   3   45.98    4.01 
   0  -2  -3   30.44    2.72 
   0  -2  -3   29.61    2.21 
   0   2   3   30.89    2.26 
   0   2   3   31.81    2.24 
   0   2   3   25.42    2.67 
  -1  -2  -3   28.48    2.38 
  -1  -2  -3   26.60    2.56 
  -1  -2  -3   24.37    1.91 
   1   2   3   24.10    1.94 
   1   2   3   25.33    1.95 
  -2  -2  -3   15.15    1.27 
  -2  -2  -3   16.32    1.99 
  -2  -2  -3   18.91    1.75 
   2   2   3   16.30    1.27 
  -3  -2  -3    0.50    0.53 
  -3  -2  -3    0.43    0.35 
  -3  -2  -3    0.15    0.14 
  -4  -2  -3   49.75    3.71 
  -5  -2  -3   15.58    1.21 
  -6  -2  -3    0.06    0.21 
  -6  -2  -3    0.26    0.28 
  -7  -2  -3   -0.15    0.20 
  -7  -2  -3    0.18    0.26 
  -8  -2  -3    4.15    0.48 
  -8  -2  -3    5.14    0.52 
   8   2   3    5.92    0.59 
  -9  -2  -3    1.65    0.29 
   9   2   3    1.88    0.31 
 -12   3   3    0.01    0.18 
 -11   3   3    4.02    0.49 
 -11   3   3    3.53    0.67 
 -10   3   3    4.58    0.64 
 -10   3   3    5.56    0.82 
  -9   3   3    0.57    0.36 
  -9   3   3    0.36    0.32 
  -9   3   3    0.32    0.66 
  -9   3   3    0.49    0.40 
  -8   3   3    0.25    0.38 
  -8   3   3    0.94    0.42 
  -7   3   3    0.32    0.20 
  -7   3   3    0.26    0.40 
  -5   3   3    3.78    0.55 
  -5   3   3    3.72    0.35 
  -5   3   3    5.10    0.48 
  -4   3   3  112.37    9.01 
  -4   3   3  104.40    8.86 
  -4   3   3  107.77    8.07 
  -4   3   3  116.53    8.31 
  -3   3   3    1.96    0.30 
  -3   3   3    2.01    0.30 
  -3   3   3    2.20    0.27 
  -3   3   3    2.18    0.28 
   2  -3  -3    0.08    0.27 
  -2   3   3    0.06    0.18 
  -2   3   3   -0.05    0.17 
  -2   3   3    0.01    0.14 
  -2   3   3    0.31    0.23 
   1  -3  -3   14.37    1.05 
  -1   3   3   11.70    1.33 
  -1   3   3   14.61    1.10 
  -1   3   3   13.68    1.08 
   0  -3  -3    3.89    0.35 
   0   3   3    3.49    0.41 
   0   3   3    3.06    0.52 
   0   3   3    4.06    0.35 
  -1  -3  -3  107.63   10.86 
  -1  -3  -3  105.29    8.23 
   1   3   3  116.79    8.26 
   1   3   3  117.79    8.39 
  -2  -3  -3   12.93    1.37 
  -2  -3  -3   11.31    1.54 
  -2  -3  -3   11.45    0.95 
  -3  -3  -3   21.64    2.82 
  -3  -3  -3   24.40    1.80 
  -4  -3  -3   19.39    1.52 
  -5  -3  -3   12.43    0.97 
  -5  -3  -3   11.90    1.02 
  -6  -3  -3   15.37    1.24 
  -6  -3  -3   13.39    1.26 
  -6  -3  -3   13.20    1.17 
  -6  -3  -3   13.53    1.19 
   6   3   3   14.19    1.41 
  -7  -3  -3    0.36    0.15 
  -7  -3  -3    0.21    0.24 
  -7  -3  -3    0.09    0.21 
   7   3   3    0.30    0.28 
  -8  -3  -3    3.87    0.42 
  -8  -3  -3    4.23    0.45 
   8   3   3    4.31    0.51 
  -9  -3  -3   -0.12    0.21 
   9   3   3   -0.05    0.20 
 -12   4   3    0.40    0.17 
 -11   4   3    0.09    0.27 
 -11   4   3    0.08    0.21 
 -10   4   3    0.72    0.27 
 -10   4   3    2.53    0.67 
 -10   4   3    1.15    0.41 
 -10   4   3    2.00    0.41 
  -9   4   3    3.26    0.53 
  -9   4   3    3.79    0.72 
  -9   4   3    2.58    0.48 
  -7   4   3    0.99    0.44 
  -6   4   3    5.60    0.78 
  -5   4   3  169.49   13.88 
  -4   4   3   28.85    2.38 
  -4   4   3   29.65    2.38 
  -4   4   3   27.83    2.29 
  -3   4   3   22.99    1.67 
  -3   4   3   20.82    1.71 
  -3   4   3   21.11    1.80 
  -2   4   3    5.91    0.55 
  -2   4   3    5.17    0.51 
   1  -4  -3    2.69    0.32 
  -1   4   3    3.06    0.39 
  -1   4   3    3.03    0.33 
   0  -4  -3  187.60   13.62 
   0   4   3  189.78   13.65 
   0   4   3  179.96   13.91 
  -1  -4  -3    5.93    0.88 
  -1  -4  -3    5.82    0.53 
   1   4   3    6.88    0.55 
   1   4   3    6.41    0.60 
  -2  -4  -3   32.89    2.49 
  -2  -4  -3   32.80    3.39 
  -3  -4  -3    2.17    0.30 
  -4  -4  -3   19.69    1.61 
  -4  -4  -3   19.54    1.55 
  -5  -4  -3    2.61    0.41 
  -5  -4  -3    3.15    0.41 
  -5  -4  -3    2.33    0.42 
  -5  -4  -3    2.86    0.33 
   5   4   3    3.25    0.42 
  -6  -4  -3    0.78    0.21 
  -6  -4  -3    0.65    0.20 
  -6  -4  -3    0.98    0.30 
  -6  -4  -3    0.56    0.17 
   6   4   3    0.37    0.29 
  -7  -4  -3    1.55    0.29 
  -7  -4  -3    1.18    0.28 
  -7  -4  -3    1.78    0.26 
   7   4   3    1.36    0.32 
  -8  -4  -3    1.22    0.26 
  -8  -4  -3    1.54    0.22 
   8   4   3    1.10    0.27 
 -11   5   3    0.40    0.21 
 -10   5   3    2.72    0.71 
 -10   5   3    1.98    0.49 
 -10   5   3    2.97    0.47 
  -9   5   3    0.08    0.70 
  -9   5   3   -0.35    0.39 
  -8   5   3   -0.73    0.76 
  -8   5   3   -0.10    0.69 
  -6   5   3  107.92    8.50 
  -5   5   3   29.84    2.59 
  -5   5   3   28.92    2.59 
  -5   5   3   32.60    2.49 
  -5   5   3   37.03    2.68 
  -4   5   3    3.81    0.41 
  -4   5   3    3.58    0.43 
  -3   5   3   32.22    2.65 
  -3   5   3   38.29    2.73 
  -2   5   3    1.03    0.34 
  -2   5   3    1.24    0.29 
   1  -5  -3   53.50    4.04 
  -1   5   3   54.19    4.07 
  -1   5   3   55.65    4.14 
   0  -5  -3   19.06    1.45 
   0   5   3   18.60    1.50 
   0   5   3   18.84    1.49 
  -1  -5  -3   28.82    3.04 
  -1  -5  -3   26.17    2.18 
   1   5   3   32.45    2.24 
  -2  -5  -3    0.25    0.21 
  -3  -5  -3   11.38    0.96 
  -4  -5  -3    5.48    0.62 
  -4  -5  -3    6.37    0.61 
  -4  -5  -3    6.03    0.60 
  -4  -5  -3    6.69    0.57 
  -5  -5  -3    2.28    0.39 
  -5  -5  -3    2.29    0.33 
  -5  -5  -3    2.80    0.31 
  -5  -5  -3    2.72    0.36 
   5   5   3    2.10    0.38 
  -6  -5  -3    6.31    0.57 
  -6  -5  -3    5.43    0.53 
  -6  -5  -3    5.50    0.57 
  -6  -5  -3    5.16    0.52 
   6   5   3    5.88    0.64 
  -7  -5  -3    2.47    0.33 
  -7  -5  -3    2.16    0.29 
  -7  -5  -3    2.46    0.32 
   7   5   3    2.11    0.36 
  -8  -5  -3    5.81    0.62 
  -8  -5  -3    7.26    0.58 
   8   5   3    5.96    0.66 
 -11   6   3    0.97    0.24 
 -10   6   3    0.56    0.41 
  -9   6   3    7.55    1.09 
  -9   6   3    8.38    0.82 
  -9   6   3    6.88    0.89 
  -8   6   3    3.10    0.95 
  -8   6   3    2.58    0.68 
  -6   6   3   56.08    4.63 
  -5   6   3    6.52    0.65 
  -5   6   3    6.45    0.61 
  -4   6   3    1.85    0.30 
  -3   6   3    0.66    0.34 
  -3   6   3    0.30    0.32 
  -2   6   3   21.66    1.68 
  -2   6   3   19.91    1.65 
  -1   6   3    3.27    0.42 
  -1   6   3    3.29    0.48 
   0  -6  -3  121.85    8.81 
   0   6   3  117.09    8.86 
  -1  -6  -3    1.42    0.59 
  -1  -6  -3    1.10    0.23 
   1   6   3    1.78    0.39 
  -2  -6  -3    0.24    0.25 
  -2  -6  -3   -0.10    0.27 
  -3  -6  -3    1.86    0.31 
  -3  -6  -3    2.19    0.30 
  -3  -6  -3    1.85    0.40 
  -3  -6  -3    2.29    0.36 
  -4  -6  -3    0.77    0.20 
  -4  -6  -3    0.58    0.17 
   4   6   3    0.59    0.30 
  -5  -6  -3   23.14    1.88 
  -5  -6  -3   21.13    1.75 
  -5  -6  -3   20.38    1.84 
   5   6   3   20.99    2.11 
  -6  -6  -3    0.06    0.19 
  -6  -6  -3    0.41    0.23 
   6   6   3   -1.06    0.24 
  -7  -6  -3    5.24    0.46 
  -7  -6  -3    4.86    0.50 
   7   6   3    4.58    0.55 
 -11   7   3    0.41    0.19 
 -10   7   3    3.17    0.71 
  -9   7   3    0.46    0.25 
  -9   7   3    0.06    0.44 
  -9   7   3    0.28    0.29 
  -8   7   3    8.20    1.31 
  -8   7   3    7.50    1.04 
  -7   7   3   15.19    1.77 
  -7   7   3   15.59    1.86 
  -7   7   3   16.43    1.43 
  -5   7   3    0.60    0.26 
  -5   7   3    0.18    0.38 
  -4   7   3   10.74    0.91 
  -4   7   3    8.96    0.87 
  -3   7   3   12.34    1.08 
  -3   7   3   13.24    1.11 
  -2   7   3    0.54    0.41 
  -2   7   3    0.73    0.38 
   1  -7  -3   22.37    1.69 
  -1   7   3   20.73    1.76 
  -1   7   3   21.78    1.78 
   0  -7  -3    4.85    0.47 
   0  -7  -3    2.82    0.79 
   0   7   3    5.36    0.64 
  -1  -7  -3    3.71    0.40 
  -1  -7  -3    2.74    0.81 
  -1  -7  -3    4.01    0.50 
  -2  -7  -3    2.40    0.43 
  -2  -7  -3    3.38    0.43 
  -2  -7  -3    2.09    0.39 
  -3  -7  -3   -0.01    0.22 
  -3  -7  -3    0.01    0.29 
  -3  -7  -3   -0.03    0.22 
   3   7   3    0.21    0.29 
  -4  -7  -3   33.37    2.87 
  -4  -7  -3   33.59    2.68 
  -4  -7  -3   31.10    2.82 
   4   7   3   34.23    3.22 
  -5  -7  -3    0.21    0.23 
  -5  -7  -3    0.09    0.19 
  -5  -7  -3    0.18    0.14 
   5   7   3    0.13    0.26 
  -6  -7  -3   10.21    0.85 
  -6  -7  -3    9.15    0.79 
   6   7   3    8.73    0.96 
   7   7   3    0.11    0.21 
 -10   8   3    0.92    0.52 
  -9   8   3    0.94    0.67 
  -9   8   3    1.01    0.28 
  -9   8   3    1.16    0.46 
  -8   8   3    2.87    0.70 
  -8   8   3    3.49    1.01 
  -7   8   3    2.78    0.71 
  -7   8   3    1.68    0.45 
  -7   8   3    3.33    0.38 
   6  -8  -3   13.29    1.43 
  -6   8   3   14.66    1.31 
  -5   8   3   -0.12    0.42 
  -5   8   3    0.03    0.32 
  -4   8   3    0.45    0.35 
  -4   8   3    0.41    0.46 
  -3   8   3    4.94    0.57 
  -3   8   3    6.07    0.67 
  -2   8   3    8.19    0.84 
  -2   8   3    7.48    0.73 
   1  -8  -3    0.41    0.30 
  -1   8   3   -0.80    0.47 
   0  -8  -3    9.39    0.80 
   0  -8  -3    8.60    0.90 
   0   8   3    8.93    0.91 
  -1  -8  -3    5.78    0.74 
  -1  -8  -3    5.87    0.61 
  -1  -8  -3    8.25    0.74 
   1   8   3    6.47    0.64 
   1   8   3    7.30    0.78 
  -2  -8  -3    1.19    0.37 
  -2  -8  -3    2.01    0.36 
   2   8   3    1.25    0.39 
  -3  -8  -3   27.63    2.09 
  -3  -8  -3   20.17    2.11 
   3   8   3   23.52    2.37 
  -4  -8  -3    1.33    0.24 
  -4  -8  -3    0.98    0.32 
  -4  -8  -3    0.64    0.21 
   4   8   3    0.99    0.32 
  -5  -8  -3   15.63    1.39 
  -5  -8  -3   16.47    1.42 
  -5  -8  -3   18.32    1.34 
   5   8   3   14.72    1.62 
  -6  -8  -3    0.73    0.22 
   6   8   3    1.17    0.24 
 -10   9   3    0.36    0.41 
  -9   9   3    0.02    0.18 
  -9   9   3    0.17    0.17 
  -9   9   3    0.19    0.24 
  -8   9   3    0.29    0.36 
  -8   9   3    0.04    0.50 
  -7   9   3   -0.20    0.82 
  -7   9   3   -0.37    0.56 
  -6   9   3    1.04    0.32 
   5  -9  -3   18.51    1.83 
  -5   9   3   18.25    2.01 
   4  -9  -3   13.57    1.29 
  -4   9   3   10.30    1.17 
  -4   9   3   14.28    1.21 
   3  -9  -3    0.14    0.33 
  -3   9   3    0.90    0.36 
  -3   9   3   -0.30    0.48 
  -3   9   3   -0.01    0.51 
  -3   9   3    0.14    0.61 
   2  -9  -3    3.73    0.49 
   2  -9  -3    3.43    0.54 
  -2   9   3    3.64    0.57 
  -2   9   3    3.31    0.43 
  -2   9   3    3.61    0.77 
  -2   9   3    2.88    0.64 
   1  -9  -3    4.01    0.50 
   1  -9  -3    4.53    0.56 
  -1   9   3    3.86    0.79 
   0  -9  -3    2.20    0.46 
   0   9   3    2.29    0.36 
  -1  -9  -3    2.51    0.39 
  -1  -9  -3    2.01    0.44 
   1   9   3    1.84    0.36 
  -2  -9  -3   33.34    2.76 
  -2  -9  -3   32.86    2.78 
   2   9   3   30.46    3.15 
  -3  -9  -3    0.54    0.29 
  -3  -9  -3    0.46    0.32 
  -3  -9  -3    1.11    0.24 
   3   9   3    0.51    0.32 
  -4  -9  -3   12.36    1.10 
  -4  -9  -3   12.88    1.07 
   4   9   3   11.32    1.25 
  -5  -9  -3   -0.06    0.20 
   5   9   3    0.16    0.23 
   9 -10  -3    0.75    0.22 
  -9  10   3    0.51    0.18 
  -9  10   3    0.42    0.21 
  -8  10   3    0.71    0.49 
  -8  10   3    0.95    0.42 
  -7  10   3    2.32    0.81 
  -7  10   3    2.23    0.63 
  -6  10   3    9.49    0.91 
   5 -10  -3   -0.14    0.30 
  -5  10   3    0.11    0.55 
  -5  10   3   -0.13    0.28 
   4 -10  -3   -0.17    0.32 
  -4  10   3    0.22    0.48 
  -4  10   3   -0.26    0.30 
   3 -10  -3    0.67    0.31 
   3 -10  -3    0.79    0.38 
  -3  10   3    0.67    0.35 
  -3  10   3    0.79    0.38 
  -3  10   3    0.29    0.58 
   2 -10  -3    6.39    0.71 
  -2  10   3    9.12    0.83 
  -2  10   3    5.42    0.62 
  -2  10   3    7.02    0.98 
   1 -10  -3    0.51    0.41 
  -1  10   3    0.82    0.47 
  -1  10   3    0.63    0.29 
  -1  10   3    0.57    0.60 
   0 -10  -3    0.50    0.37 
   0  10   3    0.39    0.28 
   0  10   3    0.13    0.53 
  -1 -10  -3   21.80    1.78 
  -1 -10  -3   19.41    1.73 
   1  10   3   16.16    2.11 
   1  10   3   22.29    1.69 
  -2 -10  -3    0.99    0.35 
  -2 -10  -3    1.27    0.26 
   2  10   3    0.76    0.41 
  -3 -10  -3    6.05    0.52 
  -3 -10  -3    4.32    0.56 
  -4 -10  -3    0.09    0.06 
  -8  11   3   -0.34    0.33 
  -8  11   3   -0.16    0.37 
  -7  11   3    2.20    0.49 
  -7  11   3    1.56    0.34 
  -6  11   3    0.50    0.30 
  -6  11   3    0.84    0.48 
  -5  11   3    0.03    0.49 
  -5  11   3    0.50    0.19 
  -4  11   3   -0.01    0.27 
  -4  11   3    0.56    0.44 
   3 -11  -3    4.23    0.59 
  -3  11   3    6.22    0.58 
  -3  11   3    4.27    0.75 
   2 -11  -3    5.28    0.65 
  -2  11   3    5.96    0.63 
  -2  11   3    5.93    0.83 
   1 -11  -3    0.47    0.36 
  -1  11   3    0.23    0.24 
  -1  11   3   -0.13    0.44 
  -1  11   3   -0.46    0.52 
   0 -11  -3    5.49    0.62 
   0 -11  -3    5.08    0.53 
   0  11   3    5.31    0.56 
   0  11   3    4.93    0.79 
  -1 -11  -3    0.00    0.32 
  -1 -11  -3    0.09    0.22 
   1  11   3   -0.08    0.41 
  -2 -11  -3    5.29    0.50 
   2  11   3    5.69    0.52 
   2  11   3    4.11    0.68 
   7 -12  -3   -0.11    0.07 
  -7  12   3   -0.20    0.20 
  -7  12   3    0.01    0.35 
  -6  12   3    0.15    0.32 
  -5  12   3   -0.23    0.23 
  -5  12   3   -0.21    0.39 
  -5  12   3    0.04    0.14 
  -4  12   3    0.96    0.44 
  -4  12   3    0.61    0.19 
   3 -12  -3    1.11    0.36 
  -3  12   3    0.79    0.31 
  -3  12   3    1.64    0.32 
  -3  12   3    1.37    0.46 
   2 -12  -3   -0.22    0.32 
  -2  12   3    0.11    0.42 
  -2  12   3   -0.46    0.41 
  -2  12   3   -0.03    0.31 
   1 -12  -3    2.10    0.37 
  -1  12   3    3.90    0.47 
  -1  12   3    1.43    0.29 
   0 -12  -3    0.45    0.22 
   0  12   3    0.53    0.28 
   0  12   3    0.24    0.39 
  -1 -12  -3    3.29    0.35 
   1  12   3    3.11    0.38 
   1  12   3    3.37    0.49 
  -5  13   3    1.18    0.32 
  -4  13   3    1.90    0.26 
  -3  13   3   -0.02    0.21 
  -3  13   3   -0.57    0.32 
  -2  13   3    2.35    0.32 
  -2  13   3    1.96    0.40 
  -1  13   3   -0.05    0.15 
  -1 -15   4    0.53    0.11 
   0 -15   4    0.18    0.11 
   0 -15   4    0.08    0.23 
   1 -15   4    4.98    0.53 
   1 -15   4    5.17    0.49 
  -2  15  -4    0.29    0.17 
   2 -15   4    0.31    0.12 
   2 -15   4   -0.10    0.26 
  -3  15  -4   -0.08    0.16 
   3 -15   4   -0.11    0.24 
  -4  15  -4    0.04    0.15 
  -4  15  -4   -0.10    0.13 
  -4  15  -4   -0.21    0.20 
   3  14  -4    1.14    0.38 
   3  14  -4    1.87    0.42 
   2  14  -4    2.73    0.48 
  -2 -14   4    2.23    0.27 
  -2 -14   4    2.46    0.35 
  -1 -14   4    0.41    0.31 
  -1 -14   4    0.24    0.13 
   0 -14   4    4.94    0.53 
   0 -14   4    4.19    0.45 
   1 -14   4    0.83    0.17 
   1 -14   4    0.92    0.35 
  -2  14  -4    0.03    0.19 
   2 -14   4   -0.02    0.14 
   2 -14   4   -0.02    0.30 
  -3  14  -4    1.32    0.26 
   3 -14   4    1.03    0.31 
  -4  14  -4    0.92    0.29 
  -4  14  -4    1.00    0.24 
   4 -14   4    1.49    0.30 
  -5  14  -4    0.94    0.20 
  -5  14  -4    0.66    0.18 
  -5  14  -4    0.58    0.26 
   5 -14   4    0.37    0.24 
   5  13  -4    0.03    0.26 
   4  13  -4   -0.85    0.32 
   3  13  -4    2.52    0.62 
  -3 -13   4    3.37    0.51 
  -3 -13   4    3.04    0.50 
   2  13  -4    4.28    0.63 
  -2 -13   4    3.64    0.50 
  -2 -13   4    3.68    0.48 
  -2 -13   4    3.95    0.40 
   1  13  -4    6.17    0.74 
  -1 -13   4    5.08    0.53 
   0 -13   4    1.99    0.43 
   0 -13   4    2.34    0.31 
   1 -13   4   -0.27    0.12 
   1 -13   4    0.04    0.31 
   2 -13   4    0.78    0.34 
  -3  13  -4   10.86    1.06 
   3 -13   4   11.54    1.05 
  -4  13  -4    0.14    0.20 
  -4  13  -4    0.63    0.56 
   4 -13   4    0.00    0.30 
  -5  13  -4    0.35    0.20 
  -5  13  -4    0.39    0.19 
  -5  13  -4    0.03    0.29 
   5 -13   4    0.14    0.08 
  -6  13  -4    4.82    0.48 
   6 -13   4    4.35    0.48 
  -7  13  -4    0.00    0.17 
   7 -13   4    0.12    0.14 
   6  12  -4   -0.16    0.30 
   5  12  -4    0.22    0.46 
   4  12  -4    0.18    0.27 
  -4 -12   4   -0.38    0.33 
  -4 -12   4    0.23    0.30 
  -4 -12   4    0.01    0.09 
   3  12  -4    3.19    0.58 
  -3 -12   4    2.34    0.45 
  -3 -12   4    1.66    0.43 
   2  12  -4   13.29    1.41 
  -2 -12   4   12.75    1.20 
  -2 -12   4   13.17    1.18 
  -2 -12   4   12.73    1.14 
   1  12  -4    3.71    0.65 
  -1 -12   4    3.71    0.41 
   0  12  -4    0.81    0.33 
   0  12  -4    2.45    0.52 
   0 -12   4    1.65    0.39 
   0 -12   4    1.50    0.37 
   0 -12   4    1.41    0.52 
  -1  12  -4   -0.55    0.33 
   1 -12   4    0.66    0.33 
   1 -12   4   -0.05    0.14 
  -2  12  -4    8.27    0.88 
   2 -12   4   10.14    0.90 
  -3  12  -4    1.41    0.30 
   3 -12   4    1.27    0.35 
  -4  12  -4   -0.04    0.64 
  -4  12  -4   -0.14    0.22 
   4 -12   4   -0.08    0.25 
   4 -12   4   -0.13    0.31 
  -5  12  -4    3.04    0.44 
  -5  12  -4    2.66    0.44 
  -5  12  -4    1.92    0.88 
   5 -12   4    2.16    0.29 
  -6  12  -4    0.72    0.32 
  -6  12  -4    1.29    0.23 
  -6  12  -4    0.43    0.22 
   6 -12   4    0.97    0.24 
  -7  12  -4    0.48    0.26 
  -7  12  -4    0.39    0.12 
   7 -12   4    0.23    0.19 
   8 -12   4   -0.02    0.13 
   7  11  -4    0.97    0.30 
   6  11  -4    3.26    0.50 
  -6 -11   4    3.74    0.44 
   5  11  -4    8.62    1.04 
  -5 -11   4    9.20    0.91 
   4  11  -4    0.17    0.27 
  -4 -11   4    0.22    0.34 
  -4 -11   4   -0.04    0.32 
  -4 -11   4   -0.12    0.11 
   3  11  -4    0.38    0.52 
  -3 -11   4    0.97    0.43 
  -3 -11   4    0.98    0.41 
   2  11  -4    0.37    0.44 
  -2 -11   4    0.37    0.34 
  -2 -11   4    0.44    0.35 
  -2 -11   4   -0.01    0.36 
  -2 -11   4    0.40    0.49 
   1  11  -4   11.47    1.21 
  -1 -11   4   11.81    1.02 
  -1 -11   4   10.92    1.01 
  -1 -11   4   10.98    0.91 
  -1 -11   4    7.83    1.19 
   0  11  -4    2.00    0.49 
   0 -11   4    0.15    0.34 
   0 -11   4    0.26    0.32 
   0 -11   4    0.19    0.22 
  -1  11  -4   16.73    1.20 
  -1  11  -4   15.43    1.43 
  -1  11  -4   12.49    1.21 
   1 -11   4   14.86    1.26 
   1 -11   4   10.94    1.09 
  -2  11  -4    0.89    0.40 
  -2  11  -4    0.92    0.37 
  -2  11  -4    0.78    0.34 
   2 -11   4    0.95    0.34 
   2 -11   4    1.08    0.34 
  -3  11  -4    0.16    0.31 
  -3  11  -4   -0.26    0.37 
   3 -11   4   -0.22    0.26 
  -4  11  -4   -0.12    0.36 
   4 -11   4    0.63    0.28 
  -5  11  -4   -0.30    0.34 
  -5  11  -4   -0.12    0.21 
  -5  11  -4    0.14    0.23 
   5 -11   4   -0.14    0.26 
  -6  11  -4    4.15    0.62 
  -6  11  -4    2.93    0.50 
  -6  11  -4    3.27    0.48 
  -6  11  -4    3.92    0.50 
   6 -11   4    3.54    0.44 
  -7  11  -4    0.56    0.23 
  -7  11  -4    0.44    0.16 
  -7  11  -4    0.29    0.27 
   7 -11   4    0.49    0.20 
   8 -11   4    0.52    0.18 
   7  10  -4    3.81    0.52 
  -7 -10   4    5.04    0.50 
  -7 -10   4    4.14    0.44 
  -7 -10   4    4.32    0.41 
  -7 -10   4    3.52    0.48 
   6  10  -4    0.61    0.35 
  -6 -10   4    0.43    0.27 
  -6 -10   4    0.87    0.34 
  -6 -10   4    0.47    0.28 
   5  10  -4    0.19    0.52 
  -5 -10   4    0.24    0.51 
  -5 -10   4   -0.17    0.54 
   4  10  -4   -0.03    0.17 
  -4 -10   4   -0.13    0.37 
  -4 -10   4    0.00    0.46 
  -4 -10   4    0.53    0.34 
  -4 -10   4    0.21    0.12 
   3  10  -4    1.00    0.50 
  -3 -10   4    0.47    0.41 
  -3 -10   4    0.25    0.60 
  -3 -10   4    1.16    0.44 
  -3 -10   4    0.73    0.37 
  -3 -10   4    0.61    0.32 
  -2 -10   4   39.27    3.48 
  -2 -10   4   38.73    3.03 
  -2 -10   4   42.41    3.42 
  -2 -10   4   40.41    3.42 
  -1 -10   4    1.33    0.32 
  -1 -10   4    0.69    0.66 
  -1 -10   4    1.32    0.39 
  -1 -10   4    1.66    0.50 
   0 -10   4    2.17    0.30 
   0 -10   4    2.96    0.75 
  -1  10  -4    3.64    0.68 
  -1  10  -4    2.83    0.36 
   1 -10   4    3.21    0.42 
   1 -10   4    2.73    0.44 
  -2  10  -4    0.54    0.60 
  -2  10  -4   -1.96    0.33 
   2 -10   4   -0.26    0.31 
  -3  10  -4    0.56    0.36 
  -3  10  -4    0.74    0.37 
  -3  10  -4   -0.08    0.37 
  -4  10  -4    0.01    0.35 
  -4  10  -4   -0.03    0.30 
  -4  10  -4   -0.18    0.37 
   4 -10   4   -0.17    0.27 
  -5  10  -4    8.58    0.95 
  -5  10  -4    7.34    0.75 
  -5  10  -4    6.35    0.91 
  -5  10  -4    5.76    0.91 
   5 -10   4    7.08    0.76 
  -6  10  -4    2.71    0.57 
  -6  10  -4    2.45    0.47 
  -6  10  -4    2.78    0.43 
   6 -10   4    2.78    0.39 
  -7  10  -4    1.55    0.24 
  -7  10  -4    1.21    0.34 
  -7  10  -4    1.75    0.33 
   7 -10   4    1.19    0.27 
   8 -10   4    0.54    0.20 
   9 -10   4    0.54    0.17 
  -8  -9   4   21.41    1.82 
  -8  -9   4   22.31    1.96 
  -7  -9   4    1.04    0.31 
  -7  -9   4    1.15    0.37 
  -7  -9   4    1.56    0.23 
  -7  -9   4    1.49    0.30 
  -6  -9   4    2.76    0.40 
  -6  -9   4    2.83    0.32 
  -6  -9   4    2.48    0.43 
  -6  -9   4    2.79    0.34 
  -5  -9   4   18.27    1.39 
  -5  -9   4   16.48    1.51 
  -5  -9   4   15.26    1.50 
  -5  -9   4   14.98    1.53 
  -5  -9   4   16.19    1.40 
  -4  -9   4    2.38    0.56 
  -4  -9   4    2.01    0.26 
  -4  -9   4    1.42    0.41 
  -4  -9   4    2.23    0.41 
  -3  -9   4    0.22    0.41 
  -3  -9   4    0.38    0.57 
  -3  -9   4    0.34    0.95 
  -3  -9   4   -0.05    0.30 
  -2  -9   4    0.08    0.25 
  -2  -9   4    0.52    0.43 
  -2  -9   4    0.44    0.39 
  -2  -9   4    0.37    0.32 
  -1  -9   4    6.30    1.07 
  -1  -9   4    8.23    0.67 
   0  -9   4    0.47    0.27 
   0  -9   4    0.39    0.52 
   0  -9   4    0.78    0.27 
  -1   9  -4   -0.16    0.47 
  -1   9  -4   -0.35    0.29 
   1  -9   4   -0.41    0.27 
   1  -9   4    0.00    0.26 
  -2   9  -4    1.19    0.36 
  -2   9  -4    1.82    0.58 
   2  -9   4    1.49    0.35 
   2  -9   4    1.78    0.34 
  -3   9  -4    1.40    0.41 
  -3   9  -4    1.34    0.37 
   3  -9   4    1.78    0.34 
  -4   9  -4    6.75    0.84 
  -4   9  -4    6.23    0.58 
  -5   9  -4    0.95    0.36 
  -5   9  -4    0.30    0.56 
  -5   9  -4    0.46    0.39 
  -5   9  -4    0.56    0.25 
   5  -9   4    0.69    0.27 
  -6   9  -4    3.46    0.52 
  -6   9  -4    4.16    0.50 
   6  -9   4    3.92    0.48 
  -7   9  -4    5.76    0.68 
  -7   9  -4    5.96    0.61 
   7  -9   4    5.82    0.64 
  -8   9  -4    1.46    0.28 
   8  -9   4    1.71    0.26 
   9  -9   4    0.25    0.16 
  -9  -8   4    2.40    0.29 
  -9  -8   4    2.33    0.35 
  -9  -8   4    2.85    0.28 
  -8  -8   4    7.90    0.77 
  -8  -8   4    7.74    0.81 
  -8  -8   4    5.54    0.64 
  -7  -8   4    1.76    0.42 
  -7  -8   4    2.01    0.36 
  -7  -8   4    1.78    0.27 
  -7  -8   4    1.33    0.28 
  -6  -8   4    0.13    0.33 
  -6  -8   4   -0.07    0.23 
  -6  -8   4    0.01    0.22 
  -6  -8   4   -0.05    0.12 
  -6  -8   4    0.14    0.54 
  -6  -8   4    0.12    0.44 
  -5  -8   4   -0.13    0.34 
  -5  -8   4   -0.05    0.43 
  -5  -8   4    0.00    0.24 
  -5  -8   4   -0.05    0.44 
  -5  -8   4    0.05    0.43 
  -4  -8   4    7.84    0.97 
  -4  -8   4    7.65    1.26 
  -4  -8   4    8.41    0.81 
  -3  -8   4    0.48    0.27 
  -3  -8   4    0.97    0.38 
  -3  -8   4    0.42    0.50 
  -3  -8   4    0.51    0.85 
  -2  -8   4   10.86    0.92 
  -2  -8   4   12.99    1.20 
  -2  -8   4   10.48    1.39 
  -1  -8   4    3.35    0.34 
  -1  -8   4    3.47    0.66 
   0   8  -4   -0.49    0.26 
   0  -8   4    0.16    0.23 
   0  -8   4    0.23    0.41 
   0  -8   4   -0.35    0.24 
  -1   8  -4   14.90    1.22 
   1  -8   4   15.89    1.24 
   1  -8   4   15.83    1.35 
  -2   8  -4    8.53    1.06 
  -2   8  -4    8.88    0.76 
   2  -8   4    9.01    0.84 
   2  -8   4    9.45    0.78 
  -3   8  -4   45.69    3.48 
  -3   8  -4   51.68    4.47 
   3  -8   4   43.84    3.84 
  -4   8  -4    0.94    0.19 
  -4   8  -4    1.40    0.42 
   4  -8   4    1.12    0.30 
  -5   8  -4    1.11    0.54 
  -5   8  -4    0.60    0.53 
  -5   8  -4    1.07    0.35 
  -5   8  -4    0.84    0.39 
  -6   8  -4    1.77    0.26 
  -6   8  -4    2.04    0.37 
  -6   8  -4    1.71    0.46 
  -6   8  -4    2.41    0.57 
   6  -8   4    2.27    0.34 
  -7   8  -4    2.43    0.29 
  -7   8  -4    3.91    0.40 
  -7   8  -4    2.83    0.46 
   7  -8   4    3.74    0.40 
  -8   8  -4    2.73    0.56 
   8  -8   4    1.99    0.27 
   9  -8   4    0.35    0.16 
 -10  -7   4    0.06    0.13 
  -9  -7   4    0.84    0.28 
  -9  -7   4    0.76    0.21 
  -9  -7   4    0.76    0.20 
  -8  -7   4    0.98    0.40 
  -8  -7   4    0.80    0.35 
  -8  -7   4    0.39    0.48 
  -8  -7   4    0.69    0.26 
  -7  -7   4   11.16    0.95 
  -7  -7   4   10.62    0.94 
  -7  -7   4    9.67    1.06 
  -7  -7   4   12.05    1.03 
  -7  -7   4    9.82    1.19 
  -6  -7   4    1.25    0.54 
  -6  -7   4    1.13    0.28 
  -6  -7   4    0.95    0.49 
  -6  -7   4    1.28    0.37 
  -6  -7   4    1.84    0.52 
  -6  -7   4    1.06    0.34 
  -5  -7   4    2.38    0.77 
  -5  -7   4    2.12    0.59 
  -5  -7   4    1.89    0.44 
  -5  -7   4    2.21    1.42 
  -4  -7   4   11.77    1.23 
  -4  -7   4   10.49    1.51 
  -4  -7   4   11.87    1.07 
  -3  -7   4    3.94    0.47 
  -3  -7   4    4.29    0.84 
  -3  -7   4    4.60    1.28 
  -2  -7   4    6.22    0.52 
  -2  -7   4    5.33    0.87 
  -2  -7   4    6.43    0.72 
  -1  -7   4    4.67    0.43 
  -1  -7   4    4.41    0.68 
  -1  -7   4    3.43    0.37 
   0   7  -4   30.74    2.30 
   0  -7   4   27.35    3.09 
   0  -7   4   32.24    2.54 
   0  -7   4   31.37    2.32 
  -1   7  -4    0.23    0.71 
  -1   7  -4    0.39    0.21 
   1  -7   4    0.35    0.23 
   1  -7   4    0.45    0.24 
  -2   7  -4  117.35    9.24 
  -2   7  -4  129.80   11.52 
   2  -7   4  130.85   10.21 
   2  -7   4  125.17    9.26 
  -3   7  -4   13.91    1.10 
  -3   7  -4   14.36    1.53 
  -3   7  -4   13.23    2.38 
   3  -7   4   14.18    1.23 
  -4   7  -4    3.34    0.54 
  -4   7  -4    2.84    0.35 
  -4   7  -4    2.84    1.26 
  -4   7  -4    2.55    0.28 
  -4   7  -4    2.50    0.47 
   4  -7   4    3.14    0.38 
  -5   7  -4    0.26    0.20 
  -5   7  -4    0.17    0.10 
  -5   7  -4    0.10    0.63 
  -5   7  -4    0.30    0.13 
   5  -7   4   -0.01    0.23 
  -6   7  -4    0.58    0.19 
  -6   7  -4    0.65    0.49 
  -6   7  -4    0.56    0.14 
  -6   7  -4    0.77    0.35 
  -7   7  -4    2.27    0.35 
  -7   7  -4    2.75    0.36 
  -7   7  -4    3.10    0.61 
   7  -7   4    2.71    0.35 
  -8   7  -4    0.37    0.49 
   8  -7   4    0.64    0.16 
   9  -7   4    0.86    0.18 
  10  -7   4    0.89    0.17 
 -10  -6   4    4.68    0.44 
 -10  -6   4    5.04    0.57 
 -10  -6   4    4.64    0.46 
  -9  -6   4   -0.36    0.22 
  -9  -6   4    0.01    0.22 
  -9  -6   4    1.22    0.36 
  -9  -6   4    0.57    0.30 
  -8  -6   4    6.94    0.86 
  -8  -6   4    7.15    0.74 
  -8  -6   4    6.49    0.68 
  -7  -6   4    6.46    0.59 
  -7  -6   4    5.66    0.82 
  -7  -6   4    6.54    0.85 
  -7  -6   4    5.54    0.70 
  -6  -6   4    2.72    0.95 
  -6  -6   4    2.39    0.43 
  -6  -6   4    2.77    0.57 
  -6  -6   4    3.15    0.55 
  -6  -6   4    2.47    0.46 
  -6  -6   4    2.84    0.34 
  -5  -6   4    2.16    0.55 
  -5  -6   4    1.98    1.06 
  -5  -6   4    1.53    0.44 
  -4  -6   4   40.59    4.27 
  -4  -6   4   42.18    3.90 
  -3  -6   4   32.82    3.44 
  -2  -6   4   22.61    2.01 
  -2  -6   4   19.90    2.20 
  -2  -6   4   20.25    1.59 
  -1  -6   4  120.50    8.64 
  -1  -6   4  120.36    9.52 
  -1  -6   4  111.01   11.38 
   0   6  -4    1.30    0.23 
   0  -6   4    1.17    0.27 
   0  -6   4    1.33    0.23 
  -1   6  -4   69.33   10.36 
  -1   6  -4   80.68    7.38 
  -1   6  -4   79.60    5.90 
   1  -6   4   83.76    6.52 
   1  -6   4   84.59    5.93 
  -2   6  -4    7.78    0.91 
  -2   6  -4    8.15    0.65 
  -2   6  -4    5.46    1.43 
   2  -6   4    8.32    0.69 
   2  -6   4    8.31    0.72 
  -3   6  -4   12.80    1.45 
  -3   6  -4   14.79    1.14 
   3  -6   4   16.37    1.27 
  -4   6  -4    0.31    0.68 
  -4   6  -4    0.75    0.36 
  -4   6  -4    0.45    0.49 
  -4   6  -4    0.19    0.22 
   4  -6   4    0.57    0.22 
  -5   6  -4   -0.08    0.25 
  -5   6  -4    0.45    0.55 
  -5   6  -4    0.01    0.10 
  -5   6  -4   -0.17    0.39 
  -6   6  -4    1.69    0.45 
  -6   6  -4    2.06    0.53 
  -6   6  -4    1.74    0.23 
  -6   6  -4    1.71    0.47 
  -6   6  -4    1.90    0.33 
  -7   6  -4    0.57    0.16 
  -7   6  -4   -0.14    0.26 
  -7   6  -4    0.14    0.44 
  -7   6  -4   -0.20    0.33 
   7  -6   4    0.08    0.18 
  -8   6  -4    1.86    0.34 
  -8   6  -4    1.50    0.40 
   8  -6   4    1.77    0.25 
  -9   6  -4   -0.02    0.31 
  -9   6  -4    0.07    0.39 
   9  -6   4   -0.08    0.16 
  10  -6   4   -0.04    0.15 
 -10  -5   4   -0.26    0.19 
 -10  -5   4   -0.05    0.26 
  -9  -5   4    3.14    0.40 
  -9  -5   4    3.94    0.54 
  -9  -5   4    2.83    0.37 
  -8  -5   4   15.46    1.30 
  -8  -5   4   13.31    1.27 
  -8  -5   4   13.74    1.44 
  -8  -5   4   14.41    1.62 
  -7  -5   4   31.85    2.56 
  -7  -5   4   32.78    2.91 
  -7  -5   4   24.10    2.73 
  -7  -5   4   32.02    2.60 
  -7  -5   4   27.49    2.55 
  -6  -5   4    0.00    0.36 
  -6  -5   4    0.05    0.38 
  -6  -5   4   -0.12    0.31 
  -6  -5   4   -0.01    0.52 
  -5  -5   4    7.90    1.20 
  -5  -5   4    6.98    2.08 
  -4  -5   4   38.78    3.38 
  -4  -5   4   31.84    3.67 
  -3  -5   4   41.50    4.91 
  -3  -5   4   46.16    3.42 
  -3  -5   4   48.53    4.30 
  -2  -5   4  137.40   11.04 
  -2  -5   4  124.68   11.10 
  -2  -5   4  146.02   12.59 
  -2  -5   4  144.13   11.09 
  -2  -5   4  133.47   10.06 
  -2  -5   4  138.07   13.27 
  -1  -5   4    5.28    0.47 
  -1  -5   4    5.35    0.50 
  -1  -5   4    5.95    0.72 
   0   5  -4   69.17    4.80 
   0  -5   4   68.23    4.83 
   0  -5   4   58.36    5.69 
   0  -5   4   63.75    5.30 
  -1   5  -4    7.50    0.74 
  -1   5  -4    4.24    1.14 
  -1   5  -4    6.76    0.54 
   1  -5   4    6.20    0.61 
   1  -5   4    7.85    0.60 
  -2   5  -4    0.50    0.16 
  -2   5  -4    0.41    0.60 
  -2   5  -4    0.35    0.34 
   2  -5   4    0.54    0.19 
   2  -5   4    0.34    0.23 
  -3   5  -4   14.89    1.38 
  -3   5  -4    9.05    2.02 
  -3   5  -4   11.56    0.98 
   3  -5   4   14.00    1.09 
  -4   5  -4    1.30    0.23 
  -4   5  -4    0.71    0.71 
  -4   5  -4    1.61    0.51 
  -4   5  -4    1.42    0.38 
   4  -5   4    1.74    0.24 
  -5   5  -4   10.95    0.87 
  -5   5  -4   10.80    0.92 
  -5   5  -4   10.40    1.04 
  -5   5  -4   11.50    1.26 
  -6   5  -4   -0.09    0.64 
  -6   5  -4    0.11    0.42 
  -6   5  -4    0.28    0.29 
  -6   5  -4   -0.27    0.36 
  -7   5  -4   -0.19    0.42 
  -7   5  -4   -0.55    0.26 
  -7   5  -4    0.16    0.37 
  -7   5  -4   -0.05    0.12 
   7  -5   4   -0.14    0.16 
  -8   5  -4    0.07    0.25 
  -8   5  -4   -0.47    0.40 
  -8   5  -4   -0.24    0.36 
   8  -5   4   -0.19    0.18 
  -9   5  -4    1.55    0.44 
  -9   5  -4    2.18    0.40 
   9  -5   4    2.05    0.28 
 -10   5  -4    1.02    0.26 
  10  -5   4    0.62    0.19 
 -10  -4   4    2.46    0.38 
 -10  -4   4    3.09    0.51 
  -9  -4   4    5.30    0.60 
  -9  -4   4    2.67    0.75 
  -9  -4   4    3.62    0.43 
  -9  -4   4    4.05    0.66 
  -8  -4   4   32.19    2.80 
  -8  -4   4   29.87    3.06 
  -8  -4   4   32.36    2.75 
  -8  -4   4   29.55    2.55 
  -8  -4   4   24.73    3.45 
  -8  -4   4   32.02    2.55 
  -7  -4   4    4.24    1.25 
  -7  -4   4    7.02    0.81 
  -7  -4   4    5.54    0.76 
  -7  -4   4    5.71    0.66 
  -6  -4   4   20.89    2.05 
  -6  -4   4   23.41    2.23 
  -6  -4   4   16.36    2.52 
  -5  -4   4    8.96    1.04 
  -5  -4   4    8.98    1.46 
  -5  -4   4   11.33    1.50 
  -4  -4   4    5.65    0.84 
  -4  -4   4    4.73    0.80 
  -4  -4   4    4.63    0.57 
  -3  -4   4   69.77    7.11 
  -3  -4   4   64.43    5.86 
  -3  -4   4   79.15    6.69 
  -3  -4   4   74.95    5.33 
  -3  -4   4   74.52    7.76 
  -2  -4   4   67.08    6.60 
  -2  -4   4   72.87    5.50 
  -2  -4   4   68.84    4.98 
  -2  -4   4   56.69    5.49 
  -2  -4   4   69.59    7.20 
  -2  -4   4   64.97    5.46 
  -2  -4   4   74.79    6.24 
   1   4  -4   50.18    4.72 
   1   4  -4   47.63    4.89 
   1   4  -4   63.28    4.86 
  -1  -4   4   55.06    5.40 
  -1  -4   4   57.56    4.10 
  -1  -4   4   56.55    4.52 
  -1  -4   4   56.15    4.53 
  -1  -4   4   55.63    4.49 
   0   4  -4   32.53    3.19 
   0   4  -4   38.30    3.05 
   0   4  -4   39.75    2.60 
   0  -4   4   33.06    2.87 
   0  -4   4   33.34    2.63 
   0  -4   4   32.78    3.13 
  -1   4  -4    6.05    0.85 
  -1   4  -4    6.07    0.75 
  -1   4  -4    8.57    0.58 
  -1   4  -4    7.25    0.82 
  -1   4  -4    6.56    1.21 
   1  -4   4    6.98    0.78 
   1  -4   4    7.62    0.64 
   1  -4   4    7.01    0.63 
  -2   4  -4    5.02    0.60 
  -2   4  -4    3.81    0.97 
  -2   4  -4    4.17    0.39 
   2  -4   4    4.60    0.43 
   2  -4   4    4.28    0.46 
  -3   4  -4    4.89    0.43 
  -3   4  -4    3.60    1.07 
  -3   4  -4    4.21    0.66 
   3  -4   4    5.54    0.47 
  -4   4  -4    4.89    0.69 
  -4   4  -4    2.24    1.00 
  -4   4  -4    4.33    0.41 
   4  -4   4    5.28    0.46 
  -5   4  -4    0.33    0.47 
  -5   4  -4    1.00    0.34 
  -5   4  -4   -0.57    0.91 
  -5   4  -4    0.79    0.20 
  -5   4  -4    0.40    0.26 
  -6   4  -4    7.33    0.75 
  -6   4  -4    7.37    0.65 
  -6   4  -4    6.14    0.76 
  -7   4  -4   -0.07    0.38 
  -7   4  -4    0.02    0.27 
  -7   4  -4   -0.02    0.12 
  -7   4  -4   -0.01    0.36 
  -8   4  -4    4.82    0.61 
  -8   4  -4    4.83    0.51 
  -8   4  -4    5.10    0.62 
   8  -4   4    5.22    0.55 
  -9   4  -4    0.13    0.35 
  -9   4  -4    0.28    0.40 
   9  -4   4    0.49    0.19 
 -10   4  -4    1.31    0.31 
  10  -4   4    1.93    0.26 
 -10  -3   4    0.17    0.32 
 -10  -3   4    0.29    0.48 
  -9  -3   4   15.80    1.84 
  -9  -3   4   20.75    1.67 
  -9  -3   4   21.23    1.78 
  -9  -3   4   21.36    1.80 
  -9  -3   4   18.24    2.04 
  -8  -3   4   10.36    1.05 
  -8  -3   4   11.35    1.12 
  -8  -3   4   11.76    1.07 
  -8  -3   4   10.59    1.33 
  -8  -3   4   10.82    1.36 
  -8  -3   4   12.33    1.21 
  -8  -3   4   11.71    1.58 
  -8  -3   4   12.07    1.31 
  -7  -3   4   25.29    2.18 
  -7  -3   4   23.98    2.44 
  -7  -3   4   26.58    2.66 
  -6  -3   4   10.62    1.11 
  -6  -3   4   11.30    1.21 
  -6  -3   4    9.96    1.55 
  -5  -3   4    0.50    0.68 
  -5  -3   4   -0.97    0.33 
  -5  -3   4   -0.10    0.51 
  -5  -3   4   -1.04    0.78 
  -4  -3   4   10.88    1.46 
  -4  -3   4   12.81    1.24 
  -4  -3   4   15.08    1.58 
  -4  -3   4   12.11    1.07 
   3   3  -4   23.74    2.38 
  -3  -3   4   25.23    2.70 
  -3  -3   4   28.84    2.93 
  -3  -3   4   27.78    2.48 
   2   3  -4   23.13    2.07 
   2   3  -4   20.83    2.10 
   2   3  -4   25.08    2.07 
  -2  -3   4   23.28    1.89 
  -2  -3   4   20.69    1.91 
  -2  -3   4   23.52    2.33 
  -2  -3   4   25.23    1.73 
  -2  -3   4   23.94    1.91 
   1   3  -4   50.20    4.46 
   1   3  -4   55.57    4.41 
  -1  -3   4   50.59    4.09 
  -1  -3   4   48.88    4.41 
  -1  -3   4   52.04    3.74 
  -1  -3   4   48.37    4.38 
  -1  -3   4   51.84    4.11 
  -1  -3   4   46.23    4.10 
   0   3  -4   -0.08    0.22 
   0   3  -4    0.24    0.22 
   0   3  -4    0.15    0.29 
   0  -3   4    0.01    0.13 
   0  -3   4    0.15    0.22 
   0  -3   4    0.12    0.19 
   0  -3   4    0.48    0.17 
  -1   3  -4   61.18    7.59 
  -1   3  -4   56.06    5.26 
  -1   3  -4   52.09    5.45 
  -1   3  -4   63.07    4.37 
  -1   3  -4   64.06    5.10 
   1  -3   4   57.48    4.41 
   1  -3   4   62.46    4.83 
   1  -3   4   57.77    5.20 
  -2   3  -4    0.48    0.31 
  -2   3  -4    0.75    0.53 
  -2   3  -4    0.78    0.16 
   2  -3   4    0.71    0.17 
   2  -3   4    0.79    0.24 
  -3   3  -4    1.33    0.39 
  -3   3  -4    1.21    0.19 
  -3   3  -4    1.08    0.69 
   3  -3   4    1.63    0.21 
  -4   3  -4    3.07    0.31 
  -4   3  -4    3.54    1.07 
  -4   3  -4    2.67    0.54 
  -5   3  -4   25.55    3.86 
  -5   3  -4   26.52    2.01 
  -5   3  -4   27.43    2.10 
  -6   3  -4    1.07    0.41 
  -6   3  -4    1.17    0.37 
  -6   3  -4    1.34    0.30 
  -7   3  -4   13.92    1.10 
  -7   3  -4   13.60    1.24 
  -7   3  -4   12.46    1.15 
  -7   3  -4   13.77    1.27 
  -8   3  -4    2.11    0.43 
  -8   3  -4    1.92    0.43 
  -9   3  -4    3.33    0.50 
   9  -3   4    3.62    0.43 
 -10   3  -4    3.96    0.50 
  10  -3   4    5.11    0.51 
 -10  -2   4    1.57    0.83 
 -10  -2   4    1.97    0.63 
  -9  -2   4    5.09    0.55 
  -9  -2   4    3.15    0.74 
  -9  -2   4    2.96    0.68 
  -9  -2   4    4.02    0.73 
  -8  -2   4   16.08    1.50 
  -8  -2   4   15.94    1.91 
  -8  -2   4   18.24    1.61 
  -8  -2   4   17.91    2.12 
  -7  -2   4    2.55    1.07 
  -7  -2   4    4.92    0.57 
  -7  -2   4    3.55    0.85 
  -6  -2   4    0.54    0.30 
  -6  -2   4    0.70    0.35 
  -6  -2   4    0.41    0.36 
  -6  -2   4    0.19    0.41 
  -5  -2   4    7.87    1.27 
  -5  -2   4   13.22    1.99 
  -5  -2   4    8.37    1.71 
  -5  -2   4   11.84    1.97 
  -4  -2   4    0.15    0.52 
  -4  -2   4    0.15    0.19 
  -4  -2   4    0.17    0.23 
  -4  -2   4    0.09    0.46 
   3   2  -4    2.06    0.41 
  -3  -2   4    1.93    0.51 
  -3  -2   4    2.49    0.53 
   2   2  -4    3.66    0.38 
   2   2  -4    3.74    0.47 
   2   2  -4    3.27    0.45 
  -2  -2   4    3.23    0.32 
  -2  -2   4    3.13    0.43 
  -2  -2   4    3.29    0.30 
  -2  -2   4    3.73    0.55 
  -2  -2   4    3.36    0.31 
   1   2  -4    0.33    0.22 
   1   2  -4    0.35    0.20 
   1   2  -4    0.23    0.22 
  -1  -2   4    0.27    0.19 
  -1  -2   4    0.67    0.27 
  -1  -2   4    0.32    0.13 
  -1  -2   4    0.39    0.17 
  -1  -2   4    0.38    0.15 
  -1  -2   4    0.38    0.18 
  -1  -2   4    0.28    0.16 
   0   2  -4   61.38    5.15 
   0   2  -4   60.22    5.01 
   0   2  -4   64.48    5.10 
   0  -2   4   61.22    5.14 
   0  -2   4   58.64    4.75 
   0  -2   4   49.95    4.95 
   0  -2   4   55.26    4.34 
   0  -2   4   56.75    4.74 
   0  -2   4   53.82    4.76 
   0  -2   4   63.85    5.09 
  -1   2  -4    1.61    0.42 
  -1   2  -4    1.78    0.56 
  -1   2  -4    1.63    0.44 
  -1   2  -4    1.54    0.18 
   1  -2   4    1.29    0.19 
   1  -2   4    1.40    0.26 
   1  -2   4    1.45    0.28 
  -2   2  -4    0.06    0.13 
  -2   2  -4    0.36    0.47 
  -2   2  -4    0.10    0.24 
   2  -2   4    0.33    0.21 
   2  -2   4    0.21    0.13 
  -3   2  -4    5.37    0.70 
  -3   2  -4    6.24    0.97 
  -3   2  -4    6.25    0.52 
  -3   2  -4    5.93    1.17 
   3  -2   4    6.94    0.58 
  -4   2  -4   17.54    1.36 
  -4   2  -4   18.05    1.82 
  -4   2  -4   15.74    2.62 
  -4   2  -4   21.17    2.32 
  -4   2  -4   17.75    2.19 
  -5   2  -4    1.31    0.78 
  -5   2  -4    2.72    0.26 
  -5   2  -4    2.47    0.31 
  -5   2  -4    1.93    0.31 
  -6   2  -4   15.52    1.43 
  -6   2  -4   15.18    1.24 
  -6   2  -4   14.82    1.36 
  -7   2  -4    5.83    0.52 
  -7   2  -4    5.17    0.66 
  -7   2  -4    4.84    0.54 
  -7   2  -4    6.19    0.64 
  -8   2  -4    6.57    0.72 
  -8   2  -4    6.29    0.63 
  -9   2  -4   14.74    1.41 
   9  -2   4   15.74    1.51 
  10  -2   4   -0.03    0.17 
 -11  -1   4    1.90    0.38 
 -10  -1   4    2.37    0.41 
 -10  -1   4    2.06    0.53 
 -10  -1   4    1.91    0.71 
  -9  -1   4    4.59    0.74 
  -9  -1   4    4.60    0.92 
  -9  -1   4    5.63    0.81 
  -9  -1   4    5.60    0.81 
  -9  -1   4    5.54    0.81 
  -8  -1   4    4.25    0.62 
  -8  -1   4    4.57    0.91 
  -8  -1   4    6.23    0.71 
  -8  -1   4    4.63    0.61 
  -8  -1   4    3.81    0.81 
  -7  -1   4    0.06    0.33 
  -7  -1   4    0.08    0.34 
  -7  -1   4    3.12    0.70 
  -7  -1   4    0.07    0.46 
  -6  -1   4   13.51    1.40 
  -6  -1   4   13.51    1.94 
  -6  -1   4   15.27    1.72 
  -5  -1   4    0.23    0.48 
  -5  -1   4    0.22    0.68 
  -5  -1   4    1.25    0.45 
  -5  -1   4    0.86    0.27 
  -5  -1   4    0.43    0.91 
  -4  -1   4    0.22    0.44 
  -4  -1   4    0.28    0.25 
  -4  -1   4    0.56    0.19 
  -4  -1   4    0.43    0.27 
  -4  -1   4    0.18    0.41 
   3   1  -4    6.81    0.64 
  -3  -1   4    5.77    0.48 
  -3  -1   4    6.54    0.76 
  -3  -1   4    4.98    0.59 
   2   1  -4   22.70    2.18 
   2   1  -4   25.90    2.14 
   2   1  -4   25.09    2.13 
  -2  -1   4   23.23    1.99 
  -2  -1   4   26.71    1.84 
  -2  -1   4   24.74    1.98 
  -2  -1   4   26.83    2.44 
  -2  -1   4   22.07    2.12 
  -2  -1   4   21.50    1.82 
   1   1  -4    0.07    0.19 
   1   1  -4    0.10    0.20 
   1   1  -4    0.16    0.32 
  -1  -1   4    0.03    0.25 
  -1  -1   4   -0.01    0.25 
  -1  -1   4    0.17    0.14 
  -1  -1   4    0.20    0.15 
  -1  -1   4    0.12    0.14 
  -1  -1   4    0.09    0.18 
   0   1  -4   25.50    2.58 
   0   1  -4   33.28    3.80 
   0   1  -4   32.19    2.68 
   0   1  -4   27.77    2.62 
   0  -1   4   29.84    2.41 
   0  -1   4   31.98    2.60 
   0  -1   4   30.22    2.67 
   0  -1   4   30.38    2.41 
   0  -1   4   26.51    2.41 
   0  -1   4   30.29    2.22 
   0  -1   4   24.02    2.54 
  -1   1  -4    2.42    0.45 
  -1   1  -4    2.16    0.22 
  -1   1  -4    2.71    0.59 
   1  -1   4    1.72    0.23 
   1  -1   4    2.16    0.34 
   1  -1   4    1.81    0.29 
  -2   1  -4  136.70   14.92 
  -2   1  -4   99.69   10.74 
  -2   1  -4  113.17    8.65 
   2  -1   4  128.10    8.73 
   2  -1   4  114.51    9.55 
  -3   1  -4   71.44    9.57 
  -3   1  -4   77.15    5.51 
  -4   1  -4    2.31    0.72 
  -4   1  -4    2.78    0.70 
  -4   1  -4    2.60    0.70 
  -4   1  -4    2.05    0.24 
  -5   1  -4   11.56    0.90 
  -5   1  -4   11.32    0.94 
  -6   1  -4   15.82    1.25 
  -6   1  -4   14.05    1.35 
  -6   1  -4   16.46    1.44 
  -7   1  -4    0.10    0.35 
  -7   1  -4    0.47    0.15 
  -7   1  -4    0.31    0.22 
  -8   1  -4   16.83    1.63 
  -8   1  -4   15.70    1.50 
   8  -1   4   20.38    1.76 
  -9   1  -4    4.94    0.58 
  -9   1  -4    4.08    0.53 
   9  -1   4    5.56    0.57 
 -11   0   4   -0.01    0.33 
 -11   0   4   -0.25    0.33 
 -10   0   4    3.10    0.60 
 -10   0   4    2.15    0.69 
 -10   0   4    2.38    0.81 
 -10   0   4    2.28    0.53 
  -9   0   4    2.96    0.78 
  -9   0   4    3.46    0.71 
  -9   0   4    2.02    0.55 
  -9   0   4    2.04    0.64 
  -9   0   4    2.76    0.64 
  -8   0   4    3.15    0.60 
  -8   0   4    1.61    0.67 
  -8   0   4    2.24    0.47 
  -8   0   4    2.81    0.88 
  -7   0   4    0.44    0.37 
  -7   0   4    0.56    0.40 
  -7   0   4    0.27    0.61 
  -6   0   4    0.12    0.49 
  -6   0   4    0.01    0.38 
  -6   0   4    0.31    0.32 
  -6   0   4    0.03    0.39 
  -5   0   4   48.79    4.53 
  -5   0   4   45.25    5.36 
  -5   0   4   51.48    4.04 
  -4   0   4    4.79    0.43 
  -4   0   4    3.59    0.54 
  -4   0   4    4.20    0.48 
   3   0  -4    3.33    0.43 
   3   0  -4    2.41    0.39 
  -3   0   4    3.74    0.30 
  -3   0   4    2.59    0.39 
   2   0  -4   15.27    1.62 
   2   0  -4   19.46    1.58 
   2   0  -4   18.27    1.57 
  -2   0   4   15.88    1.34 
  -2   0   4   18.66    1.35 
  -2   0   4   16.84    1.46 
  -2   0   4   18.51    1.45 
  -2   0   4   18.02    1.58 
   1   0  -4   37.30    3.16 
   1   0  -4   36.50    3.10 
   1   0  -4   39.54    3.04 
  -1   0   4   30.66    2.88 
  -1   0   4   34.31    3.04 
  -1   0   4   36.97    2.87 
  -1   0   4   35.97    3.14 
  -1   0   4   31.66    3.09 
  -1   0   4   35.85    2.64 
   0   0  -4    9.00    0.98 
   0   0  -4   10.82    0.78 
   0   0  -4   10.97    1.06 
   0   0   4    8.57    0.97 
   0   0   4   10.65    0.83 
  -1   0  -4   10.83    1.04 
  -1   0  -4    8.61    0.74 
  -1   0  -4   10.23    1.33 
   1   0   4    9.56    0.80 
   1   0   4    8.84    0.95 
  -2   0  -4   61.82    4.95 
  -2   0  -4   69.20    8.52 
   2   0   4   70.31    5.01 
  -3   0  -4   38.57    3.99 
  -3   0  -4   38.55    3.90 
  -3   0  -4   29.62    2.58 
  -4   0  -4    0.07    0.16 
  -4   0  -4    0.07    0.15 
  -5   0  -4    2.05    0.26 
  -6   0  -4    4.38    0.50 
  -6   0  -4    4.53    0.48 
  -6   0  -4    4.01    0.54 
  -7   0  -4    6.96    0.68 
  -7   0  -4    7.65    0.76 
   7   0   4    7.30    0.80 
  -8   0  -4    9.13    0.95 
  -8   0  -4    8.34    0.88 
   8   0   4   11.61    1.02 
  -9   0  -4   13.72    1.24 
  -9   0  -4   13.23    1.16 
   9   0   4   13.86    1.35 
 -12   1   4    0.53    0.39 
 -11   1   4    3.86    0.47 
 -11   1   4    3.14    0.47 
 -10   1   4    1.69    0.53 
 -10   1   4    2.00    0.47 
 -10   1   4    1.76    0.51 
 -10   1   4    1.17    0.66 
  -9   1   4    0.72    0.58 
  -9   1   4    1.17    0.45 
  -9   1   4    0.38    0.49 
  -9   1   4    0.36    0.71 
  -9   1   4    0.93    0.63 
  -8   1   4    0.74    0.54 
  -8   1   4    1.30    0.82 
  -8   1   4    0.42    0.54 
  -8   1   4    0.39    0.38 
  -7   1   4   -0.05    0.69 
  -7   1   4    0.68    0.40 
  -7   1   4    0.18    0.35 
  -6   1   4   24.69    2.36 
  -5   1   4    0.11    0.29 
  -5   1   4    0.12    0.26 
  -5   1   4   -0.02    0.36 
  -4   1   4    0.63    0.27 
  -4   1   4    0.54    0.22 
  -4   1   4    0.34    0.22 
  -4   1   4    0.61    0.33 
   3  -1  -4    1.65    0.35 
  -3   1   4    2.22    0.21 
  -3   1   4    1.55    0.19 
  -3   1   4    1.84    0.23 
  -3   1   4    1.36    0.20 
   2  -1  -4   21.44    2.14 
   2  -1  -4   22.51    2.10 
  -2   1   4   25.33    2.06 
  -2   1   4   23.88    1.78 
  -2   1   4   25.01    1.94 
  -2   1   4   24.35    1.79 
  -2   1   4   21.41    2.10 
   1  -1  -4    0.14    0.19 
   1  -1  -4    0.21    0.21 
  -1   1   4    0.18    0.16 
  -1   1   4    0.21    0.21 
  -1   1   4    0.27    0.21 
  -1   1   4    0.07    0.10 
  -1   1   4    0.12    0.13 
   0  -1  -4   30.34    2.63 
   0  -1  -4   28.23    2.12 
   0   1   4   30.42    2.16 
   0   1   4   23.89    2.56 
   0   1   4   28.88    2.16 
  -1  -1  -4   95.39    7.69 
  -1  -1  -4  120.81    9.15 
   1   1   4  116.78    7.73 
   1   1   4   89.44    7.84 
  -2  -1  -4   16.18    1.30 
   2   1   4   17.70    1.37 
  -3  -1  -4    7.33    0.65 
  -3  -1  -4    9.19    1.23 
  -4  -1  -4    0.16    0.15 
  -5  -1  -4    0.26    0.20 
  -6  -1  -4   13.03    1.09 
  -6  -1  -4   13.07    1.17 
  -6  -1  -4   12.89    1.11 
   6   1   4   11.95    1.30 
  -7  -1  -4    0.67    0.26 
  -7  -1  -4    0.26    0.22 
   7   1   4    0.25    0.29 
  -8  -1  -4    8.77    0.84 
   8   1   4    9.70    0.97 
  -9  -1  -4    2.90    0.36 
   9   1   4    3.08    0.38 
 -12   2   4    2.98    0.40 
 -11   2   4    0.43    0.32 
 -11   2   4    0.31    0.22 
 -11   2   4    0.52    0.18 
 -10   2   4    1.91    0.70 
 -10   2   4    2.50    0.50 
  -9   2   4    1.40    0.68 
  -9   2   4    2.21    0.52 
  -8   2   4    1.10    0.54 
  -8   2   4    0.54    0.36 
  -7   2   4    7.11    0.83 
  -7   2   4    7.20    0.75 
  -7   2   4    5.37    1.22 
  -5   2   4    1.17    0.34 
  -5   2   4    0.91    0.27 
  -5   2   4    1.07    0.31 
  -5   2   4    1.39    0.47 
  -4   2   4    1.29    0.28 
  -4   2   4    1.55    0.30 
  -4   2   4    1.84    0.43 
  -4   2   4    1.77    0.30 
  -3   2   4    2.64    0.31 
  -3   2   4    2.68    0.31 
  -3   2   4    2.84    0.29 
  -3   2   4    2.29    0.32 
  -3   2   4    2.84    0.31 
   2  -2  -4   48.61    4.70 
  -2   2   4   50.60    4.55 
  -2   2   4   54.04    4.05 
  -2   2   4   57.79    4.00 
  -2   2   4   55.90    4.35 
  -2   2   4   54.02    4.36 
   1  -2  -4    1.44    0.21 
  -1   2   4    1.58    0.31 
  -1   2   4    1.46    0.20 
   0  -2  -4   84.98    6.20 
   0   2   4   83.00    6.32 
   0   2   4   84.71    6.24 
  -1  -2  -4    4.20    0.37 
   1   2   4    4.11    0.45 
   1   2   4    3.40    0.34 
  -2  -2  -4    0.07    0.14 
  -2  -2  -4    0.47    0.44 
   2   2   4    0.24    0.10 
   2   2   4    0.00    0.23 
  -3  -2  -4    2.27    0.68 
  -3  -2  -4    1.33    0.24 
  -4  -2  -4   10.07    0.84 
  -5  -2  -4    1.75    0.26 
  -5  -2  -4    1.44    0.31 
  -5  -2  -4    1.12    0.26 
  -5  -2  -4    1.53    0.34 
  -6  -2  -4    1.28    0.32 
  -6  -2  -4    0.96    0.28 
  -6  -2  -4    0.98    0.24 
   6   2   4    0.98    0.32 
  -7  -2  -4   13.00    1.13 
  -7  -2  -4   13.28    1.15 
   7   2   4   14.16    1.37 
  -8  -2  -4    1.32    0.27 
  -8  -2  -4    1.36    0.29 
   8   2   4    1.09    0.29 
  -9  -2  -4    2.96    0.32 
   9   2   4    2.85    0.35 
 -12   3   4    1.36    0.30 
 -11   3   4   -0.04    0.17 
 -11   3   4    0.15    0.30 
 -11   3   4   -0.22    0.18 
 -10   3   4    0.59    0.66 
 -10   3   4    0.51    0.35 
 -10   3   4    0.66    0.39 
  -9   3   4    0.85    0.68 
  -9   3   4    0.92    0.50 
  -8   3   4   13.80    1.32 
  -7   3   4    1.33    0.44 
  -5   3   4    7.98    0.78 
  -5   3   4    8.62    0.73 
  -4   3   4   19.44    1.55 
  -4   3   4   19.55    1.62 
  -4   3   4   19.73    1.59 
  -4   3   4   18.27    1.59 
  -3   3   4   10.21    0.87 
  -3   3   4   10.50    0.91 
  -3   3   4   11.02    0.91 
  -3   3   4   10.91    0.93 
  -3   3   4    9.97    0.87 
  -2   3   4   20.27    1.61 
  -2   3   4   21.16    1.60 
   1  -3  -4   34.93    2.62 
  -1   3   4   34.99    2.69 
  -1   3   4   35.82    2.67 
   0  -3  -4    0.78    0.20 
   0   3   4    0.67    0.29 
   0   3   4    0.77    0.17 
  -1  -3  -4   26.00    1.98 
   1   3   4   25.07    2.03 
   1   3   4   26.77    2.00 
  -2  -3  -4    0.10    0.16 
  -3  -3  -4   22.30    1.74 
  -4  -3  -4    9.15    0.79 
  -5  -3  -4    5.69    0.64 
  -5  -3  -4    6.13    0.55 
  -5  -3  -4    5.52    0.55 
  -5  -3  -4    5.96    0.60 
  -5  -3  -4    5.23    0.64 
   5   3   4    5.59    0.65 
  -6  -3  -4    7.57    0.66 
  -6  -3  -4    6.31    0.68 
  -6  -3  -4    6.72    0.61 
  -6  -3  -4    6.94    0.63 
   6   3   4    6.12    0.75 
  -7  -3  -4    2.08    0.32 
  -7  -3  -4    2.70    0.35 
  -7  -3  -4    2.51    0.31 
   7   3   4    2.46    0.39 
  -8  -3  -4    0.02    0.20 
  -8  -3  -4    0.45    0.23 
   8   3   4    0.20    0.23 
 -12   4   4    0.24    0.17 
 -11   4   4    1.69    0.35 
 -11   4   4    1.13    0.26 
 -10   4   4    4.45    0.87 
 -10   4   4    3.98    0.73 
  -9   4   4    6.60    0.71 
  -9   4   4    6.69    0.99 
  -8   4   4    6.15    0.70 
  -7   4   4    0.66    0.44 
  -6   4   4    6.70    0.66 
  -5   4   4    6.99    0.66 
  -5   4   4    7.14    0.71 
  -4   4   4   -0.01    0.21 
  -4   4   4    0.68    0.30 
  -4   4   4   -0.18    0.20 
  -4   4   4    0.14    0.23 
  -3   4   4    6.80    0.63 
  -3   4   4    6.54    0.61 
  -2   4   4  193.36   14.58 
  -2   4   4  195.72   14.31 
   1  -4  -4    1.66    0.26 
  -1   4   4    1.24    0.23 
  -1   4   4    1.76    0.34 
   0  -4  -4    3.59    0.39 
   0   4   4    4.32    0.41 
   0   4   4    4.27    0.49 
  -1  -4  -4    1.06    0.20 
   1   4   4    1.17    0.34 
  -2  -4  -4    7.56    0.66 
  -3  -4  -4   17.05    1.37 
  -4  -4  -4    1.24    0.25 
  -4  -4  -4    1.12    0.29 
  -4  -4  -4    1.23    0.30 
  -4  -4  -4    1.24    0.33 
  -5  -4  -4    2.10    0.30 
  -5  -4  -4    2.76    0.38 
  -5  -4  -4    2.24    0.39 
  -5  -4  -4    2.39    0.38 
   5   4   4    2.05    0.39 
  -6  -4  -4    3.89    0.43 
  -6  -4  -4    4.29    0.44 
  -6  -4  -4    4.62    0.45 
  -6  -4  -4    4.37    0.49 
   6   4   4    4.57    0.54 
  -7  -4  -4    3.18    0.37 
  -7  -4  -4    3.04    0.35 
  -7  -4  -4    3.03    0.34 
   7   4   4    2.57    0.40 
  -8  -4  -4   -0.09    0.18 
   8   4   4   -0.04    0.19 
 -11   5   4   -0.07    0.18 
 -11   5   4    0.14    0.19 
 -10   5   4    0.05    0.42 
 -10   5   4    0.62    0.70 
 -10   5   4    0.00    0.48 
  -9   5   4    0.18    0.14 
  -9   5   4   -0.23    0.69 
  -9   5   4   -0.10    0.21 
  -8   5   4   15.95    1.83 
  -6   5   4    1.01    0.29 
  -5   5   4    9.74    0.82 
  -5   5   4   11.94    0.88 
  -5   5   4    8.37    0.82 
  -4   5   4    0.27    0.30 
  -4   5   4    1.01    0.35 
  -3   5   4    4.21    0.55 
  -3   5   4    5.55    0.55 
  -2   5   4   10.43    0.97 
  -2   5   4   11.72    0.96 
   1  -5  -4   65.54    5.10 
  -1   5   4   67.90    5.14 
  -1   5   4   73.22    5.22 
   0  -5  -4    1.37    0.56 
   0  -5  -4    1.34    0.28 
   0   5   4    1.66    0.28 
   0   5   4    1.64    0.40 
  -1  -5  -4    1.33    0.24 
   1   5   4    1.19    0.39 
  -2  -5  -4   33.73    2.62 
  -2  -5  -4   34.94    2.95 
  -3  -5  -4    0.36    0.26 
  -3  -5  -4    0.49    0.28 
  -4  -5  -4    0.07    0.20 
  -4  -5  -4   -0.18    0.28 
  -4  -5  -4    0.24    0.24 
   4   5   4    0.07    0.27 
  -5  -5  -4   -0.21    0.28 
  -5  -5  -4    0.04    0.27 
  -5  -5  -4   -0.09    0.21 
  -5  -5  -4   -0.05    0.20 
   5   5   4    0.23    0.27 
  -6  -5  -4    6.95    0.69 
  -6  -5  -4    8.24    0.69 
  -6  -5  -4    8.20    0.69 
  -6  -5  -4    8.50    0.75 
   6   5   4    7.50    0.83 
  -7  -5  -4    2.08    0.29 
  -7  -5  -4    1.92    0.29 
  -7  -5  -4    2.58    0.26 
   7   5   4    1.93    0.32 
 -11   6   4    0.87    0.22 
 -11   6   4    0.38    0.23 
 -11   6   4    0.84    0.21 
 -10   6   4    0.08    0.47 
 -10   6   4    0.17    0.44 
  -9   6   4   -0.03    0.40 
  -9   6   4   -2.95    0.68 
  -9   6   4    0.02    0.21 
  -8   6   4   44.57    4.53 
  -8   6   4   45.75    4.64 
  -7   6   4   62.30    6.55 
  -7   6   4   67.41    5.45 
  -6   6   4   -0.55    0.25 
  -5   6   4    5.15    0.57 
  -4   6   4   16.16    1.42 
  -4   6   4   18.56    1.43 
  -3   6   4    1.66    0.46 
  -3   6   4    2.78    0.44 
  -2   6   4   62.51    4.73 
  -2   6   4   63.01    4.81 
   1  -6  -4   39.89    3.14 
  -1   6   4   45.05    3.24 
  -1   6   4   40.69    3.21 
   0  -6  -4    1.31    0.34 
   0  -6  -4    1.53    0.30 
   0   6   4    1.39    0.44 
  -1  -6  -4   17.86    1.45 
  -1  -6  -4   18.57    1.63 
   1   6   4   18.95    1.57 
  -2  -6  -4    4.02    0.44 
  -2  -6  -4    3.79    0.51 
  -2  -6  -4    3.96    0.51 
  -3  -6  -4   -0.06    0.23 
  -3  -6  -4    0.15    0.23 
   3   6   4   -0.22    0.27 
  -4  -6  -4    0.04    0.22 
  -4  -6  -4    0.05    0.29 
  -4  -6  -4   -0.13    0.19 
   4   6   4    0.10    0.27 
  -5  -6  -4   11.65    1.16 
  -5  -6  -4   12.40    1.12 
  -5  -6  -4   13.44    1.07 
   5   6   4   13.13    1.29 
  -6  -6  -4    2.10    0.30 
  -6  -6  -4    2.33    0.27 
   6   6   4    1.76    0.32 
   7   6   4    1.16    0.24 
 -11   7   4    0.12    0.16 
 -11   7   4    0.01    0.20 
 -10   7   4   -0.14    0.42 
 -10   7   4   -0.08    0.41 
  -9   7   4    0.25    0.27 
  -9   7   4    0.59    0.26 
  -9   7   4    0.32    0.44 
  -8   7   4   17.82    1.66 
  -7   7   4   24.11    2.74 
  -7   7   4   25.02    2.19 
  -7   7   4   27.98    2.73 
  -6   7   4   11.55    1.07 
  -6   7   4   12.39    1.13 
  -5   7   4    1.45    0.36 
  -4   7   4    2.61    0.50 
  -4   7   4    2.13    0.38 
  -3   7   4    1.71    0.33 
  -3   7   4    1.29    0.46 
  -2   7   4   18.29    1.58 
  -2   7   4   19.10    1.57 
   1  -7  -4    5.39    0.56 
  -1   7   4    5.29    0.67 
  -1   7   4    6.02    0.67 
   0  -7  -4   28.69    2.20 
   0   7   4   28.25    2.30 
  -1  -7  -4    1.39    0.38 
  -1  -7  -4    1.09    0.27 
  -1  -7  -4    0.93    0.34 
  -2  -7  -4    2.20    0.42 
  -2  -7  -4    3.22    0.44 
   2   7   4    2.72    0.43 
  -3  -7  -4    0.23    0.23 
  -3  -7  -4    0.02    0.23 
   3   7   4   -0.31    0.28 
  -4  -7  -4    6.82    0.70 
  -4  -7  -4    8.62    0.76 
  -4  -7  -4    7.49    0.65 
   4   7   4    7.15    0.80 
  -5  -7  -4    0.04    0.13 
  -5  -7  -4    0.56    0.23 
  -5  -7  -4   -0.04    0.19 
   5   7   4    0.03    0.24 
  -6  -7  -4    2.17    0.29 
   6   7   4    2.39    0.34 
 -10   8   4    1.25    0.41 
 -10   8   4    0.69    0.40 
  -9   8   4    5.06    0.65 
  -9   8   4    5.47    0.52 
  -9   8   4    4.48    0.64 
  -8   8   4    9.96    1.02 
   7  -8  -4    0.00    0.30 
  -7   8   4    0.13    0.15 
  -7   8   4   -0.34    0.89 
  -7   8   4   -0.02    0.60 
  -6   8   4    1.36    0.26 
   5  -8  -4    0.07    0.30 
  -5   8   4   -0.21    0.57 
  -5   8   4   -0.11    0.30 
   4  -8  -4    7.68    0.85 
  -4   8   4    7.78    1.04 
  -4   8   4    9.22    0.88 
  -4   8   4    6.61    0.75 
  -4   8   4    8.15    0.87 
  -3   8   4   20.24    1.80 
  -3   8   4   19.73    1.68 
  -2   8   4    0.35    0.38 
  -2   8   4    0.92    0.51 
  -2   8   4    0.31    0.28 
   1  -8  -4    5.81    0.63 
   1  -8  -4    6.13    0.70 
  -1   8   4    6.30    0.63 
  -1   8   4    6.65    0.70 
  -1   8   4    6.11    0.93 
  -1   8   4    6.22    0.80 
   0  -8  -4    3.67    0.53 
   0   8   4    3.31    0.69 
   0   8   4    3.68    0.66 
   0   8   4    3.73    0.45 
  -1  -8  -4    2.23    0.42 
  -1  -8  -4    1.75    0.38 
   1   8   4    1.85    0.32 
  -2  -8  -4    3.41    0.45 
  -2  -8  -4    2.94    0.45 
   2   8   4    3.46    0.49 
  -3  -8  -4   18.12    1.34 
  -3  -8  -4   14.96    1.36 
  -3  -8  -4   12.47    1.35 
   3   8   4   14.18    1.52 
  -4  -8  -4    1.00    0.25 
  -4  -8  -4    1.50    0.23 
  -4  -8  -4    1.34    0.26 
   4   8   4    1.02    0.30 
  -5  -8  -4    0.30    0.18 
   5   8   4    0.05    0.22 
  -9   9   4    5.68    0.74 
  -9   9   4    6.09    0.88 
  -9   9   4    7.38    0.62 
   7  -9  -4   -0.01    0.29 
  -7   9   4   -0.41    0.55 
  -6   9   4    0.12    0.18 
   5  -9  -4    4.40    0.58 
  -5   9   4    4.42    0.78 
   4  -9  -4   13.47    1.33 
  -4   9   4   13.08    1.49 
  -4   9   4   12.31    1.15 
   3  -9  -4    2.19    0.43 
  -3   9   4    3.40    0.42 
  -3   9   4    2.59    0.55 
  -3   9   4    2.42    0.68 
   2  -9  -4    2.20    0.40 
   2  -9  -4    2.51    0.48 
  -2   9   4    2.20    0.35 
  -2   9   4    2.68    0.50 
  -2   9   4    2.08    0.68 
   1  -9  -4   -1.40    0.35 
  -1   9   4   -0.35    0.41 
  -1   9   4    0.51    0.59 
  -1   9   4   -0.02    0.26 
   0  -9  -4    3.84    0.51 
   0   9   4    2.74    0.65 
   0   9   4    3.04    0.40 
  -1  -9  -4    4.57    0.48 
  -1  -9  -4    4.36    0.55 
   1   9   4    2.60    0.65 
   1   9   4    3.64    0.43 
  -2  -9  -4   11.69    1.15 
  -2  -9  -4   13.32    1.14 
  -2  -9  -4   13.28    1.19 
  -3  -9  -4    5.93    0.61 
  -3  -9  -4    6.46    0.59 
  -4  -9  -4    0.09    0.17 
  -4  -9  -4    0.07    0.14 
   9 -10  -4    0.14    0.08 
  -9  10   4    0.01    0.14 
  -9  10   4   -0.10    0.17 
  -8  10   4    0.42    0.30 
  -7  10   4    0.37    0.49 
  -6  10   4    0.64    0.18 
   5 -10  -4    1.16    0.34 
  -5  10   4    1.10    0.56 
  -5  10   4    0.64    0.29 
   4 -10  -4    1.85    0.42 
   4 -10  -4    1.79    0.36 
  -4  10   4    0.66    0.33 
  -4  10   4    2.29    0.58 
  -4  10   4    2.15    0.37 
   3 -10  -4    6.99    0.76 
   3 -10  -4    7.72    0.80 
  -3  10   4    5.17    0.74 
  -3  10   4    8.59    0.99 
  -3  10   4    8.93    0.74 
   2 -10  -4   -0.28    0.36 
  -2  10   4   -0.57    0.53 
  -2  10   4   -0.07    0.46 
  -2  10   4    0.04    0.22 
   1 -10  -4   -0.20    0.36 
  -1  10   4   -0.07    0.40 
  -1  10   4    0.12    0.25 
  -1  10   4    0.16    0.53 
   0 -10  -4    1.24    0.39 
   0  10   4    0.75    0.53 
   0  10   4    1.31    0.26 
  -1 -10  -4   12.42    1.02 
  -1 -10  -4   10.34    0.95 
   1  10   4   11.36    0.94 
   1  10   4    8.05    1.21 
  -2 -10  -4    9.09    0.78 
  -2 -10  -4    7.43    0.83 
   2  10   4    8.97    0.77 
  -3 -10  -4    0.00    0.15 
  -8  11   4   -0.09    0.30 
  -7  11   4    1.07    0.43 
  -5  11   4   -0.13    0.15 
  -5  11   4    0.00    0.46 
   4 -11  -4    6.62    0.73 
  -4  11   4    7.08    0.66 
  -4  11   4    7.14    0.89 
   3 -11  -4    0.56    0.37 
  -3  11   4    0.89    0.45 
  -3  11   4    0.49    0.30 
  -3  11   4    1.10    0.33 
   2 -11  -4    0.62    0.36 
  -2  11   4    0.21    0.44 
  -2  11   4    0.41    0.41 
  -2  11   4    0.26    0.33 
   1 -11  -4    0.15    0.35 
  -1  11   4    0.75    0.44 
  -1  11   4    0.11    0.22 
  -1  11   4    0.33    0.42 
   0 -11  -4    4.34    0.47 
   0 -11  -4    5.09    0.54 
   0  11   4    4.45    0.65 
   0  11   4    4.58    0.49 
  -1 -11  -4    5.16    0.51 
   1  11   4    5.89    0.54 
  -5  12   4    0.92    0.17 
  -5  12   4    2.05    0.40 
  -4  12   4   -0.03    0.11 
  -4  12   4   -0.03    0.15 
  -4  12   4   -0.32    0.37 
  -3  12   4   -1.44    0.36 
  -3  12   4    0.06    0.22 
  -3  12   4   -0.03    0.24 
  -2  12   4    0.11    0.36 
  -2  12   4   -0.19    0.25 
  -2  12   4   -0.12    0.33 
  -1  12   4    2.69    0.33 
  -1  12   4    3.85    0.48 
  -1  12   4    3.67    0.47 
   0  12   4    1.47    0.25 
  -1 -15   5    2.80    0.33 
  -1 -15   5    2.25    0.26 
   0 -15   5    3.05    0.33 
   1 -15   5    5.21    0.48 
   1 -15   5    4.70    0.53 
  -2  15  -5    1.14    0.24 
   2 -15   5    1.80    0.24 
   2 -15   5    1.67    0.30 
  -3  15  -5   -0.03    0.16 
  -3  15  -5   -0.13    0.21 
   3 -15   5   -0.04    0.23 
  -4  15  -5    2.19    0.30 
  -4  15  -5    1.80    0.31 
   4  14  -5    5.57    0.63 
   3  14  -5    0.63    0.34 
   3  14  -5    0.15    0.31 
  -3 -14   5    0.22    0.27 
   2  14  -5    5.99    0.74 
  -2 -14   5    6.53    0.64 
  -2 -14   5    6.20    0.57 
  -1 -14   5    1.12    0.34 
  -1 -14   5    1.35    0.23 
   0 -14   5   10.34    0.93 
   1 -14   5   -0.26    0.31 
   1 -14   5    0.02    0.12 
  -2  14  -5    2.84    0.45 
   2 -14   5    3.14    0.43 
   2 -14   5    3.33    0.36 
  -3  14  -5    0.24    0.20 
   3 -14   5    0.29    0.29 
  -4  14  -5    0.28    0.27 
  -4  14  -5    0.78    0.22 
   4 -14   5    1.71    0.27 
  -5  14  -5    2.52    0.34 
   5  13  -5    3.42    0.57 
   4  13  -5    2.58    0.40 
  -4 -13   5    2.61    0.41 
  -4 -13   5    3.29    0.39 
  -3 -13   5   10.35    0.93 
  -3 -13   5   10.99    0.97 
  -3 -13   5   10.72    0.99 
   2  13  -5   -0.06    0.43 
  -2 -13   5    0.40    0.14 
  -2 -13   5    0.55    0.33 
   1  13  -5   25.45    2.41 
  -1 -13   5   22.71    2.06 
  -1 -13   5   24.22    2.11 
   0 -13   5    0.10    0.35 
   0 -13   5   -0.02    0.14 
   1 -13   5    1.81    0.28 
   1 -13   5    1.84    0.37 
   2 -13   5    0.11    0.32 
  -3  13  -5   -0.16    0.23 
  -3  13  -5   -0.18    0.21 
   3 -13   5    0.03    0.31 
  -4  13  -5   13.64    1.29 
  -4  13  -5   14.37    1.29 
  -4  13  -5   14.33    1.48 
  -5  13  -5    2.34    0.41 
  -5  13  -5    3.11    0.42 
  -5  13  -5    2.83    0.43 
  -6  13  -5    0.15    0.15 
   6 -13   5    0.45    0.16 
   6  12  -5    3.95    0.53 
   5  12  -5    0.17    0.40 
  -5 -12   5    0.82    0.37 
  -5 -12   5    0.37    0.35 
   4  12  -5   22.45    2.65 
  -4 -12   5   28.40    2.37 
  -4 -12   5   28.11    2.31 
  -4 -12   5   28.81    2.28 
   3  12  -5   -0.65    0.31 
  -3 -12   5   -0.11    0.34 
  -3 -12   5    0.10    0.32 
  -3 -12   5    0.24    0.13 
   2  12  -5   16.62    1.68 
  -2 -12   5   15.91    1.45 
  -2 -12   5   15.59    1.39 
  -2 -12   5   15.82    1.42 
   1  12  -5   -0.25    0.47 
  -1 -12   5   -0.44    0.36 
  -1 -12   5   -0.21    0.35 
   0  12  -5    1.47    0.50 
   0 -12   5    1.41    0.54 
   0 -12   5    1.35    0.35 
   0 -12   5    0.48    0.38 
  -1  12  -5    3.52    0.55 
   1 -12   5    4.13    0.47 
   1 -12   5    5.88    0.55 
   2 -12   5    0.54    0.35 
  -3  12  -5    1.49    0.32 
   3 -12   5    0.82    0.34 
  -4  12  -5    4.67    0.76 
  -4  12  -5    3.07    0.47 
   4 -12   5    2.56    0.32 
  -5  12  -5    7.18    0.75 
  -5  12  -5    7.40    0.75 
  -5  12  -5    7.38    0.74 
   5 -12   5    6.43    0.72 
  -6  12  -5    0.29    0.19 
  -6  12  -5    0.55    0.22 
   6 -12   5    0.54    0.20 
  -7  12  -5    0.61    0.13 
   7 -12   5    0.55    0.17 
   7  11  -5    7.99    0.89 
   6  11  -5    0.32    0.33 
  -6 -11   5    0.09    0.31 
   5  11  -5   16.32    1.89 
  -5 -11   5   18.19    1.67 
  -5 -11   5   19.97    1.71 
   4  11  -5   -0.04    0.29 
  -4 -11   5   -0.08    0.11 
  -4 -11   5   -0.13    0.33 
  -4 -11   5    0.29    0.35 
   3  11  -5   18.62    1.82 
  -3 -11   5   17.83    1.63 
  -3 -11   5   13.61    1.85 
  -3 -11   5   18.39    1.56 
  -3 -11   5   20.42    1.61 
   2  11  -5   -0.79    0.33 
  -2 -11   5    0.28    0.51 
  -2 -11   5   -0.10    0.35 
  -2 -11   5   -0.04    0.35 
  -2 -11   5    0.03    0.35 
   1  11  -5   -0.42    0.48 
  -1 -11   5    0.09    0.47 
  -1 -11   5    0.59    0.35 
  -1 -11   5    0.21    0.31 
  -1 -11   5    0.56    0.36 
   0  11  -5    7.70    1.00 
   0  11  -5    7.67    0.93 
   0 -11   5    8.06    0.75 
   0 -11   5    5.58    0.62 
   0 -11   5    7.44    0.75 
  -1  11  -5    2.54    0.47 
  -1  11  -5    3.20    0.38 
  -1  11  -5    5.02    0.77 
   1 -11   5    4.19    0.49 
   1 -11   5    2.60    0.36 
  -2  11  -5    4.64    0.87 
  -2  11  -5    3.14    0.39 
   2 -11   5    3.09    0.45 
   2 -11   5    3.50    0.46 
  -3  11  -5    0.24    0.26 
  -3  11  -5    0.34    0.34 
   3 -11   5   -0.07    0.31 
   3 -11   5    0.27    0.11 
  -4  11  -5    9.34    0.95 
   4 -11   5    9.62    0.98 
  -5  11  -5    2.54    0.44 
  -5  11  -5    3.35    0.72 
  -5  11  -5    2.60    0.46 
   5 -11   5    2.06    0.35 
  -6  11  -5    1.44    0.31 
  -6  11  -5    1.82    0.35 
   6 -11   5    1.62    0.28 
  -7  11  -5    0.84    0.18 
  -7  11  -5    0.76    0.26 
   7 -11   5    0.71    0.20 
   8 -11   5    1.43    0.22 
  -8 -10   5    1.36    0.32 
  -8 -10   5    0.96    0.19 
  -7 -10   5    3.87    0.41 
  -7 -10   5    2.41    0.46 
  -7 -10   5    3.20    0.35 
  -7 -10   5    3.42    0.49 
   6  10  -5   32.13    2.93 
  -6 -10   5   30.17    2.62 
  -6 -10   5   31.01    2.44 
  -6 -10   5   30.79    2.51 
  -6 -10   5   25.99    2.57 
  -6 -10   5   29.56    2.58 
   5  10  -5    0.06    0.45 
  -5 -10   5    0.05    0.24 
  -5 -10   5    0.01    0.44 
  -5 -10   5    0.21    0.41 
   4  10  -5    5.36    0.64 
  -4 -10   5    5.92    0.63 
  -4 -10   5    5.28    0.64 
  -4 -10   5    5.37    0.51 
  -4 -10   5    4.77    0.77 
   3  10  -5    1.71    0.35 
  -3 -10   5    2.47    0.55 
  -3 -10   5    1.70    0.27 
  -3 -10   5    1.41    0.31 
  -3 -10   5    1.27    0.40 
  -3 -10   5    1.36    0.40 
  -2 -10   5    3.82    0.48 
  -2 -10   5    3.32    0.42 
  -2 -10   5    2.87    0.58 
  -2 -10   5    2.49    0.62 
  -2 -10   5    3.53    0.49 
  -1 -10   5    4.52    0.73 
  -1 -10   5    4.78    0.50 
   0 -10   5    7.04    0.62 
  -1  10  -5   13.37    1.13 
   1 -10   5   13.99    1.26 
   1 -10   5   15.00    1.16 
  -2  10  -5    0.08    0.36 
  -2  10  -5    0.78    0.36 
   2 -10   5    0.53    0.34 
  -3  10  -5   14.14    1.15 
  -3  10  -5   14.64    1.53 
  -4  10  -5   -0.09    0.22 
  -4  10  -5    0.17    0.63 
  -4  10  -5   -0.01    0.36 
  -4  10  -5   -0.14    0.31 
   4 -10   5    0.32    0.28 
  -5  10  -5    2.59    0.66 
  -5  10  -5    2.35    0.36 
   5 -10   5    1.56    0.34 
  -6  10  -5    3.67    0.54 
  -6  10  -5    4.27    0.52 
   6 -10   5    4.13    0.48 
  -7  10  -5    1.91    0.30 
  -7  10  -5    1.61    0.31 
   7 -10   5    1.39    0.26 
   8 -10   5    8.94    0.89 
   9 -10   5   -0.06    0.09 
  -9  -9   5    8.23    0.71 
  -8  -9   5    2.43    0.27 
  -8  -9   5    2.92    0.33 
  -8  -9   5    2.08    0.35 
  -8  -9   5    1.64    0.37 
  -7  -9   5    6.40    0.69 
  -7  -9   5    6.92    0.62 
  -7  -9   5    6.54    0.78 
  -7  -9   5    5.37    0.81 
  -6  -9   5    0.05    0.35 
  -6  -9   5   -0.02    0.30 
  -6  -9   5    0.15    0.40 
  -6  -9   5    0.00    0.19 
  -6  -9   5    0.13    0.22 
  -5  -9   5    1.10    0.53 
  -5  -9   5    0.57    0.68 
  -5  -9   5    0.85    0.47 
  -5  -9   5    0.93    0.26 
  -5  -9   5    0.52    0.40 
  -5  -9   5    0.62    0.49 
  -4  -9   5    3.80    0.71 
  -4  -9   5    4.06    0.41 
  -4  -9   5    4.50    0.55 
  -4  -9   5    3.71    0.53 
  -3  -9   5   -0.08    0.44 
  -3  -9   5    0.19    0.43 
  -3  -9   5    0.14    0.26 
  -3  -9   5   -0.33    0.32 
  -2  -9   5    5.83    0.56 
  -2  -9   5    5.74    1.00 
  -2  -9   5    6.20    0.79 
  -2  -9   5    6.49    0.65 
  -1  -9   5    0.81    0.26 
  -1  -9   5    0.16    0.41 
   0  -9   5   31.90    2.58 
   0  -9   5   36.49    2.85 
  -1   9  -5   -0.03    0.27 
  -1   9  -5    0.20    0.54 
   1  -9   5    0.37    0.27 
   1  -9   5    0.65    0.30 
  -2   9  -5   13.42    1.09 
  -2   9  -5   12.82    1.51 
   2  -9   5   12.58    1.19 
   2  -9   5   14.35    1.11 
  -3   9  -5    1.24    0.34 
  -3   9  -5    0.48    0.36 
   3  -9   5    1.48    0.32 
  -4   9  -5    1.12    0.46 
  -4   9  -5    4.71    0.70 
  -4   9  -5    3.51    0.59 
  -4   9  -5    3.09    0.34 
  -5   9  -5    2.21    0.32 
  -5   9  -5    2.19    0.54 
  -5   9  -5    2.86    0.64 
  -5   9  -5    2.51    0.38 
   5  -9   5    2.33    0.36 
  -6   9  -5    1.34    0.56 
  -6   9  -5    1.76    0.29 
   6  -9   5    1.34    0.28 
  -7   9  -5    8.61    0.86 
  -7   9  -5    8.74    0.81 
   7  -9   5    8.71    0.89 
  -8   9  -5   -0.09    0.18 
   8  -9   5    0.02    0.18 
   9  -9   5    1.40    0.21 
  -9  -8   5    0.22    0.18 
  -9  -8   5   -0.02    0.25 
  -9  -8   5    0.00    0.16 
  -8  -8   5    0.20    0.19 
  -8  -8   5    0.38    0.21 
  -8  -8   5   -0.06    0.26 
  -8  -8   5    0.25    0.33 
  -7  -8   5    2.19    0.39 
  -7  -8   5    1.72    0.47 
  -7  -8   5    1.92    0.49 
  -7  -8   5    1.83    0.28 
  -6  -8   5    0.49    0.22 
  -6  -8   5    1.33    0.51 
  -6  -8   5    0.95    0.42 
  -6  -8   5    0.72    0.38 
  -6  -8   5    1.80    0.27 
  -6  -8   5    1.07    0.32 
  -6  -8   5    0.85    0.49 
  -5  -8   5   11.48    1.07 
  -5  -8   5   10.10    1.08 
  -5  -8   5   11.46    0.98 
  -5  -8   5    9.90    1.06 
  -5  -8   5   10.25    1.28 
  -4  -8   5   -0.19    0.34 
  -4  -8   5    0.25    0.73 
  -4  -8   5    0.11    0.44 
  -3  -8   5   12.85    1.18 
  -3  -8   5   13.60    1.03 
  -3  -8   5   12.99    1.37 
  -3  -8   5   11.97    1.60 
  -2  -8   5    0.28    0.55 
  -2  -8   5   -0.20    0.35 
  -2  -8   5   -0.73    0.18 
  -1  -8   5   34.41    2.58 
   0   8  -5   15.95    1.20 
   0  -8   5   14.27    1.31 
   0  -8   5   15.40    1.21 
  -1   8  -5   14.95    1.18 
  -1   8  -5   16.03    1.58 
   1  -8   5   15.33    1.32 
   1  -8   5   14.41    1.21 
  -2   8  -5   16.23    1.59 
  -2   8  -5   15.20    1.16 
   2  -8   5   13.43    1.20 
   2  -8   5   14.44    1.29 
  -3   8  -5   33.05    2.42 
  -3   8  -5   28.34    3.04 
   3  -8   5   33.95    2.67 
  -4   8  -5    3.13    0.61 
  -4   8  -5    3.01    0.54 
  -4   8  -5    2.84    0.41 
   4  -8   5    2.94    0.42 
  -5   8  -5    2.26    0.56 
  -5   8  -5    1.88    0.25 
  -5   8  -5    1.93    0.28 
  -5   8  -5    2.19    0.33 
  -5   8  -5    2.39    0.52 
  -6   8  -5    8.05    0.80 
  -6   8  -5   12.80    1.09 
  -6   8  -5   10.59    1.16 
  -6   8  -5   10.20    0.94 
   6  -8   5   10.68    1.01 
  -7   8  -5    0.89    0.21 
  -7   8  -5    1.41    0.54 
   7  -8   5    1.21    0.25 
  -8   8  -5    1.36    0.26 
   8  -8   5    1.59    0.22 
   9  -8   5   -0.19    0.14 
 -10  -7   5    0.10    0.08 
  -9  -7   5    0.19    0.20 
  -9  -7   5    0.63    0.18 
  -8  -7   5    0.79    0.37 
  -8  -7   5    0.24    0.15 
  -8  -7   5    0.89    0.31 
  -8  -7   5    0.91    0.22 
  -7  -7   5    1.98    0.53 
  -7  -7   5    0.90    0.54 
  -7  -7   5    2.05    0.44 
  -7  -7   5    1.10    0.57 
  -7  -7   5    1.56    0.30 
  -7  -7   5    1.23    0.68 
  -6  -7   5    2.10    0.39 
  -6  -7   5    2.08    0.52 
  -6  -7   5    1.64    0.27 
  -6  -7   5    1.58    0.31 
  -6  -7   5    1.61    0.42 
  -6  -7   5    1.79    0.54 
  -6  -7   5    1.90    0.47 
  -5  -7   5    0.15    1.00 
  -5  -7   5    0.02    0.36 
  -5  -7   5    0.31    0.58 
  -4  -7   5   21.02    2.06 
  -4  -7   5   20.77    2.36 
  -3  -7   5    2.01    0.27 
  -3  -7   5    2.11    0.42 
  -3  -7   5    2.05    0.66 
  -3  -7   5    1.86    0.44 
  -2  -7   5   34.00    3.09 
  -2  -7   5   32.82    2.45 
  -2  -7   5   30.61    3.33 
  -1  -7   5    6.63    0.55 
  -1  -7   5    4.63    0.49 
   0   7  -5   13.54    1.10 
   0  -7   5   14.51    1.13 
   0  -7   5   14.54    1.22 
  -1   7  -5   34.19    3.01 
  -1   7  -5   30.13    2.35 
   1  -7   5   30.69    2.61 
   1  -7   5   31.63    2.39 
  -2   7  -5   23.04    2.29 
  -2   7  -5   22.18    1.74 
   2  -7   5   22.49    1.78 
   2  -7   5   24.20    1.94 
  -3   7  -5    1.81    0.40 
  -3   7  -5    1.63    0.28 
  -3   7  -5    0.38    0.80 
   3  -7   5    1.64    0.29 
  -4   7  -5    0.40    0.24 
  -4   7  -5    0.36    0.28 
  -4   7  -5   -0.18    0.38 
   4  -7   5    0.23    0.24 
  -5   7  -5    9.42    0.80 
  -5   7  -5    9.45    0.79 
  -5   7  -5    8.30    0.96 
  -5   7  -5    8.14    0.87 
  -5   7  -5   11.35    1.24 
  -6   7  -5    0.06    0.17 
  -6   7  -5    0.27    0.33 
  -6   7  -5    0.17    0.50 
  -6   7  -5    0.04    0.12 
  -6   7  -5    0.17    0.28 
   6  -7   5    0.17    0.24 
  -7   7  -5    2.35    0.30 
  -7   7  -5    3.54    0.39 
  -7   7  -5    2.99    0.43 
   7  -7   5    3.95    0.39 
  -8   7  -5    0.27    0.16 
   8  -7   5   -0.09    0.15 
   9  -7   5    0.12    0.14 
 -10  -6   5    2.58    0.37 
 -10  -6   5    2.33    0.55 
 -10  -6   5    1.68    0.20 
 -10  -6   5    2.12    0.36 
  -9  -6   5    1.10    0.25 
  -9  -6   5    0.46    0.56 
  -8  -6   5    3.26    0.70 
  -8  -6   5    3.38    0.41 
  -8  -6   5    3.13    0.52 
  -8  -6   5    4.02    0.39 
  -7  -6   5    4.44    0.77 
  -7  -6   5    4.22    0.50 
  -7  -6   5    3.84    0.58 
  -7  -6   5    2.93    0.68 
  -7  -6   5    4.13    0.59 
  -7  -6   5    2.69    0.58 
  -6  -6   5    0.90    0.18 
  -6  -6   5    0.89    0.45 
  -6  -6   5    1.81    0.38 
  -6  -6   5    1.88    0.47 
  -6  -6   5    0.99    0.95 
  -5  -6   5   22.95    1.98 
  -5  -6   5   24.46    2.38 
  -5  -6   5   18.45    3.02 
  -4  -6   5    5.26    0.62 
  -4  -6   5    3.58    0.83 
  -3  -6   5   48.20    3.58 
  -3  -6   5   48.21    3.94 
  -3  -6   5   53.41    3.98 
  -3  -6   5   48.51    4.53 
  -3  -6   5   43.07    4.85 
  -2  -6   5   12.18    1.45 
  -2  -6   5   13.95    1.29 
  -2  -6   5   12.63    1.01 
  -1  -6   5   13.79    1.14 
  -1  -6   5   15.72    1.26 
   0   6  -5    2.52    0.29 
   0  -6   5    2.68    0.32 
   0  -6   5    3.15    0.34 
  -1   6  -5   12.98    1.01 
  -1   6  -5   12.91    1.34 
  -1   6  -5   10.96    2.07 
   1  -6   5   13.96    1.13 
   1  -6   5   13.26    1.06 
  -2   6  -5   13.72    1.12 
  -2   6  -5   14.26    1.50 
   2  -6   5   15.77    1.24 
   2  -6   5   13.92    1.17 
  -3   6  -5    0.61    0.72 
  -3   6  -5    0.85    0.47 
  -3   6  -5    0.91    0.22 
   3  -6   5    0.99    0.23 
  -4   6  -5   15.62    1.27 
  -4   6  -5   15.42    1.47 
  -4   6  -5   17.37    1.73 
   4  -6   5   16.99    1.41 
  -5   6  -5    1.04    0.28 
  -5   6  -5    0.71    0.40 
  -5   6  -5    1.40    0.33 
  -5   6  -5    0.70    0.58 
  -6   6  -5   10.25    1.04 
  -6   6  -5   11.58    0.90 
  -6   6  -5    9.09    1.00 
  -6   6  -5    9.23    1.05 
  -6   6  -5   11.00    1.34 
   6  -6   5   10.23    1.03 
  -7   6  -5    0.03    0.35 
  -7   6  -5    0.09    0.26 
  -7   6  -5    0.12    0.42 
  -7   6  -5    0.06    0.14 
   7  -6   5    0.02    0.15 
  -8   6  -5   -0.23    0.39 
  -8   6  -5   -0.29    0.32 
   8  -6   5   -0.19    0.14 
  -9   6  -5   -0.15    0.28 
   9  -6   5   -0.09    0.15 
 -10  -5   5    0.20    0.54 
 -10  -5   5    0.50    0.31 
 -10  -5   5    0.72    0.33 
 -10  -5   5    0.27    0.13 
  -9  -5   5    3.88    0.59 
  -9  -5   5    3.25    0.73 
  -9  -5   5    4.06    0.42 
  -8  -5   5   10.94    0.99 
  -8  -5   5   10.47    1.23 
  -8  -5   5   10.83    1.23 
  -8  -5   5   11.88    0.99 
  -8  -5   5    8.18    1.27 
  -8  -5   5   13.09    1.35 
  -8  -5   5   12.43    1.08 
  -8  -5   5   10.29    1.27 
  -7  -5   5    3.16    0.47 
  -7  -5   5    2.74    0.72 
  -7  -5   5    1.80    0.78 
  -7  -5   5    2.38    0.63 
  -7  -5   5    2.69    0.52 
  -7  -5   5    2.65    0.59 
  -7  -5   5    2.06    0.59 
  -6  -5   5   18.89    1.60 
  -6  -5   5   11.90    2.26 
  -6  -5   5   19.98    1.92 
  -6  -5   5   16.81    1.77 
  -5  -5   5    0.44    0.33 
  -5  -5   5    0.61    0.61 
  -4  -5   5   10.92    1.04 
  -4  -5   5    8.15    1.25 
  -3  -5   5   13.89    1.08 
  -3  -5   5   14.14    1.19 
  -3  -5   5   13.84    1.21 
  -3  -5   5   15.52    1.39 
  -3  -5   5   12.43    1.57 
  -3  -5   5   14.61    1.18 
  -2  -5   5   30.51    2.44 
  -2  -5   5   26.55    2.46 
  -2  -5   5   28.89    2.24 
  -2  -5   5   33.21    2.81 
  -2  -5   5   32.12    2.49 
  -2  -5   5   28.41    3.02 
  -1  -5   5   54.96    3.96 
  -1  -5   5   51.72    4.36 
   0   5  -5   39.00    2.73 
   0  -5   5   33.82    3.02 
   0  -5   5   37.33    2.76 
  -1   5  -5   18.36    2.04 
  -1   5  -5   16.75    2.97 
  -1   5  -5   22.93    1.61 
   1  -5   5   23.53    1.65 
   1  -5   5   22.86    1.79 
  -2   5  -5   39.41    3.56 
  -2   5  -5   33.73    2.80 
   2  -5   5   41.56    2.85 
   2  -5   5   36.76    3.10 
  -3   5  -5    6.11    0.56 
  -3   5  -5    3.76    1.29 
  -3   5  -5    7.54    0.83 
   3  -5   5    7.64    0.63 
  -4   5  -5    4.12    0.63 
  -4   5  -5    2.84    0.47 
  -4   5  -5    1.08    0.88 
  -4   5  -5    3.19    0.34 
   4  -5   5    4.02    0.39 
  -5   5  -5   19.16    1.68 
  -5   5  -5   20.16    2.00 
  -5   5  -5   17.41    1.54 
  -5   5  -5   19.76    1.46 
  -6   5  -5    6.90    0.78 
  -6   5  -5    7.33    0.68 
  -6   5  -5    6.69    0.76 
  -7   5  -5    1.71    0.44 
  -7   5  -5    1.47    0.26 
  -7   5  -5    1.84    0.33 
  -7   5  -5    1.81    0.41 
   7  -5   5    1.59    0.25 
  -8   5  -5    2.18    0.45 
  -8   5  -5    2.53    0.47 
   8  -5   5    2.91    0.33 
  -9   5  -5    1.64    0.37 
   9  -5   5    1.97    0.27 
 -11  -4   5    0.26    0.27 
 -10  -4   5    2.26    0.41 
 -10  -4   5    2.80    0.64 
 -10  -4   5    1.41    0.31 
  -9  -4   5   15.22    1.80 
  -9  -4   5   20.20    1.75 
  -9  -4   5   18.88    1.59 
  -8  -4   5    6.16    0.70 
  -8  -4   5    4.64    0.83 
  -8  -4   5    6.41    0.84 
  -8  -4   5    5.11    0.64 
  -8  -4   5    5.29    0.85 
  -8  -4   5    6.48    0.71 
  -8  -4   5    5.38    0.74 
  -8  -4   5    5.41    0.73 
  -7  -4   5   16.17    1.43 
  -7  -4   5   13.88    1.79 
  -7  -4   5   18.86    2.81 
  -7  -4   5   16.34    1.56 
  -6  -4   5    0.11    0.71 
  -6  -4   5    0.50    0.39 
  -6  -4   5    0.60    0.33 
  -5  -4   5    9.72    1.03 
  -5  -4   5   11.65    1.40 
  -5  -4   5    8.47    1.39 
  -4  -4   5   39.53    3.69 
  -4  -4   5   40.18    3.26 
  -4  -4   5   32.65    4.01 
  -4  -4   5   44.83    4.36 
  -3  -4   5   70.78    4.98 
  -3  -4   5   61.43    6.64 
  -3  -4   5   65.20    5.55 
  -3  -4   5   72.50    6.25 
  -2  -4   5   16.81    1.26 
  -2  -4   5   19.04    1.58 
  -2  -4   5   16.67    1.40 
  -2  -4   5   15.07    1.38 
  -2  -4   5   15.47    1.36 
  -1  -4   5   17.00    1.46 
  -1  -4   5   17.85    1.34 
  -1  -4   5   17.35    1.49 
   0   4  -5   73.81    5.22 
   0  -4   5   67.54    6.19 
   0  -4   5   73.52    5.26 
   0  -4   5   68.58    5.78 
  -1   4  -5   30.30    2.79 
  -1   4  -5   30.23    2.22 
  -1   4  -5   23.49    3.95 
   1  -4   5   30.04    2.46 
   1  -4   5   32.68    2.26 
  -2   4  -5    2.11    0.45 
  -2   4  -5    2.34    0.26 
  -2   4  -5    1.89    0.72 
   2  -4   5    2.16    0.34 
   2  -4   5    2.09    0.27 
  -3   4  -5    3.67    0.59 
  -3   4  -5    3.85    0.37 
  -3   4  -5    2.35    0.96 
   3  -4   5    4.26    0.41 
  -4   4  -5   21.27    3.36 
  -4   4  -5   20.76    1.64 
  -4   4  -5   22.78    2.16 
  -5   4  -5   -0.03    0.19 
  -5   4  -5   -0.07    0.25 
  -5   4  -5   -0.16    0.27 
  -5   4  -5    0.68    0.50 
  -6   4  -5   10.70    0.91 
  -6   4  -5    7.43    0.82 
  -6   4  -5    8.32    0.93 
  -7   4  -5    3.09    0.47 
  -7   4  -5    4.93    0.48 
  -7   4  -5    4.37    0.58 
  -7   4  -5    3.79    0.43 
   7  -4   5    4.72    0.47 
  -8   4  -5    6.25    0.64 
   8  -4   5    5.41    0.60 
  -9   4  -5    0.71    0.32 
   9  -4   5    0.23    0.20 
 -11  -3   5    0.05    0.31 
 -11  -3   5    0.20    0.24 
 -10  -3   5   11.18    1.15 
 -10  -3   5   14.81    1.26 
  -9  -3   5    4.23    0.87 
  -9  -3   5    3.59    0.70 
  -9  -3   5    3.80    0.70 
  -9  -3   5    5.06    0.72 
  -9  -3   5    2.29    0.95 
  -9  -3   5    3.72    1.11 
  -8  -3   5   22.82    2.16 
  -8  -3   5   17.38    2.18 
  -8  -3   5   20.23    2.01 
  -7  -3   5    5.14    1.00 
  -7  -3   5    6.37    0.89 
  -7  -3   5    7.32    1.65 
  -7  -3   5    8.61    0.79 
  -6  -3   5   12.08    1.03 
  -6  -3   5   11.11    1.26 
  -6  -3   5   11.81    1.17 
  -6  -3   5    8.97    1.59 
  -5  -3   5   -0.03    0.25 
  -5  -3   5   -0.07    0.54 
  -5  -3   5    0.06    0.23 
  -5  -3   5   -0.09    0.31 
  -5  -3   5    0.31    0.57 
  -4  -3   5   25.53    2.37 
  -4  -3   5   23.22    2.10 
  -4  -3   5   30.06    2.90 
  -4  -3   5   23.70    2.69 
  -3  -3   5   20.71    1.50 
  -3  -3   5   18.69    2.11 
  -3  -3   5   20.05    1.68 
  -3  -3   5   20.83    1.91 
  -2  -3   5   28.29    2.40 
  -2  -3   5   28.03    2.42 
  -2  -3   5   30.19    2.41 
  -2  -3   5   31.50    2.20 
   1   3  -5   41.02    3.36 
  -1  -3   5   40.53    3.11 
  -1  -3   5   37.06    2.83 
  -1  -3   5   34.98    3.09 
  -1  -3   5   36.71    3.10 
   0   3  -5    2.77    0.26 
   0   3  -5    4.17    0.70 
   0  -3   5    2.70    0.30 
   0  -3   5    2.25    0.33 
   0  -3   5    2.35    0.39 
  -1   3  -5   87.65   10.72 
  -1   3  -5   87.41    7.69 
  -1   3  -5   85.17    6.17 
   1  -3   5   74.94    6.22 
   1  -3   5   83.55    6.81 
  -2   3  -5   30.37    5.07 
  -2   3  -5   39.30    2.82 
  -2   3  -5   35.94    3.55 
   2  -3   5   39.70    2.90 
   2  -3   5   40.89    3.12 
  -3   3  -5    2.80    0.97 
  -3   3  -5    4.09    0.60 
  -3   3  -5    4.51    0.40 
   3  -3   5    4.64    0.44 
  -4   3  -5    5.26    0.43 
  -4   3  -5    3.56    0.62 
  -4   3  -5    3.98    1.08 
  -5   3  -5    5.17    0.47 
  -5   3  -5    5.02    0.52 
  -6   3  -5   25.37    2.03 
  -6   3  -5   23.49    1.84 
  -6   3  -5   19.69    2.10 
  -7   3  -5    2.27    0.44 
  -7   3  -5    1.90    0.31 
  -7   3  -5    1.20    0.33 
   7  -3   5    1.60    0.28 
  -8   3  -5    2.68    0.48 
   8  -3   5    3.14    0.39 
  -9   3  -5    0.45    0.33 
   9  -3   5    0.40    0.22 
 -11  -2   5    9.31    0.90 
 -10  -2   5    1.53    0.63 
 -10  -2   5    1.28    0.30 
  -9  -2   5    7.55    0.94 
  -9  -2   5    8.01    0.84 
  -9  -2   5    5.42    1.05 
  -9  -2   5    7.75    0.95 
  -9  -2   5    5.93    1.08 
  -9  -2   5    8.57    0.84 
  -8  -2   5    2.54    0.69 
  -8  -2   5    3.17    0.57 
  -7  -2   5    9.07    2.22 
  -7  -2   5    6.75    1.28 
  -6  -2   5    0.79    0.31 
  -6  -2   5    0.77    0.36 
  -6  -2   5    0.64    0.64 
  -6  -2   5    0.43    0.32 
  -5  -2   5   32.56    4.16 
  -5  -2   5   42.82    3.36 
  -5  -2   5   44.67    4.55 
  -5  -2   5   40.52    3.78 
  -5  -2   5   40.39    4.10 
  -4  -2   5   13.18    1.20 
  -4  -2   5   12.03    1.44 
  -4  -2   5   11.80    1.06 
   3   2  -5   20.69    1.91 
  -3  -2   5   21.45    2.19 
  -3  -2   5   22.63    1.99 
  -3  -2   5   20.09    1.76 
   2   2  -5   10.45    1.08 
   2   2  -5   10.65    1.06 
  -2  -2   5   10.28    0.89 
  -2  -2   5   10.36    0.89 
  -2  -2   5   11.04    0.83 
   1   2  -5    3.48    0.60 
   1   2  -5    4.68    0.66 
   1   2  -5    6.21    0.63 
  -1  -2   5    5.17    0.50 
  -1  -2   5    6.20    0.52 
  -1  -2   5    5.78    0.51 
  -1  -2   5    5.47    0.51 
   0   2  -5   94.86    8.12 
   0   2  -5   93.53    6.81 
   0  -2   5   98.74    7.53 
   0  -2   5   85.62    8.03 
   0  -2   5   89.31    6.86 
  -1   2  -5   12.25    0.99 
  -1   2  -5   14.49    1.91 
  -1   2  -5   11.76    1.35 
   1  -2   5   12.85    1.07 
   1  -2   5   12.91    1.10 
  -2   2  -5    3.63    0.35 
  -2   2  -5    3.24    0.47 
  -2   2  -5    4.16    0.91 
   2  -2   5    3.41    0.37 
   2  -2   5    3.13    0.45 
  -3   2  -5    3.54    0.80 
  -3   2  -5    2.71    0.29 
  -3   2  -5    2.52    0.47 
  -4   2  -5    3.29    0.31 
  -4   2  -5    2.52    0.82 
  -5   2  -5    7.85    0.65 
  -5   2  -5    6.58    0.59 
  -6   2  -5    6.90    0.58 
  -6   2  -5    5.72    0.71 
  -6   2  -5    5.04    0.58 
  -6   2  -5    6.33    0.66 
  -7   2  -5   11.83    1.04 
  -7   2  -5   10.63    1.10 
  -7   2  -5   13.67    1.14 
  -7   2  -5   13.73    1.22 
   7  -2   5   14.00    1.29 
  -8   2  -5   -0.06    0.35 
   8  -2   5    0.42    0.23 
  -9   2  -5    3.10    0.45 
   9  -2   5    3.75    0.42 
 -11  -1   5    2.05    0.38 
 -10  -1   5   26.31    2.13 
 -10  -1   5   25.55    2.56 
 -10  -1   5   22.87    2.27 
  -9  -1   5    0.37    0.79 
  -9  -1   5    0.05    0.69 
  -9  -1   5    0.12    0.52 
  -9  -1   5    0.20    0.48 
  -9  -1   5    0.38    0.81 
  -9  -1   5    0.25    0.68 
  -9  -1   5    0.67    0.48 
  -9  -1   5    0.78    1.01 
  -8  -1   5   10.69    1.17 
  -8  -1   5   10.93    1.29 
  -8  -1   5    8.48    1.03 
  -8  -1   5   10.89    1.00 
  -7  -1   5    2.25    0.42 
  -7  -1   5    2.38    0.55 
  -7  -1   5    1.63    0.65 
  -6  -1   5    6.68    0.64 
  -6  -1   5    6.17    0.69 
  -6  -1   5    5.86    0.78 
  -6  -1   5    4.78    1.09 
  -5  -1   5   17.26    1.69 
  -5  -1   5   16.71    1.84 
  -5  -1   5   14.66    2.00 
  -5  -1   5   20.26    1.51 
  -4  -1   5   45.56    4.07 
  -4  -1   5   40.93    4.42 
  -4  -1   5   43.28    4.42 
  -4  -1   5   45.81    3.62 
   3   1  -5    7.80    0.77 
   3   1  -5    5.14    0.73 
  -3  -1   5    6.23    0.54 
  -3  -1   5    7.50    0.60 
  -3  -1   5    7.28    0.56 
   2   1  -5   13.74    1.33 
   2   1  -5   12.91    1.34 
  -2  -1   5   13.29    1.09 
  -2  -1   5   15.40    1.07 
  -2  -1   5   13.76    1.15 
  -2  -1   5   12.93    1.17 
   1   1  -5   84.26    8.18 
   1   1  -5   99.87    7.95 
   1   1  -5   98.19    8.13 
  -1  -1   5   91.19    6.94 
  -1  -1   5   99.46    7.59 
  -1  -1   5   90.39    7.60 
   0   1  -5    2.01    0.22 
   0   1  -5    2.44    0.53 
   0  -1   5    1.43    0.29 
   0  -1   5    1.31    0.31 
  -1   1  -5   18.25    1.50 
  -1   1  -5   22.22    2.70 
   1  -1   5   19.94    1.57 
  -2   1  -5    6.04    0.92 
  -2   1  -5    4.13    0.42 
   2  -1   5    4.53    0.51 
  -3   1  -5    5.83    0.53 
  -3   1  -5    6.46    1.09 
  -4   1  -5   30.20    2.29 
  -5   1  -5    4.41    0.45 
  -5   1  -5    4.50    0.42 
  -6   1  -5    9.35    0.84 
  -6   1  -5    8.21    0.79 
  -6   1  -5    8.23    0.89 
   6  -1   5    8.50    0.90 
  -7   1  -5    1.48    0.29 
  -7   1  -5    0.66    0.36 
   7  -1   5    0.93    0.28 
  -8   1  -5    3.84    0.47 
  -8   1  -5    3.74    0.52 
   8  -1   5    4.62    0.51 
  -9   1  -5    3.01    0.37 
  -9   1  -5    2.76    0.37 
   9  -1   5    2.38    0.34 
 -10   0   5    4.93    0.62 
 -10   0   5    4.59    0.80 
  -9   0   5    1.26    0.49 
  -9   0   5    1.26    0.51 
  -9   0   5    0.48    0.77 
  -9   0   5    0.54    0.69 
  -9   0   5    0.42    0.99 
  -9   0   5    1.17    0.82 
  -9   0   5    1.51    0.53 
  -9   0   5    0.82    0.69 
  -9   0   5    1.00    0.49 
  -8   0   5    2.99    0.57 
  -8   0   5    1.44    0.64 
  -8   0   5    2.51    0.77 
  -7   0   5   16.58    1.56 
  -7   0   5   13.68    1.30 
  -7   0   5   13.11    1.71 
  -6   0   5    1.23    0.45 
  -6   0   5    0.94    0.33 
  -6   0   5    1.78    0.37 
  -5   0   5   17.49    1.48 
  -5   0   5   16.92    1.81 
  -5   0   5   17.29    1.66 
  -4   0   5  136.72   13.88 
  -4   0   5  131.69   10.42 
  -4   0   5  147.61   12.75 
  -4   0   5  140.15   11.37 
  -3   0   5    1.18    0.21 
  -3   0   5    1.67    0.20 
  -3   0   5    1.60    0.21 
  -3   0   5    1.52    0.21 
  -3   0   5    1.27    0.18 
   2   0  -5   64.61    5.10 
  -2   0   5   62.43    4.86 
  -2   0   5   56.26    4.45 
  -2   0   5   56.94    4.51 
  -2   0   5   60.57    4.87 
   1   0  -5    1.76    0.21 
   1   0  -5    1.46    0.41 
  -1   0   5    1.85    0.29 
  -1   0   5    1.65    0.23 
  -1   0   5    2.11    0.21 
   0   0  -5   23.53    1.71 
   0   0   5   19.42    2.08 
   0   0   5   25.22    1.78 
  -1   0  -5   91.50    6.73 
   1   0   5   91.08    6.79 
  -2   0  -5    4.80    0.46 
  -2   0  -5    5.00    0.88 
   2   0   5    5.53    0.54 
  -3   0  -5    0.33    0.14 
  -4   0  -5   11.18    0.91 
  -5   0  -5   16.44    1.48 
  -5   0  -5   15.87    1.27 
  -6   0  -5    0.08    0.13 
  -6   0  -5   -0.29    0.29 
  -6   0  -5    0.07    0.32 
  -6   0  -5   -0.05    0.26 
   6   0   5   -0.08    0.26 
  -7   0  -5   31.60    2.81 
  -7   0  -5   29.49    2.63 
   7   0   5   35.04    3.13 
  -8   0  -5   -0.02    0.27 
  -8   0  -5    0.17    0.29 
   8   0   5   -0.02    0.24 
  -9   0  -5    1.41    0.29 
   9   0   5    1.25    0.23 
 -11   1   5    0.92    0.58 
 -11   1   5    0.81    0.53 
 -11   1   5    0.74    0.21 
 -10   1   5   25.74    2.72 
 -10   1   5   34.32    3.04 
 -10   1   5   32.63    2.56 
 -10   1   5   29.00    3.18 
  -9   1   5   -0.16    0.67 
  -9   1   5    0.02    0.50 
  -9   1   5    0.04    0.64 
  -9   1   5    0.03    0.43 
  -9   1   5    0.48    0.50 
  -9   1   5    0.36    0.74 
  -9   1   5    0.17    0.45 
  -8   1   5   -0.19    0.44 
  -8   1   5   -0.05    0.68 
  -8   1   5   -0.27    0.47 
  -7   1   5    3.51    0.50 
  -7   1   5    2.54    0.90 
  -6   1   5    0.01    0.33 
  -6   1   5   -0.46    0.48 
  -6   1   5    0.07    0.28 
  -5   1   5   42.74    3.69 
  -5   1   5   45.91    4.14 
  -5   1   5   44.99    4.52 
  -4   1   5   21.93    1.92 
  -4   1   5   20.77    1.78 
  -4   1   5   25.90    2.16 
  -3   1   5   49.17    3.78 
  -3   1   5   51.34    4.05 
  -3   1   5   54.19    4.06 
  -3   1   5   43.21    3.71 
  -3   1   5   51.75    4.11 
  -2   1   5   23.10    1.85 
  -2   1   5   22.33    1.73 
  -2   1   5   22.53    1.88 
  -2   1   5   22.02    1.73 
   1  -1  -5   42.59    3.14 
  -1   1   5   42.45    3.19 
  -1   1   5   42.01    3.20 
   0  -1  -5    8.92    0.70 
   0   1   5    8.17    0.71 
   0   1   5    9.46    0.77 
  -1  -1  -5   39.28    2.87 
   1   1   5   44.57    2.93 
   1   1   5   32.72    2.93 
  -2  -1  -5    0.41    0.15 
   2   1   5    0.44    0.23 
   2   1   5    0.51    0.14 
  -3  -1  -5    1.60    0.24 
  -4  -1  -5   51.62    3.87 
  -5  -1  -5    0.75    0.23 
  -5  -1  -5    0.47    0.30 
  -5  -1  -5    0.95    0.30 
  -6  -1  -5    9.88    0.84 
  -6  -1  -5    9.03    0.90 
  -6  -1  -5    9.55    0.82 
   6   1   5    8.44    0.99 
  -7  -1  -5    3.71    0.43 
  -7  -1  -5    3.89    0.40 
   7   1   5    3.76    0.50 
  -8  -1  -5    4.42    0.45 
   8   1   5    3.99    0.49 
   9   1   5    0.17    0.16 
 -12   2   5    0.01    0.32 
 -11   2   5    1.05    0.46 
 -11   2   5    0.28    0.55 
 -11   2   5    0.80    0.22 
 -10   2   5    2.62    0.69 
  -9   2   5    3.36    0.62 
  -9   2   5    3.22    0.63 
  -9   2   5    2.55    0.89 
  -9   2   5    3.01    0.54 
  -9   2   5    3.09    0.86 
  -7   2   5    3.46    0.53 
  -7   2   5    3.14    0.51 
  -6   2   5   30.01    2.71 
  -6   2   5   25.01    2.41 
  -6   2   5   31.12    2.99 
  -5   2   5   41.80    3.56 
  -5   2   5   32.27    2.91 
  -5   2   5   40.15    3.18 
  -4   2   5   98.24    7.55 
  -4   2   5   89.79    7.42 
  -4   2   5   88.03    6.94 
  -3   2   5    2.88    0.38 
  -3   2   5    3.13    0.37 
  -3   2   5    3.38    0.34 
  -3   2   5    3.03    0.33 
  -3   2   5    3.33    0.34 
  -2   2   5    1.03    0.20 
  -2   2   5    1.46    0.32 
   1  -2  -5    0.17    0.18 
  -1   2   5    0.13    0.29 
  -1   2   5    0.15    0.16 
   0  -2  -5   44.26    3.25 
   0   2   5   42.91    3.30 
   0   2   5   43.62    3.31 
  -1  -2  -5   12.42    0.90 
   1   2   5   11.27    0.97 
   1   2   5   10.10    0.90 
  -2  -2  -5    1.85    0.25 
   2   2   5    2.20    0.33 
   2   2   5    1.61    0.22 
  -3  -2  -5   10.91    0.92 
  -4  -2  -5    7.70    0.69 
  -5  -2  -5   33.01    2.57 
  -5  -2  -5   33.42    2.61 
  -5  -2  -5   29.83    2.75 
  -5  -2  -5   29.79    2.42 
   5   2   5   31.32    3.09 
  -6  -2  -5    0.79    0.26 
  -6  -2  -5    0.67    0.30 
  -6  -2  -5    0.25    0.22 
   6   2   5    0.22    0.28 
  -7  -2  -5    7.27    0.59 
  -7  -2  -5    6.47    0.61 
   7   2   5    5.88    0.73 
  -8  -2  -5    2.67    0.30 
   8   2   5    1.70    0.32 
 -11   3   5    0.77    0.39 
 -11   3   5    0.64    0.21 
 -11   3   5    0.24    0.20 
 -10   3   5    8.17    1.04 
  -9   3   5   15.66    1.82 
  -7   3   5    2.83    0.52 
  -6   3   5    2.11    0.41 
  -5   3   5    1.90    0.29 
  -5   3   5    1.81    0.34 
  -4   3   5    7.39    0.67 
  -4   3   5    7.47    0.68 
  -4   3   5    7.74    0.71 
  -4   3   5    7.57    0.69 
  -4   3   5    7.96    0.70 
  -3   3   5   46.27    3.28 
  -3   3   5   40.54    3.54 
  -3   3   5   44.09    3.32 
  -2   3   5    0.08    0.31 
  -2   3   5    0.15    0.18 
   1  -3  -5   16.40    1.27 
  -1   3   5   16.41    1.30 
  -1   3   5   16.61    1.35 
   0  -3  -5   12.16    0.95 
   0   3   5   11.83    0.96 
   0   3   5   11.69    1.03 
  -1  -3  -5    8.03    0.63 
   1   3   5    6.95    0.70 
   1   3   5    6.16    0.59 
  -2  -3  -5   22.72    1.76 
  -3  -3  -5    1.43    0.30 
  -4  -3  -5   21.84    2.07 
  -4  -3  -5   24.96    1.96 
  -4  -3  -5   22.66    1.84 
  -5  -3  -5    2.32    0.42 
  -5  -3  -5    2.41    0.40 
  -5  -3  -5    2.41    0.43 
  -5  -3  -5    2.91    0.34 
   5   3   5    3.06    0.42 
  -6  -3  -5    4.39    0.45 
  -6  -3  -5    4.22    0.51 
  -6  -3  -5    4.53    0.43 
  -6  -3  -5    4.20    0.47 
   6   3   5    4.63    0.54 
  -7  -3  -5    3.22    0.30 
  -7  -3  -5    2.61    0.32 
   7   3   5    2.00    0.37 
  -8  -3  -5    0.04    0.19 
   8   3   5   -0.15    0.18 
 -11   4   5   -0.76    0.29 
 -11   4   5    0.17    0.21 
 -11   4   5    0.19    0.19 
 -10   4   5    7.33    1.01 
  -9   4   5    0.93    0.27 
  -9   4   5    1.84    0.36 
  -9   4   5    1.34    0.65 
  -8   4   5   -0.16    0.34 
  -7   4   5   15.00    1.40 
  -6   4   5    8.28    0.85 
  -6   4   5   10.26    0.93 
  -5   4   5    6.77    0.70 
  -5   4   5    7.14    0.66 
  -4   4   5    3.33    0.35 
  -4   4   5    3.82    0.46 
  -4   4   5    3.40    0.45 
  -3   4   5   37.79    2.92 
  -3   4   5   38.75    2.95 
  -2   4   5    7.36    0.74 
  -2   4   5    7.39    0.67 
   1  -4  -5   13.02    1.11 
  -1   4   5   14.29    1.15 
  -1   4   5   15.45    1.20 
   0  -4  -5   10.71    0.88 
   0   4   5   10.37    0.89 
   0   4   5   10.99    0.96 
  -1  -4  -5   16.34    1.26 
   1   4   5   14.55    1.33 
  -2  -4  -5    2.02    0.28 
  -3  -4  -5   23.20    1.88 
  -3  -4  -5   20.70    2.07 
  -3  -4  -5   26.59    1.99 
  -4  -4  -5    2.35    0.30 
  -4  -4  -5    2.07    0.37 
  -4  -4  -5    1.84    0.36 
   4   4   5    1.82    0.36 
  -5  -4  -5   16.21    1.28 
  -5  -4  -5   17.36    1.32 
  -5  -4  -5   13.78    1.37 
  -5  -4  -5   14.13    1.40 
   5   4   5   15.20    1.55 
  -6  -4  -5    2.03    0.27 
  -6  -4  -5    2.30    0.32 
  -6  -4  -5    2.08    0.27 
  -6  -4  -5    2.11    0.29 
   6   4   5    1.91    0.34 
  -7  -4  -5    1.08    0.22 
  -7  -4  -5    0.43    0.18 
  -7  -4  -5    0.25    0.21 
   7   4   5    0.60    0.23 
 -11   5   5   -0.73    0.32 
 -11   5   5    0.02    0.18 
 -11   5   5    0.16    0.20 
 -10   5   5   -0.11    0.61 
 -10   5   5   -0.19    0.33 
  -9   5   5    0.98    0.40 
  -9   5   5    0.93    0.28 
  -9   5   5    1.59    0.68 
  -7   5   5    3.75    0.61 
  -6   5   5    0.80    0.28 
  -5   5   5    0.61    0.24 
  -4   5   5    3.92    0.52 
  -4   5   5    3.60    0.42 
  -3   5   5    0.76    0.43 
  -3   5   5    1.46    0.37 
  -2   5   5   58.32    4.72 
  -2   5   5   66.70    4.78 
   1  -5  -5    0.66    0.26 
  -1   5   5    0.14    0.43 
  -1   5   5    0.44    0.28 
   0  -5  -5   48.99    3.67 
   0   5   5   48.73    3.73 
   0   5   5   48.92    3.74 
  -1  -5  -5    3.09    0.36 
  -1  -5  -5    3.03    0.43 
   1   5   5    2.74    0.52 
  -2  -5  -5   12.03    1.04 
  -2  -5  -5   13.22    1.20 
  -3  -5  -5    5.28    0.56 
  -3  -5  -5    4.52    0.49 
  -3  -5  -5    4.84    0.56 
   3   5   5    5.50    0.60 
  -4  -5  -5    5.46    0.62 
  -4  -5  -5    5.55    0.56 
  -4  -5  -5    7.06    0.62 
   4   5   5    6.42    0.69 
  -5  -5  -5    5.43    0.51 
  -5  -5  -5    6.12    0.54 
  -5  -5  -5    5.14    0.58 
  -5  -5  -5    4.87    0.54 
   5   5   5    5.38    0.62 
  -6  -5  -5    0.38    0.14 
  -6  -5  -5    0.63    0.24 
  -6  -5  -5    0.69    0.20 
   6   5   5    0.87    0.23 
   7   5   5    3.45    0.41 
 -11   6   5    0.03    0.17 
 -11   6   5    0.31    0.19 
 -11   6   5    0.21    0.13 
 -10   6   5    1.03    0.38 
  -9   6   5    1.34    0.31 
  -9   6   5    1.74    0.27 
  -8   6   5    5.59    0.70 
  -7   6   5    0.99    0.43 
  -7   6   5    1.19    0.65 
  -5   6   5   21.90    1.78 
  -4   6   5    0.14    0.43 
  -4   6   5    0.17    0.41 
  -3   6   5   19.63    1.64 
  -3   6   5   19.59    1.63 
  -2   6   5    0.41    0.49 
  -2   6   5    0.70    0.36 
  -1   6   5   24.11    1.82 
  -1   6   5   20.16    1.85 
   0  -6  -5    0.90    0.34 
   0  -6  -5    0.78    0.32 
   0   6   5    0.39    0.48 
  -1  -6  -5   43.07    3.31 
  -1  -6  -5   45.89    3.72 
   1   6   5   41.73    3.42 
  -2  -6  -5    3.49    0.49 
  -2  -6  -5    3.47    0.50 
   2   6   5    4.04    0.49 
  -3  -6  -5    0.07    0.22 
  -3  -6  -5   -0.08    0.23 
   3   6   5    0.28    0.27 
  -4  -6  -5    3.86    0.38 
  -4  -6  -5    3.58    0.42 
  -4  -6  -5    3.23    0.47 
   4   6   5    3.52    0.48 
  -5  -6  -5    0.99    0.20 
  -5  -6  -5    0.82    0.25 
  -5  -6  -5    0.60    0.18 
   5   6   5    0.65    0.24 
  -6  -6  -5    4.86    0.42 
  -6  -6  -5    4.63    0.45 
   6   6   5    3.99    0.51 
 -11   7   5    0.14    0.12 
 -10   7   5    1.48    0.41 
 -10   7   5    1.41    0.37 
  -9   7   5    5.58    0.77 
  -9   7   5    6.83    0.61 
  -8   7   5    2.60    0.51 
  -7   7   5    2.34    0.71 
  -7   7   5    2.03    0.33 
  -6   7   5   10.31    1.24 
  -6   7   5    9.76    0.92 
  -6   7   5   10.20    0.91 
   5  -7  -5    2.50    0.42 
  -5   7   5    1.54    0.38 
  -5   7   5    2.51    0.65 
  -4   7   5   12.61    1.20 
  -4   7   5   13.68    1.24 
  -3   7   5   -0.06    0.51 
  -3   7   5   -0.18    0.34 
  -2   7   5   22.20    1.96 
  -2   7   5   22.35    1.87 
  -1   7   5    1.07    0.39 
  -1   7   5    1.70    0.57 
   0  -7  -5   27.92    2.33 
   0  -7  -5   28.95    2.10 
   0   7   5   26.78    2.22 
   0   7   5   24.84    2.23 
  -1  -7  -5    0.56    0.30 
  -1  -7  -5    0.33    0.35 
   1   7   5    0.34    0.16 
  -2  -7  -5    2.35    0.41 
  -2  -7  -5    2.54    0.39 
   2   7   5    2.07    0.41 
  -3  -7  -5    1.62    0.33 
  -3  -7  -5    1.47    0.22 
   3   7   5    1.36    0.34 
  -4  -7  -5    0.43    0.19 
  -4  -7  -5    0.68    0.26 
  -4  -7  -5    1.06    0.19 
  -5  -7  -5    5.76    0.45 
  -5  -7  -5    4.67    0.48 
  -5  -7  -5    4.43    0.43 
   5   7   5    4.27    0.54 
 -10   8   5    8.22    0.98 
  -9   8   5    7.96    1.00 
  -9   8   5   10.64    0.88 
  -8   8   5    0.30    0.40 
   7  -8  -5    0.29    0.30 
  -7   8   5    0.17    0.16 
  -7   8   5    0.24    0.62 
   6  -8  -5    7.23    0.72 
  -6   8   5    6.47    0.91 
  -6   8   5    5.32    0.62 
   5  -8  -5   19.63    2.00 
  -5   8   5   21.04    2.18 
   4  -8  -5    6.07    0.69 
  -4   8   5    5.47    0.60 
  -4   8   5    5.88    0.85 
  -4   8   5    5.59    0.71 
   3  -8  -5    5.05    0.68 
  -3   8   5    6.00    0.87 
  -3   8   5    6.15    0.61 
  -3   8   5    6.09    0.68 
   2  -8  -5    1.71    0.35 
  -2   8   5    1.86    0.41 
  -2   8   5    1.38    0.31 
  -2   8   5    1.24    0.64 
   1  -8  -5    9.39    0.89 
  -1   8   5    8.70    0.80 
  -1   8   5    7.77    1.12 
  -1   8   5    8.51    0.88 
   0  -8  -5    0.86    0.40 
   0   8   5    0.72    0.29 
  -1  -8  -5    3.28    0.45 
  -1  -8  -5    3.79    0.47 
   1   8   5    2.59    0.37 
  -2  -8  -5   12.60    1.28 
  -2  -8  -5   15.30    1.29 
   2   8   5   15.03    1.23 
  -3  -8  -5   -0.84    0.25 
  -3  -8  -5   -0.16    0.22 
  -4  -8  -5    2.32    0.31 
  -4  -8  -5    2.37    0.27 
  -9   9   5    1.62    0.36 
  -9   9   5    2.14    0.29 
  -8   9   5    0.13    0.51 
   7  -9  -5    0.00    0.29 
  -7   9   5    0.07    0.55 
   6  -9  -5    3.16    0.45 
  -6   9   5    2.52    0.36 
  -6   9   5    3.35    0.64 
   5  -9  -5    0.18    0.32 
  -5   9   5   -0.10    0.25 
  -5   9   5   -0.42    0.53 
   4  -9  -5   13.88    1.40 
  -4   9   5   13.12    1.20 
  -4   9   5   14.83    1.56 
   3  -9  -5   -0.09    0.30 
  -3   9   5    0.99    0.32 
  -3   9   5   -0.18    0.52 
  -3   9   5    0.37    0.44 
   2  -9  -5    0.80    0.39 
   2  -9  -5    0.75    0.31 
  -2   9   5    0.26    0.26 
  -2   9   5    0.40    0.54 
  -2   9   5    0.67    0.40 
   1  -9  -5    0.00    0.37 
  -1   9   5   -0.02    0.38 
  -1   9   5   -0.55    0.51 
  -1   9   5   -0.03    0.24 
   0  -9  -5    1.35    0.44 
   0   9   5    1.79    0.30 
  -1  -9  -5   10.02    0.96 
  -1  -9  -5   10.72    0.99 
   1   9   5   11.05    0.94 
  -2  -9  -5    0.45    0.24 
  -2  -9  -5    0.39    0.25 
  -2  -9  -5    0.22    0.21 
   2   9   5    0.49    0.26 
  -3  -9  -5    5.90    0.51 
  -3  -9  -5    5.01    0.54 
  -7  10   5    1.06    0.47 
   6 -10  -5    0.24    0.29 
  -6  10   5    0.52    0.45 
   5 -10  -5    5.00    0.56 
   5 -10  -5    4.61    0.56 
  -5  10   5    4.53    0.49 
  -5  10   5    4.64    0.73 
   4 -10  -5    0.26    0.36 
   4 -10  -5   -0.17    0.28 
  -4  10   5    0.03    0.17 
  -4  10   5   -0.22    0.29 
  -4  10   5    0.02    0.49 
   3 -10  -5    1.25    0.36 
   3 -10  -5    0.97    0.28 
  -3  10   5    0.85    0.33 
  -3  10   5    1.06    0.50 
  -3  10   5    0.41    0.30 
   2 -10  -5    0.55    0.38 
  -2  10   5    0.08    0.30 
  -2  10   5    0.28    0.40 
  -2  10   5   -0.79    0.45 
   1 -10  -5   -0.07    0.35 
  -1  10   5   -0.22    0.41 
  -1  10   5   -0.05    0.21 
  -1  10   5    0.10    0.39 
   0 -10  -5   11.36    1.03 
   0 -10  -5   11.92    1.06 
   0  10   5   11.63    1.01 
  -1 -10  -5    1.07    0.24 
  -1 -10  -5    1.58    0.31 
   1  10   5    1.03    0.27 
  -2 -10  -5    5.71    0.55 
   2  10   5    6.58    0.56 
  -7  11   5   -0.26    0.37 
  -6  11   5    1.67    0.45 
  -5  11   5    0.27    0.14 
  -5  11   5    0.42    0.39 
   4 -11  -5    0.31    0.33 
  -4  11   5    0.51    0.13 
  -4  11   5    0.21    0.23 
  -4  11   5    1.03    0.43 
   3 -11  -5    0.19    0.32 
  -3  11   5   -0.06    0.24 
  -3  11   5    0.45    0.40 
  -3  11   5    0.34    0.28 
   2 -11  -5    0.87    0.33 
  -2  11   5    1.39    0.38 
  -2  11   5    0.67    0.29 
  -2  11   5    0.39    0.40 
  -1  11   5    8.63    0.72 
  -1  11   5    5.63    0.60 
  -1  11   5    6.91    0.78 
   0  11   5    5.40    0.52 
  -5  12   5    2.71    0.44 
  -4  12   5    0.09    0.31 
  -3  12   5    0.09    0.10 
  -3  12   5   -0.30    0.30 
  -1 -15   6    2.42    0.34 
  -1 -15   6    2.70    0.28 
   0 -15   6    0.36    0.13 
   0 -15   6    0.50    0.26 
   1 -15   6    0.00    0.11 
   1 -15   6   -0.10    0.26 
  -2  15  -6    0.45    0.20 
   2 -15   6    1.14    0.25 
   2 -15   6    0.84    0.14 
  -3  15  -6    0.67    0.19 
  -3  15  -6    0.45    0.17 
   4  14  -6    2.75    0.41 
   3  14  -6    0.45    0.34 
  -3 -14   6    0.54    0.28 
  -2 -14   6    7.27    0.66 
  -1 -14   6    4.82    0.54 
  -1 -14   6    4.66    0.47 
   0 -14   6   -0.10    0.12 
   0 -14   6    0.22    0.31 
   1 -14   6    0.31    0.14 
   1 -14   6   -0.11    0.31 
  -2  14  -6    0.10    0.21 
   2 -14   6    0.05    0.12 
   2 -14   6    0.13    0.30 
  -3  14  -6    3.12    0.44 
   3 -14   6    3.52    0.43 
  -4  14  -6   -0.13    0.18 
  -4  14  -6   -0.06    0.17 
  -5  14  -6    0.03    0.14 
   5  13  -6    6.47    0.78 
  -5 -13   6    8.42    0.71 
   4  13  -6    0.14    0.19 
   3  13  -6    4.11    0.61 
  -3 -13   6    5.03    0.48 
  -3 -13   6    5.80    0.56 
  -3 -13   6    5.29    0.56 
  -2 -13   6    7.48    0.69 
   1  13  -6    0.73    0.50 
  -1 -13   6    1.76    0.27 
  -1 -13   6    1.47    0.38 
   0 -13   6   -0.01    0.33 
   0 -13   6    0.38    0.15 
   1 -13   6   -0.51    0.35 
   1 -13   6    0.13    0.13 
   2 -13   6    5.85    0.63 
  -3  13  -6    0.10    0.21 
  -4  13  -6    7.32    0.75 
  -4  13  -6    7.02    0.76 
  -4  13  -6    7.45    0.75 
  -5  13  -6    0.06    0.18 
  -6  13  -6    0.12    0.13 
   6  12  -6   12.70    1.27 
  -6 -12   6   12.08    1.13 
   5  12  -6   -0.04    0.36 
  -5 -12   6    0.02    0.34 
  -5 -12   6   -0.11    0.30 
   4  12  -6    1.05    0.33 
   3  12  -6    2.20    0.44 
  -3 -12   6    2.83    0.41 
  -3 -12   6    2.52    0.31 
  -3 -12   6    3.06    0.43 
   2  12  -6   10.21    1.24 
  -2 -12   6   12.54    1.04 
   1  12  -6    1.67    0.50 
  -1 -12   6    1.49    0.39 
  -1 -12   6    1.21    0.22 
   0  12  -6    1.93    0.56 
   0 -12   6    2.39    0.42 
   0 -12   6    1.38    0.56 
   0 -12   6    1.62    0.43 
   1 -12   6    9.72    0.86 
   1 -12   6    7.97    0.81 
   2 -12   6    0.47    0.34 
  -3  12  -6    3.15    0.53 
  -3  12  -6    3.09    0.49 
  -4  12  -6    1.79    0.33 
  -4  12  -6    1.51    0.32 
  -5  12  -6    0.21    0.20 
  -5  12  -6    0.05    0.22 
   5 -12   6   -0.11    0.20 
  -6  12  -6    2.33    0.34 
   6 -12   6    2.02    0.27 
   7 -12   6   -0.36    0.14 
  -7 -11   6    6.47    0.74 
   6  11  -6    2.68    0.44 
  -6 -11   6    2.08    0.39 
  -6 -11   6    1.75    0.42 
   5  11  -6    9.56    0.99 
  -5 -11   6    8.04    0.87 
  -5 -11   6    8.74    0.89 
   4  11  -6   11.40    1.20 
  -4 -11   6    9.35    0.87 
   3  11  -6    9.63    1.06 
  -3 -11   6   10.49    0.97 
  -3 -11   6   10.80    0.94 
  -3 -11   6    9.44    0.88 
  -3 -11   6    7.80    1.14 
   2  11  -6    0.64    0.26 
  -2 -11   6    0.06    0.54 
  -2 -11   6    0.89    0.18 
   1  11  -6    4.63    0.69 
  -1 -11   6    5.15    0.61 
  -1 -11   6    4.34    0.75 
  -1 -11   6    5.16    0.52 
  -1 -11   6    5.55    0.60 
   0  11  -6   22.76    2.05 
   0  11  -6   20.15    1.96 
   0 -11   6   20.39    1.75 
   0 -11   6   19.87    1.71 
   0 -11   6   13.94    1.98 
  -1  11  -6    5.43    0.60 
  -1  11  -6    6.40    0.89 
   1 -11   6    4.16    0.63 
   1 -11   6    5.53    0.60 
  -2  11  -6   16.64    1.74 
  -3  11  -6    5.34    0.64 
  -4  11  -6    0.02    0.63 
  -4  11  -6    0.03    0.23 
   4 -11   6    0.01    0.24 
  -5  11  -6    2.31    0.41 
  -5  11  -6    2.25    0.37 
   5 -11   6    2.02    0.32 
  -6  11  -6    0.07    0.23 
  -6  11  -6    0.15    0.17 
   6 -11   6    0.15    0.19 
  -7  11  -6    1.63    0.26 
   7 -11   6    1.61    0.24 
   8 -11   6    1.03    0.15 
  -8 -10   6    6.57    0.58 
  -8 -10   6    5.85    0.65 
  -7 -10   6    3.10    0.52 
  -7 -10   6    2.94    0.54 
  -7 -10   6    3.77    0.45 
  -7 -10   6    2.72    0.58 
  -6 -10   6    6.31    0.68 
  -6 -10   6    6.90    0.69 
  -6 -10   6    6.43    0.58 
  -6 -10   6    5.04    0.60 
  -6 -10   6    5.86    0.56 
   5  10  -6    8.10    0.94 
  -5 -10   6    8.33    0.86 
  -5 -10   6    8.31    0.73 
  -5 -10   6    7.66    0.83 
  -4 -10   6    4.55    0.79 
  -4 -10   6    5.70    0.52 
   3  10  -6    6.54    0.77 
  -3 -10   6    6.63    0.63 
  -3 -10   6    6.43    0.91 
  -3 -10   6    6.26    0.72 
  -3 -10   6    7.00    0.71 
  -2 -10   6    6.83    0.71 
  -2 -10   6    5.61    0.89 
  -2 -10   6    6.67    0.63 
  -1 -10   6   43.44    3.10 
  -1 -10   6   40.25    3.53 
  -1 -10   6   34.49    3.89 
  -1 -10   6   44.65    3.50 
   0  10  -6    6.05    0.80 
   0 -10   6    3.23    0.40 
  -1  10  -6   11.84    1.01 
  -1  10  -6   13.70    1.43 
   1 -10   6   10.84    1.00 
  -2  10  -6    8.71    1.19 
  -2  10  -6    7.56    0.74 
   2 -10   6    7.62    0.74 
  -3  10  -6    0.04    0.33 
  -3  10  -6   -0.12    0.15 
  -3  10  -6    0.28    0.23 
   3 -10   6    0.00    0.27 
  -4  10  -6    0.11    0.23 
  -4  10  -6   -0.52    0.57 
  -4  10  -6    0.22    0.26 
  -4  10  -6    0.80    0.38 
   4 -10   6    0.34    0.26 
  -5  10  -6    0.25    0.24 
  -5  10  -6    0.39    0.23 
   5 -10   6    0.63    0.25 
  -6  10  -6    4.02    0.56 
  -6  10  -6    4.31    0.50 
   6 -10   6    4.09    0.47 
  -7  10  -6    3.93    0.41 
  -7  10  -6    3.41    0.47 
   7 -10   6    3.40    0.41 
   8 -10   6    3.52    0.39 
  -9  -9   6    1.63    0.23 
  -8  -9   6    1.70    0.23 
  -8  -9   6    1.40    0.35 
  -8  -9   6    1.27    0.32 
  -8  -9   6    2.16    0.30 
  -7  -9   6    9.81    1.05 
  -7  -9   6    8.53    1.03 
  -7  -9   6    8.34    0.90 
  -6  -9   6   10.38    1.02 
  -5  -9   6    4.41    0.73 
  -5  -9   6    4.82    0.50 
  -5  -9   6    4.32    0.52 
  -5  -9   6    4.58    0.45 
  -5  -9   6    4.83    0.61 
  -5  -9   6    4.66    0.58 
  -4  -9   6   19.76    2.03 
  -4  -9   6   19.84    1.70 
  -3  -9   6   11.30    0.95 
  -3  -9   6   11.64    1.10 
  -3  -9   6   13.01    1.30 
  -2  -9   6   25.42    1.83 
  -2  -9   6   21.60    2.33 
  -1  -9   6    3.19    0.55 
  -1  -9   6    2.63    0.32 
   0  -9   6    3.76    0.44 
   0  -9   6    3.07    0.37 
  -1   9  -6    4.95    0.48 
  -1   9  -6    5.00    0.77 
   1  -9   6    4.39    0.52 
   1  -9   6    4.09    0.50 
  -2   9  -6    8.13    1.02 
  -2   9  -6    7.11    0.62 
   2  -9   6    6.02    0.64 
   2  -9   6    5.85    0.66 
  -3   9  -6    2.17    0.39 
  -3   9  -6    2.79    0.59 
  -4   9  -6    0.37    0.23 
  -4   9  -6   -0.08    0.38 
  -4   9  -6    0.25    0.20 
  -4   9  -6    0.33    0.16 
  -4   9  -6    0.26    0.33 
   4  -9   6   -0.09    0.23 
  -5   9  -6    3.62    0.66 
  -5   9  -6    4.11    0.51 
   5  -9   6    3.36    0.45 
  -6   9  -6    2.16    0.37 
  -6   9  -6    2.59    0.62 
   6  -9   6    1.72    0.30 
  -7   9  -6    5.40    0.58 
  -7   9  -6    5.61    0.54 
   7  -9   6    5.09    0.57 
   8  -9   6   -0.13    0.16 
   9  -9   6   -0.01    0.10 
  -9  -8   6    1.72    0.36 
  -9  -8   6    2.00    0.33 
  -9  -8   6    2.30    0.25 
  -8  -8   6    7.29    0.74 
  -8  -8   6    7.67    0.66 
  -8  -8   6    7.57    0.81 
  -8  -8   6    7.91    0.77 
  -8  -8   6    6.85    0.66 
  -7  -8   6    3.82    0.52 
  -7  -8   6    3.54    0.68 
  -7  -8   6    3.45    0.39 
  -7  -8   6    2.89    0.64 
  -6  -8   6    0.78    0.40 
  -6  -8   6    0.94    0.60 
  -6  -8   6    0.63    0.52 
  -6  -8   6    1.13    0.48 
  -5  -8   6   16.36    1.43 
  -5  -8   6   16.00    1.66 
  -5  -8   6   14.99    1.32 
  -5  -8   6   16.02    1.47 
  -5  -8   6   15.78    1.41 
  -4  -8   6    0.71    0.74 
  -4  -8   6    2.22    0.52 
  -3  -8   6   18.15    1.62 
  -3  -8   6   19.55    1.85 
  -3  -8   6   17.97    1.41 
  -2  -8   6    2.71    0.52 
  -2  -8   6    3.33    0.36 
  -1  -8   6    3.92    0.42 
  -1  -8   6    5.46    0.50 
  -1  -8   6    3.77    0.61 
   0   8  -6   -0.04    0.77 
   0  -8   6    0.34    0.19 
   0  -8   6   -0.02    0.22 
  -1   8  -6    2.83    0.47 
  -1   8  -6    1.40    1.03 
  -1   8  -6    3.45    0.36 
   1  -8   6    3.82    0.44 
   1  -8   6    3.97    0.43 
  -2   8  -6    2.36    0.61 
  -2   8  -6    2.01    0.31 
   2  -8   6    1.70    0.35 
   2  -8   6    1.91    0.33 
  -3   8  -6   -0.06    0.28 
  -3   8  -6    0.00    0.25 
   3  -8   6    0.02    0.27 
  -4   8  -6   22.88    2.17 
  -4   8  -6   25.91    1.92 
  -4   8  -6   22.71    2.20 
  -4   8  -6   30.18    2.61 
  -5   8  -6    9.38    1.00 
  -5   8  -6    7.31    0.69 
  -5   8  -6    8.71    0.83 
  -5   8  -6    7.77    0.69 
  -5   8  -6    9.24    0.94 
   5  -8   6    8.70    0.86 
  -6   8  -6    2.49    0.28 
  -6   8  -6    2.43    0.41 
  -6   8  -6    2.17    0.38 
   6  -8   6    2.65    0.34 
  -7   8  -6    0.24    0.18 
  -7   8  -6    0.11    0.16 
   7  -8   6    0.01    0.19 
   8  -8   6    0.28    0.14 
   9  -8   6    2.11    0.24 
 -10  -7   6    1.39    0.18 
  -9  -7   6    4.81    0.53 
  -9  -7   6    2.99    0.61 
  -9  -7   6    3.40    0.40 
  -9  -7   6    5.19    0.66 
  -8  -7   6    0.94    0.47 
  -8  -7   6    0.71    0.20 
  -8  -7   6    0.31    0.14 
  -8  -7   6    0.97    0.38 
  -8  -7   6    0.74    0.31 
  -7  -7   6    0.31    0.31 
  -7  -7   6    0.40    0.61 
  -7  -7   6    0.21    0.15 
  -6  -7   6    7.13    0.98 
  -6  -7   6    8.03    0.94 
  -6  -7   6    7.52    0.74 
  -6  -7   6   10.23    1.04 
  -6  -7   6    9.00    0.87 
  -5  -7   6    2.54    0.43 
  -5  -7   6    2.28    0.89 
  -5  -7   6    2.60    0.34 
  -5  -7   6    3.06    0.56 
  -4  -7   6    3.48    0.81 
  -4  -7   6    3.59    0.55 
  -4  -7   6    2.76    0.42 
  -3  -7   6    3.59    0.38 
  -3  -7   6    4.83    0.51 
  -3  -7   6    4.68    0.59 
  -2  -7   6   12.82    1.04 
  -2  -7   6   13.43    1.33 
  -1  -7   6    0.18    0.21 
  -1  -7   6    0.38    0.16 
   0   7  -6    2.93    1.02 
   0   7  -6    3.28    0.35 
   0  -7   6    3.66    0.40 
   0  -7   6    3.24    0.40 
  -1   7  -6   14.74    1.17 
  -1   7  -6   17.59    1.56 
  -1   7  -6   11.14    2.36 
   1  -7   6   13.84    1.22 
   1  -7   6   16.83    1.32 
  -2   7  -6    3.67    0.63 
  -2   7  -6    0.90    1.01 
  -2   7  -6    3.32    0.37 
   2  -7   6    3.44    0.43 
   2  -7   6    4.50    0.44 
  -3   7  -6    9.73    1.24 
  -3   7  -6    9.46    1.05 
  -3   7  -6   11.48    0.87 
   3  -7   6   10.91    0.98 
  -4   7  -6   18.63    1.52 
  -4   7  -6   19.89    2.09 
   4  -7   6   20.26    1.69 
  -5   7  -6   28.27    2.56 
  -5   7  -6   27.62    2.85 
  -5   7  -6   33.01    2.35 
  -5   7  -6   29.92    2.27 
  -6   7  -6   -0.11    0.30 
  -6   7  -6   -0.05    0.15 
  -6   7  -6    0.11    0.31 
   6  -7   6    0.00    0.19 
  -7   7  -6    0.00    0.28 
  -7   7  -6    0.05    0.14 
  -7   7  -6    0.01    0.32 
   7  -7   6   -0.19    0.19 
  -8   7  -6    1.70    0.33 
   8  -7   6    0.98    0.18 
   9  -7   6   -0.02    0.13 
 -10  -6   6    0.42    0.34 
 -10  -6   6    1.13    0.29 
  -9  -6   6    0.53    0.20 
  -9  -6   6    0.91    0.36 
  -9  -6   6    0.47    0.40 
  -9  -6   6    0.94    0.47 
  -9  -6   6    0.47    0.37 
  -8  -6   6    0.39    0.44 
  -8  -6   6    0.68    0.21 
  -8  -6   6    1.21    0.48 
  -8  -6   6    0.32    0.25 
  -8  -6   6    0.69    0.39 
  -8  -6   6   -0.02    0.43 
  -7  -6   6    0.31    0.21 
  -7  -6   6    0.03    0.67 
  -7  -6   6    0.54    0.45 
  -7  -6   6    1.26    0.40 
  -7  -6   6    0.87    0.34 
  -7  -6   6    0.73    0.28 
  -7  -6   6    0.57    0.55 
  -7  -6   6    0.53    0.83 
  -6  -6   6    1.98    0.43 
  -6  -6   6    0.74    0.98 
  -6  -6   6    1.55    0.47 
  -6  -6   6    1.84    0.50 
  -5  -6   6    5.49    0.61 
  -5  -6   6    6.30    0.72 
  -5  -6   6    3.75    1.02 
  -4  -6   6    3.46    0.80 
  -4  -6   6    4.94    0.61 
  -3  -6   6    6.52    0.56 
  -3  -6   6    6.55    0.61 
  -3  -6   6    6.70    0.61 
  -3  -6   6    7.35    0.66 
  -3  -6   6    7.33    0.77 
  -2  -6   6    0.69    0.20 
  -2  -6   6    0.70    0.20 
  -2  -6   6    0.82    0.32 
  -1  -6   6    2.07    0.27 
  -1  -6   6    1.54    0.36 
  -1  -6   6    1.14    0.23 
   0   6  -6   40.47    3.21 
   0   6  -6   43.17    5.83 
   0  -6   6   48.26    3.59 
   0  -6   6   42.06    3.26 
  -1   6  -6    0.59    0.70 
  -1   6  -6    0.77    0.20 
  -1   6  -6    1.01    0.38 
   1  -6   6    1.12    0.27 
   1  -6   6    1.66    0.25 
  -2   6  -6    7.03    0.62 
  -2   6  -6    5.49    1.41 
  -2   6  -6    7.61    0.92 
   2  -6   6    6.62    0.68 
   2  -6   6    9.22    0.72 
  -3   6  -6    1.44    0.25 
  -3   6  -6    1.58    0.48 
  -3   6  -6    0.38    0.79 
   3  -6   6    1.44    0.27 
  -4   6  -6   76.37    5.82 
  -4   6  -6   74.34    7.34 
   4  -6   6   84.61    6.44 
  -5   6  -6   14.11    1.42 
  -5   6  -6   16.56    1.71 
  -5   6  -6   14.74    1.28 
  -5   6  -6   16.82    1.49 
  -6   6  -6    0.39    0.27 
  -6   6  -6    0.64    0.39 
  -6   6  -6    0.49    0.43 
  -6   6  -6    0.70    0.32 
   6  -6   6    0.74    0.22 
  -7   6  -6    0.13    0.35 
  -7   6  -6    0.12    0.12 
   7  -6   6    0.07    0.16 
  -8   6  -6    1.20    0.36 
   8  -6   6    1.04    0.18 
  -9   6  -6    1.24    0.30 
   9  -6   6    1.67    0.22 
 -10  -5   6    0.96    0.30 
 -10  -5   6    0.48    0.48 
  -9  -5   6    0.65    0.37 
  -9  -5   6    0.05    0.55 
  -9  -5   6    0.66    0.41 
  -9  -5   6    0.18    0.55 
  -9  -5   6    0.35    0.36 
  -9  -5   6    0.43    0.52 
  -9  -5   6    0.44    0.22 
  -8  -5   6   -0.05    0.48 
  -8  -5   6   -0.10    0.48 
  -8  -5   6    0.03    0.23 
  -8  -5   6    0.01    0.42 
  -8  -5   6    1.25    0.47 
  -8  -5   6    0.05    0.46 
  -8  -5   6    0.61    0.38 
  -7  -5   6    1.64    0.45 
  -7  -5   6    1.04    0.49 
  -7  -5   6    1.46    0.76 
  -7  -5   6    1.46    0.29 
  -7  -5   6    1.37    0.40 
  -7  -5   6    1.42    0.50 
  -7  -5   6    0.73    0.48 
  -6  -5   6    5.87    0.61 
  -6  -5   6    4.12    1.17 
  -6  -5   6    4.98    0.68 
  -5  -5   6    0.97    0.75 
  -5  -5   6    1.79    0.39 
  -4  -5   6    4.34    0.84 
  -4  -5   6    5.70    0.52 
  -4  -5   6    5.63    0.64 
  -3  -5   6    9.45    0.70 
  -3  -5   6    8.43    0.75 
  -3  -5   6    8.75    0.77 
  -3  -5   6    8.82    0.92 
  -3  -5   6    8.72    0.78 
  -2  -5   6   27.70    2.35 
  -2  -5   6   27.76    2.36 
  -2  -5   6   28.40    2.13 
  -2  -5   6   29.32    2.67 
  -1  -5   6  159.19   13.12 
  -1  -5   6  165.86   11.90 
  -1  -5   6  160.84   14.86 
   0   5  -6    0.14    0.16 
   0   5  -6    0.24    0.63 
   0   5  -6    0.32    0.26 
   0  -5   6    0.15    0.22 
   0  -5   6    0.10    0.18 
  -1   5  -6    1.64    0.77 
  -1   5  -6    2.71    0.48 
  -1   5  -6    3.08    0.31 
   1  -5   6    3.43    0.36 
   1  -5   6    3.73    0.39 
  -2   5  -6   -0.14    0.57 
  -2   5  -6    0.10    0.38 
  -2   5  -6   -0.05    0.17 
   2  -5   6    0.07    0.18 
   2  -5   6    0.21    0.27 
  -3   5  -6   15.56    1.39 
  -3   5  -6   17.54    1.83 
   3  -5   6   20.53    1.54 
  -4   5  -6   18.03    1.86 
  -4   5  -6   17.95    1.40 
  -5   5  -6   16.14    1.85 
  -5   5  -6   23.06    2.15 
  -5   5  -6   19.96    1.64 
  -5   5  -6   22.50    1.85 
  -5   5  -6   20.60    1.55 
  -6   5  -6    0.39    0.40 
  -6   5  -6    0.82    0.42 
  -6   5  -6    0.40    0.34 
   6  -5   6    0.64    0.21 
  -7   5  -6    4.87    0.57 
  -7   5  -6    4.72    0.48 
  -7   5  -6    4.49    0.44 
   7  -5   6    3.91    0.48 
  -8   5  -6    0.02    0.33 
   8  -5   6    0.07    0.15 
  -9   5  -6   -0.01    0.28 
   9  -5   6    0.51    0.14 
 -11  -4   6    0.09    0.37 
 -10  -4   6    0.49    0.36 
 -10  -4   6   -0.05    0.48 
 -10  -4   6    0.59    0.49 
 -10  -4   6    0.76    0.44 
  -9  -4   6    2.40    0.52 
  -9  -4   6    2.05    0.68 
  -9  -4   6    2.62    0.78 
  -9  -4   6    2.97    0.71 
  -9  -4   6    2.52    0.50 
  -9  -4   6    2.06    0.51 
  -8  -4   6    5.02    0.59 
  -8  -4   6    4.60    0.50 
  -8  -4   6    4.46    0.69 
  -8  -4   6    4.40    0.67 
  -8  -4   6    5.08    0.54 
  -8  -4   6    3.17    0.68 
  -8  -4   6    6.64    0.86 
  -7  -4   6   22.04    1.98 
  -7  -4   6   22.22    1.96 
  -7  -4   6   21.71    1.85 
  -7  -4   6   21.77    2.19 
  -7  -4   6   24.94    2.39 
  -6  -4   6    5.47    0.57 
  -6  -4   6    5.40    0.70 
  -6  -4   6    4.46    1.11 
  -6  -4   6    4.71    0.63 
  -5  -4   6   13.24    1.18 
  -5  -4   6   12.45    1.70 
  -5  -4   6   14.66    1.36 
  -4  -4   6   24.00    2.15 
  -4  -4   6   23.14    1.89 
  -4  -4   6   18.81    2.44 
  -3  -4   6    3.12    0.28 
  -3  -4   6    2.89    0.31 
  -3  -4   6    2.89    0.28 
  -3  -4   6    2.17    0.29 
  -3  -4   6    2.99    0.39 
  -2  -4   6   82.41    6.65 
  -2  -4   6   86.45    6.08 
  -2  -4   6   87.54    7.58 
  -2  -4   6   79.25    6.68 
  -2  -4   6   76.10    6.70 
  -1  -4   6   75.45    6.36 
  -1  -4   6   80.80    5.78 
   0   4  -6    3.84    0.34 
   0   4  -6    3.61    0.47 
   0   4  -6    4.81    0.88 
   0  -4   6    3.24    0.41 
   0  -4   6    3.38    0.39 
  -1   4  -6    1.84    0.71 
  -1   4  -6    1.67    0.37 
  -1   4  -6    1.46    0.22 
   1  -4   6    1.48    0.24 
   1  -4   6    1.45    0.30 
  -2   4  -6   18.78    1.97 
  -2   4  -6   24.57    3.00 
  -2   4  -6   18.33    1.53 
   2  -4   6   22.18    1.60 
   2  -4   6   19.26    1.69 
  -3   4  -6    0.05    0.65 
  -3   4  -6    0.68    0.38 
  -3   4  -6    0.85    0.20 
   3  -4   6    0.76    0.22 
  -4   4  -6   10.94    1.26 
  -4   4  -6   11.09    0.90 
  -5   4  -6   10.56    1.18 
  -5   4  -6   13.84    1.04 
  -5   4  -6   11.20    0.97 
  -6   4  -6    7.99    0.77 
  -6   4  -6    7.99    0.70 
  -6   4  -6    6.25    0.82 
   6  -4   6    6.66    0.74 
  -7   4  -6    3.08    0.38 
  -7   4  -6    3.17    0.34 
  -7   4  -6    2.80    0.48 
   7  -4   6    2.62    0.36 
  -8   4  -6    0.16    0.34 
   8  -4   6    0.18    0.18 
  -9   4  -6    2.11    0.36 
   9  -4   6    2.12    0.29 
 -11  -3   6    0.17    0.40 
 -10  -3   6   13.53    1.37 
  -9  -3   6    0.26    0.67 
  -9  -3   6   -0.09    0.41 
  -9  -3   6   -0.03    0.65 
  -9  -3   6    0.05    0.43 
  -9  -3   6    0.07    0.61 
  -9  -3   6    1.04    0.56 
  -9  -3   6    0.06    0.44 
  -8  -3   6    8.36    0.71 
  -8  -3   6    6.81    0.94 
  -8  -3   6    8.80    0.83 
  -8  -3   6    6.04    0.83 
  -8  -3   6    7.51    0.98 
  -8  -3   6    7.61    0.86 
  -8  -3   6    6.85    0.74 
  -8  -3   6    5.79    0.80 
  -8  -3   6    6.41    0.67 
  -7  -3   6    0.43    0.35 
  -7  -3   6    0.23    0.84 
  -7  -3   6    0.83    0.34 
  -7  -3   6    0.21    0.45 
  -7  -3   6   -0.47    0.25 
  -7  -3   6    0.13    0.33 
  -6  -3   6   34.55    3.07 
  -6  -3   6   35.63    3.45 
  -6  -3   6   39.98    3.75 
  -5  -3   6   23.76    2.01 
  -5  -3   6   18.80    2.59 
  -5  -3   6   26.00    2.47 
  -5  -3   6   24.65    2.28 
  -4  -3   6   18.35    1.71 
  -4  -3   6   17.53    1.51 
  -4  -3   6   17.90    1.98 
  -3  -3   6   50.27    4.39 
  -3  -3   6   49.02    3.50 
  -3  -3   6   45.11    3.82 
  -3  -3   6   45.45    3.89 
  -2  -3   6   84.81    6.76 
  -2  -3   6   78.94    6.75 
  -2  -3   6   87.08    6.17 
  -1  -3   6   80.23    6.78 
  -1  -3   6   86.46    6.16 
   0   3  -6   48.90    3.76 
   0  -3   6   50.67    4.17 
   0  -3   6   53.27    3.82 
  -1   3  -6    2.79    0.72 
  -1   3  -6    2.19    0.25 
   1  -3   6    1.65    0.33 
   1  -3   6    1.54    0.26 
  -2   3  -6   16.17    2.28 
  -2   3  -6   13.80    1.13 
   2  -3   6   14.50    1.25 
   2  -3   6   14.25    1.21 
  -3   3  -6    5.21    1.30 
  -3   3  -6    5.78    0.51 
   3  -3   6    5.68    0.57 
  -4   3  -6    2.01    0.26 
  -4   3  -6    0.75    0.74 
  -5   3  -6   -0.21    0.35 
  -5   3  -6    1.12    0.27 
  -5   3  -6    0.18    0.21 
  -5   3  -6    0.07    0.41 
  -6   3  -6    2.80    0.48 
  -6   3  -6    1.93    0.41 
  -6   3  -6    1.92    0.35 
   6  -3   6    1.53    0.28 
  -7   3  -6   10.72    1.12 
  -7   3  -6   12.62    1.05 
   7  -3   6   10.98    1.16 
  -8   3  -6    9.53    0.94 
   8  -3   6    9.53    0.98 
  -9   3  -6    3.29    0.43 
   9  -3   6    3.62    0.40 
 -11  -2   6   20.11    1.83 
 -11  -2   6   20.31    1.73 
 -10  -2   6   -0.55    0.57 
 -10  -2   6   -0.16    0.70 
  -9  -2   6    8.90    0.97 
  -9  -2   6    8.70    1.30 
  -9  -2   6    9.96    1.27 
  -9  -2   6    6.29    1.19 
  -9  -2   6    9.02    1.35 
  -9  -2   6    7.82    1.12 
  -9  -2   6   11.09    1.02 
  -8  -2   6    0.40    0.56 
  -8  -2   6    0.25    0.44 
  -8  -2   6    0.31    0.45 
  -8  -2   6    0.19    0.37 
  -8  -2   6   -0.46    0.27 
  -8  -2   6    0.88    0.44 
  -8  -2   6    0.25    0.34 
  -8  -2   6    0.20    0.52 
  -7  -2   6   15.51    1.52 
  -7  -2   6   15.53    1.36 
  -7  -2   6   16.65    1.70 
  -7  -2   6   12.05    1.98 
  -7  -2   6   14.19    1.36 
  -6  -2   6   85.16    7.49 
  -6  -2   6   81.78    8.15 
  -6  -2   6   76.30    6.68 
  -5  -2   6   35.78    4.01 
  -5  -2   6   39.53    3.62 
  -5  -2   6   39.71    3.22 
  -5  -2   6   38.87    3.93 
  -4  -2   6   11.96    1.18 
  -4  -2   6   11.86    1.04 
  -4  -2   6   13.03    1.45 
  -4  -2   6   12.13    1.28 
  -3  -2   6    9.84    0.80 
  -3  -2   6   11.11    0.88 
  -3  -2   6   10.96    0.80 
  -3  -2   6    9.11    0.84 
  -2  -2   6    3.43    0.35 
  -2  -2   6    3.55    0.38 
  -2  -2   6    3.70    0.39 
  -2  -2   6    3.63    0.38 
  -1  -2   6    0.41    0.26 
   0   2  -6    0.45    0.17 
   0   2  -6    0.67    0.53 
   0  -2   6    0.32    0.25 
  -1   2  -6   11.03    1.51 
  -1   2  -6    8.67    0.74 
   1  -2   6    8.77    0.83 
   1  -2   6    8.50    0.81 
  -2   2  -6   24.96    3.32 
  -2   2  -6   23.05    1.80 
   2  -2   6   23.23    1.90 
  -3   2  -6    2.91    0.32 
  -3   2  -6    2.70    0.87 
  -4   2  -6    3.80    1.00 
  -4   2  -6    4.48    0.42 
  -5   2  -6   15.22    1.43 
  -5   2  -6   16.02    1.23 
  -5   2  -6   16.00    1.38 
  -5   2  -6   12.73    1.16 
  -6   2  -6    5.94    0.64 
  -6   2  -6    5.63    0.53 
  -6   2  -6    4.68    0.53 
  -6   2  -6    5.40    0.61 
   6  -2   6    5.19    0.60 
  -7   2  -6    0.16    0.27 
  -7   2  -6   -0.25    0.33 
  -7   2  -6   -0.01    0.25 
   7  -2   6    0.21    0.23 
  -8   2  -6   10.91    1.07 
   8  -2   6   11.49    1.14 
   9  -2   6    6.20    0.64 
 -11  -1   6    1.93    0.48 
 -11  -1   6    1.36    0.43 
 -10  -1   6    8.45    1.09 
 -10  -1   6    8.76    1.01 
 -10  -1   6    8.50    0.96 
  -9  -1   6    1.38    0.63 
  -9  -1   6    1.49    0.50 
  -9  -1   6    1.32    0.97 
  -9  -1   6    1.87    0.73 
  -9  -1   6    0.95    0.71 
  -9  -1   6    0.77    0.66 
  -9  -1   6    1.80    0.55 
  -9  -1   6    2.38    0.72 
  -8  -1   6    0.47    0.44 
  -8  -1   6    0.46    0.26 
  -8  -1   6    0.31    0.61 
  -8  -1   6    0.63    0.49 
  -8  -1   6    0.01    0.35 
  -8  -1   6   -0.04    0.45 
  -7  -1   6    4.39    0.58 
  -7  -1   6    3.83    0.51 
  -7  -1   6    3.30    0.47 
  -7  -1   6    3.45    0.65 
  -6  -1   6   40.48    3.72 
  -6  -1   6   38.85    3.32 
  -6  -1   6   39.91    4.07 
  -5  -1   6   59.97    6.15 
  -5  -1   6   61.90    5.03 
  -5  -1   6   61.44    5.65 
  -4  -1   6    1.03    0.22 
  -4  -1   6    1.39    0.27 
  -3  -1   6   19.72    1.71 
  -3  -1   6   20.85    1.69 
  -3  -1   6   20.92    1.56 
  -3  -1   6   20.59    1.57 
  -3  -1   6   20.66    1.68 
  -2  -1   6   16.14    1.27 
  -2  -1   6   16.23    1.33 
  -2  -1   6   14.86    1.34 
  -2  -1   6   17.00    1.24 
  -2  -1   6   16.00    1.36 
  -1  -1   6   18.35    1.45 
   0   1  -6   17.41    1.27 
   0  -1   6   15.32    1.34 
  -1   1  -6    0.09    0.15 
   1  -1   6    0.07    0.25 
  -2   1  -6   59.25    4.27 
   2  -1   6   54.87    4.37 
  -3   1  -6    5.99    0.55 
  -4   1  -6    7.63    0.67 
  -5   1  -6    1.62    0.25 
  -5   1  -6    1.76    0.38 
  -5   1  -6    2.02    0.41 
  -5   1  -6    2.29    0.41 
  -6   1  -6    3.74    0.47 
  -6   1  -6    3.67    0.43 
  -6   1  -6    3.39    0.50 
   6  -1   6    3.32    0.47 
  -7   1  -6    3.14    0.45 
  -7   1  -6    3.12    0.39 
   7  -1   6    3.27    0.45 
  -8   1  -6   12.06    1.05 
  -8   1  -6   12.55    1.12 
   8  -1   6   11.90    1.22 
   9  -1   6    5.23    0.55 
 -11   0   6   13.12    1.09 
 -11   0   6   10.95    1.31 
 -11   0   6    9.87    1.12 
 -10   0   6    0.31    0.56 
  -9   0   6    0.51    0.72 
  -9   0   6    0.82    0.53 
  -9   0   6    1.01    1.00 
  -9   0   6    0.38    0.77 
  -9   0   6    0.18    0.68 
  -9   0   6    0.59    0.66 
  -9   0   6    0.35    0.52 
  -8   0   6    1.15    0.39 
  -8   0   6    0.23    0.35 
  -8   0   6    0.79    0.50 
  -8   0   6    1.80    0.73 
  -8   0   6    0.87    0.49 
  -8   0   6    1.18    0.48 
  -7   0   6    0.32    0.36 
  -7   0   6    0.06    0.51 
  -7   0   6   -0.10    0.42 
  -6   0   6   53.99    4.91 
  -6   0   6   62.97    5.53 
  -6   0   6   61.74    6.01 
  -5   0   6    2.14    0.49 
  -5   0   6    2.96    0.42 
  -5   0   6    2.99    0.37 
  -4   0   6   10.94    0.92 
  -4   0   6   11.59    0.98 
  -3   0   6   15.42    1.15 
  -3   0   6   13.63    1.14 
  -3   0   6   15.95    1.23 
  -3   0   6   13.84    1.20 
  -3   0   6   14.24    1.22 
  -2   0   6   42.19    3.22 
  -2   0   6   39.95    3.51 
  -2   0   6   45.24    3.48 
  -2   0   6   43.65    3.23 
  -1   0   6    5.16    0.41 
  -1   0   6    4.97    0.49 
  -1   0   6    4.11    0.41 
   0   0  -6    4.03    0.37 
   0   0   6    3.79    0.45 
  -1   0  -6   22.37    1.66 
   1   0   6   20.74    1.73 
  -2   0  -6    4.47    0.43 
   2   0   6    4.19    0.43 
   2   0   6    4.60    0.51 
  -3   0  -6   54.66    4.11 
  -4   0  -6    0.31    0.18 
  -5   0  -6    1.83    0.39 
  -5   0  -6    2.12    0.39 
  -5   0  -6    1.86    0.28 
  -5   0  -6    2.16    0.35 
   5   0   6    1.95    0.36 
  -6   0  -6    7.28    0.69 
  -6   0  -6    7.94    0.68 
  -6   0  -6    7.02    0.75 
  -6   0  -6    7.49    0.75 
   6   0   6    7.01    0.82 
  -7   0  -6    6.47    0.68 
  -7   0  -6    6.87    0.63 
   7   0   6    6.68    0.74 
  -8   0  -6    4.68    0.44 
   8   0   6    3.88    0.48 
 -11   1   6    3.80    0.66 
 -11   1   6    4.38    0.77 
 -11   1   6    4.98    0.59 
 -10   1   6    0.84    0.58 
  -9   1   6    1.09    0.58 
  -9   1   6    1.37    0.55 
  -9   1   6    0.79    0.57 
  -9   1   6    1.92    0.38 
  -8   1   6    0.02    0.45 
  -8   1   6   -0.26    0.50 
  -8   1   6    0.45    0.70 
  -8   1   6    0.10    0.42 
  -8   1   6   -0.39    0.30 
  -8   1   6    0.00    0.45 
  -7   1   6   11.61    1.24 
  -7   1   6    9.87    1.09 
  -7   1   6   15.09    1.44 
  -6   1   6    0.01    0.51 
  -6   1   6    0.45    0.30 
  -6   1   6    0.13    0.34 
  -5   1   6   46.10    4.02 
  -5   1   6   40.40    3.59 
  -4   1   6    0.12    0.20 
  -4   1   6   -0.04    0.18 
  -3   1   6   49.88    3.64 
  -3   1   6   43.44    3.66 
  -3   1   6   43.50    3.61 
  -3   1   6   43.00    3.38 
  -3   1   6   42.72    3.33 
  -2   1   6    3.57    0.36 
  -2   1   6    3.73    0.36 
  -2   1   6    4.69    0.45 
  -1   1   6   -0.14    0.25 
  -1   1   6   -0.06    0.14 
   0  -1  -6   58.77    4.22 
   0   1   6   55.60    4.29 
   0   1   6   56.32    4.31 
  -1  -1  -6   10.42    0.79 
   1   1   6    7.82    0.79 
   1   1   6   11.15    0.88 
  -2  -1  -6   51.78    3.83 
   2   1   6   44.06    3.87 
   2   1   6   59.06    3.92 
  -3  -1  -6   12.73    1.07 
  -4  -1  -6    6.25    0.69 
  -4  -1  -6    6.20    0.62 
  -4  -1  -6    7.38    0.68 
  -5  -1  -6    0.92    0.29 
  -5  -1  -6    0.89    0.33 
   5   1   6    1.10    0.32 
  -6  -1  -6    5.62    0.53 
  -6  -1  -6    4.67    0.57 
  -6  -1  -6    5.23    0.51 
   6   1   6    5.09    0.62 
  -7  -1  -6    4.43    0.44 
  -7  -1  -6    4.37    0.41 
   7   1   6    3.82    0.51 
  -8  -1  -6    3.95    0.39 
   8   1   6    3.62    0.44 
 -11   2   6    0.61    0.43 
 -11   2   6   -0.11    0.47 
 -10   2   6   -0.02    0.60 
  -9   2   6    0.08    0.53 
  -9   2   6    0.70    0.51 
  -9   2   6   -0.04    0.31 
  -8   2   6   10.54    1.02 
  -8   2   6    9.05    0.90 
  -7   2   6    0.05    0.38 
  -6   2   6   34.43    2.89 
  -5   2   6    0.76    0.20 
  -5   2   6    0.60    0.28 
  -4   2   6   16.20    1.30 
  -4   2   6   15.74    1.27 
  -4   2   6   13.59    1.25 
  -4   2   6   14.79    1.22 
  -3   2   6    5.22    0.50 
  -3   2   6    5.24    0.54 
  -3   2   6    5.83    0.51 
  -2   2   6   11.68    0.98 
  -2   2   6   13.00    1.03 
  -1   2   6   99.72    7.40 
  -1   2   6   97.04    7.31 
   0  -2  -6    0.67    0.21 
   0   2   6    0.44    0.16 
   0   2   6    0.35    0.30 
  -1  -2  -6   22.92    1.61 
   1   2   6   17.45    1.62 
   1   2   6   23.45    1.70 
  -2  -2  -6   18.45    1.44 
   2   2   6   17.25    1.52 
  -3  -2  -6   12.02    1.03 
  -4  -2  -6    1.42    0.34 
  -4  -2  -6    1.53    0.31 
  -4  -2  -6    1.57    0.33 
   4   2   6    1.78    0.33 
  -5  -2  -6    6.79    0.64 
  -5  -2  -6    6.43    0.61 
  -5  -2  -6    5.65    0.71 
   5   2   6    6.91    0.73 
  -6  -2  -6    5.06    0.50 
  -6  -2  -6    5.73    0.56 
  -6  -2  -6    5.08    0.52 
   6   2   6    5.39    0.62 
  -7  -2  -6    1.53    0.24 
  -7  -2  -6    1.42    0.21 
   7   2   6    0.86    0.26 
   8   2   6    3.78    0.42 
 -11   3   6    0.05    0.47 
  -9   3   6    3.94    0.39 
  -9   3   6    3.30    0.47 
  -8   3   6    3.37    0.34 
  -8   3   6    2.58    0.61 
  -8   3   6    3.26    0.74 
  -7   3   6   13.46    1.26 
  -6   3   6    0.43    0.33 
  -5   3   6    3.14    0.41 
  -5   3   6    2.98    0.46 
  -4   3   6   12.79    1.12 
  -4   3   6   13.12    1.09 
  -4   3   6   13.43    1.11 
  -4   3   6   12.09    1.05 
  -3   3   6    4.27    0.50 
  -3   3   6    4.21    0.46 
  -2   3   6   78.14    5.92 
  -2   3   6   78.25    5.84 
  -1   3   6    5.66    0.50 
  -1   3   6    4.51    0.60 
   0  -3  -6   13.07    1.00 
   0   3   6   11.63    1.08 
   0   3   6   11.96    1.00 
  -1  -3  -6   -0.04    0.20 
   1   3   6    0.00    0.13 
   1   3   6    0.07    0.32 
  -2  -3  -6   14.42    1.19 
  -3  -3  -6    1.52    0.29 
  -3  -3  -6    1.62    0.34 
  -4  -3  -6    6.80    0.66 
  -4  -3  -6    6.19    0.71 
   4   3   6    6.98    0.76 
  -5  -3  -6   12.70    1.10 
  -5  -3  -6   12.22    1.06 
  -5  -3  -6   12.75    1.17 
  -5  -3  -6   13.16    1.17 
   5   3   6   11.99    1.29 
  -6  -3  -6   -0.21    0.20 
  -6  -3  -6    0.29    0.16 
  -6  -3  -6   -0.06    0.17 
  -6  -3  -6    0.70    0.22 
   6   3   6   -0.07    0.23 
  -7  -3  -6    3.87    0.37 
  -7  -3  -6    4.36    0.39 
   7   3   6    3.33    0.45 
 -11   4   6    0.17    0.31 
 -11   4   6    0.22    0.47 
 -10   4   6    0.90    0.33 
  -9   4   6   -0.56    0.31 
  -9   4   6    0.10    0.21 
  -8   4   6   15.93    1.67 
  -8   4   6   14.07    1.24 
  -8   4   6   13.84    1.39 
  -7   4   6   -0.65    0.46 
  -6   4   6    0.63    0.39 
  -6   4   6    0.71    0.25 
  -5   4   6    3.46    0.41 
  -4   4   6    2.76    0.44 
  -4   4   6    3.17    0.46 
  -3   4   6   50.66    4.03 
  -3   4   6   55.71    4.08 
  -2   4   6   13.85    1.18 
  -2   4   6   12.99    1.12 
  -1   4   6   27.79    2.23 
  -1   4   6   28.18    2.19 
   0  -4  -6    2.11    0.36 
   0   4   6    2.35    0.33 
   0   4   6    2.65    0.49 
  -1  -4  -6    5.00    0.52 
   1   4   6    4.79    0.65 
  -2  -4  -6    1.96    0.41 
  -2  -4  -6    2.09    0.31 
  -3  -4  -6    1.46    0.36 
  -3  -4  -6    0.98    0.31 
   3   4   6    1.34    0.32 
  -4  -4  -6    7.74    0.85 
  -4  -4  -6    9.07    0.77 
  -4  -4  -6    9.16    0.81 
   4   4   6    8.38    0.93 
  -5  -4  -6    2.75    0.41 
  -5  -4  -6    3.01    0.34 
  -5  -4  -6    4.05    0.39 
  -5  -4  -6    2.70    0.37 
   5   4   6    3.07    0.43 
  -6  -4  -6    6.39    0.66 
  -6  -4  -6    7.95    0.62 
  -6  -4  -6    7.18    0.61 
   6   4   6    6.29    0.74 
   7   4   6    0.27    0.17 
 -11   5   6    1.69    0.51 
 -11   5   6    1.84    0.37 
 -10   5   6   -0.02    0.51 
  -9   5   6    0.28    0.23 
  -9   5   6    0.57    0.15 
  -8   5   6    2.32    0.69 
  -8   5   6    1.48    0.40 
  -7   5   6    1.00    0.61 
  -7   5   6    1.35    0.36 
  -5   5   6    1.33    0.30 
  -4   5   6   11.22    0.99 
  -4   5   6   10.41    0.92 
  -3   5   6    1.06    0.35 
  -3   5   6    1.18    0.48 
  -2   5   6   13.59    1.28 
  -2   5   6   14.93    1.22 
  -1   5   6    4.70    0.52 
  -1   5   6    4.29    0.65 
   0  -5  -6   15.60    1.24 
   0   5   6   14.15    1.33 
  -1  -5  -6    5.06    0.53 
   1   5   6    4.30    0.67 
  -2  -5  -6    0.15    0.34 
   2   5   6    0.04    0.27 
  -3  -5  -6    3.45    0.49 
  -3  -5  -6    4.71    0.50 
  -3  -5  -6    3.46    0.43 
   3   5   6    4.86    0.52 
  -4  -5  -6    2.37    0.36 
  -4  -5  -6    2.81    0.32 
  -4  -5  -6    3.11    0.39 
  -4  -5  -6    2.53    0.41 
   4   5   6    3.14    0.41 
  -5  -5  -6    7.79    0.64 
  -5  -5  -6    6.77    0.68 
  -5  -5  -6    7.19    0.71 
  -5  -5  -6    8.05    0.67 
   5   5   6    6.90    0.77 
  -6  -5  -6   -0.31    0.17 
  -6  -5  -6   -0.14    0.17 
   6   5   6   -0.07    0.18 
 -11   6   6    0.25    0.44 
 -11   6   6    0.09    0.12 
 -10   6   6   -0.03    0.51 
  -9   6   6   -0.07    0.12 
  -9   6   6   -0.12    0.19 
  -8   6   6    0.28    0.63 
  -8   6   6    0.55    0.16 
  -7   6   6    1.36    0.64 
  -7   6   6    1.37    0.24 
  -6   6   6    1.41    0.57 
  -6   6   6    0.83    0.42 
  -5   6   6    9.02    0.86 
  -4   6   6    0.95    0.35 
  -4   6   6    0.53    0.48 
  -3   6   6    3.90    0.50 
  -3   6   6    4.07    0.63 
  -2   6   6    0.68    0.35 
  -2   6   6    1.05    0.54 
  -1   6   6    7.39    0.85 
  -1   6   6    6.82    0.74 
   0  -6  -6   23.43    1.70 
   0  -6  -6   22.02    1.88 
   0   6   6   20.32    1.77 
   0   6   6   19.09    1.80 
  -1  -6  -6    1.07    0.24 
   1   6   6    1.41    0.27 
  -2  -6  -6    0.35    0.32 
   2   6   6    0.74    0.24 
  -3  -6  -6    0.68    0.24 
  -3  -6  -6    0.55    0.19 
   3   6   6    0.71    0.29 
  -4  -6  -6    7.89    0.66 
  -4  -6  -6    7.15    0.71 
  -4  -6  -6    7.45    0.74 
   4   6   6    7.44    0.80 
  -5  -6  -6    0.29    0.17 
  -5  -6  -6    0.26    0.19 
  -5  -6  -6    0.26    0.13 
   5   6   6    0.35    0.22 
 -10   7   6    0.67    0.50 
 -10   7   6    0.15    0.34 
  -9   7   6    0.49    0.37 
  -9   7   6    0.57    0.23 
  -8   7   6    0.05    0.59 
  -8   7   6    0.27    0.42 
  -7   7   6    0.10    0.59 
  -7   7   6    0.53    0.17 
   6  -7  -6    8.33    0.87 
  -6   7   6    8.05    1.03 
  -6   7   6    8.00    0.76 
  -6   7   6    7.67    0.75 
   5  -7  -6    0.00    0.34 
  -5   7   6    0.16    0.56 
  -5   7   6    0.03    0.28 
   4  -7  -6    7.02    0.75 
  -4   7   6    5.95    0.64 
  -4   7   6    6.18    0.91 
  -4   7   6    6.66    0.71 
   3  -7  -6   -0.37    0.32 
  -3   7   6    0.50    0.34 
  -3   7   6    0.50    0.24 
  -3   7   6   -0.04    0.51 
   2  -7  -6    0.61    0.33 
  -2   7   6    0.76    0.27 
  -2   7   6    0.96    0.37 
   1  -7  -6   11.96    1.12 
   1  -7  -6   11.79    1.22 
  -1   7   6   12.41    1.04 
  -1   7   6   11.67    1.13 
   0  -7  -6    0.55    0.31 
   0   7   6    0.52    0.25 
  -1  -7  -6    2.28    0.40 
  -1  -7  -6    2.80    0.39 
   1   7   6    1.95    0.31 
  -2  -7  -6   -0.05    0.28 
   2   7   6   -0.09    0.26 
  -3  -7  -6    3.03    0.33 
  -3  -7  -6    3.54    0.38 
  -4  -7  -6   -0.09    0.13 
  -4  -7  -6   -0.01    0.20 
  -4  -7  -6    0.11    0.16 
 -10   8   6    2.55    0.46 
  -9   8   6    0.56    0.33 
  -9   8   6    0.19    0.19 
   8  -8  -6   -0.03    0.27 
  -8   8   6    0.19    0.15 
  -8   8   6   -0.02    0.20 
   7  -8  -6    1.79    0.36 
  -7   8   6    1.73    0.61 
   6  -8  -6    0.27    0.31 
  -6   8   6    0.07    0.53 
  -6   8   6    0.12    0.17 
   5  -8  -6   11.13    1.16 
  -5   8   6   10.94    1.31 
   4  -8  -6    4.99    0.60 
  -4   8   6    5.08    0.61 
  -4   8   6    4.12    0.77 
  -4   8   6    4.19    0.51 
   3  -8  -6    2.29    0.34 
  -3   8   6    0.43    0.34 
  -3   8   6    1.78    0.40 
  -3   8   6    0.24    0.54 
   2  -8  -6    9.45    1.00 
  -2   8   6   10.02    0.96 
  -2   8   6    9.12    0.86 
  -2   8   6   10.60    1.15 
   1  -8  -6    4.49    0.51 
  -1   8   6    3.16    0.41 
  -1   8   6    2.88    0.49 
   0  -8  -6   -0.02    0.29 
  -1  -8  -6    0.48    0.28 
  -1  -8  -6    0.05    0.31 
   1   8   6   -0.17    0.28 
  -2  -8  -6    7.23    0.72 
   2   8   6    7.98    0.70 
  -3  -8  -6    0.17    0.18 
  -3  -8  -6    0.03    0.21 
  -9   9   6    0.78    0.19 
  -8   9   6    0.29    0.19 
   7  -9  -6    0.45    0.28 
  -7   9   6    0.65    0.50 
   6  -9  -6    2.48    0.41 
  -6   9   6    2.74    0.57 
   5  -9  -6    3.65    0.50 
  -5   9   6    3.61    0.67 
   4  -9  -6    4.67    0.55 
  -4   9   6    3.30    0.49 
  -4   9   6    5.01    0.73 
  -4   9   6    4.93    0.50 
   3  -9  -6    5.06    0.60 
   3  -9  -6    4.71    0.58 
  -3   9   6    5.00    0.62 
  -3   9   6    5.27    0.74 
  -3   9   6    4.90    0.52 
   2  -9  -6    3.96    0.47 
  -2   9   6    3.06    0.60 
  -2   9   6    3.63    0.51 
  -2   9   6    2.58    0.36 
   1  -9  -6   -0.43    0.36 
  -1   9   6    0.08    0.33 
  -1   9   6   -0.16    0.21 
   0  -9  -6    4.40    0.50 
  -1  -9  -6    6.06    0.60 
  -1  -9  -6    6.00    0.62 
   1   9   6    7.06    0.60 
  -2  -9  -6    0.05    0.17 
   2   9   6   -0.07    0.22 
  -8  10   6   -0.01    0.37 
  -7  10   6    3.90    0.62 
  -6  10   6    0.94    0.44 
   5 -10  -6    3.84    0.47 
   5 -10  -6    4.33    0.49 
  -5  10   6    4.39    0.61 
  -5  10   6    3.36    0.40 
   4 -10  -6    1.45    0.28 
   4 -10  -6    1.13    0.34 
  -4  10   6    1.35    0.47 
  -4  10   6    0.44    0.26 
   3 -10  -6    2.56    0.38 
  -3  10   6    1.80    0.33 
  -3  10   6    2.07    0.47 
  -3  10   6    0.90    0.31 
   2 -10  -6   -0.06    0.33 
  -2  10   6    0.14    0.37 
  -2  10   6   -0.31    0.26 
  -2  10   6    0.02    0.27 
   1 -10  -6    0.91    0.32 
  -1  10   6    0.77    0.21 
  -1  10   6    1.02    0.35 
   0  10   6    2.51    0.40 
   1  10   6   -0.17    0.20 
  -6  11   6    6.84    0.80 
  -5  11   6    0.39    0.35 
  -4  11   6   -0.10    0.12 
  -4  11   6    0.16    0.33 
  -3  11   6   -0.43    0.31 
  -3  11   6    0.09    0.14 
  -3  11   6    0.03    0.20 
  -2  11   6    0.21    0.22 
  -2  11   6    0.04    0.30 
  -1  11   6    9.27    0.79 
  -2 -15   7    2.52    0.34 
  -1 -15   7   -0.17    0.08 
  -1 -15   7   -0.01    0.23 
   0 -15   7    3.32    0.40 
   0 -15   7    3.37    0.35 
   1 -15   7    0.48    0.12 
   1 -15   7    1.14    0.26 
   2 -15   7    2.22    0.27 
   4  14  -7    0.31    0.30 
   3  14  -7    2.78    0.48 
  -3 -14   7    3.25    0.41 
   2  14  -7    0.98    0.41 
  -2 -14   7    1.06    0.30 
  -2 -14   7    0.72    0.14 
  -1 -14   7    7.86    0.73 
  -1 -14   7    8.36    0.79 
   0 -14   7    0.08    0.13 
   0 -14   7    0.14    0.31 
   1 -14   7    0.81    0.16 
   1 -14   7    0.96    0.33 
   2 -14   7    0.57    0.14 
   2 -14   7    0.17    0.29 
  -3  14  -7    0.26    0.20 
  -3  14  -7    0.51    0.20 
  -4  14  -7    0.23    0.17 
  -5  14  -7    1.58    0.25 
   5 -14   7    1.55    0.18 
   5  13  -7    0.01    0.32 
  -5 -13   7   -0.66    0.29 
   4  13  -7    2.63    0.40 
  -4 -13   7    2.77    0.39 
   3  13  -7    2.28    0.41 
  -3 -13   7    2.91    0.41 
  -3 -13   7    2.57    0.29 
   2  13  -7    7.83    1.08 
  -2 -13   7   11.46    0.97 
  -2 -13   7   11.05    0.91 
   1  13  -7    0.11    0.46 
  -1 -13   7    0.45    0.15 
  -1 -13   7    0.68    0.35 
   0 -13   7    0.11    0.35 
   0 -13   7    0.38    0.14 
   1 -13   7    0.99    0.18 
   1 -13   7    1.55    0.37 
   2 -13   7    0.45    0.15 
  -3  13  -7    0.12    0.19 
  -3  13  -7    0.02    0.22 
  -3  13  -7    1.06    0.61 
  -4  13  -7    2.35    0.39 
  -4  13  -7    2.41    0.41 
  -5  13  -7    1.18    0.22 
  -6  13  -7    0.27    0.12 
   6  12  -7    0.37    0.45 
   5  12  -7    3.46    0.58 
  -5 -12   7    4.37    0.53 
  -5 -12   7    4.07    0.49 
   4  12  -7    2.23    0.51 
  -4 -12   7    2.07    0.40 
   3  12  -7   22.65    2.24 
  -3 -12   7   23.33    1.98 
  -3 -12   7   21.44    1.91 
   2  12  -7    0.14    0.23 
  -2 -12   7   -0.34    0.35 
  -2 -12   7   -0.11    0.13 
   1  12  -7    0.01    0.34 
  -1 -12   7    0.08    0.13 
  -1 -12   7   -0.11    0.36 
   0  12  -7   -1.01    0.52 
   0 -12   7    0.74    0.36 
   0 -12   7    0.43    0.15 
   1 -12   7    0.72    0.17 
   1 -12   7    0.45    0.37 
  -3  12  -7    0.60    0.26 
  -3  12  -7    0.82    0.66 
  -4  12  -7    0.43    0.23 
  -4  12  -7    0.30    0.23 
  -4  12  -7    0.41    0.25 
  -5  12  -7    0.00    0.19 
  -5  12  -7   -0.04    0.18 
  -6  12  -7    0.14    0.15 
   6 -12   7    0.21    0.15 
  -7 -11   7    0.81    0.33 
  -7 -11   7    0.11    0.27 
  -7 -11   7    0.12    0.20 
   6  11  -7   10.49    1.20 
   5  11  -7   -0.57    0.44 
  -5 -11   7    0.63    0.39 
  -5 -11   7    0.85    0.37 
   4  11  -7   26.24    2.38 
  -4 -11   7   21.66    2.00 
  -4 -11   7   23.99    2.06 
   3  11  -7   -0.31    0.48 
  -3 -11   7    0.41    0.36 
  -3 -11   7   -0.07    0.38 
  -3 -11   7    0.02    0.52 
  -3 -11   7    0.41    0.15 
   2  11  -7    0.80    0.33 
   2  11  -7    0.69    0.37 
  -2 -11   7    0.82    0.17 
  -2 -11   7    0.02    0.51 
  -2 -11   7    0.11    0.38 
   1  11  -7    0.18    0.60 
   1  11  -7    0.17    0.25 
  -1 -11   7    0.46    0.48 
  -1 -11   7    0.36    0.39 
  -1 -11   7    0.03    0.36 
   0  11  -7    0.11    0.51 
   0  11  -7    0.47    0.32 
   0 -11   7    1.28    0.39 
   0 -11   7    0.50    0.49 
   0 -11   7    0.12    0.21 
   0 -11   7    0.33    0.38 
  -1  11  -7    6.77    0.80 
   1 -11   7    5.37    0.57 
  -2  11  -7    6.67    0.92 
  -3  11  -7    4.44    0.71 
  -3  11  -7    2.73    0.51 
  -4  11  -7    4.37    0.55 
  -4  11  -7    4.14    0.54 
  -4  11  -7    3.96    0.56 
   4 -11   7    4.06    0.47 
  -5  11  -7    1.77    0.33 
  -5  11  -7    2.00    0.34 
   5 -11   7    1.97    0.29 
  -6  11  -7   -0.11    0.15 
   6 -11   7    0.13    0.18 
  -7  11  -7    0.87    0.14 
   7 -11   7    0.91    0.18 
  -7 -10   7    8.46    0.70 
  -7 -10   7    6.92    0.76 
  -7 -10   7    7.76    0.69 
  -7 -10   7    7.38    0.80 
  -7 -10   7    7.27    0.81 
  -5 -10   7   31.03    2.83 
  -5 -10   7   33.24    2.71 
  -5 -10   7   32.13    2.78 
   4  10  -7    7.22    0.76 
  -4 -10   7    5.27    0.63 
  -4 -10   7    5.14    0.81 
  -4 -10   7    5.52    0.64 
  -4 -10   7    4.97    0.52 
   3  10  -7    0.10    0.48 
  -3 -10   7    0.46    0.39 
  -3 -10   7    0.79    0.16 
  -3 -10   7    0.54    0.53 
  -3 -10   7    0.88    0.34 
  -2 -10   7    0.28    0.51 
  -2 -10   7    0.00    0.37 
  -2 -10   7   -0.05    0.28 
  -2 -10   7   -0.11    0.36 
  -1 -10   7    2.16    0.44 
  -1 -10   7    1.91    0.41 
  -1 -10   7    0.75    0.53 
  -1 -10   7    2.37    0.37 
   0  10  -7    4.23    0.75 
   0 -10   7    3.24    0.49 
   0 -10   7    4.06    0.49 
   0 -10   7    2.76    0.37 
   0 -10   7    1.69    0.60 
  -1  10  -7    1.19    0.39 
  -1  10  -7    0.90    0.34 
   1 -10   7    0.93    0.41 
   1 -10   7    0.97    0.26 
  -2  10  -7   19.30    1.56 
  -2  10  -7   19.85    2.04 
   2 -10   7   21.50    1.61 
  -3  10  -7    1.46    0.33 
  -3  10  -7    1.38    0.25 
  -3  10  -7    2.32    0.63 
  -3  10  -7    2.40    0.54 
   3 -10   7    1.30    0.29 
  -4  10  -7    1.42    0.32 
  -4  10  -7    1.13    0.28 
  -4  10  -7    1.01    0.38 
   4 -10   7    0.97    0.26 
  -5  10  -7    0.17    0.21 
  -5  10  -7    0.33    0.22 
   5 -10   7    0.33    0.21 
  -6  10  -7    1.21    0.27 
  -6  10  -7    1.35    0.23 
   6 -10   7    1.01    0.24 
  -7  10  -7    9.84    0.86 
   7 -10   7    9.38    0.95 
   8 -10   7    1.99    0.24 
  -9  -9   7   -0.13    0.12 
  -8  -9   7   13.36    1.19 
  -8  -9   7   14.49    1.31 
  -7  -9   7    0.32    0.35 
  -7  -9   7    0.28    0.28 
  -7  -9   7    0.26    0.18 
  -7  -9   7   -0.13    0.20 
  -7  -9   7    0.18    0.42 
  -6  -9   7   13.40    1.42 
  -6  -9   7   13.34    1.24 
  -5  -9   7   11.18    1.21 
  -5  -9   7    8.66    0.97 
  -5  -9   7   10.59    1.02 
  -5  -9   7   10.09    0.90 
  -5  -9   7   11.62    1.06 
  -5  -9   7   11.25    0.92 
  -4  -9   7   -0.17    0.11 
  -4  -9   7    0.45    0.35 
  -4  -9   7    0.10    0.47 
  -4  -9   7    0.14    0.35 
  -3  -9   7    0.10    0.38 
  -3  -9   7    0.37    0.13 
  -3  -9   7    0.29    0.31 
  -3  -9   7    0.16    0.47 
  -2  -9   7    8.20    0.68 
  -2  -9   7    6.58    0.93 
   1   9  -7   13.40    1.33 
  -1  -9   7   13.52    1.04 
  -1  -9   7   11.48    1.35 
   0   9  -7    3.79    0.56 
   0  -9   7    3.73    0.41 
   0  -9   7    3.87    0.41 
  -1   9  -7   30.81    2.22 
  -1   9  -7   25.92    2.78 
   1  -9   7   29.48    2.48 
   1  -9   7   29.90    2.25 
  -2   9  -7   13.02    1.05 
  -2   9  -7   12.46    1.37 
   2  -9   7   12.91    1.09 
  -3   9  -7    7.46    0.90 
  -3   9  -7    8.87    0.91 
  -3   9  -7   10.08    0.81 
  -3   9  -7   10.06    1.08 
  -4   9  -7    0.19    0.36 
  -4   9  -7    0.04    0.33 
  -4   9  -7    0.19    0.21 
   4  -9   7    0.11    0.23 
  -5   9  -7    0.22    0.12 
  -5   9  -7    0.32    0.35 
  -5   9  -7    0.29    0.21 
   5  -9   7    0.12    0.22 
  -6   9  -7   15.59    1.36 
  -6   9  -7   15.11    1.36 
   6  -9   7   15.16    1.50 
  -7   9  -7    0.10    0.13 
   7  -9   7   -0.11    0.17 
   8  -9   7    0.58    0.16 
 -10  -8   7    0.04    0.13 
  -9  -8   7    5.41    0.47 
  -9  -8   7    4.97    0.56 
  -9  -8   7    4.83    0.49 
  -8  -8   7    0.91    0.56 
  -8  -8   7    0.52    0.40 
  -7  -8   7    6.20    0.55 
  -7  -8   7    5.49    0.75 
  -7  -8   7    5.79    0.65 
  -7  -8   7    5.98    0.57 
  -7  -8   7    6.28    0.68 
  -6  -8   7    4.02    0.58 
  -6  -8   7    4.02    0.48 
  -6  -8   7    3.25    0.40 
  -5  -8   7   -0.30    0.48 
  -5  -8   7   -0.18    0.29 
  -5  -8   7   -0.05    0.42 
  -5  -8   7   -0.77    0.36 
  -5  -8   7   -0.12    0.21 
  -4  -8   7    4.70    0.46 
  -4  -8   7    4.60    0.55 
  -4  -8   7    3.61    0.68 
  -3  -8   7   23.23    2.38 
  -3  -8   7   25.27    1.85 
  -3  -8   7   24.36    2.10 
  -2  -8   7   19.56    1.46 
  -2  -8   7   17.58    1.87 
  -1  -8   7    1.71    0.31 
  -1  -8   7    0.92    0.41 
  -1  -8   7    1.28    0.24 
   0   8  -7    7.59    1.91 
   0   8  -7   12.47    1.26 
   0  -8   7   12.64    1.05 
   0  -8   7   11.24    0.94 
  -1   8  -7    0.69    0.28 
  -1   8  -7    0.80    0.24 
   1  -8   7    0.57    0.27 
   1  -8   7    1.13    0.31 
  -2   8  -7   25.26    2.77 
  -2   8  -7   30.50    2.21 
   2  -8   7   30.22    2.47 
   2  -8   7   29.86    2.25 
  -3   8  -7   27.87    2.04 
  -3   8  -7   25.07    2.57 
  -4   8  -7   -0.16    0.29 
  -4   8  -7   -0.15    0.30 
  -4   8  -7    0.22    0.20 
  -4   8  -7    0.13    0.13 
  -4   8  -7    0.15    0.13 
   4  -8   7    0.23    0.23 
  -5   8  -7   14.38    1.29 
  -5   8  -7   13.32    1.19 
   5  -8   7   14.60    1.40 
  -6   8  -7    2.82    0.39 
   6  -8   7    2.54    0.36 
  -7   8  -7    0.05    0.12 
   7  -8   7    0.16    0.17 
   8  -8   7    0.01    0.15 
 -10  -7   7    2.01    0.29 
 -10  -7   7    1.60    0.20 
  -9  -7   7    3.00    0.28 
  -9  -7   7    2.64    0.52 
  -9  -7   7    2.19    0.42 
  -9  -7   7    0.85    0.70 
  -9  -7   7    2.58    0.33 
  -8  -7   7    3.96    0.75 
  -8  -7   7    4.41    0.57 
  -8  -7   7    3.25    0.59 
  -7  -7   7    4.28    0.57 
  -7  -7   7    3.54    0.63 
  -7  -7   7    3.63    0.70 
  -7  -7   7    4.35    0.42 
  -7  -7   7    4.58    0.46 
  -7  -7   7    4.36    0.53 
  -7  -7   7    4.37    0.55 
  -6  -7   7    0.46    0.25 
  -6  -7   7    1.60    0.43 
  -6  -7   7    0.86    0.40 
  -6  -7   7    0.42    0.32 
  -5  -7   7    0.07    0.35 
  -5  -7   7    0.22    0.22 
  -5  -7   7    0.99    0.46 
  -4  -7   7   28.43    2.72 
  -4  -7   7   28.15    2.43 
  -3  -7   7   49.15    4.64 
  -3  -7   7   46.71    3.67 
  -3  -7   7   53.03    4.07 
  -2  -7   7    7.16    0.87 
  -2  -7   7    7.95    0.66 
  -1  -7   7   26.06    1.97 
  -1  -7   7   25.31    2.47 
   0   7  -7    8.47    0.99 
   0  -7   7    9.71    0.84 
   0  -7   7    8.11    0.77 
  -1   7  -7    0.26    0.41 
  -1   7  -7    0.25    0.20 
  -1   7  -7    0.84    0.68 
   1  -7   7    0.18    0.28 
   1  -7   7    0.27    0.22 
  -2   7  -7   21.35    1.63 
  -2   7  -7   18.71    2.05 
   2  -7   7   22.50    1.84 
   2  -7   7   22.63    1.69 
  -3   7  -7   27.68    2.83 
  -3   7  -7   27.97    2.23 
   3  -7   7   34.24    2.53 
  -4   7  -7    3.47    0.45 
  -4   7  -7    3.34    0.35 
  -4   7  -7    3.21    0.76 
  -5   7  -7    1.41    0.40 
  -5   7  -7    0.41    0.62 
  -5   7  -7    1.01    0.36 
  -6   7  -7    1.56    0.31 
  -6   7  -7    1.75    0.35 
  -6   7  -7    1.65    0.39 
   6  -7   7    1.57    0.27 
  -7   7  -7    1.07    0.33 
  -7   7  -7    1.25    0.23 
   7  -7   7    0.82    0.22 
  -8   7  -7    2.47    0.37 
   8  -7   7    2.50    0.30 
   9  -7   7    4.11    0.43 
 -10  -6   7    0.85    0.28 
  -9  -6   7    0.70    0.36 
  -9  -6   7    0.53    0.46 
  -9  -6   7    0.63    0.17 
  -9  -6   7    0.46    0.24 
  -9  -6   7    0.67    0.36 
  -9  -6   7   -0.14    0.70 
  -9  -6   7    0.27    0.48 
  -8  -6   7    2.02    0.47 
  -8  -6   7    1.45    0.65 
  -7  -6   7    5.52    0.62 
  -7  -6   7    4.85    0.75 
  -7  -6   7    4.63    0.61 
  -7  -6   7    4.77    0.58 
  -7  -6   7    5.74    0.81 
  -7  -6   7    4.70    0.46 
  -7  -6   7    4.77    0.68 
  -7  -6   7    4.69    0.50 
  -6  -6   7    0.21    0.31 
  -6  -6   7    0.32    0.40 
  -6  -6   7    0.33    0.35 
  -6  -6   7    0.00    0.42 
  -6  -6   7    0.11    0.12 
  -5  -6   7   -0.24    0.30 
  -5  -6   7   -0.06    0.37 
  -4  -6   7   55.96    5.21 
  -4  -6   7   55.66    4.59 
  -3  -6   7   12.70    1.09 
  -3  -6   7   12.38    1.27 
  -3  -6   7   12.20    0.97 
  -3  -6   7   11.96    1.05 
  -3  -6   7   13.04    1.07 
  -2  -6   7    2.08    0.41 
  -2  -6   7    2.47    0.33 
  -2  -6   7    2.25    0.31 
  -1  -6   7    0.51    0.23 
  -1  -6   7    0.33    0.24 
   0   6  -7   29.65    2.81 
   0  -6   7   28.19    2.27 
   0  -6   7   31.15    2.49 
  -1   6  -7    0.10    0.36 
  -1   6  -7    0.15    0.64 
  -1   6  -7    0.24    0.18 
   1  -6   7    0.00    0.22 
   1  -6   7   -0.01    0.24 
  -2   6  -7   14.31    1.15 
  -2   6  -7   12.52    1.55 
   2  -6   7   16.47    1.30 
   2  -6   7   14.64    1.22 
  -3   6  -7   55.08    5.21 
  -3   6  -7   45.59    4.11 
   3  -6   7   64.88    4.55 
  -4   6  -7   -0.07    0.33 
  -4   6  -7    0.27    0.42 
  -4   6  -7   -0.12    0.25 
  -5   6  -7    0.01    0.40 
  -5   6  -7    0.25    0.45 
  -5   6  -7    0.60    0.41 
  -5   6  -7    0.01    0.34 
  -5   6  -7    0.08    0.26 
   5  -6   7    0.04    0.21 
  -6   6  -7    6.09    0.75 
  -6   6  -7    6.01    0.72 
  -6   6  -7    6.22    0.64 
   6  -6   7    6.40    0.67 
  -7   6  -7    4.27    0.50 
  -7   6  -7    3.53    0.38 
   7  -6   7    3.35    0.40 
  -8   6  -7    1.70    0.36 
   8  -6   7    1.94    0.26 
   9  -6   7    5.54    0.57 
 -10  -5   7    0.15    0.35 
 -10  -5   7    0.04    0.47 
 -10  -5   7    0.12    0.42 
  -9  -5   7   -0.05    0.46 
  -9  -5   7   -0.05    0.36 
  -9  -5   7   -0.13    0.26 
  -9  -5   7   -0.33    0.51 
  -9  -5   7   -0.05    0.24 
  -8  -5   7    6.91    0.99 
  -8  -5   7   10.02    0.90 
  -8  -5   7    8.62    0.79 
  -7  -5   7    1.81    0.51 
  -7  -5   7    1.80    0.49 
  -7  -5   7    1.58    0.41 
  -7  -5   7    2.18    0.31 
  -7  -5   7    1.54    0.59 
  -7  -5   7    2.09    0.43 
  -7  -5   7    1.51    0.51 
  -6  -5   7    1.07    0.23 
  -6  -5   7    0.39    0.47 
  -6  -5   7    0.41    0.34 
  -6  -5   7    1.18    0.38 
  -6  -5   7    0.35    0.80 
  -5  -5   7   16.21    1.60 
  -5  -5   7   16.01    1.39 
  -4  -5   7    0.51    0.34 
  -4  -5   7    0.69    0.23 
  -3  -5   7    8.52    0.79 
  -3  -5   7    9.51    0.71 
  -3  -5   7    8.77    0.78 
  -3  -5   7    8.38    0.75 
  -3  -5   7    8.98    0.92 
  -2  -5   7    4.06    0.43 
  -2  -5   7    3.37    0.39 
  -1  -5   7   19.57    1.63 
  -1  -5   7   22.57    1.79 
   0   5  -7   43.21    3.35 
   0  -5   7   48.61    3.73 
   0  -5   7   43.57    3.39 
  -1   5  -7    2.19    0.87 
  -1   5  -7    2.05    0.26 
   1  -5   7    1.98    0.36 
   1  -5   7    2.45    0.32 
  -2   5  -7    7.10    1.57 
  -2   5  -7    8.47    0.77 
   2  -5   7   10.95    0.86 
   2  -5   7    9.52    0.85 
  -3   5  -7   17.78    1.59 
   3  -5   7   23.11    1.76 
  -4   5  -7    0.36    0.23 
  -4   5  -7    0.04    0.44 
  -5   5  -7    6.37    0.75 
  -5   5  -7    7.80    0.66 
  -5   5  -7    6.11    0.56 
  -5   5  -7    7.01    0.76 
   5  -5   7    5.21    0.65 
  -6   5  -7   13.09    1.20 
  -6   5  -7   11.64    1.22 
  -6   5  -7   13.34    1.08 
   6  -5   7   12.12    1.25 
  -7   5  -7    7.21    0.72 
  -7   5  -7    6.61    0.61 
   7  -5   7    6.26    0.68 
  -8   5  -7    0.97    0.34 
   8  -5   7    0.95    0.20 
   9  -5   7    1.16    0.19 
 -10  -4   7    0.80    0.53 
 -10  -4   7    1.66    0.52 
  -9  -4   7   -0.14    0.38 
  -9  -4   7   -0.03    0.46 
  -9  -4   7    0.45    0.54 
  -9  -4   7    0.01    0.36 
  -9  -4   7    0.06    0.28 
  -9  -4   7   -0.02    0.35 
  -8  -4   7    5.20    0.72 
  -8  -4   7    6.40    0.75 
  -8  -4   7    5.09    0.73 
  -8  -4   7    6.89    0.71 
  -8  -4   7    4.65    0.74 
  -8  -4   7    5.43    0.65 
  -7  -4   7    3.22    0.46 
  -7  -4   7    4.62    0.64 
  -7  -4   7    4.58    0.71 
  -7  -4   7    4.30    0.63 
  -7  -4   7    5.48    0.61 
  -7  -4   7    4.63    0.57 
  -7  -4   7    4.00    0.44 
  -7  -4   7    4.40    0.52 
  -6  -4   7    8.91    1.04 
  -6  -4   7    9.39    0.85 
  -6  -4   7    8.96    0.86 
  -6  -4   7    9.13    0.97 
  -6  -4   7    5.99    1.32 
  -5  -4   7    0.22    0.26 
  -5  -4   7    0.15    0.32 
  -4  -4   7   -0.12    0.21 
  -4  -4   7    0.28    0.29 
  -3  -4   7    7.96    0.71 
  -3  -4   7    8.07    0.69 
  -3  -4   7    9.05    0.66 
  -3  -4   7    7.16    0.70 
  -2  -4   7   37.79    3.23 
  -2  -4   7   40.58    2.94 
   1   4  -7   -0.03    0.58 
  -1  -4   7   -0.06    0.24 
  -1  -4   7    0.16    0.21 
   0   4  -7   12.83    1.90 
   0   4  -7   12.85    1.02 
   0  -4   7   13.85    1.14 
   0  -4   7   12.32    1.06 
  -1   4  -7   37.83    3.07 
   1  -4   7   43.58    3.41 
   1  -4   7   42.12    3.13 
  -2   4  -7    4.43    0.50 
  -2   4  -7    6.53    1.29 
   2  -4   7    6.02    0.55 
   2  -4   7    5.38    0.59 
  -3   4  -7   21.22    3.33 
  -3   4  -7   20.57    1.70 
   3  -4   7   23.78    1.89 
  -4   4  -7   -0.46    0.43 
  -4   4  -7    0.06    0.21 
  -5   4  -7    2.62    0.39 
  -5   4  -7    2.50    0.32 
  -5   4  -7    1.39    0.51 
  -5   4  -7    2.50    0.47 
   5  -4   7    1.69    0.30 
  -6   4  -7    4.42    0.56 
  -6   4  -7    5.09    0.50 
  -6   4  -7    3.92    0.61 
   6  -4   7    3.80    0.48 
  -7   4  -7    7.39    0.75 
  -7   4  -7    6.82    0.63 
   7  -4   7    6.81    0.73 
  -8   4  -7   -0.15    0.30 
   8  -4   7    0.01    0.17 
   9  -4   7   -0.07    0.13 
 -11  -3   7    0.01    0.42 
 -10  -3   7    0.15    0.57 
 -10  -3   7   -0.43    0.45 
 -10  -3   7   -0.27    0.52 
 -10  -3   7   -0.41    0.48 
  -9  -3   7    0.01    0.36 
  -9  -3   7    0.18    0.55 
  -9  -3   7    0.39    0.46 
  -9  -3   7    0.04    0.14 
  -9  -3   7    0.83    0.35 
  -8  -3   7    6.59    0.80 
  -8  -3   7    6.78    0.70 
  -8  -3   7    7.48    0.85 
  -8  -3   7    7.28    0.91 
  -8  -3   7    6.91    0.84 
  -8  -3   7    8.18    0.72 
  -8  -3   7    8.10    0.76 
  -8  -3   7    6.98    0.77 
  -7  -3   7    7.87    1.09 
  -7  -3   7    9.69    0.91 
  -7  -3   7    8.86    0.88 
  -7  -3   7    9.95    0.82 
  -7  -3   7    9.18    0.87 
  -7  -3   7    5.80    1.46 
  -7  -3   7    8.91    0.99 
  -6  -3   7    0.99    0.77 
  -6  -3   7    0.42    0.30 
  -6  -3   7    0.74    0.36 
  -6  -3   7    0.58    0.33 
  -6  -3   7    1.17    0.39 
  -5  -3   7   13.74    1.37 
  -5  -3   7   12.98    1.21 
  -5  -3   7   15.15    1.49 
  -4  -3   7   -0.09    0.26 
  -4  -3   7    0.00    0.20 
  -3  -3   7   32.09    2.80 
  -3  -3   7   36.67    2.57 
  -3  -3   7   35.10    2.80 
  -3  -3   7   34.23    2.85 
  -2  -3   7    6.72    0.62 
  -2  -3   7    6.14    0.58 
  -1  -3   7    3.41    0.40 
   0   3  -7   69.38    5.48 
   0  -3   7   80.67    6.06 
   0  -3   7   72.35    5.53 
  -1   3  -7   12.55    0.99 
   1  -3   7   12.04    1.12 
   1  -3   7   12.76    1.07 
  -2   3  -7   13.59    1.16 
   2  -3   7   16.80    1.26 
   2  -3   7   14.00    1.28 
  -3   3  -7    0.79    0.24 
  -4   3  -7    2.98    0.56 
  -4   3  -7    3.45    0.38 
  -5   3  -7    1.64    0.46 
  -5   3  -7    1.61    0.33 
  -5   3  -7    0.52    0.25 
  -5   3  -7    1.06    0.38 
   5  -3   7    0.66    0.22 
  -6   3  -7    2.46    0.47 
  -6   3  -7    2.48    0.35 
  -6   3  -7    2.42    0.43 
   6  -3   7    2.07    0.34 
  -7   3  -7    3.92    0.36 
  -7   3  -7    3.57    0.49 
   7  -3   7    2.93    0.42 
  -8   3  -7   -0.03    0.29 
   8  -3   7    0.03    0.17 
 -10  -2   7   -0.33    0.58 
 -10  -2   7   -0.14    0.49 
 -10  -2   7    0.59    0.30 
 -10  -2   7    0.35    0.49 
  -9  -2   7   -0.31    0.28 
  -9  -2   7   -0.22    0.45 
  -9  -2   7   -0.19    0.36 
  -9  -2   7   -0.36    0.54 
  -9  -2   7   -0.49    0.48 
  -8  -2   7    6.38    0.61 
  -8  -2   7    6.15    0.68 
  -8  -2   7    5.02    0.74 
  -8  -2   7    7.06    0.96 
  -8  -2   7    7.66    0.85 
  -8  -2   7    6.22    0.91 
  -8  -2   7    5.85    0.74 
  -8  -2   7    5.16    0.73 
  -7  -2   7    2.30    0.44 
  -7  -2   7    2.53    0.40 
  -7  -2   7    4.09    0.62 
  -7  -2   7    3.65    0.53 
  -7  -2   7    3.09    0.50 
  -6  -2   7   27.78    2.59 
  -6  -2   7   28.41    2.83 
  -6  -2   7   25.79    2.31 
  -5  -2   7    1.89    0.32 
  -5  -2   7    2.15    0.37 
  -4  -2   7   33.53    2.78 
  -3  -2   7   15.46    1.27 
  -3  -2   7   14.89    1.17 
  -3  -2   7   14.53    1.25 
  -3  -2   7   15.03    1.26 
  -3  -2   7   15.20    1.17 
  -2  -2   7    9.31    0.79 
  -2  -2   7    9.18    0.81 
  -2  -2   7    9.06    0.79 
  -1  -2   7    8.40    0.75 
   0   2  -7    3.56    0.35 
   0  -2   7    3.53    0.45 
  -1   2  -7   60.48    4.41 
   1  -2   7   57.77    4.50 
  -2   2  -7    3.27    0.38 
   2  -2   7    3.99    0.51 
  -3   2  -7    8.99    0.78 
  -4   2  -7    6.55    0.73 
  -4   2  -7    6.02    0.59 
  -5   2  -7    1.16    0.36 
  -5   2  -7    1.21    0.28 
  -5   2  -7    0.68    0.20 
  -5   2  -7    1.69    0.42 
  -5   2  -7    0.68    0.38 
   5  -2   7    1.16    0.26 
  -6   2  -7    1.95    0.32 
  -6   2  -7    2.23    0.38 
  -6   2  -7    1.68    0.42 
   6  -2   7    1.81    0.32 
  -7   2  -7    2.08    0.36 
  -7   2  -7    1.61    0.28 
   7  -2   7    1.67    0.29 
  -8   2  -7    1.47    0.31 
   8  -2   7    1.53    0.24 
 -10  -1   7    0.98    0.32 
 -10  -1   7    0.62    0.56 
 -10  -1   7    1.04    0.50 
 -10  -1   7    0.87    0.56 
 -10  -1   7    0.93    0.39 
  -9  -1   7    3.17    0.67 
  -9  -1   7    3.20    0.77 
  -9  -1   7    3.67    0.51 
  -9  -1   7    4.26    0.46 
  -9  -1   7    3.85    0.70 
  -9  -1   7    3.55    0.63 
  -9  -1   7    3.02    0.65 
  -8  -1   7    0.38    0.35 
  -8  -1   7   -0.24    0.62 
  -8  -1   7   -0.27    0.49 
  -8  -1   7    0.15    0.46 
  -8  -1   7    0.35    0.29 
  -8  -1   7    0.19    0.44 
  -8  -1   7   -0.48    0.45 
  -7  -1   7   44.25    4.23 
  -7  -1   7   49.10    4.61 
  -7  -1   7   41.58    3.75 
  -6  -1   7   -0.24    0.29 
  -6  -1   7    0.52    0.35 
  -5  -1   7   32.69    2.73 
  -4  -1   7   45.68    3.77 
  -3  -1   7   -0.46    0.22 
  -3  -1   7    0.15    0.16 
  -3  -1   7    0.01    0.16 
  -3  -1   7   -0.12    0.14 
  -3  -1   7   -0.20    0.19 
  -2  -1   7    0.12    0.24 
  -2  -1   7   -0.02    0.15 
  -2  -1   7    0.02    0.14 
  -1  -1   7    1.56    0.32 
   0   1  -7   84.11    6.20 
   0  -1   7   83.88    6.27 
  -1   1  -7    2.41    0.29 
   1  -1   7    2.18    0.39 
  -2   1  -7    0.51    0.20 
   2  -1   7    0.67    0.30 
  -3   1  -7    0.01    0.17 
   3  -1   7    0.16    0.17 
  -4   1  -7    0.17    0.34 
  -4   1  -7    0.74    0.35 
  -4   1  -7    0.47    0.21 
  -5   1  -7   -0.05    0.33 
  -5   1  -7    0.00    0.32 
  -5   1  -7   -0.01    0.32 
   5  -1   7    0.29    0.23 
  -6   1  -7    1.44    0.37 
  -6   1  -7    1.55    0.30 
  -6   1  -7    1.04    0.35 
   6  -1   7    1.67    0.31 
  -7   1  -7    8.15    0.71 
  -7   1  -7    8.42    0.77 
   7  -1   7    6.92    0.84 
  -8   1  -7   -0.06    0.23 
   8  -1   7   -0.19    0.14 
 -11   0   7    0.13    0.49 
 -10   0   7   14.32    1.19 
 -10   0   7   13.40    1.54 
 -10   0   7   12.62    1.25 
  -9   0   7    0.24    0.39 
  -9   0   7   -0.26    0.34 
  -9   0   7   -0.43    0.52 
  -9   0   7   -0.01    0.46 
  -9   0   7   -0.31    0.53 
  -9   0   7   -0.97    0.60 
  -9   0   7   -0.40    0.51 
  -8   0   7   18.86    1.56 
  -8   0   7   18.03    1.64 
  -8   0   7   15.47    1.71 
  -8   0   7   17.92    1.65 
  -8   0   7   21.06    1.87 
  -7   0   7    1.86    0.44 
  -7   0   7    3.00    0.52 
  -6   0   7   13.94    1.24 
  -6   0   7   10.34    1.09 
  -5   0   7   14.30    1.24 
  -4   0   7    5.61    0.53 
  -4   0   7    5.36    0.50 
  -3   0   7   17.73    1.43 
  -3   0   7   16.78    1.41 
  -3   0   7   16.42    1.32 
  -3   0   7   16.23    1.33 
  -2   0   7   10.16    0.89 
  -2   0   7   10.77    0.90 
  -2   0   7   10.69    0.85 
  -1   0   7    1.66    0.23 
  -1   0   7    1.30    0.33 
   0   0  -7   12.21    0.97 
   0   0   7   12.03    0.98 
   0   0   7   12.04    1.04 
  -1   0  -7   14.52    1.04 
   1   0   7   10.40    1.06 
   1   0   7   14.65    1.13 
  -2   0  -7    0.95    0.22 
   2   0   7    0.95    0.32 
   2   0   7    0.81    0.19 
  -3   0  -7    1.00    0.25 
  -4   0  -7    0.08    0.28 
  -4   0  -7    0.09    0.33 
  -4   0  -7    0.13    0.16 
  -4   0  -7    0.00    0.30 
   4   0   7    0.19    0.23 
  -5   0  -7    0.96    0.29 
  -5   0  -7    1.27    0.34 
  -5   0  -7    1.21    0.35 
   5   0   7    0.87    0.28 
  -6   0  -7   20.99    1.80 
  -6   0  -7   19.47    1.69 
  -6   0  -7   19.49    1.80 
  -6   0  -7   22.62    1.67 
   6   0   7   18.59    2.01 
  -7   0  -7    0.03    0.22 
   7   0   7   -0.02    0.21 
   8   0   7    3.08    0.36 
 -11   1   7    1.99    0.51 
 -10   1   7    0.00    0.33 
 -10   1   7    1.26    0.61 
  -9   1   7   23.99    2.30 
  -9   1   7   18.42    1.94 
  -9   1   7   22.38    1.91 
  -9   1   7   19.87    1.93 
  -8   1   7    1.02    0.49 
  -8   1   7    1.23    0.51 
  -8   1   7    1.12    0.34 
  -8   1   7    0.96    0.61 
  -7   1   7    6.42    0.74 
  -7   1   7    7.55    0.83 
  -6   1   7   11.39    1.04 
  -5   1   7    0.31    0.27 
  -4   1   7   30.18    2.40 
  -4   1   7   31.77    2.58 
  -3   1   7    8.84    0.74 
  -3   1   7    9.19    0.77 
  -3   1   7    8.07    0.77 
  -3   1   7    8.55    0.76 
  -2   1   7    4.24    0.42 
  -2   1   7    4.47    0.51 
  -1   1   7   -0.06    0.27 
  -1   1   7    0.06    0.16 
   0  -1  -7    6.21    0.53 
   0   1   7    6.43    0.63 
   0   1   7    5.65    0.54 
  -1  -1  -7    4.44    0.43 
   1   1   7    3.11    0.39 
   1   1   7    4.94    0.53 
  -2  -1  -7    3.51    0.37 
   2   1   7    3.24    0.45 
   2   1   7    2.40    0.32 
  -3  -1  -7    6.08    0.66 
  -3  -1  -7    6.57    0.62 
  -4  -1  -7    0.25    0.29 
  -4  -1  -7   -0.01    0.13 
   4   1   7    0.07    0.22 
  -5  -1  -7   20.45    1.81 
  -5  -1  -7   19.64    1.70 
   5   1   7   20.40    2.00 
  -6  -1  -7    0.24    0.25 
  -6  -1  -7    0.06    0.18 
  -6  -1  -7    0.38    0.22 
   6   1   7    0.21    0.25 
  -7  -1  -7    6.02    0.51 
   7   1   7    4.92    0.60 
 -11   2   7    0.96    0.49 
 -10   2   7    2.40    0.31 
 -10   2   7    3.81    0.49 
  -9   2   7    9.54    0.90 
  -9   2   7    9.71    1.01 
  -9   2   7    9.44    0.79 
  -9   2   7    8.07    1.02 
  -8   2   7    6.41    0.88 
  -8   2   7    5.01    0.62 
  -8   2   7    6.19    0.74 
  -8   2   7    6.17    0.53 
  -7   2   7    3.25    0.51 
  -6   2   7    0.20    0.31 
  -5   2   7   16.96    1.39 
  -5   2   7   14.64    1.33 
  -4   2   7    1.17    0.28 
  -4   2   7    1.18    0.29 
  -4   2   7    1.05    0.25 
  -4   2   7    0.90    0.21 
  -3   2   7   14.33    1.25 
  -3   2   7   15.83    1.23 
  -2   2   7    2.64    0.42 
  -2   2   7    2.65    0.32 
  -1   2   7   13.45    1.12 
  -1   2   7   14.55    1.17 
   0  -2  -7    3.05    0.34 
   0   2   7    2.63    0.32 
   0   2   7    3.27    0.47 
  -1  -2  -7    3.55    0.40 
   1   2   7    3.05    0.35 
   1   2   7    3.73    0.52 
  -2  -2  -7    8.58    0.76 
  -3  -2  -7   -0.06    0.15 
  -3  -2  -7   -0.10    0.31 
  -3  -2  -7   -0.04    0.15 
  -4  -2  -7   29.89    2.95 
  -4  -2  -7   35.73    2.81 
   4   2   7   35.73    3.32 
  -5  -2  -7    0.44    0.30 
  -5  -2  -7    0.79    0.20 
  -5  -2  -7    0.72    0.29 
  -5  -2  -7    0.97    0.25 
   5   2   7    0.43    0.29 
  -6  -2  -7    4.39    0.43 
  -6  -2  -7    4.68    0.40 
  -6  -2  -7    3.99    0.42 
   6   2   7    3.38    0.50 
  -7  -2  -7    2.35    0.26 
   7   2   7    1.80    0.28 
 -11   3   7    0.82    0.54 
 -10   3   7    2.36    0.35 
 -10   3   7    1.30    0.30 
  -9   3   7    3.70    0.37 
  -9   3   7    2.95    0.75 
  -8   3   7   13.15    1.09 
  -8   3   7   11.22    1.13 
  -8   3   7   13.99    1.49 
  -7   3   7   -0.19    0.42 
  -7   3   7    0.12    0.12 
  -6   3   7   12.83    1.17 
  -5   3   7    0.11    0.17 
  -4   3   7    1.34    0.24 
  -4   3   7    1.01    0.33 
  -4   3   7    0.58    0.30 
  -3   3   7    5.35    0.61 
  -3   3   7    5.75    0.56 
  -2   3   7   53.93    3.94 
  -2   3   7   49.84    3.96 
  -1   3   7    3.73    0.54 
  -1   3   7    3.65    0.41 
   0  -3  -7    2.46    0.34 
   0   3   7    2.02    0.49 
   0   3   7    2.73    0.34 
  -1  -3  -7   22.37    1.68 
   1   3   7   19.85    1.77 
  -2  -3  -7    0.42    0.31 
  -2  -3  -7    0.58    0.23 
  -3  -3  -7   24.05    2.03 
  -3  -3  -7   21.91    2.13 
   3   3   7   25.77    2.38 
  -4  -3  -7    3.21    0.37 
  -4  -3  -7    3.02    0.44 
  -4  -3  -7    3.50    0.41 
   4   3   7    3.19    0.46 
  -5  -3  -7    7.01    0.63 
  -5  -3  -7    6.21    0.67 
  -5  -3  -7    7.19    0.69 
  -5  -3  -7    6.69    0.61 
   5   3   7    6.65    0.74 
  -6  -3  -7    3.70    0.34 
  -6  -3  -7    3.83    0.37 
   6   3   7    2.96    0.42 
 -11   4   7    0.00    0.50 
 -10   4   7   -0.75    0.32 
 -10   4   7   -0.20    0.54 
  -9   4   7    3.43    0.51 
  -9   4   7    4.92    0.59 
  -8   4   7    2.21    0.67 
  -8   4   7    2.47    0.54 
  -8   4   7    1.56    0.26 
  -7   4   7    4.10    0.81 
  -7   4   7    4.98    0.47 
  -5   4   7    3.38    0.41 
  -4   4   7    0.04    0.35 
  -4   4   7    0.06    0.17 
  -3   4   7   21.35    1.82 
  -3   4   7   24.04    1.84 
  -2   4   7   11.77    1.12 
  -2   4   7   12.29    1.05 
  -1   4   7    5.29    0.65 
  -1   4   7    4.18    0.50 
   0  -4  -7   17.65    1.32 
   0   4   7   16.51    1.44 
   0   4   7   14.58    1.33 
  -1  -4  -7    0.35    0.28 
   1   4   7    1.46    0.47 
   1   4   7    0.61    0.21 
  -2  -4  -7   12.27    1.11 
   2   4   7   10.83    1.00 
   2   4   7   11.97    1.20 
  -3  -4  -7    9.28    0.90 
  -3  -4  -7    8.59    0.94 
   3   4   7   10.71    1.02 
  -4  -4  -7    6.68    0.69 
  -4  -4  -7    6.92    0.62 
  -4  -4  -7    7.18    0.65 
   4   4   7    6.45    0.75 
  -5  -4  -7    4.72    0.43 
  -5  -4  -7    4.49    0.42 
  -5  -4  -7    4.07    0.45 
  -5  -4  -7    4.51    0.48 
   5   4   7    3.93    0.51 
  -6  -4  -7   -0.05    0.16 
   6   4   7    0.07    0.17 
 -11   5   7    0.12    0.27 
 -11   5   7    0.46    0.20 
 -10   5   7    2.21    0.42 
 -10   5   7    2.51    0.30 
  -9   5   7    0.81    0.57 
  -9   5   7    0.35    0.14 
  -8   5   7    0.16    0.37 
  -8   5   7    0.04    0.20 
  -7   5   7    0.66    0.58 
  -7   5   7    0.50    0.16 
  -6   5   7    7.12    0.69 
  -6   5   7    6.15    0.90 
  -5   5   7    0.46    0.16 
  -5   5   7    0.01    0.32 
  -4   5   7    5.53    0.67 
  -4   5   7    5.96    0.62 
  -3   5   7    2.01    0.38 
  -3   5   7    2.09    0.54 
  -2   5   7    0.08    0.50 
  -2   5   7    0.52    0.32 
  -1   5   7   13.79    1.40 
  -1   5   7   16.63    1.42 
   0  -5  -7    2.08    0.40 
   0  -5  -7    2.70    0.39 
   0   5   7    2.06    0.30 
   0   5   7    2.26    0.56 
   1   5   7   13.66    1.16 
  -2  -5  -7   10.51    1.04 
  -2  -5  -7   10.85    0.99 
   2   5   7   11.05    0.94 
  -3  -5  -7    9.77    0.80 
  -3  -5  -7    8.35    0.82 
  -3  -5  -7    6.52    0.75 
   3   5   7    9.87    0.92 
  -4  -5  -7   -0.02    0.17 
  -4  -5  -7    0.37    0.23 
  -4  -5  -7    0.29    0.20 
  -4  -5  -7    0.23    0.24 
   4   5   7    0.15    0.24 
  -5  -5  -7   -0.02    0.13 
  -5  -5  -7    0.09    0.15 
  -5  -5  -7    0.13    0.16 
  -5  -5  -7    0.12    0.18 
 -11   6   7   -0.21    0.10 
 -11   6   7    0.08    0.16 
 -10   6   7    0.08    0.19 
 -10   6   7    0.04    0.32 
  -9   6   7   -0.21    0.17 
  -9   6   7    0.03    0.12 
  -8   6   7    0.96    0.59 
  -8   6   7    0.75    0.17 
  -7   6   7    1.47    0.24 
  -7   6   7    1.93    0.62 
  -6   6   7    1.06    0.54 
  -6   6   7    0.98    0.21 
   5  -6  -7    9.48    0.99 
  -5   6   7    8.11    1.10 
   4  -6  -7   13.49    1.35 
  -4   6   7   13.09    1.19 
  -4   6   7   12.06    1.46 
   3  -6  -7    1.01    0.36 
  -3   6   7    1.05    0.26 
  -3   6   7    1.23    0.35 
  -3   6   7    1.16    0.53 
   2  -6  -7    1.44    0.34 
  -2   6   7    0.68    0.26 
  -2   6   7    0.70    0.35 
   1  -6  -7    1.70    0.36 
   1  -6  -7    1.75    0.40 
  -1   6   7    1.60    0.39 
  -1   6   7    2.00    0.30 
   0  -6  -7   12.21    1.12 
   0   6   7   12.09    1.04 
  -1  -6  -7    0.36    0.35 
   1   6   7    0.38    0.22 
  -2  -6  -7   23.49    2.02 
   2   6   7   22.90    1.92 
  -3  -6  -7    8.82    0.76 
  -3  -6  -7    7.94    0.73 
  -3  -6  -7    6.81    0.67 
  -4  -6  -7    0.17    0.16 
  -4  -6  -7    0.30    0.20 
  -4  -6  -7    0.15    0.15 
 -10   7   7    0.38    0.17 
 -10   7   7    0.51    0.14 
  -9   7   7    0.76    0.35 
  -9   7   7    0.30    0.19 
  -8   7   7   -0.19    0.54 
  -8   7   7   -0.43    0.37 
   7  -7  -7    0.20    0.31 
  -7   7   7    0.43    0.55 
  -7   7   7    0.46    0.16 
   6  -7  -7    7.12    0.79 
  -6   7   7    7.30    0.94 
   5  -7  -7    8.02    0.80 
  -5   7   7    5.88    0.69 
  -5   7   7    7.76    0.95 
   4  -7  -7   -0.13    0.35 
  -4   7   7   -0.31    0.51 
  -4   7   7   -0.12    0.33 
  -4   7   7   -0.18    0.29 
   3  -7  -7   -0.06    0.33 
  -3   7   7    0.01    0.33 
  -3   7   7    0.23    0.23 
   2  -7  -7   -0.24    0.30 
   2  -7  -7   -1.36    0.29 
  -2   7   7   -0.05    0.22 
   1  -7  -7   17.19    1.53 
  -1   7   7   17.19    1.45 
  -1   7   7   17.24    1.55 
   0  -7  -7    0.03    0.29 
   0   7   7   -0.51    0.30 
   0   7   7    0.16    0.21 
  -1  -7  -7    5.75    0.58 
   1   7   7    4.86    0.50 
  -2  -7  -7    8.61    0.84 
   2   7   7    9.04    0.79 
  -3  -7  -7    1.98    0.27 
  -3  -7  -7    2.37    0.31 
  -9   8   7    0.16    0.13 
  -9   8   7    0.29    0.16 
   8  -8  -7    1.89    0.31 
  -8   8   7    1.00    0.53 
  -8   8   7    1.41    0.27 
   7  -8  -7    1.70    0.35 
  -7   8   7    2.08    0.55 
   6  -8  -7    1.88    0.37 
  -6   8   7    1.25    0.54 
   5  -8  -7    0.56    0.32 
  -5   8   7    1.45    0.50 
  -5   8   7    0.40    0.26 
   4  -8  -7    3.90    0.51 
  -4   8   7    4.95    0.45 
  -4   8   7    4.29    0.68 
  -4   8   7    2.64    0.45 
   3  -8  -7    1.71    0.32 
  -3   8   7    1.59    0.33 
  -3   8   7    1.59    0.39 
   2  -8  -7    6.20    0.67 
   2  -8  -7    7.41    0.69 
  -2   8   7    5.33    0.58 
  -2   8   7    5.96    0.67 
   1  -8  -7    2.71    0.38 
  -1   8   7    2.10    0.33 
  -1   8   7    2.48    0.41 
   0  -8  -7    3.82    0.44 
   0   8   7    3.32    0.44 
   0   8   7    2.94    0.37 
  -1  -8  -7    2.35    0.35 
   1   8   7    2.92    0.34 
  -2  -8  -7    0.89    0.21 
  -2  -8  -7    1.02    0.24 
   2   8   7    1.08    0.25 
  -8   9   7    4.54    0.55 
   7  -9  -7    0.62    0.27 
  -7   9   7    1.00    0.45 
   6  -9  -7    0.50    0.29 
  -6   9   7    0.81    0.47 
   5  -9  -7    0.62    0.28 
  -5   9   7    0.58    0.16 
  -5   9   7    0.65    0.45 
   4  -9  -7   -0.76    0.26 
   4  -9  -7   -0.07    0.35 
  -4   9   7   -0.37    0.41 
  -4   9   7   -0.06    0.24 
   3  -9  -7   17.79    1.53 
   3  -9  -7   16.45    1.69 
  -3   9   7   17.75    1.44 
   2  -9  -7    0.20    0.34 
  -2   9   7    1.68    0.36 
  -2   9   7    0.25    0.19 
   1  -9  -7    1.01    0.28 
  -1   9   7    0.97    0.21 
  -1   9   7    0.86    0.33 
   0   9   7    1.42    0.23 
   0   9   7    1.18    0.32 
   1   9   7    0.62    0.22 
  -7  10   7    2.13    0.43 
  -6  10   7    0.93    0.38 
  -5  10   7    0.65    0.37 
  -4  10   7    5.00    0.53 
  -3  10   7   -0.23    0.20 
  -3  10   7    0.73    0.21 
  -2  10   7    0.67    0.41 
  -1  10   7   -0.23    0.15 
  -1 -15   8    0.92    0.26 
  -1 -15   8    0.58    0.11 
   0 -15   8    1.44    0.27 
   0 -15   8    1.19    0.20 
   1 -15   8    2.03    0.25 
   2 -15   8    0.25    0.11 
   3 -15   8    7.27    0.62 
  -4 -14   8    0.26    0.26 
   3  14  -8    2.77    0.53 
  -3 -14   8    3.47    0.43 
  -2 -14   8    0.01    0.30 
  -2 -14   8    0.13    0.10 
  -1 -14   8   -0.14    0.31 
  -1 -14   8    0.18    0.12 
   0 -14   8    5.37    0.61 
   0 -14   8    6.15    0.56 
   1 -14   8    0.65    0.15 
   2 -14   8    4.27    0.44 
  -3  14  -8    0.85    0.21 
  -4  14  -8    0.13    0.14 
   4 -14   8   -0.02    0.06 
   6  13  -8    7.26    0.78 
   5  13  -8   -0.31    0.33 
  -5 -13   8    0.20    0.29 
   4  13  -8    3.17    0.55 
  -4 -13   8    4.04    0.48 
   3  13  -8   -0.15    0.27 
  -3 -13   8    0.09    0.34 
  -3 -13   8    0.11    0.10 
   2  13  -8   -0.18    0.31 
  -2 -13   8    0.33    0.13 
  -2 -13   8    0.40    0.34 
   1  13  -8    4.11    0.67 
  -1 -13   8    4.49    0.52 
  -1 -13   8    3.62    0.42 
   0 -13   8    1.38    0.26 
   0 -13   8    1.44    0.38 
   1 -13   8   12.79    1.13 
  -2  13  -8    0.57    0.24 
   2 -13   8    0.20    0.14 
  -3  13  -8    0.43    0.20 
  -3  13  -8    0.22    0.20 
  -3  13  -8    0.25    0.22 
  -4  13  -8    0.72    0.21 
   4 -13   8    0.75    0.22 
  -5  13  -8    3.03    0.37 
   5 -13   8    2.58    0.27 
   6  12  -8    0.21    0.34 
  -6 -12   8   -0.03    0.35 
   5  12  -8    5.81    0.78 
  -5 -12   8    6.56    0.70 
  -5 -12   8    6.72    0.65 
   4  12  -8    1.10    0.46 
  -4 -12   8    0.65    0.33 
  -4 -12   8    0.62    0.38 
   3  12  -8    2.96    0.60 
  -3 -12   8    3.08    0.46 
  -3 -12   8    3.11    0.34 
   2  12  -8    0.08    0.35 
  -2 -12   8   -0.09    0.13 
  -2 -12   8   -0.48    0.34 
   1  12  -8    0.58    0.36 
  -1 -12   8    0.22    0.15 
  -1 -12   8   -0.79    0.36 
   0  12  -8   27.46    2.81 
   0 -12   8   26.39    2.36 
   0 -12   8   28.72    2.41 
   1 -12   8    2.10    0.31 
  -2  12  -8    0.06    0.23 
   2 -12   8    0.18    0.15 
  -3  12  -8    5.47    0.61 
  -3  12  -8    5.01    0.62 
  -3  12  -8    5.44    0.64 
  -4  12  -8    0.22    0.20 
  -4  12  -8    0.48    0.22 
   4 -12   8    0.68    0.24 
  -5  12  -8    0.39    0.19 
   5 -12   8    0.47    0.22 
  -6  12  -8    0.31    0.14 
   6 -12   8    0.00    0.07 
  -7 -11   8    2.88    0.43 
  -7 -11   8    2.15    0.36 
  -7 -11   8    2.29    0.25 
   6  11  -8   10.51    1.14 
  -6 -11   8   10.62    1.03 
  -6 -11   8   10.83    0.99 
  -6 -11   8   10.37    0.92 
   5  11  -8    9.14    0.96 
  -5 -11   8    7.60    0.80 
  -5 -11   8    7.47    0.85 
   4  11  -8    6.02    0.82 
  -4 -11   8    6.69    0.67 
  -4 -11   8    5.53    0.71 
   3  11  -8    2.23    0.55 
  -3 -11   8    1.70    0.40 
  -3 -11   8    1.33    0.25 
   2  11  -8    0.86    0.50 
  -2 -11   8    0.41    0.15 
  -2 -11   8    0.34    0.51 
  -2 -11   8    0.20    0.38 
   1  11  -8    5.26    0.74 
   1  11  -8    5.22    0.76 
  -1 -11   8    6.90    0.67 
  -1 -11   8    6.53    0.70 
   0  11  -8    7.15    0.85 
   0  11  -8    5.61    0.88 
   0 -11   8    7.24    0.74 
   1 -11   8    9.55    0.89 
  -2  11  -8    3.76    0.61 
   2 -11   8    5.16    0.51 
  -3  11  -8    0.23    0.23 
  -3  11  -8    0.30    0.21 
  -3  11  -8    0.42    0.27 
   3 -11   8   -0.36    0.27 
  -4  11  -8    2.81    0.44 
  -4  11  -8    2.32    0.43 
   4 -11   8    2.32    0.36 
  -5  11  -8    1.47    0.26 
   5 -11   8    0.78    0.28 
   5 -11   8    1.09    0.23 
  -6  11  -8    1.55    0.22 
   6 -11   8    0.97    0.20 
   6 -11   8    0.65    0.24 
   7 -11   8    0.33    0.08 
  -8 -10   8    0.00    0.23 
  -8 -10   8    0.08    0.30 
  -7 -10   8    5.54    0.67 
  -7 -10   8    5.50    0.55 
  -7 -10   8    4.90    0.61 
  -7 -10   8    5.66    0.52 
  -6 -10   8    9.01    0.89 
  -6 -10   8    9.54    0.81 
  -6 -10   8    8.30    0.94 
  -6 -10   8    9.26    0.83 
  -5 -10   8   21.42    1.93 
  -5 -10   8   22.61    1.98 
   4  10  -8   -0.96    0.50 
  -4 -10   8    0.27    0.51 
  -4 -10   8   -0.25    0.40 
  -4 -10   8    0.02    0.37 
  -4 -10   8    0.07    0.12 
   3  10  -8    2.92    0.59 
  -3 -10   8    1.85    0.58 
  -3 -10   8    2.27    0.30 
  -3 -10   8    1.66    0.44 
   2  10  -8   10.74    1.00 
  -2 -10   8    8.47    0.73 
  -2 -10   8    7.90    0.82 
  -2 -10   8    7.87    0.83 
  -2 -10   8    4.73    0.98 
   1  10  -8    2.58    0.50 
   1  10  -8    3.53    0.61 
  -1 -10   8    2.62    0.46 
  -1 -10   8    3.23    0.50 
  -1 -10   8    2.72    0.41 
  -1 -10   8    2.02    0.58 
   0  10  -8   32.67    2.82 
   0  10  -8   24.83    2.82 
   0 -10   8   28.56    2.45 
  -1  10  -8   14.97    1.56 
  -1  10  -8   12.64    1.68 
   1 -10   8   16.74    1.37 
   1 -10   8   16.09    1.30 
   1 -10   8   12.37    1.18 
  -2  10  -8    6.04    0.79 
   2 -10   8    4.80    0.55 
  -3  10  -8    0.11    0.38 
  -3  10  -8    0.63    0.25 
  -4  10  -8    0.16    0.22 
   4 -10   8   -0.01    0.23 
  -5  10  -8    0.32    0.20 
   5 -10   8    0.24    0.21 
  -6  10  -8    1.96    0.32 
   6 -10   8    1.76    0.26 
  -7  10  -8    4.95    0.49 
   7 -10   8    5.70    0.55 
  -9  -9   8    0.01    0.11 
  -8  -9   8    5.48    0.59 
  -8  -9   8    5.05    0.64 
  -7  -9   8    1.20    0.23 
  -7  -9   8    1.30    0.40 
  -7  -9   8    0.57    0.38 
  -7  -9   8    1.44    0.47 
  -7  -9   8    1.71    0.32 
  -6  -9   8   23.18    2.18 
  -6  -9   8   22.43    2.17 
  -6  -9   8   26.45    2.10 
  -6  -9   8   27.63    2.06 
  -6  -9   8   24.43    2.24 
  -5  -9   8   14.81    1.86 
  -5  -9   8   18.35    1.61 
  -5  -9   8   18.08    1.66 
  -5  -9   8   19.33    1.50 
  -4  -9   8   11.48    1.39 
  -4  -9   8   12.77    1.13 
  -4  -9   8   12.06    1.24 
  -4  -9   8   14.00    1.12 
  -4  -9   8   13.56    1.20 
  -3  -9   8    5.43    0.82 
  -3  -9   8    5.29    0.67 
  -3  -9   8    6.34    0.57 
  -2  -9   8    4.14    0.74 
  -2  -9   8    5.98    0.54 
   1   9  -8   11.29    1.13 
  -1  -9   8    8.43    1.15 
  -1  -9   8   11.54    0.90 
   0   9  -8   11.72    1.15 
   0  -9   8    7.98    0.77 
  -1   9  -8    7.98    0.67 
  -1   9  -8    9.07    0.96 
   1  -9   8    7.13    0.71 
  -2   9  -8    2.10    0.49 
  -2   9  -8    1.26    0.23 
   2  -9   8    1.70    0.41 
  -3   9  -8    1.21    0.28 
  -3   9  -8    1.70    0.46 
  -3   9  -8    0.43    0.16 
   3  -9   8    1.02    0.27 
  -4   9  -8    5.13    0.55 
  -4   9  -8    3.87    0.41 
   4  -9   8    4.60    0.52 
  -5   9  -8    0.75    0.21 
   5  -9   8    0.34    0.22 
  -6   9  -8    7.47    0.70 
   6  -9   8    7.00    0.74 
  -7   9  -8   -0.06    0.11 
  -9  -8   8    7.09    0.61 
  -9  -8   8    4.66    0.50 
  -9  -8   8    7.76    0.69 
  -9  -8   8    5.77    0.52 
  -8  -8   8    2.68    0.51 
  -8  -8   8    1.73    0.48 
  -8  -8   8    2.16    0.42 
  -8  -8   8    1.95    0.25 
  -7  -8   8   10.04    1.01 
  -7  -8   8   11.00    1.03 
  -7  -8   8   11.17    0.93 
  -7  -8   8   10.65    1.04 
  -7  -8   8   10.59    0.94 
  -7  -8   8   10.88    1.10 
  -6  -8   8   12.57    1.20 
  -6  -8   8   10.03    1.34 
  -6  -8   8   13.18    1.16 
  -6  -8   8   11.78    1.14 
  -6  -8   8   11.67    1.05 
  -6  -8   8   12.41    1.05 
  -6  -8   8   13.32    1.13 
  -5  -8   8    4.04    0.61 
  -5  -8   8    4.11    0.42 
  -5  -8   8    4.27    0.52 
  -5  -8   8    4.35    0.49 
  -5  -8   8    3.85    0.53 
  -5  -8   8    4.60    0.56 
  -5  -8   8    4.79    0.73 
  -4  -8   8    8.41    0.74 
  -4  -8   8    8.02    0.85 
  -4  -8   8    7.24    0.96 
  -4  -8   8    7.92    0.80 
  -3  -8   8   -0.69    0.41 
  -2  -8   8   41.98    3.37 
  -2  -8   8   47.53    3.72 
   1   8  -8    3.00    0.47 
  -1  -8   8    3.23    0.43 
  -1  -8   8    3.05    0.35 
   0   8  -8    7.64    0.85 
   0  -8   8    7.41    0.68 
   0  -8   8    4.97    0.59 
  -1   8  -8    3.46    0.55 
  -1   8  -8    4.27    0.43 
   1  -8   8    3.87    0.49 
   1  -8   8    3.86    0.50 
  -2   8  -8    0.90    0.30 
  -2   8  -8    1.17    0.37 
   2  -8   8    0.62    0.36 
  -3   8  -8    0.38    0.31 
  -3   8  -8    0.42    0.33 
  -3   8  -8    0.11    0.21 
  -4   8  -8   15.04    1.39 
  -4   8  -8   15.84    1.58 
   4  -8   8   15.18    1.51 
  -5   8  -8   28.04    2.56 
  -5   8  -8   34.12    2.80 
   5  -8   8   34.49    3.14 
  -6   8  -8    0.05    0.17 
   6  -8   8   -0.26    0.20 
  -7   8  -8    0.08    0.11 
   7  -8   8    0.00    0.17 
   8  -8   8    0.14    0.15 
  -9  -7   8    2.81    0.39 
  -9  -7   8    4.47    0.57 
  -9  -7   8    3.35    0.59 
  -9  -7   8    3.93    0.36 
  -9  -7   8    4.06    0.49 
  -8  -7   8   10.27    1.06 
  -8  -7   8    9.00    0.89 
  -8  -7   8    9.96    0.98 
  -8  -7   8   10.66    0.99 
  -8  -7   8   10.24    0.87 
  -8  -7   8   10.96    1.00 
  -7  -7   8   21.12    1.87 
  -7  -7   8   17.49    2.04 
  -7  -7   8   20.09    1.68 
  -7  -7   8   19.53    1.70 
  -7  -7   8   20.72    1.80 
  -7  -7   8   22.26    1.80 
  -7  -7   8   20.08    1.78 
  -6  -7   8   10.78    0.95 
  -6  -7   8   11.00    1.10 
  -6  -7   8   11.25    1.04 
  -6  -7   8   10.71    0.95 
  -6  -7   8   11.96    1.06 
  -6  -7   8   10.79    1.05 
  -6  -7   8   11.14    1.22 
  -5  -7   8   14.89    1.47 
  -5  -7   8   13.22    1.18 
  -5  -7   8   14.39    1.27 
  -5  -7   8   13.90    1.33 
  -4  -7   8    0.60    0.31 
  -4  -7   8    0.32    0.39 
  -3  -7   8   15.53    1.37 
  -3  -7   8   17.93    1.26 
  -3  -7   8   14.94    1.64 
  -2  -7   8   21.36    1.70 
  -2  -7   8   22.66    1.89 
   1   7  -8   27.47    4.06 
  -1  -7   8   29.97    2.23 
   0   7  -8    0.24    0.70 
   0  -7   8    0.39    0.24 
   0  -7   8    0.11    0.27 
  -1   7  -8    2.44    0.31 
   1  -7   8    1.96    0.38 
   1  -7   8    2.63    0.37 
  -2   7  -8    0.31    0.25 
   2  -7   8    0.70    0.28 
   2  -7   8    0.58    0.33 
  -3   7  -8   -0.11    0.27 
  -3   7  -8   -0.10    0.18 
  -4   7  -8   46.06    4.11 
  -4   7  -8   48.08    3.62 
  -4   7  -8   49.05    4.21 
   4  -7   8   49.42    4.63 
  -5   7  -8    2.19    0.37 
  -5   7  -8    1.58    0.38 
  -5   7  -8    2.28    0.43 
   5  -7   8    1.62    0.30 
  -6   7  -8   -0.24    0.34 
  -6   7  -8   -0.21    0.14 
   6  -7   8   -0.04    0.19 
  -7   7  -8    0.85    0.16 
  -7   7  -8    1.01    0.31 
   7  -7   8    1.08    0.22 
   8  -7   8    1.89    0.24 
  -9  -6   8    3.32    0.41 
  -9  -6   8    4.37    0.52 
  -9  -6   8    3.87    0.36 
  -9  -6   8    3.94    0.60 
  -9  -6   8    3.42    0.61 
  -8  -6   8    9.47    0.95 
  -8  -6   8    9.81    0.92 
  -8  -6   8    9.79    1.00 
  -8  -6   8    8.65    0.81 
  -8  -6   8    8.93    0.78 
  -8  -6   8    8.45    0.91 
  -7  -6   8    4.82    0.76 
  -7  -6   8    5.71    0.73 
  -7  -6   8    5.23    0.60 
  -7  -6   8    5.28    0.64 
  -7  -6   8    4.74    0.47 
  -7  -6   8    5.95    0.84 
  -7  -6   8    4.95    0.52 
  -7  -6   8    6.28    0.64 
  -6  -6   8    5.15    0.73 
  -6  -6   8    5.80    0.56 
  -6  -6   8    6.69    0.87 
  -6  -6   8    6.36    0.67 
  -6  -6   8    5.37    0.65 
  -6  -6   8    5.95    0.76 
  -5  -6   8    4.94    0.52 
  -5  -6   8    4.62    0.55 
  -5  -6   8    4.16    0.68 
  -5  -6   8    5.24    0.48 
  -4  -6   8   22.18    2.27 
  -4  -6   8   24.32    1.97 
  -3  -6   8    1.18    0.27 
  -3  -6   8    0.77    0.24 
  -3  -6   8    0.62    0.22 
  -3  -6   8    0.56    0.11 
  -2  -6   8   47.34    3.85 
  -2  -6   8   56.15    4.27 
   1   6  -8    5.89    1.16 
  -1  -6   8    4.48    0.50 
  -1  -6   8    3.72    0.47 
   0   6  -8    0.07    0.76 
   0  -6   8    0.09    0.25 
   0  -6   8    0.15    0.23 
  -1   6  -8   15.17    2.02 
  -1   6  -8   10.88    0.93 
   1  -6   8   12.30    1.06 
   1  -6   8    9.73    0.99 
  -2   6  -8    1.33    0.28 
   2  -6   8    1.91    0.33 
   2  -6   8    1.04    0.37 
  -3   6  -8   56.61    4.60 
  -3   6  -8   48.36    3.93 
  -4   6  -8   10.23    1.00 
  -4   6  -8    9.01    0.92 
  -4   6  -8    9.34    0.82 
   4  -6   8    9.69    0.97 
  -5   6  -8    4.31    0.64 
  -5   6  -8    4.42    0.61 
  -5   6  -8    4.41    0.53 
   5  -6   8    4.25    0.49 
  -6   6  -8    0.18    0.35 
  -6   6  -8    0.32    0.38 
   6  -6   8    0.15    0.19 
  -7   6  -8    2.30    0.41 
  -7   6  -8    2.50    0.29 
   7  -6   8    2.58    0.33 
  -8   6  -8    5.42    0.56 
   8  -6   8    5.22    0.55 
 -10  -5   8    1.27    0.52 
  -9  -5   8    8.06    0.98 
  -9  -5   8    8.54    0.96 
  -9  -5   8    9.88    0.90 
  -9  -5   8    6.90    0.95 
  -9  -5   8   10.63    0.85 
  -8  -5   8   -0.36    0.45 
  -8  -5   8   -0.24    0.37 
  -8  -5   8    0.54    0.45 
  -8  -5   8    0.23    0.43 
  -8  -5   8    0.09    0.50 
  -8  -5   8    0.28    0.26 
  -7  -5   8   12.69    1.32 
  -7  -5   8    9.68    1.00 
  -7  -5   8   10.01    1.06 
  -7  -5   8   10.20    1.12 
  -7  -5   8   10.71    0.95 
  -7  -5   8   11.47    1.05 
  -7  -5   8   12.56    1.12 
  -7  -5   8   11.41    1.20 
  -6  -5   8    0.73    0.35 
  -6  -5   8    0.78    0.48 
  -6  -5   8    0.69    0.41 
  -6  -5   8    0.79    0.26 
  -6  -5   8    1.27    0.35 
  -5  -5   8    7.30    0.73 
  -5  -5   8    8.32    0.87 
  -5  -5   8    7.59    0.76 
  -4  -5   8    9.28    0.93 
  -4  -5   8    8.18    0.78 
  -3  -5   8    6.74    0.63 
  -3  -5   8    7.27    0.68 
  -3  -5   8    7.81    0.69 
  -3  -5   8    8.50    0.64 
  -2  -5   8   37.06    2.80 
  -1  -5   8   10.12    0.89 
  -1  -5   8    8.64    0.81 
   0   5  -8   39.51    5.23 
   0  -5   8   36.38    2.97 
   0  -5   8   41.48    3.27 
  -1   5  -8    2.82    0.34 
  -1   5  -8    3.47    1.03 
   1  -5   8    2.61    0.42 
   1  -5   8    3.07    0.39 
  -2   5  -8   27.13    2.41 
  -2   5  -8   33.82    4.53 
   2  -5   8   32.43    2.68 
   2  -5   8   35.77    2.49 
  -3   5  -8   -0.04    0.24 
   3  -5   8    0.34    0.28 
  -4   5  -8    9.98    0.87 
  -4   5  -8    9.24    1.08 
  -4   5  -8   11.99    1.08 
   4  -5   8   10.01    1.02 
  -5   5  -8    3.48    0.58 
  -5   5  -8    3.36    0.56 
  -5   5  -8    3.67    0.50 
   5  -5   8    3.29    0.41 
  -6   5  -8    3.20    0.50 
  -6   5  -8    2.49    0.44 
   6  -5   8    2.60    0.37 
  -7   5  -8    5.88    0.53 
  -7   5  -8    5.69    0.63 
   7  -5   8    5.43    0.60 
  -8   5  -8    0.80    0.28 
   8  -5   8    0.65    0.18 
 -10  -4   8    3.73    0.66 
 -10  -4   8    3.44    0.62 
 -10  -4   8    3.37    0.43 
 -10  -4   8    4.78    0.47 
  -9  -4   8    0.09    0.48 
  -9  -4   8    0.55    0.48 
  -9  -4   8    0.49    0.33 
  -9  -4   8    0.53    0.29 
  -8  -4   8   -0.11    0.49 
  -8  -4   8    0.52    0.35 
  -8  -4   8    0.96    0.48 
  -8  -4   8    0.43    0.59 
  -8  -4   8    0.13    0.30 
  -8  -4   8   -0.01    0.44 
  -8  -4   8    1.15    0.40 
  -7  -4   8    0.00    0.31 
  -7  -4   8   -0.32    0.50 
  -7  -4   8   -0.19    0.45 
  -7  -4   8   -0.06    0.35 
  -7  -4   8   -0.01    0.32 
  -7  -4   8   -0.32    0.41 
  -7  -4   8    0.22    0.41 
  -6  -4   8   36.24    3.06 
  -6  -4   8   39.97    3.73 
  -6  -4   8   34.25    2.95 
  -6  -4   8   35.84    3.45 
  -6  -4   8   36.39    3.11 
  -5  -4   8   -0.28    0.32 
  -5  -4   8   -0.02    0.25 
  -4  -4   8    0.63    0.23 
  -3  -4   8    8.57    0.74 
  -3  -4   8    8.32    0.76 
  -3  -4   8    8.41    0.71 
  -3  -4   8    8.83    0.76 
  -2  -4   8   10.19    0.85 
  -1  -4   8   70.02    5.22 
   0   4  -8    0.36    0.20 
   0  -4   8    0.52    0.28 
   0  -4   8    0.30    0.27 
   1  -4   8  141.88   10.72 
   1  -4   8  148.07   11.80 
  -2   4  -8    1.70    0.29 
   2  -4   8    1.79    0.39 
  -3   4  -8    7.44    0.69 
  -4   4  -8    2.20    0.56 
  -4   4  -8    2.93    0.54 
  -4   4  -8    2.41    0.37 
   4  -4   8    2.74    0.35 
  -5   4  -8    6.50    0.72 
  -5   4  -8    5.08    0.77 
  -5   4  -8    6.16    0.64 
   5  -4   8    6.14    0.67 
  -6   4  -8    8.43    0.75 
  -6   4  -8    6.74    0.78 
   6  -4   8    6.33    0.75 
  -7   4  -8    0.58    0.33 
  -7   4  -8    1.10    0.19 
   7  -4   8    0.54    0.20 
  -8   4  -8    0.95    0.29 
   8  -4   8    1.13    0.20 
 -10  -3   8    1.64    0.31 
 -10  -3   8    0.59    0.52 
 -10  -3   8    0.98    0.55 
  -9  -3   8    3.07    0.61 
  -9  -3   8    3.74    0.65 
  -9  -3   8    3.72    0.72 
  -9  -3   8    4.94    0.49 
  -9  -3   8    3.79    0.46 
  -8  -3   8    1.32    0.56 
  -8  -3   8    1.54    0.44 
  -8  -3   8    1.56    0.46 
  -8  -3   8    1.11    0.41 
  -8  -3   8    0.82    0.35 
  -8  -3   8    1.51    0.51 
  -8  -3   8    1.83    0.51 
  -8  -3   8    1.69    0.35 
  -8  -3   8    1.40    0.67 
  -8  -3   8    1.81    0.53 
  -7  -3   8   14.91    1.25 
  -7  -3   8   15.75    1.35 
  -7  -3   8   15.74    1.50 
  -7  -3   8   17.98    1.67 
  -7  -3   8   14.10    1.34 
  -7  -3   8   12.22    1.41 
  -7  -3   8   13.13    1.25 
  -6  -3   8    0.66    0.31 
  -6  -3   8    0.84    0.34 
  -6  -3   8    0.64    0.37 
  -5  -3   8    0.56    0.26 
  -4  -3   8   10.18    0.90 
  -3  -3   8    4.96    0.47 
  -3  -3   8    4.92    0.46 
  -3  -3   8    4.38    0.46 
  -3  -3   8    5.06    0.48 
  -2  -3   8   80.92    6.72 
  -2  -3   8   83.04    6.08 
  -1  -3   8   -0.25    0.25 
   0   3  -8   82.73    6.28 
   0  -3   8   87.31    6.34 
  -1   3  -8    1.22    0.27 
   1  -3   8    1.55    0.38 
  -2   3  -8    7.51    0.72 
   2  -3   8    9.06    0.83 
  -3   3  -8    0.10    0.24 
  -3   3  -8    1.03    0.43 
  -4   3  -8    2.14    0.49 
  -4   3  -8    2.13    0.33 
  -4   3  -8    1.16    0.42 
   4  -3   8    1.90    0.32 
  -5   3  -8    9.15    0.84 
  -5   3  -8    8.73    0.87 
  -5   3  -8    7.39    0.72 
   5  -3   8    6.84    0.83 
  -6   3  -8    0.14    0.30 
  -6   3  -8    0.06    0.35 
   6  -3   8    0.13    0.21 
  -7   3  -8    2.26    0.24 
  -7   3  -8    1.57    0.34 
   7  -3   8    1.36    0.27 
   8  -3   8    0.00    0.12 
 -10  -2   8    4.99    0.74 
 -10  -2   8    4.54    0.69 
  -9  -2   8    0.87    0.31 
  -9  -2   8    0.78    0.50 
  -9  -2   8   -0.14    0.56 
  -9  -2   8    1.14    0.43 
  -9  -2   8    1.09    0.51 
  -8  -2   8    4.05    0.72 
  -8  -2   8    3.73    0.61 
  -8  -2   8    3.17    0.69 
  -8  -2   8    3.23    0.57 
  -8  -2   8    4.72    0.80 
  -8  -2   8    3.31    0.43 
  -8  -2   8    3.48    0.51 
  -8  -2   8    3.36    0.56 
  -7  -2   8   -0.23    0.44 
  -7  -2   8    0.43    0.45 
  -7  -2   8   -0.05    0.40 
  -7  -2   8    0.13    0.36 
  -7  -2   8    0.30    0.29 
  -7  -2   8    0.10    0.15 
  -6  -2   8    4.62    0.54 
  -5  -2   8   60.25    4.97 
  -4  -2   8   11.20    0.98 
  -3  -2   8   16.67    1.41 
  -3  -2   8   15.42    1.31 
  -3  -2   8   17.07    1.31 
  -3  -2   8   16.97    1.39 
  -3  -2   8   16.88    1.41 
  -2  -2   8    5.99    0.50 
  -2  -2   8    5.61    0.56 
  -2  -2   8    5.03    0.51 
  -1  -2   8   72.17    5.40 
   0   2  -8   11.15    0.97 
   0  -2   8   13.67    1.07 
  -1   2  -8   23.34    1.85 
   1  -2   8   24.95    1.95 
  -2   2  -8    3.90    0.43 
   2  -2   8    3.22    0.53 
  -3   2  -8    0.03    0.22 
  -3   2  -8    0.17    0.39 
  -4   2  -8    0.99    0.39 
  -4   2  -8    1.62    0.30 
  -4   2  -8    1.15    0.40 
  -4   2  -8    2.12    0.43 
   4  -2   8    1.37    0.30 
  -5   2  -8    1.48    0.37 
  -5   2  -8    1.71    0.39 
  -5   2  -8    1.58    0.40 
   5  -2   8    1.07    0.30 
  -6   2  -8    6.61    0.63 
  -6   2  -8    6.40    0.65 
  -6   2  -8    5.81    0.57 
   6  -2   8    5.26    0.67 
  -7   2  -8   -0.06    0.26 
   7  -2   8    0.04    0.16 
   8  -2   8    1.81    0.23 
 -10  -1   8   -0.09    0.51 
 -10  -1   8    0.13    0.20 
 -10  -1   8    0.00    0.47 
  -9  -1   8    4.35    0.66 
  -9  -1   8    3.67    0.69 
  -9  -1   8    5.23    0.79 
  -9  -1   8    3.33    0.64 
  -9  -1   8    4.06    0.58 
  -8  -1   8    1.31    0.59 
  -8  -1   8    2.18    0.56 
  -8  -1   8    1.04    0.41 
  -8  -1   8    0.73    0.51 
  -8  -1   8    0.67    0.44 
  -8  -1   8    1.00    0.33 
  -8  -1   8    1.25    0.46 
  -7  -1   8    0.85    0.47 
  -7  -1   8    1.98    0.43 
  -6  -1   8   12.61    1.14 
  -5  -1   8   22.67    1.91 
  -4  -1   8   44.56    3.68 
  -3  -1   8    4.04    0.45 
  -3  -1   8    4.32    0.41 
  -3  -1   8    4.01    0.40 
  -3  -1   8    4.09    0.44 
  -3  -1   8    3.72    0.40 
  -2  -1   8   17.63    1.34 
  -2  -1   8   16.15    1.43 
  -2  -1   8   17.54    1.38 
  -1  -1   8    2.55    0.40 
  -1  -1   8    2.83    0.31 
  -1  -1   8    2.22    0.27 
   0   1  -8    2.97    0.34 
   0  -1   8    2.97    0.44 
  -1   1  -8   14.39    1.16 
   1  -1   8   14.65    1.27 
  -2   1  -8    0.19    0.22 
   2  -1   8    0.09    0.17 
   2  -1   8    0.28    0.29 
  -3   1  -8    4.27    0.55 
  -3   1  -8    2.99    0.46 
  -3   1  -8    3.55    0.44 
  -4   1  -8    9.40    0.89 
  -4   1  -8   11.29    0.94 
  -4   1  -8    8.73    0.94 
   4  -1   8    8.25    0.98 
  -5   1  -8    1.94    0.40 
  -5   1  -8    2.98    0.43 
  -5   1  -8    2.70    0.42 
   5  -1   8    2.96    0.39 
  -6   1  -8   -0.05    0.29 
  -6   1  -8   -0.10    0.25 
  -6   1  -8    0.11    0.23 
   6  -1   8    0.05    0.18 
  -7   1  -8    6.41    0.53 
  -7   1  -8    5.80    0.57 
   7  -1   8    5.00    0.60 
 -11   0   8   -0.07    0.16 
 -10   0   8    4.12    0.58 
  -9   0   8    5.28    0.78 
  -9   0   8    3.51    0.64 
  -9   0   8    4.02    0.65 
  -9   0   8    3.61    0.68 
  -8   0   8    3.82    0.68 
  -8   0   8    4.10    0.76 
  -8   0   8    4.26    0.60 
  -7   0   8    5.66    0.81 
  -7   0   8    7.44    0.74 
  -6   0   8    2.54    0.40 
  -5   0   8   41.62    3.45 
  -4   0   8    1.00    0.24 
  -4   0   8    0.80    0.24 
  -3   0   8    4.24    0.45 
  -3   0   8    3.23    0.38 
  -3   0   8    3.76    0.39 
  -3   0   8    3.90    0.38 
  -2   0   8   -0.07    0.18 
  -2   0   8    0.27    0.28 
  -1   0   8    2.80    0.31 
  -1   0   8    2.43    0.43 
   0   0  -8   14.73    1.11 
   0   0   8   13.73    1.21 
   0   0   8   13.52    1.15 
  -1   0  -8    0.87    0.22 
   1   0   8    0.36    0.31 
   1   0   8    0.53    0.19 
  -2   0  -8    3.49    0.41 
   2   0   8    2.85    0.37 
   2   0   8    4.11    0.52 
  -3   0  -8    4.71    0.53 
  -3   0  -8    4.80    0.56 
  -4   0  -8    5.79    0.67 
   4   0   8    7.23    0.73 
  -5   0  -8    0.00    0.29 
  -5   0  -8    0.30    0.25 
   5   0   8    0.15    0.21 
  -6   0  -8    6.56    0.56 
  -6   0  -8    5.77    0.61 
   6   0   8    5.33    0.63 
  -7   0  -8    1.90    0.24 
   7   0   8    1.23    0.22 
 -11   1   8    2.30    0.39 
 -10   1   8    6.09    0.90 
  -9   1   8    5.42    0.85 
  -8   1   8    5.76    0.69 
  -8   1   8    5.52    0.83 
  -8   1   8    4.93    0.45 
  -7   1   8    0.70    0.48 
  -7   1   8    0.95    0.39 
  -6   1   8   18.74    1.63 
  -5   1   8   10.03    0.92 
  -4   1   8   11.17    0.96 
  -4   1   8   12.25    1.00 
  -4   1   8   10.49    0.92 
  -3   1   8   -0.41    0.28 
  -3   1   8    0.15    0.20 
  -2   1   8    0.50    0.32 
  -2   1   8    0.16    0.20 
  -1   1   8    2.52    0.31 
  -1   1   8    1.85    0.43 
   0  -1  -8    2.86    0.35 
   0   1   8    2.53    0.46 
   0   1   8    2.33    0.32 
  -1  -1  -8   23.60    1.57 
   1   1   8   21.13    1.65 
   1   1   8   15.55    1.58 
  -2  -1  -8    2.91    0.44 
  -2  -1  -8    3.39    0.41 
   2   1   8    2.84    0.50 
  -3  -1  -8    3.03    0.46 
  -3  -1  -8    3.90    0.51 
   3   1   8    4.44    0.48 
  -4  -1  -8    1.49    0.33 
  -4  -1  -8    1.06    0.32 
   4   1   8    2.04    0.31 
  -5  -1  -8    5.20    0.52 
  -5  -1  -8    6.39    0.50 
  -5  -1  -8    5.28    0.60 
   5   1   8    4.00    0.58 
  -6  -1  -8    1.24    0.19 
  -6  -1  -8    1.38    0.24 
  -6  -1  -8    1.17    0.23 
   6   1   8    0.85    0.25 
   7   1   8    2.32    0.29 
 -11   2   8    0.44    0.19 
 -10   2   8    1.47    0.58 
 -10   2   8    0.61    0.13 
  -9   2   8   10.13    1.16 
  -9   2   8    9.08    0.80 
  -8   2   8    0.06    0.44 
  -8   2   8   -0.04    0.19 
  -8   2   8   -0.03    0.10 
  -7   2   8   13.31    1.26 
  -7   2   8   13.83    1.16 
  -6   2   8    4.63    0.55 
  -5   2   8    0.74    0.21 
  -5   2   8    1.49    0.33 
  -4   2   8    1.32    0.31 
  -3   2   8    8.14    0.83 
  -3   2   8    8.85    0.77 
  -2   2   8   12.28    1.02 
  -2   2   8   12.04    1.09 
  -1   2   8   -0.17    0.36 
  -1   2   8    0.10    0.21 
   0  -2  -8   25.75    1.93 
   0   2   8   23.84    1.95 
   0   2   8   25.36    2.04 
  -1  -2  -8    0.39    0.25 
   1   2   8   -0.34    0.37 
  -2  -2  -8    0.05    0.30 
  -2  -2  -8    0.19    0.25 
   2   2   8    0.36    0.23 
   2   2   8    0.27    0.19 
  -3  -2  -8    1.49    0.34 
  -3  -2  -8    1.40    0.32 
   3   2   8    1.23    0.30 
  -4  -2  -8   14.42    1.30 
  -4  -2  -8   15.84    1.40 
  -4  -2  -8   14.94    1.27 
   4   2   8   15.42    1.53 
  -5  -2  -8    0.85    0.24 
  -5  -2  -8    0.90    0.25 
  -5  -2  -8    1.22    0.20 
   5   2   8    0.68    0.26 
  -6  -2  -8    2.43    0.26 
  -6  -2  -8    3.29    0.30 
   6   2   8    1.96    0.32 
 -11   3   8   -0.08    0.49 
 -11   3   8    0.06    0.10 
 -10   3   8    2.55    0.29 
 -10   3   8    2.50    0.43 
  -9   3   8    0.00    0.12 
  -9   3   8    0.07    0.20 
  -8   3   8   10.06    1.08 
  -8   3   8   10.59    0.92 
  -8   3   8   11.48    1.28 
  -7   3   8    0.40    0.59 
  -7   3   8   -0.05    0.26 
  -7   3   8    0.99    0.44 
  -5   3   8    0.34    0.20 
  -4   3   8    1.14    0.39 
  -4   3   8    1.22    0.34 
  -3   3   8   14.65    1.30 
  -3   3   8   17.10    1.36 
  -2   3   8    4.70    0.59 
  -2   3   8    3.39    0.46 
  -1   3   8   17.75    1.56 
  -1   3   8   18.25    1.47 
   0  -3  -8   20.80    1.49 
   0   3   8   16.53    1.66 
   0   3   8   19.42    1.61 
  -1  -3  -8   10.99    0.90 
   1   3   8    9.90    1.01 
   1   3   8    9.65    0.88 
  -2  -3  -8    1.15    0.36 
   2   3   8    1.11    0.24 
  -3  -3  -8    7.58    0.70 
  -3  -3  -8    6.56    0.74 
   3   3   8    7.44    0.79 
  -4  -3  -8    3.49    0.40 
  -4  -3  -8    3.38    0.45 
  -4  -3  -8    3.47    0.38 
   4   3   8    3.68    0.46 
  -5  -3  -8    1.67    0.24 
  -5  -3  -8    1.73    0.25 
  -5  -3  -8    1.82    0.28 
  -5  -3  -8    1.65    0.22 
   5   3   8    1.17    0.27 
 -11   4   8    0.79    0.22 
 -10   4   8    0.25    0.13 
 -10   4   8    0.02    0.50 
  -9   4   8    2.30    0.40 
  -9   4   8    2.94    0.45 
  -8   4   8   -0.23    0.13 
  -8   4   8   -0.02    0.57 
  -7   4   8    9.96    0.94 
  -7   4   8   10.92    1.25 
  -6   4   8    3.16    0.36 
  -6   4   8    3.07    0.65 
  -5   4   8    0.08    0.30 
  -5   4   8    0.39    0.14 
  -4   4   8    2.28    0.36 
  -4   4   8    1.75    0.47 
  -3   4   8    5.07    0.67 
  -3   4   8    4.87    0.55 
  -2   4   8   24.59    2.04 
  -2   4   8   24.88    2.16 
  -1   4   8    1.95    0.58 
  -1   4   8    1.57    0.30 
  -1   4   8    1.68    0.38 
   0  -4  -8   26.04    2.03 
   0   4   8   25.26    2.16 
   0   4   8   27.00    2.29 
   0   4   8   25.79    2.15 
   1   4   8    6.91    0.63 
  -2  -4  -8    2.02    0.37 
   2   4   8    1.49    0.26 
  -3  -4  -8   -0.09    0.25 
  -3  -4  -8    0.06    0.23 
  -3  -4  -8   -0.17    0.18 
   3   4   8    0.19    0.18 
  -4  -4  -8    3.02    0.38 
  -4  -4  -8    2.47    0.30 
  -4  -4  -8    2.81    0.34 
  -4  -4  -8    2.81    0.35 
  -5  -4  -8    8.42    0.67 
  -5  -4  -8    8.63    0.68 
  -5  -4  -8    6.97    0.69 
  -5  -4  -8    7.23    0.71 
 -11   5   8    0.12    0.10 
 -11   5   8   -0.14    0.15 
 -10   5   8    4.33    0.41 
 -10   5   8    3.88    0.54 
  -9   5   8    0.12    0.18 
  -9   5   8   -0.11    0.12 
  -8   5   8    5.55    0.62 
  -8   5   8    5.62    0.85 
  -7   5   8    2.45    0.33 
  -7   5   8    2.44    0.66 
  -6   5   8    2.76    0.66 
  -6   5   8    3.07    0.45 
   5  -5  -8   23.69    2.34 
  -5   5   8   23.50    2.05 
   4  -5  -8    0.03    0.39 
  -4   5   8    0.06    0.30 
   3  -5  -8    2.62    0.48 
  -3   5   8    2.70    0.58 
  -3   5   8    2.83    0.42 
  -3   5   8    2.56    0.32 
   2  -5  -8    6.56    0.76 
  -2   5   8    6.30    0.60 
  -2   5   8    6.63    0.69 
   1  -5  -8   18.24    1.81 
  -1   5   8   19.83    1.63 
  -1   5   8   16.88    1.52 
   0   5   8    0.15    0.20 
   0   5   8   -0.08    0.31 
   1   5   8   25.11    2.07 
  -2  -5  -8   -0.06    0.27 
  -2  -5  -8   -0.10    0.27 
   2   5   8    0.04    0.19 
  -3  -5  -8    0.49    0.24 
  -3  -5  -8    0.39    0.22 
  -3  -5  -8    0.39    0.18 
   3   5   8    0.39    0.22 
  -4  -5  -8    9.04    0.78 
  -4  -5  -8    7.52    0.72 
  -4  -5  -8    8.55    0.79 
  -4  -5  -8    9.04    0.74 
 -10   6   8   -0.13    0.12 
 -10   6   8    0.07    0.16 
  -9   6   8    1.32    0.23 
  -9   6   8    1.02    0.25 
  -8   6   8    0.42    0.54 
  -8   6   8    0.69    0.16 
  -7   6   8   -0.60    0.40 
  -7   6   8   -0.22    0.55 
   6  -6  -8   10.30    1.05 
  -6   6   8    9.29    1.19 
   5  -6  -8    9.34    0.86 
  -5   6   8    6.33    0.72 
  -5   6   8    7.59    0.96 
   4  -6  -8    6.47    0.76 
  -4   6   8    6.44    0.68 
   3  -6  -8    6.33    0.69 
  -3   6   8    5.96    0.65 
  -3   6   8    5.63    0.56 
   2  -6  -8   17.50    1.86 
  -2   6   8   21.00    1.67 
  -2   6   8   18.31    1.56 
   1  -6  -8    0.29    0.21 
  -1   6   8    0.15    0.21 
  -1   6   8    0.02    0.32 
   0   6   8    8.19    0.79 
   0   6   8    7.70    0.71 
   1   6   8   13.41    1.14 
  -2  -6  -8    0.44    0.19 
  -2  -6  -8    0.64    0.26 
   2   6   8    0.51    0.21 
  -3  -6  -8   -0.14    0.21 
  -3  -6  -8    0.23    0.15 
  -3  -6  -8    0.31    0.18 
   3   6   8    0.34    0.22 
 -10   7   8    0.91    0.19 
  -9   7   8    0.66    0.14 
  -9   7   8    0.21    0.17 
   8  -7  -8   -0.21    0.25 
  -8   7   8    0.08    0.49 
  -8   7   8   -0.47    0.34 
   7  -7  -8    0.70    0.29 
  -7   7   8    0.40    0.52 
   6  -7  -8   -0.03    0.32 
  -6   7   8    0.36    0.51 
   5  -7  -8   11.70    1.17 
  -5   7   8   10.80    1.28 
   4  -7  -8    1.43    0.38 
  -4   7   8    1.96    0.39 
   3  -7  -8    2.04    0.37 
  -3   7   8    1.96    0.28 
  -3   7   8    1.69    0.38 
   2  -7  -8    0.85    0.30 
   2  -7  -8   -0.07    0.28 
  -2   7   8   -0.10    0.20 
  -2   7   8   -0.08    0.32 
   1  -7  -8    9.95    0.92 
  -1   7   8   10.01    0.94 
  -1   7   8    9.75    0.86 
   0   7   8    1.60    0.34 
   0   7   8    2.00    0.27 
  -2  -7  -8    2.49    0.32 
  -2  -7  -8    2.35    0.32 
   2   7   8    2.88    0.33 
  -9   8   8   -0.09    0.13 
   8  -8  -8    0.43    0.24 
  -8   8   8    0.88    0.42 
   7  -8  -8   -0.13    0.26 
  -7   8   8   -0.03    0.45 
   6  -8  -8    3.76    0.50 
  -6   8   8    4.56    0.65 
   5  -8  -8    4.79    0.58 
  -5   8   8    4.80    0.54 
  -5   8   8    5.33    0.68 
   4  -8  -8    2.15    0.33 
  -4   8   8    1.18    0.29 
   3  -8  -8    0.02    0.26 
   3  -8  -8   -0.01    0.37 
  -3   8   8    0.29    0.24 
  -3   8   8   -0.07    0.34 
   2  -8  -8    4.96    0.54 
  -2   8   8    6.14    0.60 
  -2   8   8    5.10    0.50 
   1  -8  -8    3.61    0.42 
  -1   8   8    3.55    0.45 
  -1   8   8    3.08    0.36 
   0   8   8    2.05    0.27 
   0   8   8    2.12    0.35 
  -7   9   8    1.08    0.41 
   6  -9  -8    1.85    0.30 
  -6   9   8    1.37    0.43 
   5  -9  -8    0.46    0.24 
  -5   9   8    0.78    0.38 
   4  -9  -8    0.29    0.23 
   4  -9  -8    0.94    0.31 
  -4   9   8    0.18    0.29 
   3  -9  -8    3.88    0.46 
  -3   9   8    2.80    0.40 
  -3   9   8    3.97    0.38 
  -2   9   8    1.91    0.27 
  -2   9   8    1.36    0.27 
  -1   9   8    2.88    0.32 
  -1   9   8    2.52    0.39 
   0   9   8    7.04    0.60 
  -1 -15   9    3.85    0.37 
   0 -15   9   -0.02    0.06 
   0 -15   9   -0.18    0.09 
   1 -15   9    2.93    0.32 
   1 -15   9    3.05    0.31 
   2 -15   9    0.04    0.15 
   4  14  -9   -0.29    0.24 
  -4 -14   9    0.45    0.26 
   3  14  -9    0.06    0.36 
  -3 -14   9    0.67    0.29 
   2  14  -9    8.73    1.08 
  -2 -14   9   10.28    0.92 
  -2 -14   9    9.90    0.85 
  -1 -14   9    4.76    0.45 
  -1 -14   9    4.36    0.51 
   0 -14   9    1.24    0.23 
   1 -14   9    0.74    0.15 
   2 -14   9    4.79    0.47 
  -3  14  -9    0.64    0.18 
   3 -14   9   -0.04    0.19 
   3 -14   9    0.48    0.13 
   4 -14   9    2.81    0.29 
   5  13  -9    1.30    0.39 
   4  13  -9    0.22    0.39 
  -4 -13   9    0.47    0.34 
   3  13  -9   -0.08    0.28 
  -3 -13   9    0.03    0.34 
  -3 -13   9   -0.15    0.10 
   2  13  -9    5.71    0.78 
  -2 -13   9    7.11    0.63 
  -2 -13   9    7.16    0.70 
   1  13  -9   20.02    2.19 
  -1 -13   9   22.04    1.83 
  -1 -13   9   21.19    1.87 
   0 -13   9    0.03    0.13 
   1 -13   9    4.34    0.45 
   2 -13   9    0.49    0.14 
  -3  13  -9   -0.41    0.16 
   3 -13   9   -0.20    0.20 
  -4  13  -9    7.43    0.70 
   4 -13   9    7.10    0.63 
  -5  13  -9    2.21    0.31 
   6  12  -9    0.18    0.35 
  -6 -12   9    0.14    0.33 
   5  12  -9    1.31    0.44 
  -5 -12   9    1.87    0.40 
  -5 -12   9    1.43    0.35 
   4  12  -9    1.01    0.47 
  -4 -12   9    1.83    0.41 
   3  12  -9    0.48    0.46 
  -3 -12   9   -0.13    0.37 
  -3 -12   9    0.41    0.12 
   2  12  -9   16.82    1.91 
  -2 -12   9   18.97    1.62 
  -2 -12   9   20.24    1.68 
  -1 -12   9   17.34    1.54 
  -1 -12   9   16.72    1.48 
   0  12  -9    1.18    0.56 
   0 -12   9    0.63    0.18 
   1 -12   9    1.50    0.28 
   2 -12   9    0.27    0.27 
   2 -12   9    0.28    0.15 
  -3  12  -9    0.45    0.22 
   3 -12   9    0.72    0.27 
   3 -12   9    0.38    0.25 
  -4  12  -9    1.23    0.24 
   4 -12   9    0.61    0.26 
   4 -12   9    1.68    0.25 
  -5  12  -9    3.83    0.41 
   5 -12   9    2.70    0.35 
   6 -12   9    0.60    0.17 
  -8 -11   9    5.85    0.51 
  -7 -11   9    1.92    0.22 
   6  11  -9   -0.03    0.41 
  -6 -11   9   -0.26    0.24 
  -6 -11   9    0.38    0.32 
  -6 -11   9    0.04    0.40 
   5  11  -9    5.49    0.71 
  -5 -11   9    4.31    0.56 
  -5 -11   9    5.35    0.63 
  -5 -11   9    4.79    0.46 
   4  11  -9    8.00    0.95 
  -4 -11   9    7.45    0.83 
   3  11  -9    5.45    0.76 
  -3 -11   9    4.73    0.62 
  -3 -11   9    5.25    0.51 
   2  11  -9    5.62    0.77 
  -2 -11   9    4.47    0.49 
  -2 -11   9    4.69    0.58 
   1  11  -9   12.53    1.51 
  -1 -11   9   13.77    1.25 
  -1 -11   9   15.52    1.25 
   0  11  -9    0.05    0.44 
   0 -11   9   -0.17    0.38 
   0 -11   9   -0.57    0.31 
   1 -11   9    6.23    0.69 
   1 -11   9    6.06    0.61 
   2 -11   9    3.80    0.46 
   2 -11   9    3.61    0.43 
  -3  11  -9    1.39    0.29 
   3 -11   9    0.88    0.28 
   3 -11   9    0.95    0.29 
  -4  11  -9    0.78    0.23 
   4 -11   9    0.43    0.27 
   4 -11   9    0.85    0.24 
  -5  11  -9    0.00    0.16 
   5 -11   9   -0.03    0.22 
  -6  11  -9    0.06    0.12 
   6 -11   9    0.29    0.18 
  -8 -10   9    0.35    0.26 
  -8 -10   9    1.01    0.22 
  -8 -10   9    0.91    0.37 
  -7 -10   9    4.13    0.59 
  -7 -10   9    4.34    0.45 
  -7 -10   9    3.87    0.51 
  -6 -10   9    4.69    0.45 
  -6 -10   9    4.27    0.47 
  -6 -10   9    4.19    0.55 
  -6 -10   9    3.68    0.60 
  -5 -10   9    0.89    0.34 
  -5 -10   9   -0.61    0.41 
  -5 -10   9   -0.15    0.22 
   4  10  -9    7.96    0.83 
  -4 -10   9    3.59    0.81 
  -4 -10   9    5.92    0.70 
   3  10  -9   -0.28    0.50 
  -3 -10   9   -0.12    0.37 
  -3 -10   9    0.00    0.13 
  -3 -10   9   -0.16    0.30 
  -3 -10   9    0.02    0.49 
   2  10  -9   16.46    1.50 
   2  10  -9   11.12    1.37 
  -2 -10   9   15.63    1.20 
  -2 -10   9   13.29    1.10 
  -2 -10   9   12.75    1.19 
  -2 -10   9   11.91    1.25 
   1  10  -9    4.24    0.73 
   1  10  -9    3.04    0.55 
  -1 -10   9    3.36    0.50 
  -1 -10   9    4.15    0.46 
  -1 -10   9    2.79    0.37 
   0  10  -9   11.84    1.45 
   0 -10   9   15.87    1.30 
   0 -10   9   11.51    1.13 
   0 -10   9   15.74    1.23 
  -1  10  -9    8.09    1.03 
   1 -10   9    9.05    0.88 
   1 -10   9    8.27    0.80 
   2 -10   9    4.85    0.52 
  -3  10  -9    8.09    0.83 
   3 -10   9    8.07    0.76 
   3 -10   9    8.00    0.74 
  -4  10  -9    2.42    0.42 
   4 -10   9    2.66    0.34 
  -5  10  -9    1.44    0.25 
  -6  10  -9    0.28    0.15 
   6 -10   9    0.17    0.21 
   6 -10   9    0.12    0.16 
   7 -10   9    0.03    0.15 
  -9  -9   9    0.91    0.35 
  -8  -9   9    1.14    0.34 
  -8  -9   9    1.63    0.29 
  -8  -9   9    0.36    0.16 
  -8  -9   9    0.82    0.43 
  -7  -9   9   19.62    1.80 
  -7  -9   9   20.14    1.71 
  -7  -9   9   19.11    1.74 
  -6  -9   9   -0.01    0.35 
  -6  -9   9   -0.19    0.31 
  -6  -9   9    0.08    0.36 
  -6  -9   9   -0.24    0.44 
  -6  -9   9   -0.09    0.22 
  -5  -9   9    0.89    0.52 
  -5  -9   9    0.70    0.38 
  -5  -9   9    0.44    0.34 
  -5  -9   9    1.38    0.31 
  -5  -9   9    0.52    0.42 
  -5  -9   9    0.60    0.24 
  -4  -9   9    2.42    0.39 
  -4  -9   9    1.08    0.57 
  -4  -9   9    2.87    0.32 
  -4  -9   9    2.65    0.51 
  -4  -9   9    2.23    0.42 
   3   9  -9   17.07    1.53 
  -3  -9   9   12.47    1.31 
  -3  -9   9   13.54    1.23 
  -2  -9   9    0.14    0.12 
  -2  -9   9   -0.08    0.34 
  -2  -9   9   -0.19    0.30 
  -1  -9   9    2.77    0.45 
  -1  -9   9    2.31    0.33 
   0  -9   9    2.12    0.43 
   0  -9   9    1.16    0.29 
   1  -9   9    0.69    0.26 
   1  -9   9    1.14    0.41 
   1  -9   9    1.04    0.30 
  -2   9  -9   17.41    1.40 
   2  -9   9   16.19    1.52 
   2  -9   9   19.48    1.56 
  -3   9  -9    0.34    0.22 
   3  -9   9    0.07    0.26 
  -4   9  -9    0.06    0.12 
  -4   9  -9    0.29    0.21 
   4  -9   9    0.21    0.21 
   4  -9   9    0.10    0.18 
  -5   9  -9    3.89    0.46 
   5  -9   9    3.54    0.42 
  -6   9  -9    0.05    0.14 
   6  -9   9    0.38    0.18 
   7  -9   9   -0.05    0.17 
   7  -9   9    0.04    0.15 
 -10  -8   9    0.89    0.12 
  -9  -8   9    0.71    0.41 
  -9  -8   9    0.79    0.21 
  -9  -8   9    1.31    0.31 
  -9  -8   9    0.12    0.37 
  -8  -8   9   11.21    0.93 
  -8  -8   9    7.14    0.73 
  -8  -8   9    8.39    0.75 
  -8  -8   9   10.42    0.85 
  -7  -8   9    1.21    0.41 
  -7  -8   9    1.06    0.41 
  -7  -8   9    1.48    0.52 
  -7  -8   9    1.53    0.27 
  -7  -8   9    1.06    0.20 
  -6  -8   9   -0.16    0.49 
  -6  -8   9   -0.20    0.22 
  -6  -8   9    0.13    0.36 
  -6  -8   9    0.09    0.45 
  -6  -8   9    0.22    0.36 
  -6  -8   9    0.04    0.23 
  -5  -8   9   15.65    1.28 
  -5  -8   9   14.78    1.27 
  -5  -8   9   15.19    1.58 
  -5  -8   9   15.06    1.33 
  -5  -8   9   14.47    1.35 
  -5  -8   9   13.93    1.41 
  -4  -8   9   21.05    1.79 
  -4  -8   9   21.90    1.89 
  -4  -8   9   22.16    1.95 
  -3  -8   9    3.85    0.45 
  -2  -8   9   11.50    0.97 
  -2  -8   9   10.08    0.91 
  -1  -8   9    3.95    0.44 
  -1  -8   9    4.36    0.53 
   0  -8   9    6.53    0.62 
  -1   8  -9   -0.19    0.25 
   1  -8   9    0.07    0.34 
  -2   8  -9    9.69    0.82 
   2  -8   9    9.09    0.90 
   2  -8   9    9.20    0.84 
  -3   8  -9   11.59    1.14 
   3  -8   9   12.63    1.06 
  -4   8  -9    4.42    0.53 
  -4   8  -9    4.01    0.44 
   4  -8   9    4.63    0.50 
  -5   8  -9    0.71    0.21 
   5  -8   9    0.99    0.23 
  -6   8  -9    0.67    0.17 
   6  -8   9    0.87    0.22 
  -7   8  -9    0.92    0.17 
   7  -8   9    1.08    0.20 
 -10  -7   9   -0.06    0.06 
 -10  -7   9   -0.48    0.34 
 -10  -7   9   -0.11    0.35 
  -9  -7   9    8.76    0.87 
  -9  -7   9    6.90    0.70 
  -9  -7   9    8.21    0.79 
  -9  -7   9    8.43    0.82 
  -8  -7   9    7.28    0.66 
  -8  -7   9    9.02    0.76 
  -8  -7   9    8.25    0.79 
  -8  -7   9    8.45    0.84 
  -8  -7   9    5.80    0.63 
  -7  -7   9    3.60    0.53 
  -7  -7   9    5.45    0.65 
  -7  -7   9    4.19    0.43 
  -7  -7   9    3.03    0.36 
  -7  -7   9    4.91    0.56 
  -6  -7   9   19.26    1.71 
  -6  -7   9   16.76    1.59 
  -6  -7   9   19.04    1.70 
  -6  -7   9   19.29    1.78 
  -6  -7   9   15.60    1.91 
  -6  -7   9   21.33    1.63 
  -6  -7   9   22.60    2.10 
  -5  -7   9    5.39    0.82 
  -5  -7   9    6.66    0.63 
  -5  -7   9    6.44    0.68 
  -5  -7   9    6.18    0.73 
  -4  -7   9   23.31    1.74 
  -4  -7   9   17.83    1.77 
  -4  -7   9   20.12    1.69 
  -3  -7   9   40.84    3.39 
  -2  -7   9   17.03    1.43 
  -2  -7   9   14.57    1.26 
  -1  -7   9    0.94    0.30 
  -1  -7   9    0.43    0.22 
   0  -7   9    5.24    0.58 
   0  -7   9    5.28    0.59 
  -1   7  -9    0.14    0.23 
   1  -7   9    0.10    0.32 
  -2   7  -9    4.43    0.49 
   2  -7   9    5.41    0.59 
  -3   7  -9   24.47    1.86 
  -3   7  -9   21.50    2.09 
  -3   7  -9   25.81    2.19 
   3  -7   9   25.74    2.31 
   3  -7   9   21.87    1.96 
  -4   7  -9    9.63    0.98 
  -4   7  -9    8.59    0.90 
   4  -7   9    9.84    0.96 
  -5   7  -9    0.07    0.36 
  -5   7  -9   -0.01    0.43 
   5  -7   9    0.29    0.20 
  -6   7  -9   -0.09    0.33 
  -6   7  -9    0.19    0.13 
   6  -7   9   -0.13    0.20 
  -7   7  -9    1.59    0.22 
  -7   7  -9    1.98    0.32 
   7  -7   9    1.89    0.26 
 -10  -6   9    2.15    0.34 
 -10  -6   9    2.21    0.50 
 -10  -6   9    1.64    0.47 
  -9  -6   9    2.60    0.37 
  -9  -6   9    4.10    0.59 
  -9  -6   9    3.39    0.49 
  -9  -6   9    3.62    0.57 
  -9  -6   9    3.35    0.33 
  -8  -6   9    8.77    0.88 
  -8  -6   9   10.50    1.01 
  -8  -6   9   10.72    0.98 
  -8  -6   9   11.38    1.09 
  -7  -6   9    6.31    0.76 
  -7  -6   9    6.67    0.65 
  -7  -6   9    6.56    0.73 
  -7  -6   9    9.13    0.97 
  -7  -6   9    6.19    0.88 
  -7  -6   9    7.10    0.84 
  -6  -6   9    6.65    0.80 
  -6  -6   9    4.14    0.45 
  -6  -6   9    4.94    0.60 
  -6  -6   9    5.08    0.59 
  -6  -6   9    4.92    0.68 
  -6  -6   9    5.14    0.71 
  -6  -6   9    5.10    0.49 
  -5  -6   9    6.70    0.63 
  -5  -6   9    5.60    0.65 
  -5  -6   9    5.93    0.56 
  -4  -6   9   12.91    1.27 
  -4  -6   9   15.70    1.25 
  -3  -6   9   53.81    4.11 
  -3  -6   9   57.53    4.57 
  -3  -6   9   54.58    4.52 
  -2  -6   9    0.63    0.28 
  -1  -6   9    7.69    0.79 
  -1  -6   9   10.44    0.90 
   0  -6   9   -0.31    0.25 
   0  -6   9    0.00    0.28 
  -1   6  -9    8.01    0.73 
   1  -6   9    8.44    0.81 
   1  -6   9    9.00    0.85 
  -2   6  -9   17.11    1.36 
   2  -6   9   16.63    1.44 
  -3   6  -9   21.72    2.10 
  -3   6  -9   25.46    2.36 
  -3   6  -9   29.80    2.49 
   3  -6   9   29.29    2.23 
   3  -6   9   28.33    2.62 
  -4   6  -9    0.48    0.45 
  -4   6  -9   -0.01    0.17 
   4  -6   9   -0.07    0.21 
  -5   6  -9    0.59    0.40 
  -5   6  -9    0.28    0.41 
   5  -6   9    0.61    0.24 
  -6   6  -9    4.35    0.54 
  -6   6  -9    3.49    0.50 
   6  -6   9    4.05    0.47 
  -7   6  -9    1.22    0.31 
  -7   6  -9    1.10    0.18 
   7  -6   9    1.21    0.24 
 -10  -5   9    2.24    0.52 
 -10  -5   9    1.67    0.51 
 -10  -5   9    2.02    0.38 
  -9  -5   9    5.46    0.75 
  -9  -5   9    6.22    0.61 
  -9  -5   9    5.79    0.74 
  -8  -5   9    1.09    0.44 
  -8  -5   9    0.63    0.16 
  -8  -5   9    1.14    0.25 
  -8  -5   9    0.77    0.40 
  -8  -5   9    1.04    0.52 
  -7  -5   9   13.29    1.25 
  -7  -5   9   13.24    1.27 
  -7  -5   9   13.63    1.33 
  -7  -5   9   13.41    1.25 
  -7  -5   9   13.29    1.15 
  -7  -5   9   14.38    1.42 
  -6  -5   9   16.99    1.72 
  -6  -5   9   18.68    1.64 
  -6  -5   9   17.97    1.54 
  -6  -5   9   17.16    1.85 
  -6  -5   9   21.54    1.63 
  -5  -5   9    2.97    0.40 
  -5  -5   9    2.73    0.40 
  -5  -5   9    2.62    0.32 
  -4  -5   9   47.73    3.95 
  -3  -5   9    2.46    0.33 
  -3  -5   9    1.85    0.22 
  -3  -5   9    2.17    0.31 
  -3  -5   9    1.96    0.31 
  -2  -5   9   16.73    1.42 
  -2  -5   9   18.77    1.53 
  -1  -5   9   -0.03    0.26 
   0  -5   9   16.59    1.36 
  -1   5  -9   10.12    0.92 
   1  -5   9   12.04    0.99 
  -2   5  -9   25.11    1.99 
   2  -5   9   26.37    2.06 
  -3   5  -9    0.00    0.32 
  -3   5  -9    0.25    0.28 
  -3   5  -9    0.04    0.48 
  -4   5  -9    1.23    0.46 
  -4   5  -9    0.40    0.30 
   4  -5   9    0.30    0.24 
  -5   5  -9    4.38    0.58 
  -5   5  -9    3.69    0.59 
   5  -5   9    4.17    0.50 
  -6   5  -9    2.22    0.35 
  -6   5  -9    0.96    0.40 
   6  -5   9    1.29    0.27 
  -7   5  -9    4.07    0.47 
  -7   5  -9    3.82    0.37 
   7  -5   9    3.73    0.44 
 -10  -4   9    6.52    0.74 
 -10  -4   9    5.55    0.58 
 -10  -4   9    4.74    0.73 
  -9  -4   9    3.01    0.63 
  -9  -4   9    4.25    0.63 
  -9  -4   9    3.91    0.49 
  -8  -4   9    4.44    0.60 
  -8  -4   9    4.18    0.66 
  -8  -4   9    4.60    0.51 
  -8  -4   9    3.61    0.62 
  -8  -4   9    4.55    0.71 
  -7  -4   9   33.50    2.92 
  -7  -4   9   34.38    2.95 
  -7  -4   9   37.19    3.28 
  -7  -4   9   31.96    2.94 
  -7  -4   9   31.33    3.05 
  -7  -4   9   37.43    2.81 
  -6  -4   9    4.15    0.54 
  -6  -4   9    3.92    0.43 
  -6  -4   9    4.47    0.52 
  -5  -4   9   16.26    1.48 
  -5  -4   9   17.41    1.46 
  -4  -4   9    0.74    0.26 
  -3  -4   9    3.06    0.33 
  -3  -4   9    3.72    0.39 
  -3  -4   9    3.24    0.38 
  -3  -4   9    3.96    0.38 
  -2  -4   9    2.56    0.32 
  -2  -4   9    2.05    0.35 
  -1  -4   9   41.37    3.15 
   0  -4   9   22.81    1.82 
  -1   4  -9   48.89    3.78 
   1  -4   9   52.17    3.84 
  -2   4  -9    1.58    0.34 
   2  -4   9    2.01    0.43 
  -3   4  -9    3.19    0.41 
  -3   4  -9    3.22    0.60 
  -3   4  -9    1.93    0.46 
  -4   4  -9    9.27    0.96 
   4  -4   9    8.72    0.93 
  -5   4  -9    7.64    0.79 
  -5   4  -9    7.09    0.77 
   5  -4   9    6.75    0.76 
  -6   4  -9    9.20    0.92 
  -6   4  -9   11.05    0.87 
   6  -4   9    7.63    0.94 
  -7   4  -9    1.77    0.30 
   7  -4   9    1.42    0.23 
 -10  -3   9   -0.10    0.50 
 -10  -3   9   -0.21    0.50 
  -9  -3   9   -0.08    0.49 
  -9  -3   9   -1.16    0.52 
  -9  -3   9    0.32    0.48 
  -9  -3   9    0.53    0.36 
  -8  -3   9    4.75    0.50 
  -8  -3   9    3.76    0.59 
  -8  -3   9    3.46    0.63 
  -8  -3   9    3.15    0.58 
  -8  -3   9    3.52    0.69 
  -7  -3   9    2.88    0.59 
  -7  -3   9    2.96    0.43 
  -7  -3   9    3.37    0.50 
  -7  -3   9    3.07    0.52 
  -6  -3   9    9.68    0.88 
  -6  -3   9    9.79    0.92 
  -5  -3   9   -0.07    0.25 
  -4  -3   9   14.99    1.29 
  -3  -3   9    0.91    0.22 
  -3  -3   9    0.76    0.25 
  -3  -3   9    0.42    0.23 
  -2  -3   9    7.34    0.68 
  -2  -3   9    7.41    0.68 
  -1  -3   9   25.86    2.03 
   0  -3   9   33.55    2.61 
  -1   3  -9   12.89    1.10 
   1  -3   9   14.33    1.19 
  -2   3  -9    0.38    0.26 
   2  -3   9    0.68    0.39 
  -3   3  -9    2.64    0.40 
  -3   3  -9    3.29    0.57 
  -3   3  -9    2.23    0.43 
   3  -3   9    3.26    0.41 
  -4   3  -9    2.25    0.47 
  -4   3  -9    1.72    0.34 
   4  -3   9    1.74    0.35 
  -5   3  -9   29.47    2.40 
  -5   3  -9   29.07    2.36 
   5  -3   9   22.78    2.62 
  -6   3  -9    3.53    0.47 
  -6   3  -9    4.59    0.45 
   6  -3   9    2.97    0.43 
  -7   3  -9    0.45    0.24 
   7  -3   9    0.58    0.16 
 -10  -2   9    0.00    0.49 
 -10  -2   9    0.24    0.51 
  -9  -2   9    1.36    0.57 
  -9  -2   9    1.30    0.50 
  -9  -2   9    1.73    0.57 
  -8  -2   9    0.07    0.42 
  -8  -2   9   -0.07    0.55 
  -8  -2   9    0.25    0.50 
  -8  -2   9    0.53    0.43 
  -7  -2   9    0.93    0.50 
  -7  -2   9    1.15    0.44 
  -7  -2   9    1.12    0.35 
  -6  -2   9   -0.13    0.32 
  -6  -2   9    0.22    0.32 
  -5  -2   9   18.07    1.55 
  -4  -2   9    4.05    0.44 
  -3  -2   9    3.15    0.34 
  -3  -2   9    2.74    0.34 
  -3  -2   9    2.73    0.37 
  -3  -2   9    3.01    0.34 
  -2  -2   9   12.53    1.00 
  -2  -2   9   12.14    1.02 
  -2  -2   9   11.67    1.04 
  -1  -2   9   28.21    2.13 
  -1  -2   9   28.70    2.12 
  -1  -2   9   24.97    2.25 
   0  -2   9   43.37    3.33 
  -1   2  -9    0.88    0.26 
   1  -2   9    0.90    0.38 
  -2   2  -9   20.89    1.58 
   2  -2   9   18.11    1.66 
  -3   2  -9    0.72    0.43 
  -3   2  -9    0.81    0.29 
  -3   2  -9    1.02    0.29 
   3  -2   9    0.93    0.29 
   3  -2   9    0.54    0.21 
  -4   2  -9   18.35    1.51 
  -4   2  -9   20.54    1.62 
  -4   2  -9   13.44    1.57 
   4  -2   9   17.24    1.74 
  -5   2  -9    5.26    0.55 
  -5   2  -9    4.48    0.53 
  -5   2  -9    3.63    0.47 
   5  -2   9    4.33    0.52 
  -6   2  -9    1.29    0.29 
  -6   2  -9    0.66    0.23 
  -6   2  -9    1.13    0.28 
   6  -2   9    0.90    0.21 
   7  -2   9    0.97    0.19 
 -10  -1   9    0.55    0.52 
 -10  -1   9    1.16    0.53 
  -9  -1   9    1.17    0.57 
  -9  -1   9    1.91    0.61 
  -9  -1   9    1.11    0.51 
  -8  -1   9   -0.09    0.55 
  -8  -1   9   -0.04    0.51 
  -8  -1   9   -0.68    0.40 
  -8  -1   9    0.21    0.41 
  -7  -1   9    5.93    0.82 
  -7  -1   9    7.30    0.74 
  -6  -1   9   12.52    1.14 
  -5  -1   9   11.40    1.02 
  -4  -1   9    1.15    0.25 
  -3  -1   9    6.12    0.58 
  -3  -1   9    6.56    0.57 
  -3  -1   9    6.00    0.62 
  -2  -1   9   28.22    2.18 
  -2  -1   9   26.33    2.31 
  -2  -1   9   29.34    2.16 
  -1  -1   9   37.96    2.97 
  -1  -1   9   39.18    2.98 
   0  -1   9    0.62    0.34 
   0  -1   9    0.30    0.20 
  -1   1  -9   15.01    1.30 
   1  -1   9   15.81    1.40 
   1  -1   9   17.30    1.33 
  -2   1  -9    0.33    0.26 
  -2   1  -9    0.36    0.36 
   2  -1   9    0.51    0.36 
  -3   1  -9    8.79    0.86 
  -3   1  -9    9.40    0.91 
   3  -1   9    7.54    0.77 
  -4   1  -9    3.43    0.47 
  -4   1  -9    2.67    0.42 
  -4   1  -9    3.60    0.46 
   4  -1   9    3.28    0.42 
  -5   1  -9    1.92    0.31 
  -5   1  -9    1.66    0.35 
  -5   1  -9    1.49    0.29 
   5  -1   9    1.17    0.25 
  -6   1  -9    1.26    0.28 
  -6   1  -9    1.38    0.24 
  -6   1  -9    1.12    0.26 
   6  -1   9    1.13    0.22 
 -11   0   9    0.14    0.16 
 -10   0   9   -0.04    0.18 
  -9   0   9    2.51    0.27 
  -9   0   9    4.14    0.68 
  -8   0   9   -0.09    0.42 
  -8   0   9   -0.03    0.53 
  -8   0   9   -0.16    0.08 
  -8   0   9   -0.03    0.50 
  -7   0   9    8.09    0.81 
  -7   0   9    7.58    0.89 
  -7   0   9    7.33    0.65 
  -6   0   9    3.12    0.46 
  -5   0   9    3.74    0.45 
  -4   0   9    4.98    0.50 
  -4   0   9    4.70    0.50 
  -3   0   9   11.73    1.00 
  -3   0   9   12.48    1.05 
  -2   0   9   51.59    3.94 
  -2   0   9   51.86    3.94 
  -1   0   9    5.78    0.63 
  -1   0   9    4.77    0.51 
   0   0   9    1.54    0.29 
   0   0   9    2.27    0.45 
  -1   0  -9    0.08    0.22 
   1   0   9   -0.02    0.36 
  -2   0  -9    2.93    0.41 
   2   0   9    2.91    0.34 
   2   0   9    3.55    0.50 
  -3   0  -9   -0.08    0.24 
  -3   0  -9    0.12    0.31 
   3   0   9    0.06    0.11 
   3   0   9    0.31    0.21 
  -4   0  -9    3.37    0.44 
  -4   0  -9    2.54    0.44 
   4   0   9    4.15    0.44 
  -5   0  -9    2.92    0.40 
  -5   0  -9    2.54    0.31 
   5   0   9    1.58    0.31 
  -6   0  -9    0.67    0.20 
  -6   0  -9    0.73    0.20 
   6   0   9    0.51    0.19 
 -11   1   9   -0.14    0.16 
 -10   1   9    3.97    0.56 
 -10   1   9    4.10    0.39 
  -9   1   9    0.09    0.09 
  -9   1   9    0.18    0.55 
  -8   1   9   10.73    0.91 
  -8   1   9    9.71    0.96 
  -8   1   9   12.02    1.27 
  -7   1   9    4.24    0.40 
  -7   1   9    4.59    0.57 
  -6   1   9    1.00    0.37 
  -5   1   9   -0.17    0.30 
  -4   1   9    5.39    0.50 
  -3   1   9    5.36    0.61 
  -3   1   9    5.02    0.52 
  -2   1   9   25.60    2.08 
  -2   1   9   27.88    2.14 
  -1   1   9   28.37    2.33 
  -1   1   9   29.40    2.26 
   0   1   9   12.51    1.16 
  -1  -1  -9    6.58    0.62 
   1   1   9    6.28    0.60 
   1   1   9    6.87    0.74 
  -2  -1  -9    0.30    0.29 
   2   1   9   -0.17    0.19 
  -3  -1  -9    0.68    0.19 
  -3  -1  -9    0.50    0.28 
   3   1   9    0.67    0.24 
   3   1   9    1.02    0.23 
  -4  -1  -9   10.01    0.87 
  -4  -1  -9    7.99    0.79 
   4   1   9    8.36    0.90 
  -5  -1  -9    0.47    0.20 
  -5  -1  -9    0.37    0.22 
  -5  -1  -9    0.70    0.16 
   5   1   9    0.30    0.19 
  -6  -1  -9   -0.01    0.08 
   6   1   9    0.00    0.15 
 -11   2   9    4.81    0.58 
 -10   2   9    0.19    0.11 
 -10   2   9    0.04    0.53 
  -9   2   9    3.65    0.73 
  -9   2   9    4.29    0.40 
  -8   2   9    8.52    0.75 
  -8   2   9    8.55    1.09 
  -7   2   9   10.15    1.08 
  -7   2   9   14.23    1.17 
  -7   2   9   14.32    1.42 
  -6   2   9    0.84    0.28 
  -4   2   9    2.76    0.43 
  -3   2   9    3.96    0.50 
  -3   2   9    5.38    0.63 
  -2   2   9   13.26    1.29 
  -2   2   9   15.36    1.22 
  -1   2   9    4.09    0.69 
  -1   2   9    6.58    0.63 
   0  -2  -9    4.59    0.57 
   0   2   9    3.75    0.49 
   0   2   9    3.90    0.58 
   0   2   9    3.89    0.43 
   1   2   9   12.73    1.10 
  -2  -2  -9   -0.18    0.30 
   2   2   9    0.06    0.19 
  -3  -2  -9    4.73    0.60 
  -3  -2  -9    4.97    0.54 
   3   2   9    5.41    0.51 
  -4  -2  -9    0.71    0.26 
  -4  -2  -9    0.74    0.23 
  -4  -2  -9    0.88    0.20 
  -5  -2  -9    5.78    0.50 
  -5  -2  -9    5.28    0.54 
  -5  -2  -9    5.62    0.51 
 -11   3   9    0.32    0.11 
 -11   3   9    0.34    0.17 
 -10   3   9    2.29    0.40 
 -10   3   9    3.75    0.47 
  -9   3   9    1.32    0.23 
  -9   3   9    1.43    0.57 
  -8   3   9    7.23    0.85 
  -8   3   9    4.98    0.58 
  -7   3   9    0.96    0.16 
  -7   3   9    0.55    0.59 
  -6   3   9    0.06    0.11 
  -5   3   9    0.72    0.32 
  -4   3   9   -0.08    0.28 
  -3   3   9    5.90    0.73 
  -3   3   9    6.16    0.65 
   2  -3  -9    0.38    0.36 
  -2   3   9   -0.18    0.42 
  -2   3   9   -0.17    0.23 
  -2   3   9   -0.17    0.31 
   1  -3  -9   12.82    1.43 
  -1   3   9   14.31    1.28 
  -1   3   9   13.61    1.27 
  -1   3   9   14.54    1.18 
   0   3   9    6.07    0.65 
   0   3   9    5.96    0.58 
   1   3   9    7.00    0.65 
  -2  -3  -9   18.06    1.48 
  -2  -3  -9   14.61    1.40 
   2   3   9   16.28    1.37 
  -3  -3  -9    3.48    0.40 
  -3  -3  -9    2.36    0.36 
  -3  -3  -9    2.35    0.33 
   3   3   9    3.25    0.33 
  -4  -3  -9    3.32    0.36 
  -4  -3  -9    2.84    0.36 
  -4  -3  -9    2.53    0.31 
  -4  -3  -9    2.24    0.29 
 -11   4   9    1.86    0.23 
 -11   4   9    2.06    0.33 
 -10   4   9    0.57    0.20 
 -10   4   9    0.35    0.13 
  -9   4   9    0.79    0.54 
  -9   4   9    0.62    0.15 
  -8   4   9   -0.45    0.52 
  -8   4   9    0.09    0.33 
  -7   4   9    3.75    0.39 
  -7   4   9    2.99    0.70 
  -6   4   9    2.10    0.38 
   5  -4  -9    2.19    0.49 
  -5   4   9    2.53    0.40 
  -5   4   9    2.08    0.37 
   4  -4  -9    4.45    0.66 
  -4   4   9    4.99    0.54 
   3  -4  -9    0.18    0.38 
  -3   4   9    0.13    0.25 
  -3   4   9    0.08    0.31 
   2  -4  -9   11.92    1.32 
  -2   4   9   13.41    1.17 
  -2   4   9   12.67    1.08 
   1  -4  -9    1.88    0.43 
  -1   4   9    2.03    0.32 
  -1   4   9    2.09    0.40 
   0   4   9    0.61    0.21 
   0   4   9    1.07    0.34 
   1   4   9    1.29    0.24 
  -2  -4  -9    7.47    0.75 
  -2  -4  -9    8.06    0.80 
   2   4   9    8.40    0.71 
  -3  -4  -9    4.41    0.46 
  -3  -4  -9    3.38    0.39 
  -3  -4  -9    4.14    0.41 
  -4  -4  -9    1.11    0.19 
  -4  -4  -9    0.89    0.18 
  -4  -4  -9    0.77    0.21 
  -4  -4  -9    1.07    0.20 
 -10   5   9    0.21    0.17 
 -10   5   9    0.28    0.12 
  -9   5   9    0.20    0.18 
  -9   5   9    0.37    0.13 
  -8   5   9   -0.10    0.37 
  -8   5   9   -0.03    0.51 
  -7   5   9    0.35    0.54 
  -7   5   9    0.36    0.17 
   6  -5  -9    1.77    0.43 
  -6   5   9    1.71    0.41 
   5  -5  -9   12.49    1.28 
  -5   5   9   11.80    1.11 
   4  -5  -9    0.90    0.38 
  -4   5   9    0.19    0.31 
   3  -5  -9    9.39    1.07 
  -3   5   9   10.84    0.96 
   2  -5  -9    1.58    0.37 
  -2   5   9    1.49    0.26 
  -2   5   9    1.52    0.37 
   1  -5  -9    1.79    0.36 
  -1   5   9    1.37    0.26 
  -1   5   9    1.91    0.37 
   0   5   9    1.67    0.36 
   0   5   9    2.05    0.28 
   1   5   9    4.31    0.43 
  -2  -5  -9    8.19    0.84 
  -2  -5  -9   10.37    0.89 
   2   5   9   10.21    0.83 
  -3  -5  -9    8.07    0.77 
  -3  -5  -9    7.60    0.72 
  -3  -5  -9    8.01    0.77 
   3   5   9    9.97    0.74 
 -10   6   9    0.09    0.15 
  -9   6   9    0.27    0.12 
  -9   6   9   -0.20    0.42 
  -8   6   9    1.33    0.23 
  -8   6   9    0.54    0.21 
   7  -6  -9    1.99    0.36 
  -7   6   9    1.81    0.29 
  -7   6   9    1.79    0.55 
   6  -6  -9   10.14    1.06 
   5  -6  -9    0.63    0.35 
  -5   6   9   -0.99    0.22 
   4  -6  -9   12.61    1.27 
  -4   6   9   12.26    1.14 
   3  -6  -9    6.06    0.67 
  -3   6   9    5.40    0.63 
   2  -6  -9    3.08    0.42 
   2  -6  -9    2.69    0.42 
  -2   6   9    2.88    0.34 
  -2   6   9    2.86    0.42 
   1  -6  -9    2.54    0.36 
   0   6   9    2.15    0.35 
   0   6   9    2.00    0.28 
  -1  -6  -9    3.63    0.40 
   1   6   9    2.78    0.33 
  -2  -6  -9    5.71    0.59 
  -2  -6  -9    6.30    0.61 
   2   6   9    6.74    0.58 
  -9   7   9    0.52    0.16 
   8  -7  -9    0.18    0.23 
  -8   7   9    0.05    0.40 
   7  -7  -9    5.42    0.60 
  -7   7   9    5.09    0.74 
   6  -7  -9    0.02    0.30 
   5  -7  -9    3.54    0.48 
  -4   7   9    5.62    0.56 
   3  -7  -9    6.20    0.68 
   3  -7  -9    5.74    0.64 
  -3   7   9    6.57    0.65 
   2  -7  -9    1.08    0.29 
  -2   7   9    1.13    0.33 
  -2   7   9    1.47    0.24 
   0   7   9    8.43    0.75 
   0   7   9    7.37    0.69 
   1   7   9    0.48    0.22 
   7  -8  -9    1.26    0.28 
  -7   8   9    1.16    0.39 
   6  -8  -9    0.60    0.26 
   5  -8  -9    0.86    0.27 
   4  -8  -9    3.89    0.49 
   4  -8  -9    3.79    0.47 
  -4   8   9    4.60    0.47 
   3  -8  -9    4.23    0.47 
  -3   8   9    4.66    0.47 
  -2   8   9    0.10    0.21 
  -2   8   9    0.00    0.20 
   0   8   9   -0.01    0.14 
   0 -15  10    1.55    0.21 
   1 -15  10    0.02    0.14 
   4  14 -10    2.36    0.38 
   3  14 -10    1.22    0.39 
  -3 -14  10    1.24    0.30 
   2  14 -10    0.46    0.39 
  -2 -14  10    0.03    0.28 
  -2 -14  10    0.03    0.09 
  -1 -14  10    0.15    0.11 
   0 -14  10    1.67    0.25 
   0 -14  10    1.50    0.25 
   1 -14  10    2.47    0.29 
   1 -14  10    2.24    0.29 
   2 -14  10    0.04    0.10 
   2 -14  10    0.37    0.18 
   3 -14  10    2.23    0.25 
   5  13 -10    1.71    0.44 
  -5 -13  10    1.59    0.35 
   4  13 -10    0.18    0.45 
  -4 -13  10    0.98    0.32 
   3  13 -10    5.43    0.72 
  -3 -13  10    5.13    0.60 
   2  13 -10   -0.05    0.45 
  -2 -13  10    0.08    0.12 
  -2 -13  10    0.06    0.34 
   1  13 -10    0.02    0.44 
  -1 -13  10    0.08    0.07 
  -1 -13  10   -0.02    0.13 
   0 -13  10   17.81    1.60 
   0 -13  10   19.30    1.54 
   1 -13  10    0.65    0.16 
   1 -13  10    0.55    0.23 
   2 -13  10    0.74    0.15 
   2 -13  10    0.75    0.24 
  -3  13 -10    2.39    0.35 
   3 -13  10    2.38    0.27 
   3 -13  10    1.30    0.28 
  -4  13 -10    3.68    0.39 
   4 -13  10    3.84    0.34 
   4 -13  10    2.68    0.34 
   6  12 -10    7.95    0.87 
  -6 -12  10    7.14    0.76 
   5  12 -10   -0.02    0.43 
  -5 -12  10   -0.04    0.36 
   4  12 -10    2.54    0.52 
  -4 -12  10    1.43    0.41 
   3  12 -10    8.10    1.00 
  -3 -12  10    8.13    0.83 
  -3 -12  10    8.03    0.72 
   2  12 -10   -0.33    0.53 
  -2 -12  10    0.06    0.13 
  -2 -12  10   -0.06    0.37 
   1  12 -10    1.99    0.52 
  -1 -12  10    3.02    0.36 
  -1 -12  10    3.50    0.40 
   0  12 -10    5.41    0.94 
   0 -12  10    7.87    0.69 
   0 -12  10    7.27    0.68 
   1 -12  10    5.79    0.61 
   1 -12  10    6.54    0.64 
   1 -12  10    7.35    0.72 
   2 -12  10   -0.06    0.23 
   2 -12  10    0.14    0.14 
   2 -12  10   -0.21    0.25 
  -3  12 -10   11.23    1.09 
   3 -12  10   12.04    1.04 
   3 -12  10   12.15    1.01 
  -4  12 -10    0.26    0.18 
   4 -12  10    0.03    0.21 
   4 -12  10    0.21    0.22 
  -5  12 -10    1.20    0.19 
   5 -12  10    1.01    0.19 
  -7 -11  10    2.39    0.39 
  -7 -11  10    1.49    0.20 
   6  11 -10   -0.23    0.40 
  -6 -11  10    0.15    0.30 
  -6 -11  10    0.30    0.09 
  -6 -11  10    0.53    0.38 
   5  11 -10    3.90    0.66 
  -5 -11  10    5.33    0.58 
  -5 -11  10    4.28    0.41 
   4  11 -10    3.12    0.63 
  -4 -11  10    3.32    0.52 
   3  11 -10    9.81    1.04 
  -3 -11  10    7.77    0.85 
  -3 -11  10    7.76    0.74 
  -3 -11  10    8.05    0.77 
   2  11 -10    6.41    1.05 
  -2 -11  10    8.13    0.72 
  -2 -11  10    7.22    0.68 
  -2 -11  10    7.48    0.70 
   1  11 -10    0.18    0.59 
  -1 -11  10    0.07    0.14 
  -1 -11  10    0.25    0.29 
   0 -11  10   11.47    1.11 
   0 -11  10   13.34    1.11 
   1 -11  10    2.40    0.39 
   1 -11  10    2.80    0.50 
   1 -11  10    2.95    0.38 
   2 -11  10   10.02    0.93 
   2 -11  10   10.70    0.90 
   2 -11  10    9.63    0.91 
  -3  11 -10    0.78    0.24 
   3 -11  10    0.69    0.25 
   3 -11  10    0.44    0.26 
  -4  11 -10    1.88    0.35 
   4 -11  10    1.82    0.26 
   4 -11  10    1.44    0.28 
  -5  11 -10    0.52    0.17 
   5 -11  10    0.28    0.20 
   6 -11  10    0.07    0.14 
  -8 -10  10    2.16    0.23 
  -8 -10  10    2.34    0.42 
  -7 -10  10    1.31    0.35 
  -7 -10  10    1.31    0.44 
  -7 -10  10    1.44    0.25 
  -7 -10  10    1.25    0.31 
  -6 -10  10    7.57    0.65 
  -6 -10  10    5.77    0.71 
  -6 -10  10    7.31    0.67 
  -6 -10  10    7.04    0.80 
  -6 -10  10    6.80    0.70 
   5  10 -10    9.12    1.00 
  -5 -10  10    7.23    0.81 
  -5 -10  10    7.65    0.80 
  -5 -10  10    8.34    0.74 
  -5 -10  10    8.88    0.87 
   4  10 -10   11.31    1.15 
  -4 -10  10    8.72    0.98 
  -4 -10  10    9.49    0.90 
  -3 -10  10   12.21    1.02 
  -3 -10  10   10.69    0.98 
  -3 -10  10   10.25    1.08 
   2  10 -10    0.95    0.64 
  -2 -10  10    1.20    0.20 
  -2 -10  10    0.90    0.34 
  -2 -10  10    0.87    0.28 
   1  10 -10   -0.34    0.65 
  -1 -10  10    0.05    0.12 
  -1 -10  10   -0.14    0.39 
  -1 -10  10    0.13    0.32 
   0  10 -10    0.47    0.46 
   0 -10  10    0.98    0.41 
   0 -10  10    0.80    0.17 
   0 -10  10    0.75    0.30 
   1 -10  10   19.56    1.66 
   1 -10  10   19.56    1.70 
   1 -10  10   20.06    1.72 
   2 -10  10    3.04    0.40 
   2 -10  10    3.46    0.41 
   2 -10  10    3.03    0.40 
  -3  10 -10   -0.03    0.19 
   3 -10  10    0.00    0.27 
   3 -10  10   -0.13    0.24 
  -4  10 -10    0.92    0.22 
   4 -10  10    0.75    0.25 
   4 -10  10    0.57    0.23 
  -5  10 -10    0.16    0.16 
   5 -10  10    0.19    0.21 
  -6  10 -10    0.13    0.11 
   6 -10  10    0.04    0.16 
  -9  -9  10    4.29    0.52 
  -8  -9  10    0.59    0.35 
  -8  -9  10    0.24    0.15 
  -8  -9  10    0.44    0.30 
  -8  -9  10    0.14    0.33 
  -8  -9  10    0.53    0.43 
  -7  -9  10    7.70    0.89 
  -7  -9  10    9.15    0.77 
  -7  -9  10    7.74    0.83 
  -7  -9  10    8.27    0.81 
  -6  -9  10    4.60    0.61 
  -6  -9  10    5.75    0.61 
  -6  -9  10    6.02    0.72 
  -6  -9  10    5.77    0.57 
  -5  -9  10    8.70    0.84 
  -5  -9  10    7.97    0.86 
  -5  -9  10    8.72    0.82 
  -5  -9  10    9.73    0.92 
   4   9 -10   15.04    1.44 
  -4  -9  10   12.82    1.13 
  -4  -9  10   11.43    1.24 
  -4  -9  10   13.13    1.17 
   3   9 -10    5.03    0.77 
  -3  -9  10    3.89    0.49 
  -3  -9  10    4.03    0.44 
   2   9 -10    6.00    0.92 
  -2  -9  10    5.58    0.52 
  -2  -9  10    5.48    0.65 
  -2  -9  10    5.85    0.57 
  -2  -9  10    5.19    0.54 
  -2  -9  10    5.64    0.59 
   1   9 -10    4.33    0.84 
  -1  -9  10    3.07    0.40 
  -1  -9  10    3.67    0.53 
  -1  -9  10    3.61    0.46 
  -1  -9  10    3.83    0.42 
   0   9 -10    1.07    0.63 
   0  -9  10    1.05    0.42 
   0  -9  10    1.51    0.34 
   0  -9  10    1.72    0.31 
   0  -9  10    1.19    0.28 
  -1   9 -10    6.10    0.77 
   1  -9  10    6.50    0.65 
   1  -9  10    7.39    0.67 
   1  -9  10    7.28    0.77 
   2  -9  10    3.42    0.40 
   2  -9  10    3.00    0.41 
  -3   9 -10    0.17    0.22 
   3  -9  10    0.39    0.26 
   3  -9  10    0.00    0.27 
  -4   9 -10    0.76    0.22 
   4  -9  10    1.09    0.25 
   4  -9  10    0.49    0.28 
  -5   9 -10    0.47    0.18 
   5  -9  10    0.40    0.24 
  -6   9 -10    1.18    0.21 
   6  -9  10    0.90    0.21 
  -9  -8  10    1.15    0.39 
  -9  -8  10    0.47    0.40 
  -9  -8  10    0.87    0.20 
  -9  -8  10    0.71    0.22 
  -8  -8  10    8.04    0.76 
  -8  -8  10    8.41    0.86 
  -8  -8  10    9.26    0.85 
  -8  -8  10    9.15    0.94 
  -7  -8  10    0.72    0.39 
  -7  -8  10    0.43    0.36 
  -7  -8  10    0.40    0.25 
  -7  -8  10    0.83    0.48 
  -7  -8  10    0.11    0.09 
  -6  -8  10    0.00    0.32 
  -6  -8  10    0.47    0.16 
  -6  -8  10    0.19    0.38 
  -6  -8  10    0.14    0.34 
  -6  -8  10    0.03    0.47 
  -5  -8  10    9.46    0.94 
  -5  -8  10    9.49    1.00 
  -5  -8  10    9.77    0.89 
  -5  -8  10   10.20    0.92 
  -4  -8  10    3.68    0.43 
  -4  -8  10    2.97    0.42 
  -4  -8  10    2.02    0.27 
  -4  -8  10    3.45    0.51 
  -3  -8  10   10.00    0.81 
  -3  -8  10    7.56    0.77 
  -2  -8  10    7.76    0.81 
  -2  -8  10    7.43    0.72 
  -2  -8  10    8.23    0.71 
  -1  -8  10    0.88    0.28 
  -1  -8  10    1.20    0.39 
   0  -8  10    0.91    0.39 
   0  -8  10    0.39    0.25 
  -1   8 -10    0.22    0.27 
   1  -8  10   -0.04    0.27 
   1  -8  10    0.06    0.39 
   1  -8  10    0.48    0.35 
   1  -8  10   -0.47    0.24 
   2  -8  10    0.09    0.29 
   2  -8  10   -0.31    0.25 
  -3   8 -10    0.06    0.19 
   3  -8  10   -0.16    0.25 
  -4   8 -10    6.04    0.68 
  -4   8 -10    5.96    0.74 
   4  -8  10    7.55    0.62 
  -5   8 -10    1.28    0.35 
  -6   8 -10    3.88    0.44 
  -6   8 -10    3.82    0.40 
   6  -8  10    3.79    0.42 
   6  -8  10    3.83    0.40 
 -10  -7  10    0.19    0.36 
 -10  -7  10    0.29    0.07 
 -10  -7  10   -0.39    0.36 
  -9  -7  10   14.18    1.34 
  -9  -7  10   14.04    1.19 
  -9  -7  10   12.32    1.18 
  -9  -7  10   16.39    1.30 
  -8  -7  10    5.79    0.76 
  -8  -7  10    5.80    0.66 
  -8  -7  10    6.46    0.64 
  -8  -7  10    4.65    0.53 
  -7  -7  10    0.09    0.25 
  -7  -7  10   -0.13    0.39 
  -7  -7  10    0.15    0.50 
  -7  -7  10    0.08    0.35 
  -7  -7  10    0.03    0.14 
  -6  -7  10   13.78    1.29 
  -6  -7  10   12.30    1.10 
  -6  -7  10   13.01    1.18 
  -6  -7  10   12.78    1.19 
  -5  -7  10    0.18    0.32 
  -5  -7  10    0.25    0.31 
  -5  -7  10   -0.23    0.33 
  -5  -7  10    0.06    0.09 
  -5  -7  10    0.79    0.31 
  -5  -7  10    0.29    0.44 
  -4  -7  10    9.25    0.87 
  -4  -7  10    9.66    0.88 
  -3  -7  10    0.06    0.28 
  -2  -7  10    5.06    0.52 
  -2  -7  10    4.23    0.52 
  -1  -7  10    0.17    0.31 
   0  -7  10    3.37    0.48 
   0  -7  10    2.91    0.47 
   1  -7  10    0.34    0.37 
   1  -7  10    1.21    0.37 
  -2   7 -10    0.32    0.30 
  -2   7 -10   -0.27    0.46 
   2  -7  10    0.49    0.38 
   2  -7  10    0.12    0.25 
  -3   7 -10   17.09    1.59 
  -3   7 -10   15.38    1.48 
   3  -7  10   17.04    1.40 
  -4   7 -10    2.33    0.47 
  -4   7 -10    1.82    0.35 
   4  -7  10    1.57    0.24 
  -5   7 -10    4.89    0.60 
  -5   7 -10    3.77    0.60 
   5  -7  10    5.27    0.54 
  -6   7 -10    2.55    0.37 
  -6   7 -10    2.03    0.28 
   6  -7  10    2.52    0.31 
   6  -7  10    1.75    0.29 
 -10  -6  10    5.57    0.64 
 -10  -6  10    4.90    0.51 
 -10  -6  10    4.08    0.63 
  -9  -6  10   10.02    0.87 
  -9  -6  10    9.28    0.88 
  -9  -6  10   10.62    1.01 
  -9  -6  10   11.06    1.04 
  -8  -6  10    1.45    0.47 
  -8  -6  10    1.79    0.41 
  -8  -6  10    1.67    0.25 
  -8  -6  10    1.73    0.54 
  -8  -6  10    1.43    0.30 
  -7  -6  10    0.80    0.17 
  -7  -6  10    1.69    0.39 
  -7  -6  10    1.38    0.30 
  -7  -6  10    1.50    0.52 
  -7  -6  10    1.82    0.46 
  -6  -6  10    0.19    0.34 
  -6  -6  10    0.11    0.24 
  -6  -6  10   -0.12    0.48 
  -6  -6  10    0.24    0.15 
  -6  -6  10    0.29    0.17 
  -6  -6  10    0.28    0.40 
  -5  -6  10    9.85    0.91 
  -5  -6  10    9.81    0.92 
  -5  -6  10    9.35    0.85 
  -5  -6  10    9.49    0.99 
  -4  -6  10   -0.55    0.30 
  -4  -6  10   -0.07    0.30 
  -3  -6  10   16.01    1.39 
  -2  -6  10    1.94    0.32 
  -2  -6  10    1.77    0.35 
  -1  -6  10    8.80    0.81 
   0  -6  10    3.03    0.45 
  -1   6 -10    4.10    0.45 
   1  -6  10    3.03    0.49 
   1  -6  10    3.39    0.51 
  -2   6 -10   26.89    2.13 
   2  -6  10   27.32    2.23 
   2  -6  10   29.36    2.31 
  -3   6 -10    3.36    0.59 
   3  -6  10    2.55    0.32 
  -4   6 -10    7.12    0.87 
   4  -6  10    8.09    0.82 
  -5   6 -10    3.07    0.51 
  -5   6 -10    2.65    0.50 
   5  -6  10    3.61    0.41 
  -6   6 -10    2.42    0.40 
  -6   6 -10    2.30    0.29 
   6  -6  10    2.40    0.32 
 -10  -5  10   10.72    1.08 
 -10  -5  10   10.36    1.06 
  -9  -5  10    1.90    0.50 
  -9  -5  10    1.63    0.52 
  -9  -5  10    1.17    0.20 
  -9  -5  10    1.63    0.36 
  -8  -5  10    1.96    0.49 
  -8  -5  10    1.83    0.41 
  -8  -5  10    1.54    0.55 
  -8  -5  10    2.16    0.28 
  -7  -5  10    0.85    0.23 
  -7  -5  10    1.32    0.55 
  -7  -5  10    1.69    0.25 
  -7  -5  10    0.69    0.44 
  -7  -5  10    1.10    0.39 
  -7  -5  10    1.21    0.28 
  -6  -5  10   23.83    2.29 
  -6  -5  10   26.98    2.27 
  -6  -5  10   26.28    2.39 
  -6  -5  10   26.36    2.30 
  -6  -5  10   27.67    2.23 
  -6  -5  10   27.77    2.19 
  -5  -5  10    0.06    0.31 
  -5  -5  10    0.05    0.13 
  -5  -5  10    0.33    0.31 
  -4  -5  10   13.49    1.19 
  -3  -5  10    0.67    0.27 
  -3  -5  10    0.90    0.27 
  -2  -5  10    2.07    0.35 
  -2  -5  10    2.39    0.34 
  -1  -5  10   10.70    0.95 
   0  -5  10    0.26    0.35 
  -1   5 -10   46.52    3.37 
   1  -5  10   43.58    3.44 
   1  -5  10   43.61    3.80 
  -2   5 -10    3.58    0.40 
   2  -5  10    2.00    0.48 
   2  -5  10    1.96    0.34 
  -3   5 -10    1.17    0.52 
  -3   5 -10    0.95    0.35 
   3  -5  10    1.37    0.22 
  -4   5 -10    0.39    0.27 
  -4   5 -10    0.40    0.42 
   4  -5  10    0.12    0.25 
  -5   5 -10    2.96    0.50 
  -5   5 -10    3.44    0.48 
   5  -5  10    3.17    0.42 
  -6   5 -10    2.10    0.37 
  -6   5 -10    2.19    0.33 
   6  -5  10    1.91    0.29 
 -10  -4  10   -0.04    0.49 
 -10  -4  10    0.06    0.47 
  -9  -4  10    0.28    0.17 
  -9  -4  10   -0.20    0.38 
  -9  -4  10    1.10    0.47 
  -9  -4  10    1.25    0.49 
  -8  -4  10    0.01    0.17 
  -8  -4  10    0.13    0.33 
  -8  -4  10    0.08    0.42 
  -8  -4  10   -0.24    0.50 
  -7  -4  10   19.04    1.72 
  -7  -4  10   19.42    1.63 
  -7  -4  10   16.66    1.66 
  -7  -4  10   19.55    1.82 
  -7  -4  10   22.84    1.65 
  -6  -4  10    0.05    0.50 
  -6  -4  10    0.77    0.37 
  -6  -4  10    0.28    0.26 
  -5  -4  10   18.23    1.58 
  -4  -4  10    5.25    0.55 
  -3  -4  10   -0.06    0.24 
  -3  -4  10    0.20    0.26 
  -2  -4  10    8.29    0.75 
  -2  -4  10    7.55    0.74 
  -1  -4  10   -0.33    0.30 
   0  -4  10   90.87    6.79 
  -1   4 -10    6.09    0.58 
   1  -4  10    5.04    0.66 
  -2   4 -10    5.80    0.58 
   2  -4  10    6.03    0.54 
   2  -4  10    4.20    0.68 
  -3   4 -10    0.39    0.29 
  -3   4 -10   -0.04    0.46 
   3  -4  10    0.55    0.18 
  -4   4 -10    5.02    0.62 
   4  -4  10    4.11    0.53 
  -5   4 -10    5.84    0.61 
  -5   4 -10    5.53    0.60 
   5  -4  10    4.40    0.58 
  -6   4 -10    0.46    0.27 
  -6   4 -10    0.46    0.25 
   6  -4  10    0.16    0.14 
 -10  -3  10   -0.43    0.50 
 -10  -3  10    1.01    0.48 
  -9  -3  10    0.33    0.47 
  -9  -3  10   -0.36    0.52 
  -8  -3  10    8.85    1.03 
  -8  -3  10   12.81    0.98 
  -8  -3  10    9.57    1.11 
  -8  -3  10   10.06    1.02 
  -7  -3  10    0.69    0.50 
  -7  -3  10    0.69    0.22 
  -7  -3  10    1.69    0.39 
  -7  -3  10    1.70    0.42 
  -7  -3  10    0.51    0.22 
  -6  -3  10   10.58    1.16 
  -6  -3  10   12.57    1.09 
  -5  -3  10    5.92    0.62 
  -4  -3  10    1.63    0.31 
  -3  -3  10   30.01    2.36 
  -3  -3  10   25.69    2.15 
  -2  -3  10    3.78    0.49 
  -2  -3  10    4.48    0.46 
  -2  -3  10    3.98    0.44 
  -1  -3  10   68.22    5.89 
  -1  -3  10   75.81    5.37 
   0  -3  10    8.35    0.82 
  -1   3 -10    1.40    0.32 
   1  -3  10    1.05    0.43 
  -2   3 -10    0.26    0.27 
   2  -3  10    0.26    0.20 
   2  -3  10    0.25    0.38 
  -3   3 -10    8.51    0.82 
  -3   3 -10    5.18    0.69 
   3  -3  10    6.10    0.59 
  -4   3 -10    3.17    0.50 
  -4   3 -10    2.76    0.42 
   4  -3  10    3.13    0.42 
  -5   3 -10    0.46    0.30 
  -5   3 -10    0.59    0.30 
   5  -3  10    0.35    0.18 
  -6   3 -10    3.62    0.35 
  -6   3 -10    2.41    0.34 
   6  -3  10    1.96    0.29 
 -10  -2  10    0.56    0.48 
 -10  -2  10    0.72    0.47 
  -9  -2  10    8.79    1.00 
  -9  -2  10    8.49    0.91 
  -9  -2  10    8.36    1.05 
  -8  -2  10   -0.05    0.08 
  -8  -2  10   -0.21    0.16 
  -8  -2  10    0.07    0.41 
  -8  -2  10   -0.01    0.52 
  -7  -2  10    2.52    0.56 
  -7  -2  10    2.43    0.51 
  -6  -2  10    8.52    0.84 
  -5  -2  10    0.08    0.29 
  -4  -2  10   47.71    3.95 
  -3  -2  10   11.84    1.05 
  -3  -2  10   11.19    1.01 
  -3  -2  10   12.82    1.00 
  -2  -2  10   27.93    2.42 
  -2  -2  10   29.86    2.26 
  -2  -2  10   29.52    2.27 
  -1  -2  10    1.00    0.41 
  -1  -2  10    1.29    0.28 
   0  -2  10   15.74    1.23 
   0  -2  10   12.60    1.17 
  -1   2 -10    0.59    0.27 
   1  -2  10    0.20    0.37 
  -2   2 -10   14.85    1.43 
   2  -2  10   13.88    1.22 
  -3   2 -10   18.43    1.59 
  -3   2 -10   19.18    1.65 
   3  -2  10   15.10    1.47 
  -4   2 -10    0.16    0.33 
  -4   2 -10    0.39    0.30 
  -4   2 -10    0.39    0.24 
   4  -2  10    0.36    0.19 
  -5   2 -10    1.08    0.32 
  -5   2 -10    1.16    0.29 
  -5   2 -10    1.02    0.25 
   5  -2  10    1.09    0.21 
  -6   2 -10    0.06    0.20 
   6  -2  10   -0.04    0.14 
 -10  -1  10   10.47    1.07 
 -10  -1  10    7.43    0.94 
  -9  -1  10    2.19    0.60 
  -9  -1  10    2.35    0.25 
  -9  -1  10    2.24    0.61 
  -8  -1  10    0.26    0.09 
  -8  -1  10    0.48    0.55 
  -8  -1  10    0.19    0.19 
  -7  -1  10    0.46    0.40 
  -7  -1  10    0.50    0.52 
  -7  -1  10    0.02    0.22 
  -6  -1  10    0.56    0.19 
  -5  -1  10   10.34    0.95 
  -4  -1  10   12.27    1.09 
  -3  -1  10   87.31    6.98 
  -3  -1  10   83.88    6.44 
  -3  -1  10   83.50    6.34 
  -2  -1  10    0.38    0.25 
  -2  -1  10    0.84    0.38 
  -1  -1  10    0.05    0.38 
  -1  -1  10    0.13    0.22 
   0  -1  10   -0.21    0.36 
   0  -1  10   -0.07    0.25 
  -1   1 -10    1.39    0.41 
  -1   1 -10    2.06    0.33 
   1  -1  10    1.64    0.28 
   1  -1  10    2.02    0.45 
  -2   1 -10   18.68    1.75 
   2  -1  10   18.46    1.58 
  -3   1 -10   14.24    1.31 
  -3   1 -10   14.93    1.33 
   3  -1  10   13.57    1.23 
  -4   1 -10    2.30    0.35 
  -4   1 -10    2.17    0.35 
  -4   1 -10    2.42    0.35 
  -5   1 -10    1.55    0.26 
  -5   1 -10    2.52    0.36 
   5  -1  10    1.42    0.26 
 -10   0  10    0.26    0.18 
 -10   0  10    0.24    0.09 
  -9   0  10    1.48    0.21 
  -9   0  10    1.79    0.59 
  -8   0  10    0.04    0.09 
  -8   0  10   -0.10    0.18 
  -7   0  10    3.25    0.51 
  -7   0  10    2.71    0.29 
  -6   0  10   10.87    1.00 
  -6   0  10   10.11    0.93 
  -5   0  10   -0.02    0.31 
  -4   0  10   26.81    2.09 
  -3   0  10   36.73    3.03 
  -3   0  10   41.94    3.01 
  -2   0  10    2.44    0.37 
  -2   0  10    2.96    0.51 
  -1   0  10    0.82    0.42 
  -1   0  10    0.96    0.29 
   0   0 -10    4.46    0.54 
   0   0  10    3.52    0.47 
   0   0  10    4.01    0.57 
   0   0  10    3.69    0.41 
   1   0  10   10.45    0.92 
  -2   0 -10    4.48    0.54 
   2   0  10    3.82    0.43 
  -3   0 -10   14.11    1.25 
  -3   0 -10   13.26    1.30 
   3   0  10   14.89    1.23 
  -4   0 -10    0.41    0.25 
  -4   0 -10    0.53    0.13 
  -5   0 -10    1.46    0.19 
  -5   0 -10    1.34    0.23 
  -5   0 -10    1.35    0.25 
 -11   1  10    0.03    0.13 
 -10   1  10    0.24    0.11 
 -10   1  10    0.04    0.19 
  -9   1  10    0.54    0.11 
  -9   1  10    0.83    0.53 
  -8   1  10    4.17    0.41 
  -7   1  10    2.31    0.49 
  -7   1  10    2.85    0.31 
  -6   1  10    0.00    0.38 
  -6   1  10   -0.34    0.26 
  -5   1  10    5.07    0.48 
  -4   1  10   14.39    1.28 
  -3   1  10   31.15    2.64 
  -3   1  10   29.86    2.41 
  -2   1  10    0.32    0.30 
  -2   1  10    0.38    0.43 
   1  -1 -10    3.16    0.49 
  -1   1  10    2.97    0.42 
  -1   1  10    3.42    0.37 
  -1   1  10    1.79    0.56 
   0  -1 -10   16.70    1.60 
   0   1  10   15.72    1.33 
   0   1  10   14.59    1.41 
   1   1  10    0.82    0.25 
  -2  -1 -10    5.79    0.64 
  -2  -1 -10    7.47    0.68 
   2   1  10    5.57    0.59 
  -3  -1 -10    0.37    0.14 
  -3  -1 -10    0.75    0.28 
   3   1  10    0.43    0.14 
  -4  -1 -10    5.98    0.57 
  -4  -1 -10    5.07    0.51 
  -4  -1 -10    5.08    0.49 
  -5  -1 -10    0.24    0.09 
  -5  -1 -10    0.49    0.15 
 -11   2  10    0.32    0.15 
 -10   2  10    0.14    0.11 
 -10   2  10    0.38    0.48 
  -9   2  10    3.47    0.63 
  -9   2  10    3.30    0.34 
  -8   2  10    7.56    0.67 
  -7   2  10    0.16    0.12 
  -6   2  10   10.08    0.92 
  -5   2  10   -0.03    0.33 
   4  -2 -10    3.50    0.55 
  -4   2  10    4.21    0.47 
   3  -2 -10    9.62    1.05 
  -3   2  10    9.80    0.85 
  -3   2  10   10.04    0.93 
  -3   2  10    9.06    0.96 
   2  -2 -10   -0.24    0.37 
  -2   2  10    0.13    0.47 
  -2   2  10    0.36    0.32 
  -2   2  10   -0.22    0.25 
   1  -2 -10    0.38    0.36 
  -1   2  10   -0.13    0.31 
  -1   2  10   -0.14    0.24 
   0   2  10    0.66    0.26 
   0   2  10    0.59    0.30 
   1   2  10   10.61    0.93 
  -2  -2 -10    0.49    0.27 
  -2  -2 -10    0.12    0.35 
   2   2  10    0.52    0.20 
  -3  -2 -10    3.54    0.43 
  -3  -2 -10    4.36    0.48 
   3   2  10    4.12    0.41 
  -4  -2 -10   -0.04    0.13 
  -4  -2 -10   -0.11    0.17 
  -4  -2 -10    0.04    0.13 
 -10   3  10   -0.04    0.10 
 -10   3  10    0.12    0.45 
  -9   3  10    4.15    0.38 
  -9   3  10    3.23    0.50 
  -8   3  10    0.45    0.56 
  -8   3  10    1.30    0.23 
  -7   3  10    0.65    0.16 
  -6   3  10    0.25    0.31 
   5  -3 -10   11.53    1.25 
  -5   3  10   11.91    1.06 
   4  -3 -10    0.10    0.39 
  -4   3  10    0.20    0.28 
   3  -3 -10    1.71    0.45 
  -3   3  10    1.95    0.32 
  -3   3  10    2.48    0.39 
   2  -3 -10    0.18    0.38 
  -2   3  10    0.21    0.23 
  -2   3  10    0.14    0.34 
   1  -3 -10    8.57    0.96 
  -1   3  10    9.23    0.87 
  -1   3  10    8.53    0.78 
   0   3  10   11.06    0.95 
   0   3  10   10.98    1.05 
   1   3  10    5.15    0.50 
  -2  -3 -10    4.46    0.47 
  -2  -3 -10    3.19    0.40 
   2   3  10    3.26    0.36 
  -3  -3 -10    0.50    0.21 
  -3  -3 -10    0.13    0.10 
  -3  -3 -10    0.33    0.19 
   3   3  10    0.44    0.17 
 -10   4  10    4.41    0.56 
 -10   4  10    4.70    0.43 
  -9   4  10    0.03    0.48 
  -9   4  10    0.26    0.14 
  -8   4  10   -0.29    0.49 
  -8   4  10    0.43    0.15 
  -7   4  10    1.43    0.39 
   6  -4 -10    9.52    1.05 
  -6   4  10    9.85    0.91 
   5  -4 -10    5.01    0.66 
   4  -4 -10   -0.17    0.40 
  -4   4  10   -0.03    0.29 
   3  -4 -10    0.67    0.37 
  -3   4  10    0.00    0.20 
  -3   4  10    0.42    0.31 
   2  -4 -10    0.28    0.35 
  -2   4  10    0.44    0.32 
  -2   4  10    0.37    0.21 
   1  -4 -10    0.43    0.32 
  -1   4  10    0.99    0.32 
  -1   4  10    0.90    0.22 
   0   4  10    0.53    0.29 
   0   4  10    0.30    0.20 
   1   4  10   22.46    1.82 
   1   4  10   21.69    1.93 
  -2  -4 -10   -0.28    0.22 
  -2  -4 -10    0.03    0.23 
  -2  -4 -10   -0.01    0.16 
   2   4  10   -0.01    0.19 
  -3  -4 -10    0.14    0.18 
  -3  -4 -10    0.02    0.16 
   3   4  10   -0.14    0.17 
 -10   5  10    0.21    0.10 
  -9   5  10    0.38    0.45 
  -9   5  10    0.67    0.14 
  -8   5  10    1.38    0.49 
  -8   5  10    1.69    0.25 
   7  -5 -10    0.36    0.33 
  -7   5  10    0.17    0.39 
   6  -5 -10    1.98    0.42 
   4  -5 -10    1.21    0.39 
  -4   5  10    1.77    0.33 
  -3   5  10    0.59    0.21 
   2  -5 -10    0.41    0.29 
   2  -5 -10   -0.14    0.28 
  -2   5  10    0.34    0.20 
  -2   5  10    0.20    0.30 
  -1   5  10    1.15    0.24 
  -1   5  10    1.74    0.33 
   0   5  10   18.58    1.55 
   0   5  10   18.99    1.65 
  -1  -5 -10    3.87    0.42 
   1   5  10    3.06    0.41 
   1   5  10    3.64    0.36 
  -2  -5 -10    1.03    0.20 
  -2  -5 -10    0.98    0.23 
   2   5  10    1.07    0.21 
  -9   6  10    0.08    0.10 
   8  -6 -10    0.04    0.24 
  -8   6  10   -0.08    0.11 
   7  -6 -10    0.02    0.29 
   6  -6 -10    2.27    0.39 
   4  -6 -10    0.21    0.28 
  -4   6  10   -0.18    0.20 
   3  -6 -10    1.77    0.34 
  -3   6  10    2.08    0.30 
   2  -6 -10    4.18    0.52 
  -2   6  10    4.15    0.50 
  -2   6  10    4.65    0.46 
  -1   6  10   12.65    1.11 
  -1   6  10   13.93    1.19 
   0   6  10    0.57    0.14 
   0   6  10    0.51    0.26 
   1   6  10    0.92    0.19 
   7  -7 -10    0.10    0.24 
   6  -7 -10    5.81    0.63 
   5  -7 -10   -0.02    0.25 
   4  -7 -10    8.34    0.91 
  -4   7  10    9.69    0.83 
  -2   7  10    7.69    0.69 
  -2   7  10    8.09    0.75 
  -1   7  10    1.45    0.22 
  -1   7  10    1.00    0.22 
   4  14 -11   -1.10    0.33 
   3  14 -11    0.87    0.37 
   2  14 -11    4.11    0.56 
  -1 -14  11   13.54    1.16 
   0 -14  11   -0.15    0.16 
   0 -14  11    0.04    0.10 
   1 -14  11    1.64    0.23 
   1 -14  11    2.01    0.24 
   2 -14  11    0.16    0.15 
   5  13 -11    0.65    0.41 
   4  13 -11   -0.13    0.45 
  -4 -13  11   -0.04    0.31 
   3  13 -11    0.04    0.46 
  -3 -13  11    2.56    0.34 
   2  13 -11    9.35    1.18 
  -2 -13  11   11.47    0.94 
   1  13 -11    0.38    0.45 
  -1 -13  11    1.84    0.26 
  -1 -13  11    2.09    0.26 
   0 -13  11    6.30    0.60 
   0 -13  11    6.04    0.59 
   0 -13  11    6.66    0.58 
   1 -13  11   -0.11    0.21 
   1 -13  11    0.12    0.12 
   1 -13  11    0.26    0.22 
   2 -13  11    4.19    0.42 
   2 -13  11    4.54    0.41 
   2 -13  11    3.84    0.42 
  -3  13 -11    0.67    0.18 
   3 -13  11    0.88    0.19 
   3 -13  11    0.39    0.19 
   6  12 -11    1.85    0.50 
  -6 -12  11    3.34    0.41 
   5  12 -11    1.16    0.47 
  -5 -12  11    0.73    0.35 
   4  12 -11    0.24    0.52 
  -4 -12  11    0.65    0.35 
   3  12 -11    3.65    0.72 
  -3 -12  11    4.03    0.45 
  -3 -12  11    4.22    0.39 
   2  12 -11    0.73    0.55 
  -2 -12  11    0.85    0.16 
  -2 -12  11    0.61    0.28 
   1  12 -11   15.43    2.05 
  -1 -12  11   20.57    1.70 
  -1 -12  11   20.21    1.68 
  -1 -12  11   21.00    1.63 
   0 -12  11    0.20    0.15 
   0 -12  11   -0.03    0.27 
   0 -12  11    0.37    0.25 
   1 -12  11    2.57    0.31 
   1 -12  11    2.49    0.35 
   1 -12  11    2.01    0.31 
   2 -12  11    2.64    0.32 
   2 -12  11    2.46    0.31 
   2 -12  11    1.85    0.29 
  -3  12 -11    1.13    0.25 
   3 -12  11    1.66    0.24 
   3 -12  11    1.70    0.25 
   3 -12  11    1.80    0.26 
  -4  12 -11    0.13    0.14 
   4 -12  11    0.22    0.17 
   4 -12  11    0.29    0.17 
  -7 -11  11    4.43    0.41 
  -7 -11  11    4.59    0.54 
   6  11 -11   -0.49    0.48 
  -6 -11  11   -0.06    0.08 
  -6 -11  11    0.02    0.38 
   5  11 -11    1.88    0.57 
  -5 -11  11    1.69    0.43 
  -5 -11  11    1.41    0.22 
  -5 -11  11    1.80    0.34 
   4  11 -11    7.36    1.02 
  -4 -11  11    7.23    0.79 
  -4 -11  11    8.00    0.73 
   3  11 -11    1.32    0.63 
  -3 -11  11    1.72    0.23 
  -3 -11  11    0.82    0.33 
   2  11 -11   20.75    2.37 
  -2 -11  11   24.40    1.92 
  -2 -11  11   21.54    1.93 
   1  11 -11    0.18    0.53 
  -1 -11  11   -0.12    0.26 
  -1 -11  11   -0.39    0.28 
  -1 -11  11    0.10    0.15 
   0 -11  11    2.49    0.39 
   0 -11  11    2.28    0.35 
   0 -11  11    2.99    0.48 
   1 -11  11    6.47    0.65 
   1 -11  11    7.32    0.67 
   1 -11  11    6.91    0.67 
   2 -11  11    6.32    0.57 
   2 -11  11    5.86    0.58 
   2 -11  11    5.61    0.57 
  -3  11 -11    1.53    0.28 
   3 -11  11    1.63    0.27 
   3 -11  11    2.10    0.30 
  -4  11 -11    0.42    0.17 
   4 -11  11    0.16    0.19 
   4 -11  11    0.51    0.21 
  -5  11 -11    1.00    0.17 
   5 -11  11    1.18    0.19 
  -8 -10  11    5.75    0.52 
  -8 -10  11    6.41    0.64 
  -7 -10  11   -0.04    0.30 
  -7 -10  11    0.21    0.21 
  -7 -10  11    0.41    0.39 
  -7 -10  11    0.54    0.30 
  -6 -10  11    0.11    0.22 
  -6 -10  11    0.02    0.31 
  -6 -10  11    0.04    0.32 
  -6 -10  11   -0.02    0.42 
  -5 -10  11   12.14    1.06 
  -5 -10  11   11.57    1.00 
  -5 -10  11   11.01    1.14 
   4  10 -11    0.63    0.66 
  -4 -10  11    1.97    0.44 
  -4 -10  11    1.59    0.34 
   3  10 -11   25.02    2.47 
  -3 -10  11   23.74    2.01 
  -3 -10  11   22.49    2.00 
   2  10 -11    3.25    0.71 
  -2 -10  11    1.83    0.25 
  -2 -10  11    1.69    0.31 
  -2 -10  11    1.92    0.29 
  -2 -10  11    1.74    0.36 
   1  10 -11    0.68    0.60 
  -1 -10  11    0.45    0.14 
  -1 -10  11    0.44    0.31 
  -1 -10  11    0.57    0.28 
  -1 -10  11    0.45    0.41 
   0  10 -11    0.49    0.39 
   0 -10  11    1.88    0.25 
   0 -10  11    1.67    0.32 
   0 -10  11    1.74    0.35 
   0 -10  11    2.31    0.46 
   1 -10  11    6.63    0.65 
   1 -10  11    6.76    0.64 
   1 -10  11    6.14    0.63 
   2 -10  11    3.96    0.44 
   2 -10  11    3.60    0.46 
   2 -10  11    4.37    0.44 
  -3  10 -11    1.53    0.26 
   3 -10  11    1.15    0.28 
   3 -10  11    1.24    0.28 
  -4  10 -11    2.52    0.36 
   4 -10  11    2.82    0.30 
   4 -10  11    2.12    0.32 
  -5  10 -11    0.52    0.15 
   5 -10  11    0.54    0.16 
   5 -10  11    0.59    0.20 
  -9  -9  11    2.39    0.23 
  -8  -9  11    0.74    0.34 
  -8  -9  11    0.88    0.42 
  -8  -9  11    0.30    0.14 
  -7  -9  11    0.42    0.43 
  -7  -9  11   -0.06    0.33 
  -7  -9  11   -0.53    0.31 
  -7  -9  11   -0.17    0.22 
  -7  -9  11   -0.47    0.34 
  -6  -9  11   11.56    1.00 
  -6  -9  11   11.07    1.14 
  -6  -9  11   11.86    1.06 
  -6  -9  11   10.15    1.06 
  -6  -9  11   12.54    1.02 
  -5  -9  11    2.92    0.32 
  -5  -9  11    1.49    0.40 
  -5  -9  11    2.01    0.52 
   4   9 -11   37.44    3.62 
  -4  -9  11   35.13    3.05 
   3   9 -11    2.54    0.72 
  -3  -9  11    2.57    0.38 
  -3  -9  11    2.14    0.29 
  -3  -9  11    2.24    0.29 
   2   9 -11    0.42    0.66 
  -2  -9  11    0.42    0.26 
  -2  -9  11    0.69    0.33 
  -2  -9  11    1.07    0.38 
  -2  -9  11    0.80    0.17 
   1   9 -11    0.50    0.62 
  -1  -9  11    0.07    0.26 
  -1  -9  11   -0.15    0.32 
  -1  -9  11   -0.10    0.38 
  -1  -9  11    0.25    0.14 
   0  -9  11    6.33    0.65 
   0  -9  11    7.32    0.72 
   0  -9  11    5.96    0.62 
   1  -9  11   10.00    0.92 
   1  -9  11   10.03    0.93 
   1  -9  11   10.30    0.90 
   2  -9  11   -0.32    0.25 
   2  -9  11    0.03    0.28 
  -3   9 -11    6.11    0.68 
   3  -9  11    6.00    0.63 
   3  -9  11    7.25    0.61 
  -4   9 -11    0.55    0.20 
   4  -9  11    0.50    0.20 
   4  -9  11    0.60    0.24 
  -5   9 -11    1.78    0.27 
   5  -9  11    1.28    0.24 
  -9  -8  11    2.54    0.42 
  -9  -8  11    2.86    0.46 
  -9  -8  11    2.63    0.26 
  -8  -8  11    0.13    0.43 
  -8  -8  11   -0.01    0.37 
  -8  -8  11   -0.20    0.23 
  -8  -8  11   -0.05    0.20 
  -7  -8  11    8.91    0.84 
  -7  -8  11    9.84    0.92 
  -7  -8  11   10.71    1.00 
  -7  -8  11    9.02    0.92 
  -6  -8  11    0.22    0.46 
  -6  -8  11   -0.10    0.34 
  -6  -8  11   -0.17    0.15 
  -6  -8  11   -0.41    0.33 
  -6  -8  11    0.07    0.38 
  -5  -8  11   19.44    1.81 
  -5  -8  11   20.14    1.73 
  -4  -8  11    0.17    0.31 
  -4  -8  11    0.35    0.33 
  -4  -8  11    0.09    0.11 
   3   8 -11    3.34    0.81 
  -3  -8  11    3.06    0.38 
  -3  -8  11    4.76    0.48 
  -3  -8  11    4.14    0.47 
   2   8 -11    2.39    0.67 
  -2  -8  11    1.12    0.32 
  -2  -8  11    1.16    0.31 
  -2  -8  11    0.45    0.21 
  -2  -8  11    0.68    0.25 
  -2  -8  11    1.26    0.35 
   1   8 -11   -0.28    0.58 
  -1  -8  11    0.43    0.26 
  -1  -8  11    0.00    0.30 
  -1  -8  11    0.78    0.37 
  -1  -8  11    0.66    0.25 
   0   8 -11    9.39    0.97 
   0  -8  11    8.06    0.80 
   0  -8  11    7.78    0.77 
   0  -8  11    8.99    0.86 
   1  -8  11   -0.33    0.34 
   1  -8  11   -0.24    0.30 
   1  -8  11   -0.14    0.25 
  -2   8 -11    5.77    0.81 
   2  -8  11    7.04    0.65 
   2  -8  11    7.23    0.67 
  -3   8 -11   -0.36    0.15 
  -3   8 -11    0.02    0.39 
   3  -8  11    0.08    0.27 
   3  -8  11   -0.59    0.23 
  -4   8 -11    1.25    0.26 
  -4   8 -11    2.44    0.40 
   4  -8  11    2.04    0.31 
   4  -8  11    2.23    0.26 
  -5   8 -11   -0.17    0.29 
  -5   8 -11   -0.03    0.13 
   5  -8  11    0.39    0.21 
 -10  -7  11    3.51    0.49 
  -9  -7  11    1.44    0.45 
  -9  -7  11   -0.15    0.40 
  -9  -7  11    0.20    0.20 
  -8  -7  11    9.15    0.88 
  -8  -7  11   10.26    0.97 
  -8  -7  11   11.19    1.05 
  -8  -7  11   10.01    0.87 
  -7  -7  11    1.22    0.25 
  -7  -7  11    1.59    0.38 
  -7  -7  11    1.37    0.30 
  -7  -7  11    1.34    0.54 
  -7  -7  11    1.14    0.43 
  -6  -7  11   18.16    1.79 
  -6  -7  11   22.08    1.95 
  -6  -7  11   19.92    1.77 
  -6  -7  11   24.20    1.87 
  -6  -7  11   21.23    1.86 
  -6  -7  11   22.88    1.80 
  -5  -7  11    0.67    0.34 
  -5  -7  11    0.00    0.33 
  -5  -7  11    0.79    0.16 
  -5  -7  11    0.67    0.33 
  -4  -7  11    0.14    0.32 
  -4  -7  11    0.74    0.32 
  -4  -7  11    0.25    0.16 
   3   7 -11    2.72    0.70 
  -3  -7  11    2.09    0.37 
  -3  -7  11    3.04    0.40 
  -3  -7  11    1.99    0.40 
   2   7 -11    2.64    0.62 
  -2  -7  11    0.74    0.32 
  -2  -7  11    0.78    0.23 
  -2  -7  11    0.70    0.33 
  -2  -7  11    0.81    0.17 
   1   7 -11   17.98    1.99 
  -1  -7  11   18.49    1.57 
  -1  -7  11   19.25    1.64 
  -1  -7  11   18.96    1.52 
  -1  -7  11   19.20    1.67 
   0   7 -11    0.54    0.37 
   0  -7  11    0.03    0.33 
   0  -7  11    0.30    0.30 
   0  -7  11    0.10    0.36 
   0  -7  11    0.08    0.26 
  -1   7 -11    0.75    0.33 
   1  -7  11    1.54    0.30 
   1  -7  11    1.10    0.29 
   1  -7  11    0.99    0.38 
  -2   7 -11    0.30    0.46 
   2  -7  11    0.69    0.25 
   2  -7  11    0.40    0.29 
  -3   7 -11    2.61    0.56 
  -3   7 -11    2.34    0.43 
   3  -7  11    3.57    0.37 
   3  -7  11    3.47    0.41 
  -4   7 -11    0.29    0.38 
  -4   7 -11    0.16    0.16 
   4  -7  11    0.11    0.24 
   4  -7  11    0.18    0.19 
  -5   7 -11    4.06    0.41 
  -5   7 -11    4.16    0.49 
   5  -7  11    3.34    0.39 
  -6   7 -11    2.53    0.27 
 -10  -6  11    0.10    0.16 
 -10  -6  11   -0.15    0.40 
  -9  -6  11    3.46    0.55 
  -9  -6  11    3.21    0.51 
  -9  -6  11    2.40    0.31 
  -8  -6  11    4.61    0.44 
  -8  -6  11    4.23    0.59 
  -8  -6  11    4.35    0.65 
  -8  -6  11    4.16    0.47 
  -7  -6  11   10.57    1.05 
  -7  -6  11   10.12    0.85 
  -7  -6  11    8.71    0.86 
  -7  -6  11    9.28    0.95 
  -6  -6  11    0.25    0.44 
  -6  -6  11    0.37    0.39 
  -6  -6  11    1.07    0.24 
  -6  -6  11    0.31    0.39 
  -6  -6  11    0.26    0.27 
  -5  -6  11    5.21    0.50 
  -5  -6  11    5.03    0.59 
  -5  -6  11    4.78    0.58 
  -4  -6  11    1.17    0.26 
  -4  -6  11    1.14    0.34 
  -4  -6  11    0.49    0.34 
  -3  -6  11    0.96    0.31 
  -3  -6  11    1.32    0.34 
  -2  -6  11    9.82    0.88 
  -2  -6  11    8.91    0.89 
  -1  -6  11    0.83    0.35 
  -1  -6  11    1.00    0.32 
   0   6 -11    7.88    0.86 
   0  -6  11    7.25    0.75 
   0  -6  11    7.73    0.78 
   0  -6  11    8.17    0.72 
   0  -6  11    8.23    0.79 
  -1   6 -11    2.78    0.45 
   1  -6  11    2.91    0.45 
   1  -6  11    3.42    0.39 
   1  -6  11    3.29    0.41 
  -2   6 -11    4.55    0.69 
   2  -6  11    4.51    0.46 
   2  -6  11    4.53    0.50 
  -3   6 -11    0.09    0.46 
  -3   6 -11   -0.15    0.28 
   3  -6  11    0.00    0.19 
   3  -6  11   -0.05    0.25 
  -4   6 -11    3.12    0.54 
   4  -6  11    3.53    0.35 
  -5   6 -11    4.73    0.59 
  -5   6 -11    5.44    0.60 
  -6   6 -11    0.13    0.09 
 -10  -5  11    4.21    0.63 
  -9  -5  11    3.42    0.31 
  -9  -5  11    3.29    0.59 
  -9  -5  11    2.70    0.56 
  -8  -5  11    3.66    0.59 
  -8  -5  11    4.49    0.43 
  -8  -5  11    3.91    0.65 
  -7  -5  11    0.02    0.22 
  -7  -5  11    0.68    0.41 
  -7  -5  11    0.09    0.19 
  -7  -5  11    0.59    0.47 
  -6  -5  11   11.49    1.16 
  -6  -5  11   10.60    1.08 
  -6  -5  11   11.99    1.01 
  -6  -5  11   11.63    1.08 
  -5  -5  11   12.97    1.23 
  -5  -5  11   14.34    1.24 
  -5  -5  11   13.98    1.19 
  -4  -5  11    4.55    0.53 
  -3  -5  11    1.89    0.33 
  -3  -5  11    2.17    0.38 
  -2  -5  11    0.75    0.29 
  -2  -5  11    0.13    0.29 
  -2  -5  11    0.06    0.31 
  -1  -5  11    6.57    0.68 
  -1  -5  11    5.59    0.67 
  -1  -5  11    7.12    0.65 
   0   5 -11    8.86    0.88 
   0  -5  11    7.65    0.71 
   0  -5  11    7.47    0.79 
   0  -5  11    7.62    0.79 
  -1   5 -11   20.83    2.16 
   1  -5  11   21.29    1.94 
   1  -5  11   23.64    1.82 
  -2   5 -11    3.02    0.57 
   2  -5  11    2.44    0.31 
  -3   5 -11    0.23    0.28 
  -3   5 -11    0.51    0.45 
   3  -5  11    0.18    0.15 
  -4   5 -11    5.93    0.72 
   4  -5  11    6.26    0.55 
  -5   5 -11   -0.10    0.30 
  -5   5 -11   -0.48    0.27 
 -10  -4  11    5.02    0.69 
  -9  -4  11   -0.22    0.51 
  -9  -4  11    0.06    0.44 
  -9  -4  11    0.00    0.08 
  -8  -4  11    0.01    0.08 
  -8  -4  11   -0.20    0.41 
  -8  -4  11   -0.19    0.50 
  -7  -4  11    2.13    0.24 
  -7  -4  11    2.22    0.46 
  -7  -4  11    2.14    0.34 
  -7  -4  11    2.13    0.54 
  -6  -4  11   41.77    3.19 
  -6  -4  11   33.79    3.21 
  -6  -4  11   38.24    3.17 
  -5  -4  11    6.63    0.70 
  -5  -4  11    7.64    0.64 
  -5  -4  11    5.49    0.68 
  -4  -4  11    0.98    0.34 
  -4  -4  11    0.72    0.22 
  -3  -4  11    2.71    0.41 
  -3  -4  11    2.84    0.37 
  -2  -4  11    2.88    0.44 
  -2  -4  11    3.12    0.42 
  -2  -4  11    3.18    0.40 
  -1  -4  11   -0.30    0.36 
  -1  -4  11    0.40    0.30 
  -1  -4  11    0.35    0.26 
   0   4 -11   73.75    6.84 
   0  -4  11   73.51    6.01 
   0  -4  11   64.85    5.36 
   0  -4  11   67.84    5.86 
   0  -4  11   74.05    5.74 
   1  -4  11    8.83    0.75 
   1  -4  11    7.99    0.83 
  -2   4 -11    0.55    0.44 
   2  -4  11    0.18    0.19 
  -3   4 -11    2.16    0.49 
  -3   4 -11    0.81    0.34 
   3  -4  11    2.23    0.26 
  -4   4 -11    0.00    0.35 
  -4   4 -11    0.14    0.23 
   4  -4  11   -0.15    0.15 
  -5   4 -11    1.66    0.33 
  -5   4 -11    1.75    0.32 
 -10  -3  11    0.07    0.44 
 -10  -3  11   -0.67    0.46 
  -9  -3  11    4.41    0.67 
  -9  -3  11    4.62    0.58 
  -9  -3  11    3.64    0.35 
  -8  -3  11    2.25    0.48 
  -8  -3  11    3.65    0.63 
  -8  -3  11    2.27    0.31 
  -7  -3  11    5.73    0.58 
  -7  -3  11    6.23    0.61 
  -7  -3  11    6.21    0.69 
  -7  -3  11    7.36    0.80 
  -6  -3  11    8.37    0.79 
  -6  -3  11    9.04    0.87 
  -5  -3  11   22.45    1.88 
  -5  -3  11   21.66    1.90 
  -4  -3  11    5.24    0.54 
  -4  -3  11    6.15    0.60 
  -3  -3  11    3.13    0.41 
  -3  -3  11    3.29    0.39 
  -2  -3  11    0.07    0.32 
  -2  -3  11    0.14    0.25 
  -2  -3  11    0.11    0.27 
  -1  -3  11   33.95    2.69 
  -1  -3  11   30.00    2.61 
  -1  -3  11   29.02    2.45 
   0   3 -11    5.33    0.64 
   0  -3  11    4.94    0.50 
   0  -3  11    5.48    0.57 
   0  -3  11    5.47    0.64 
   1  -3  11    0.94    0.30 
   1  -3  11    0.87    0.22 
  -2   3 -11    0.78    0.44 
   2  -3  11    0.92    0.23 
  -3   3 -11   -0.17    0.35 
  -3   3 -11    0.02    0.23 
   3  -3  11   -0.10    0.16 
  -4   3 -11    2.67    0.40 
  -4   3 -11    4.21    0.46 
   4  -3  11    3.38    0.35 
  -5   3 -11   -0.10    0.24 
  -5   3 -11   -0.04    0.23 
 -10  -2  11    1.02    0.46 
  -9  -2  11    2.97    0.29 
  -9  -2  11    3.40    0.60 
  -9  -2  11    2.38    0.54 
  -8  -2  11    4.44    0.42 
  -8  -2  11    5.03    0.72 
  -7  -2  11    0.89    0.22 
  -7  -2  11    0.56    0.25 
  -7  -2  11    0.69    0.53 
  -6  -2  11   13.76    1.21 
  -6  -2  11   14.14    1.27 
  -5  -2  11    4.38    0.56 
  -5  -2  11    5.00    0.51 
  -4  -2  11    1.06    0.28 
  -4  -2  11    1.13    0.31 
  -3  -2  11    1.36    0.35 
  -3  -2  11    2.00    0.33 
  -3  -2  11    1.52    0.31 
  -2  -2  11   63.21    4.82 
  -2  -2  11   64.83    5.42 
   1   2 -11    3.41    0.51 
  -1  -2  11    2.94    0.42 
  -1  -2  11    3.38    0.53 
  -1  -2  11    3.65    0.37 
   0   2 -11    1.28    0.37 
   0  -2  11    1.46    0.31 
   0  -2  11    1.20    0.24 
   0  -2  11   -0.09    0.44 
  -1   2 -11    9.11    1.10 
   1  -2  11   10.32    1.03 
   1  -2  11   12.30    0.95 
  -2   2 -11    2.60    0.51 
   2  -2  11    2.86    0.35 
  -3   2 -11    5.13    0.63 
  -3   2 -11    6.62    0.61 
  -3   2 -11    4.56    0.59 
   3  -2  11    5.57    0.53 
  -4   2 -11    0.38    0.25 
  -4   2 -11    0.09    0.25 
  -4   2 -11    0.37    0.22 
   4  -2  11    0.50    0.17 
  -5   2 -11    1.13    0.21 
  -5   2 -11    1.76    0.30 
 -10  -1  11    3.07    0.29 
 -10  -1  11    3.13    0.55 
  -9  -1  11    0.43    0.10 
  -8  -1  11    4.32    0.41 
  -7  -1  11    0.81    0.29 
  -7  -1  11    1.54    0.28 
  -6  -1  11    1.46    0.28 
  -6  -1  11    1.60    0.33 
  -5  -1  11   21.21    1.74 
  -5  -1  11   19.03    1.75 
  -4  -1  11    0.36    0.28 
  -4  -1  11    0.53    0.29 
  -4  -1  11   -0.34    0.28 
  -3  -1  11   11.78    0.98 
  -3  -1  11    8.35    0.92 
   2   1 -11   23.68    2.34 
  -2  -1  11   21.46    1.90 
  -2  -1  11   24.14    2.06 
  -2  -1  11   24.25    1.94 
   1   1 -11   -0.38    0.34 
  -1  -1  11    0.01    0.21 
  -1  -1  11    0.10    0.39 
  -1  -1  11    0.03    0.27 
   0   1 -11    0.76    0.34 
   0  -1  11    0.59    0.21 
   0  -1  11    0.57    0.30 
  -1   1 -11    3.47    0.52 
   1  -1  11    4.06    0.40 
   1  -1  11    3.02    0.49 
  -2   1 -11   10.81    1.26 
   2  -1  11   14.89    1.15 
  -3   1 -11    0.85    0.27 
  -3   1 -11    0.84    0.27 
  -3   1 -11    1.26    0.27 
   3  -1  11    0.70    0.20 
  -4   1 -11    4.38    0.46 
  -4   1 -11    4.81    0.51 
   4  -1  11    4.48    0.44 
  -5   1 -11    0.93    0.19 
 -10   0  11   -0.22    0.39 
 -10   0  11    0.08    0.08 
  -9   0  11   -0.04    0.10 
  -8   0  11    5.85    0.53 
  -7   0  11   -0.03    0.17 
  -7   0  11    0.00    0.26 
  -6   0  11    4.89    0.62 
  -6   0  11    5.38    0.54 
  -5   0  11    4.49    0.51 
   4   0 -11   18.24    1.88 
  -4   0  11   19.26    1.61 
  -4   0  11   19.29    1.66 
   3   0 -11    1.73    0.39 
  -3   0  11    1.70    0.43 
  -3   0  11    1.38    0.36 
   2   0 -11    7.91    0.90 
  -2   0  11    8.37    0.73 
  -2   0  11    8.21    0.80 
  -2   0  11    7.77    0.84 
   1   0 -11   25.41    2.50 
  -1   0  11   24.44    2.21 
  -1   0  11   26.04    2.09 
   0   0 -11    0.48    0.37 
   0   0  11    0.52    0.30 
   0   0  11    0.65    0.24 
   1   0  11   22.42    1.98 
   1   0  11   25.50    2.11 
  -2   0 -11    4.11    0.50 
  -2   0 -11    2.86    0.46 
   2   0  11    3.99    0.40 
  -3   0 -11    3.21    0.42 
  -3   0 -11    4.15    0.46 
   3   0  11    3.66    0.39 
  -4   0 -11    0.65    0.23 
  -4   0 -11    0.33    0.15 
  -4   0 -11    0.32    0.11 
   4   0  11    0.66    0.17 
 -10   1  11    1.91    0.23 
 -10   1  11    1.54    0.32 
  -9   1  11    0.42    0.11 
  -8   1  11    0.67    0.14 
  -7   1  11   16.46    1.41 
  -6   1  11    0.01    0.33 
  -5   1  11   14.87    1.32 
   4  -1 -11    5.03    0.66 
  -4   1  11    5.03    0.56 
   3  -1 -11   -0.03    0.35 
  -3   1  11   -0.27    0.31 
   2  -1 -11   15.45    1.61 
  -2   1  11   15.81    1.33 
  -2   1  11   16.39    1.44 
   1  -1 -11   13.22    1.41 
  -1   1  11   13.60    1.25 
  -1   1  11   13.98    1.16 
   0   1  11   28.23    2.61 
   0   1  11   31.53    2.47 
   1   1  11    0.33    0.22 
   1   1  11    0.41    0.30 
  -2  -1 -11    4.90    0.54 
  -2  -1 -11    3.35    0.46 
   2   1  11    4.01    0.41 
  -3  -1 -11   -0.03    0.10 
  -3  -1 -11   -0.17    0.23 
   3   1  11   -0.28    0.15 
  -4  -1 -11    1.99    0.26 
  -4  -1 -11    2.84    0.30 
   4   1  11    2.24    0.25 
 -10   2  11    0.74    0.18 
 -10   2  11    0.60    0.26 
  -9   2  11    0.00    0.26 
  -8   2  11   11.66    1.01 
  -7   2  11    0.28    0.30 
  -6   2  11   23.89    2.04 
   5  -2 -11    7.57    0.85 
  -5   2  11    6.70    0.71 
   4  -2 -11    0.31    0.43 
  -4   2  11    0.17    0.29 
   3  -2 -11    4.76    0.63 
  -3   2  11    4.26    0.52 
  -3   2  11    4.05    0.44 
   2  -2 -11    1.36    0.41 
  -2   2  11    1.66    0.29 
  -2   2  11    1.67    0.38 
   1  -2 -11   36.05    3.73 
  -1   2  11   39.96    3.13 
  -1   2  11   39.18    3.30 
   0   2  11    1.98    0.37 
   0   2  11    2.12    0.31 
  -1  -2 -11    1.56    0.33 
   1   2  11    2.16    0.28 
   1   2  11    1.56    0.34 
  -2  -2 -11    0.26    0.28 
  -2  -2 -11    0.25    0.21 
   2   2  11    0.02    0.16 
  -3  -2 -11    1.53    0.25 
  -3  -2 -11    1.12    0.22 
  -3  -2 -11    1.49    0.26 
  -3  -2 -11    1.08    0.20 
   3   2  11    1.61    0.21 
 -10   3  11    0.16    0.10 
  -9   3  11    4.98    0.48 
  -8   3  11    0.08    0.31 
  -7   3  11   14.92    1.32 
   6  -3 -11    6.92    0.79 
  -6   3  11    6.23    0.67 
   5  -3 -11    2.51    0.49 
   4  -3 -11    0.83    0.40 
  -4   3  11    0.58    0.30 
   3  -3 -11   -0.02    0.37 
  -3   3  11    0.03    0.18 
  -3   3  11    0.08    0.30 
   2  -3 -11   10.75    1.22 
  -2   3  11   12.13    1.00 
  -2   3  11   11.92    1.08 
   1  -3 -11   -0.43    0.31 
  -1   3  11   -0.04    0.30 
  -1   3  11   -0.17    0.21 
   0   3  11    4.65    0.44 
   0   3  11    4.37    0.52 
  -1  -3 -11   -0.05    0.22 
   1   3  11    0.02    0.16 
   1   3  11   -0.04    0.23 
  -2  -3 -11    0.15    0.15 
  -2  -3 -11    0.15    0.19 
  -2  -3 -11   -0.42    0.24 
   2   3  11    0.44    0.16 
  -9   4  11    0.36    0.12 
  -8   4  11    4.27    0.44 
   7  -4 -11    2.70    0.43 
  -7   4  11    2.29    0.43 
   6  -4 -11    1.32    0.42 
   5  -4 -11    8.13    0.94 
   4  -4 -11    2.29    0.46 
  -4   4  11    2.76    0.37 
   3  -4 -11    1.50    0.37 
  -3   4  11    1.14    0.23 
  -3   4  11    1.16    0.31 
   2  -4 -11    1.42    0.35 
  -2   4  11    1.72    0.34 
  -2   4  11    1.20    0.24 
  -1   4  11    0.98    0.30 
  -1   4  11    1.05    0.20 
   0   4  11    0.11    0.25 
   0   4  11   -0.05    0.16 
  -1  -4 -11    0.10    0.15 
  -1  -4 -11    0.59    0.24 
   1   4  11    0.38    0.22 
   1   4  11    0.34    0.16 
   2   4  11    0.30    0.14 
   8  -5 -11    0.11    0.25 
  -8   5  11    0.64    0.13 
   7  -5 -11   -0.12    0.29 
   6  -5 -11    3.74    0.50 
   5  -5 -11    2.35    0.47 
   4  -5 -11    1.56    0.35 
  -4   5  11    1.72    0.32 
   3  -5 -11    6.16    0.69 
  -3   5  11    6.55    0.63 
  -2   5  11    0.34    0.23 
  -2   5  11    0.79    0.28 
  -1   5  11    0.46    0.18 
  -1   5  11   -0.21    0.25 
   0   5  11    0.77    0.17 
   0   5  11    0.21    0.24 
   1   5  11    2.43    0.27 
   6  -6 -11    4.37    0.52 
   5  -6 -11    2.78    0.43 
   4  -6 -11    1.41    0.30 
   3  -6 -11    0.02    0.21 
  -3   6  11   -0.01    0.18 
  -2   6  11    0.00    0.24 
  -2   6  11   -0.09    0.18 
  -1   6  11    2.69    0.29 
   0 -14  12    0.11    0.08 
   5  13 -12    0.50    0.35 
   4  13 -12    2.42    0.50 
   3  13 -12    1.61    0.44 
   2  13 -12    2.06    0.44 
  -2 -13  12    2.43    0.24 
  -2 -13  12    2.26    0.30 
   1  13 -12    0.04    0.10 
  -1 -13  12   -0.13    0.21 
  -1 -13  12   -0.11    0.09 
   0 -13  12    0.75    0.21 
   0 -13  12    0.75    0.21 
   0 -13  12    0.40    0.12 
   1 -13  12    0.56    0.20 
   1 -13  12    1.00    0.20 
   1 -13  12    0.39    0.11 
   2 -13  12    0.27    0.16 
   2 -13  12    0.22    0.08 
   2 -13  12   -0.14    0.17 
   6  12 -12    0.06    0.36 
   5  12 -12    2.85    0.61 
  -5 -12  12    4.15    0.48 
   4  12 -12    2.31    0.58 
  -4 -12  12    2.23    0.34 
   3  12 -12    2.27    0.61 
  -3 -12  12    3.32    0.37 
   2  12 -12   -0.13    0.45 
  -2 -12  12    0.16    0.10 
  -2 -12  12    0.58    0.26 
   1  12 -12    0.14    0.34 
  -1 -12  12    0.08    0.22 
  -1 -12  12    0.29    0.23 
  -1 -12  12    0.07    0.11 
   0 -12  12    1.32    0.23 
   0 -12  12    1.11    0.27 
   0 -12  12    0.85    0.25 
   1 -12  12    2.29    0.32 
   1 -12  12    2.39    0.31 
   1 -12  12    2.26    0.28 
   2 -12  12    2.02    0.28 
   2 -12  12    1.87    0.27 
   2 -12  12    1.64    0.24 
   3 -12  12    0.01    0.19 
   3 -12  12    0.02    0.16 
  -7 -11  12    0.00    0.07 
  -7 -11  12   -0.03    0.10 
   6  11 -12    1.16    0.50 
  -6 -11  12    1.52    0.19 
  -6 -11  12    1.00    0.38 
  -6 -11  12    1.30    0.31 
   5  11 -12    2.72    0.68 
  -5 -11  12    3.99    0.44 
  -5 -11  12    3.53    0.52 
   4  11 -12    3.23    0.71 
  -4 -11  12    3.48    0.41 
   3  11 -12   -0.11    0.55 
  -3 -11  12    0.05    0.08 
  -3 -11  12   -0.26    0.27 
   2  11 -12    1.24    0.59 
  -2 -11  12    2.31    0.33 
  -2 -11  12    1.86    0.26 
   1  11 -12    1.50    0.51 
  -1 -11  12    2.16    0.30 
  -1 -11  12    2.58    0.36 
  -1 -11  12    3.00    0.33 
   0  11 -12    0.51    0.30 
   0 -11  12    0.95    0.27 
   0 -11  12    1.50    0.36 
   0 -11  12    0.61    0.26 
   1 -11  12   12.18    1.11 
   1 -11  12   13.31    1.15 
   1 -11  12   14.15    1.20 
   2 -11  12    0.24    0.22 
   2 -11  12    0.19    0.11 
  -3  11 -12    6.19    0.65 
   3 -11  12    6.20    0.61 
   3 -11  12    7.08    0.61 
   3 -11  12    7.14    0.60 
  -4  11 -12   -0.15    0.12 
   4 -11  12   -0.03    0.16 
   4 -11  12    0.02    0.14 
  -8 -10  12   -0.12    0.12 
  -8 -10  12    0.02    0.07 
  -7 -10  12    3.04    0.37 
  -7 -10  12    2.33    0.27 
  -7 -10  12    3.17    0.46 
  -6 -10  12    0.12    0.39 
  -6 -10  12    0.12    0.09 
  -6 -10  12   -0.08    0.30 
   5  10 -12    3.70    0.75 
  -5 -10  12    4.19    0.49 
  -5 -10  12    4.68    0.58 
  -5 -10  12    4.01    0.40 
   4  10 -12    6.03    0.90 
  -4 -10  12    5.42    0.58 
   3  10 -12    5.32    0.79 
  -3 -10  12    4.17    0.48 
  -3 -10  12    3.82    0.39 
   2  10 -12    4.84    0.81 
  -2 -10  12    4.62    0.51 
  -2 -10  12    4.31    0.45 
   1  10 -12    0.59    0.47 
  -1 -10  12    0.84    0.35 
  -1 -10  12    0.45    0.26 
  -1 -10  12    0.56    0.30 
   0  10 -12   16.90    1.78 
   0 -10  12   19.05    1.55 
   0 -10  12   18.93    1.59 
   0 -10  12   16.69    1.49 
   1 -10  12    1.36    0.28 
   1 -10  12    1.04    0.36 
   1 -10  12    1.26    0.30 
   2 -10  12    8.28    0.76 
   2 -10  12    8.17    0.78 
   2 -10  12    9.14    0.82 
  -3  10 -12    2.22    0.36 
   3 -10  12    2.35    0.30 
   3 -10  12    2.57    0.32 
  -4  10 -12    0.83    0.18 
   4 -10  12    1.07    0.18 
   4 -10  12    0.75    0.20 
  -8  -9  12    1.95    0.43 
  -8  -9  12    2.04    0.24 
  -8  -9  12    3.11    0.39 
  -7  -9  12    0.76    0.34 
  -7  -9  12    0.39    0.43 
  -7  -9  12    0.44    0.10 
  -6  -9  12    5.30    0.63 
  -6  -9  12    5.95    0.70 
  -6  -9  12    6.17    0.57 
   5   9 -12    5.71    0.82 
  -5  -9  12    4.11    0.42 
  -5  -9  12    4.49    0.53 
   4   9 -12    9.46    1.26 
  -4  -9  12   10.32    0.94 
   3   9 -12    4.50    0.81 
  -3  -9  12    4.33    0.49 
  -3  -9  12    3.87    0.40 
   2   9 -12    2.44    0.69 
  -2  -9  12    2.45    0.40 
  -2  -9  12    2.70    0.32 
  -2  -9  12    2.64    0.31 
   1   9 -12   46.73    4.07 
  -1  -9  12   38.55    3.38 
  -1  -9  12   41.45    3.56 
  -1  -9  12   40.58    3.50 
   0   9 -12    0.37    0.33 
   0  -9  12    0.48    0.31 
   0  -9  12    0.78    0.27 
   0  -9  12    0.58    0.35 
   1  -9  12    5.65    0.58 
   1  -9  12    6.09    0.66 
   1  -9  12    6.31    0.60 
   2  -9  12    6.16    0.57 
   2  -9  12    4.71    0.55 
   2  -9  12    6.56    0.62 
  -3   9 -12    1.92    0.35 
   3  -9  12    2.14    0.31 
   3  -9  12    1.98    0.27 
  -4   9 -12    1.20    0.21 
   4  -9  12    1.53    0.21 
   4  -9  12    1.50    0.25 
  -9  -8  12    0.69    0.13 
  -9  -8  12    1.10    0.35 
  -9  -8  12    0.62    0.32 
  -8  -8  12    1.35    0.18 
  -8  -8  12    1.37    0.39 
  -8  -8  12    1.17    0.43 
  -7  -8  12   14.43    1.23 
  -7  -8  12   13.76    1.29 
  -7  -8  12   14.73    1.36 
  -6  -8  12    4.44    0.54 
  -6  -8  12    3.99    0.59 
  -6  -8  12    3.84    0.44 
   4   8 -12    6.30    0.85 
  -4  -8  12    4.81    0.49 
  -4  -8  12    5.01    0.58 
   3   8 -12    0.38    0.62 
  -3  -8  12    0.63    0.31 
  -3  -8  12    0.15    0.10 
  -3  -8  12    0.00    0.32 
   2   8 -12   31.85    3.18 
  -2  -8  12   32.96    2.67 
  -2  -8  12   30.61    2.57 
  -2  -8  12   29.25    2.62 
  -2  -8  12   33.36    2.71 
   1   8 -12   20.16    1.74 
  -1  -8  12   15.82    1.49 
  -1  -8  12   15.79    1.43 
  -1  -8  12   15.82    1.52 
  -1  -8  12   18.05    1.48 
   0   8 -12    2.87    0.45 
   0  -8  12    2.86    0.44 
   0  -8  12    2.77    0.40 
   0  -8  12    2.98    0.37 
  -1   8 -12    1.60    0.48 
   1  -8  12    1.18    0.27 
   1  -8  12    0.85    0.28 
   1  -8  12    0.83    0.34 
  -2   8 -12    0.01    0.45 
   2  -8  12   -0.20    0.26 
   2  -8  12   -0.01    0.22 
   2  -8  12   -0.34    0.31 
  -3   8 -12    0.37    0.18 
  -3   8 -12    0.04    0.37 
   3  -8  12    0.89    0.20 
   3  -8  12    0.86    0.25 
  -4   8 -12   -0.01    0.13 
  -4   8 -12   -0.29    0.29 
   4  -8  12   -0.10    0.20 
   4  -8  12    0.33    0.15 
  -5   8 -12    0.16    0.11 
  -9  -7  12   -0.03    0.36 
  -9  -7  12   -0.35    0.38 
  -9  -7  12    0.09    0.07 
  -8  -7  12   22.52    1.88 
  -8  -7  12   19.41    1.73 
  -8  -7  12   20.83    1.80 
  -7  -7  12   17.22    1.55 
  -7  -7  12   17.20    1.49 
  -7  -7  12   18.15    1.62 
  -6  -7  12    6.17    0.57 
  -6  -7  12    5.31    0.67 
  -5  -7  12    6.24    0.57 
  -5  -7  12    5.62    0.61 
  -5  -7  12    5.16    0.55 
   4   7 -12    2.04    0.63 
  -4  -7  12    1.99    0.31 
  -4  -7  12    1.55    0.38 
  -4  -7  12    1.64    0.38 
   3   7 -12    2.05    0.66 
  -3  -7  12    2.79    0.42 
  -3  -7  12    2.97    0.39 
  -3  -7  12    3.03    0.43 
   2   7 -12   14.51    1.90 
  -2  -7  12   17.28    1.60 
  -2  -7  12   20.23    1.63 
  -2  -7  12   20.76    1.60 
  -2  -7  12   18.57    1.52 
   1   7 -12   22.99    1.98 
  -1  -7  12   18.18    1.71 
  -1  -7  12   19.78    1.74 
  -1  -7  12   19.40    1.70 
  -1  -7  12   18.41    1.63 
   0   7 -12    0.19    0.33 
   0  -7  12    0.16    0.29 
   0  -7  12    0.28    0.32 
   0  -7  12    0.11    0.24 
   1  -7  12    0.60    0.22 
   1  -7  12    0.12    0.32 
   1  -7  12    0.01    0.26 
  -2   7 -12   -0.38    0.45 
   2  -7  12    0.14    0.20 
   2  -7  12    0.01    0.26 
  -3   7 -12    0.37    0.39 
  -3   7 -12    0.19    0.17 
   3  -7  12    0.31    0.24 
   3  -7  12    0.71    0.20 
  -4   7 -12    3.27    0.38 
  -4   7 -12    3.20    0.46 
   4  -7  12    3.12    0.32 
  -5   7 -12    0.02    0.11 
   5  -7  12    0.07    0.13 
 -10  -6  12    0.40    0.16 
  -9  -6  12    0.14    0.43 
  -9  -6  12    0.74    0.20 
  -9  -6  12    0.26    0.42 
  -8  -6  12   11.49    1.05 
  -8  -6  12   11.70    1.11 
  -8  -6  12   10.53    0.94 
  -7  -6  12   16.96    1.56 
  -7  -6  12   18.71    1.50 
  -7  -6  12   16.11    1.63 
  -6  -6  12    1.21    0.43 
  -6  -6  12    1.89    0.31 
  -5  -6  12    6.34    0.70 
  -5  -6  12    6.97    0.63 
  -5  -6  12    6.01    0.68 
   4   6 -12   -0.26    0.52 
  -4  -6  12    0.41    0.28 
  -4  -6  12   -0.73    0.32 
  -4  -6  12    0.41    0.33 
   3   6 -12   -0.20    0.46 
  -3  -6  12    0.19    0.34 
  -3  -6  12   -0.04    0.26 
  -3  -6  12    0.22    0.31 
   2   6 -12   18.58    1.81 
  -2  -6  12   18.42    1.58 
  -2  -6  12   17.05    1.48 
  -2  -6  12   20.21    1.56 
  -2  -6  12   15.65    1.55 
   1   6 -12    6.02    0.68 
  -1  -6  12    6.90    0.60 
  -1  -6  12    5.14    0.52 
  -1  -6  12    5.53    0.61 
  -1  -6  12    4.74    0.59 
   0   6 -12    1.28    0.34 
   0  -6  12    1.15    0.31 
   0  -6  12    0.77    0.29 
   0  -6  12    1.09    0.24 
   0  -6  12    1.01    0.33 
   1  -6  12    0.26    0.21 
   1  -6  12    0.22    0.30 
  -2   6 -12    0.81    0.49 
   2  -6  12    1.49    0.24 
  -3   6 -12    2.93    0.52 
  -3   6 -12    2.00    0.49 
   3  -6  12    3.18    0.32 
  -4   6 -12    0.41    0.33 
  -4   6 -12    0.37    0.34 
   4  -6  12    0.82    0.17 
  -5   6 -12    2.87    0.37 
 -10  -5  12    0.63    0.41 
 -10  -5  12    1.23    0.42 
  -9  -5  12    0.19    0.08 
  -9  -5  12   -0.25    0.47 
  -9  -5  12    0.36    0.43 
  -8  -5  12    8.65    0.85 
  -8  -5  12    6.96    0.65 
  -8  -5  12    7.80    0.79 
  -7  -5  12   21.31    1.84 
  -7  -5  12   21.02    1.77 
  -7  -5  12   18.70    1.68 
  -6  -5  12    9.03    0.90 
  -6  -5  12   10.00    0.79 
  -6  -5  12    7.47    0.81 
  -5  -5  12    1.58    0.32 
  -5  -5  12    1.32    0.37 
  -5  -5  12    1.80    0.39 
  -4  -5  12    2.82    0.41 
  -4  -5  12    1.48    0.33 
  -4  -5  12    1.30    0.36 
   3   5 -12    7.32    0.78 
  -3  -5  12    7.40    0.69 
  -3  -5  12    5.52    0.64 
   2   5 -12    0.69    0.37 
  -2  -5  12    1.04    0.21 
  -2  -5  12    0.83    0.31 
  -2  -5  12    1.53    0.32 
   1   5 -12    0.95    0.36 
  -1  -5  12    0.48    0.29 
  -1  -5  12    0.67    0.21 
  -1  -5  12    0.44    0.30 
   0   5 -12    4.81    0.61 
   0  -5  12    5.04    0.54 
   0  -5  12    5.10    0.56 
   0  -5  12    4.87    0.48 
   1  -5  12    0.76    0.20 
   1  -5  12    0.28    0.28 
  -2   5 -12    2.68    0.54 
   2  -5  12    2.89    0.33 
  -3   5 -12    2.37    0.47 
  -3   5 -12    2.66    0.49 
   3  -5  12    2.75    0.29 
  -4   5 -12    3.96    0.52 
  -4   5 -12    3.66    0.51 
   4  -5  12    4.54    0.40 
  -5   5 -12    1.16    0.25 
 -10  -4  12    0.84    0.41 
  -9  -4  12    0.08    0.07 
  -9  -4  12   -0.17    0.40 
  -9  -4  12   -0.30    0.49 
  -8  -4  12    1.41    0.44 
  -8  -4  12    1.93    0.54 
  -8  -4  12    1.41    0.19 
  -7  -4  12    0.32    0.28 
  -7  -4  12    0.77    0.41 
  -6  -4  12    0.32    0.18 
  -6  -4  12    0.38    0.34 
  -6  -4  12   -0.20    0.27 
  -5  -4  12   18.35    1.58 
  -5  -4  12   17.55    1.54 
  -4  -4  12   16.22    1.32 
  -4  -4  12   13.06    1.28 
  -4  -4  12   15.36    1.28 
   3   4 -12    0.84    0.36 
  -3  -4  12    0.73    0.31 
  -3  -4  12    0.77    0.26 
   2   4 -12    1.44    0.39 
  -2  -4  12    1.10    0.23 
  -2  -4  12    1.34    0.32 
  -2  -4  12    0.91    0.31 
   1   4 -12   12.77    1.19 
  -1  -4  12   11.03    1.02 
  -1  -4  12   10.84    0.97 
  -1  -4  12   11.15    1.05 
   0   4 -12    1.80    0.39 
   0  -4  12    1.82    0.34 
   0  -4  12    1.43    0.26 
   1  -4  12    2.04    0.27 
   1  -4  12    1.64    0.34 
  -2   4 -12    8.91    1.03 
   2  -4  12    9.97    0.85 
  -3   4 -12    5.93    0.61 
  -3   4 -12    3.68    0.60 
   3  -4  12    4.96    0.47 
  -4   4 -12    0.05    0.27 
  -4   4 -12    0.25    0.27 
   4  -4  12    0.27    0.15 
 -10  -3  12    0.85    0.43 
  -9  -3  12    2.30    0.51 
  -9  -3  12    3.46    0.57 
  -9  -3  12    3.15    0.30 
  -8  -3  12    0.14    0.09 
  -8  -3  12   -0.21    0.50 
  -7  -3  12    7.51    0.70 
  -6  -3  12    4.77    0.52 
  -6  -3  12    5.14    0.61 
  -5  -3  12    0.79    0.37 
  -5  -3  12    1.39    0.32 
   4   3 -12    8.12    0.94 
  -4  -3  12    8.55    0.84 
  -4  -3  12    8.41    0.81 
  -4  -3  12    9.63    0.82 
   3   3 -12    5.81    0.67 
  -3  -3  12    5.53    0.59 
  -3  -3  12    5.29    0.57 
   2   3 -12    6.57    0.76 
  -2  -3  12    6.62    0.59 
  -2  -3  12    6.42    0.66 
   1   3 -12    5.35    0.66 
  -1  -3  12    5.46    0.52 
  -1  -3  12    5.74    0.59 
   0   3 -12    1.43    0.37 
   0  -3  12    1.50    0.31 
   0  -3  12    1.42    0.25 
   1  -3  12    3.17    0.36 
   1  -3  12    3.02    0.43 
  -2   3 -12    9.24    1.05 
   2  -3  12   10.63    0.89 
  -3   3 -12    1.10    0.34 
  -3   3 -12    1.88    0.34 
   3  -3  12    1.26    0.21 
  -4   3 -12    0.11    0.19 
  -4   3 -12    0.29    0.25 
   4  -3  12    0.15    0.14 
 -10  -2  12    2.98    0.28 
  -9  -2  12    1.98    0.22 
  -8  -2  12    5.29    0.48 
  -7  -2  12   -0.33    0.28 
  -6  -2  12   -0.26    0.38 
  -6  -2  12   -0.04    0.10 
  -5  -2  12    0.00    0.31 
  -5  -2  12   -0.32    0.34 
   4   2 -12    1.86    0.44 
  -4  -2  12    2.76    0.39 
  -4  -2  12    2.27    0.41 
  -4  -2  12    2.62    0.36 
   3   2 -12   36.08    3.48 
  -3  -2  12   35.43    3.06 
   2   2 -12   21.12    2.09 
  -2  -2  12   20.92    1.73 
  -2  -2  12   20.93    1.84 
   1   2 -12    1.17    0.38 
  -1  -2  12    1.19    0.24 
  -1  -2  12    1.84    0.33 
   0   2 -12    0.08    0.31 
   0  -2  12    0.24    0.20 
   0  -2  12   -0.40    0.28 
  -1   2 -12    5.73    0.79 
   1  -2  12    8.94    0.77 
   1  -2  12    7.57    0.68 
  -2   2 -12    1.22    0.34 
   2  -2  12    1.93    0.26 
  -3   2 -12    2.55    0.35 
  -3   2 -12    2.48    0.38 
  -3   2 -12    1.97    0.33 
   3  -2  12    2.11    0.27 
  -4   2 -12    0.01    0.21 
  -4   2 -12    0.39    0.18 
   4  -2  12    0.34    0.14 
 -10  -1  12    2.02    0.22 
  -9  -1  12   13.55    1.15 
  -8  -1  12    1.07    0.19 
  -7  -1  12    0.10    0.27 
  -6  -1  12    0.05    0.30 
  -5  -1  12    0.28    0.32 
   4   1 -12   24.89    2.43 
  -4  -1  12   24.54    2.13 
   3   1 -12   42.56    4.12 
  -3  -1  12   42.48    3.63 
   2   1 -12   10.21    1.11 
  -2  -1  12    9.60    0.98 
  -2  -1  12   10.94    0.90 
   1   1 -12    8.84    0.92 
  -1  -1  12    7.76    0.74 
  -1  -1  12    8.44    0.82 
   0   1 -12    2.32    0.48 
   0   1 -12    3.96    0.51 
   0  -1  12    3.65    0.38 
   0  -1  12    3.04    0.45 
  -1   1 -12    0.30    0.30 
   1  -1  12    0.33    0.30 
   1  -1  12    0.44    0.21 
  -2   1 -12    2.73    0.38 
  -2   1 -12    2.93    0.43 
   2  -1  12    2.79    0.32 
  -3   1 -12    1.45    0.27 
  -3   1 -12    0.71    0.22 
   3  -1  12    0.79    0.19 
 -10   0  12    5.57    0.50 
  -9   0  12    4.13    0.39 
  -8   0  12    3.17    0.34 
  -7   0  12    1.37    0.34 
  -6   0  12   -0.02    0.33 
   5   0 -12    7.74    0.93 
  -5   0  12    9.22    0.82 
   4   0 -12   23.23    2.26 
  -4   0  12   22.29    1.97 
   3   0 -12   16.89    1.71 
  -3   0  12   17.21    1.52 
   2   0 -12    4.11    0.58 
  -2   0  12    4.38    0.46 
  -2   0  12    5.00    0.54 
   1   0 -12    6.99    0.80 
  -1   0  12    6.69    0.63 
  -1   0  12    6.88    0.70 
   0   0  12    1.91    0.29 
   0   0  12    2.10    0.38 
   1   0  12    5.52    0.53 
   1   0  12    5.38    0.61 
  -2   0 -12    0.50    0.24 
  -2   0 -12    0.30    0.32 
   2   0  12    0.57    0.17 
  -3   0 -12    0.08    0.21 
  -3   0 -12    0.17    0.18 
  -3   0 -12    0.23    0.14 
   3   0  12    0.25    0.14 
 -10   1  12    0.95    0.18 
  -9   1  12    3.33    0.34 
  -8   1  12    0.20    0.12 
  -7   1  12    0.83    0.32 
  -6   1  12    4.79    0.54 
  -4   1  12   12.59    1.13 
   3  -1 -12    1.81    0.44 
  -3   1  12    0.68    0.33 
   2  -1 -12    2.15    0.44 
  -2   1  12    2.40    0.42 
  -2   1  12    2.58    0.33 
   1  -1 -12    2.87    0.46 
  -1   1  12    2.62    0.42 
  -1   1  12    2.59    0.34 
   0   1  12   12.39    1.03 
   0   1  12   11.56    1.12 
  -1  -1 -12    3.84    0.44 
   1   1  12    4.12    0.40 
   1   1  12    3.45    0.47 
  -2  -1 -12    0.01    0.28 
  -2  -1 -12   -0.03    0.09 
   2   1  12    0.09    0.15 
   3   1  12    2.19    0.24 
 -10   2  12    1.86    0.22 
  -9   2  12    0.60    0.14 
  -8   2  12    1.81    0.34 
  -7   2  12    7.26    0.70 
   6  -2 -12    6.45    0.79 
  -6   2  12    6.84    0.67 
   5  -2 -12    7.94    0.90 
   4  -2 -12    0.66    0.40 
  -4   2  12    0.63    0.28 
   3  -2 -12    2.57    0.48 
  -3   2  12    2.25    0.38 
   2  -2 -12    3.31    0.47 
  -2   2  12    2.79    0.34 
  -2   2  12    2.20    0.42 
  -1   2  12   15.00    1.35 
  -1   2  12   14.93    1.25 
   0   2  12   12.12    1.15 
   0   2  12   12.62    1.04 
  -1  -2 -12    0.09    0.21 
   1   2  12   -0.03    0.15 
   1   2  12    0.29    0.23 
  -2  -2 -12    2.48    0.33 
   2   2  12    3.86    0.32 
  -9   3  12    0.10    0.10 
  -8   3  12    0.45    0.15 
   7  -3 -12    2.09    0.39 
  -7   3  12    0.92    0.18 
   6  -3 -12   10.14    1.08 
   5  -3 -12   -0.01    0.37 
   4  -3 -12    1.36    0.40 
  -4   3  12    1.56    0.29 
   3  -3 -12    1.66    0.39 
  -3   3  12    1.51    0.33 
   2  -3 -12    7.60    0.79 
  -2   3  12    6.82    0.63 
  -2   3  12    7.51    0.72 
  -1   3  12   12.24    1.06 
  -1   3  12   11.20    0.97 
   0  -3 -12    0.07    0.22 
   0   3  12    0.15    0.16 
   0   3  12    0.35    0.24 
  -1  -3 -12    5.59    0.56 
   1   3  12    7.04    0.56 
  -8   4  12    0.67    0.13 
   7  -4 -12   10.67    1.09 
   6  -4 -12    0.22    0.31 
   5  -4 -12    3.56    0.49 
   3  -4 -12    2.00    0.35 
  -3   4  12    1.99    0.32 
  -2   4  12    9.46    0.80 
  -2   4  12    9.03    0.85 
  -1   4  12    0.08    0.19 
  -1   4  12    0.06    0.22 
   0   4  12    6.52    0.57 
   7  -5 -12   -0.04    0.10 
   6  -5 -12    3.84    0.46 
   5  -5 -12    0.67    0.26 
   4  -5 -12    0.13    0.23 
  -3   5  12    0.66    0.18 
  -2   5  12    0.24    0.22 
   4  13 -13    0.90    0.30 
   3  13 -13    2.79    0.38 
  -3 -13  13    2.78    0.32 
   2  13 -13    0.24    0.22 
  -2 -13  13    0.20    0.08 
  -1 -13  13    4.09    0.38 
   0 -13  13    0.15    0.05 
   0 -13  13   -0.19    0.17 
   0 -13  13    0.16    0.08 
   5  12 -13    0.23    0.38 
  -5 -12  13    1.24    0.24 
   4  12 -13    7.50    1.04 
  -4 -12  13   10.33    0.83 
   3  12 -13    0.00    0.37 
  -3 -12  13    0.01    0.22 
   2  12 -13    5.07    0.61 
  -2 -12  13    5.39    0.51 
  -2 -12  13    4.97    0.46 
   1  12 -13    0.10    0.23 
  -1 -12  13   -0.01    0.22 
  -1 -12  13   -0.03    0.09 
   0 -12  13    5.06    0.48 
   0 -12  13    5.18    0.47 
   0 -12  13    5.03    0.50 
   1 -12  13    0.17    0.17 
   1 -12  13    0.00    0.08 
   1 -12  13   -0.02    0.20 
   2 -12  13    1.93    0.22 
   2 -12  13    2.00    0.23 
   2 -12  13    1.73    0.24 
  -6 -11  13    0.16    0.09 
  -6 -11  13    0.16    0.24 
   5  11 -13    6.13    0.94 
  -5 -11  13    8.90    0.74 
   4  11 -13    1.11    0.53 
  -4 -11  13    2.08    0.32 
  -3 -11  13   11.93    1.05 
   2  11 -13    0.84    0.39 
  -2 -11  13    1.25    0.19 
  -2 -11  13    1.10    0.27 
   1  11 -13    3.36    0.48 
  -1 -11  13    4.07    0.41 
  -1 -11  13    3.52    0.37 
  -1 -11  13    3.73    0.37 
   0 -11  13    0.11    0.10 
   0 -11  13   -0.03    0.24 
   0 -11  13   -0.88    0.21 
   1 -11  13    2.76    0.33 
   1 -11  13    3.06    0.32 
   1 -11  13    2.88    0.35 
   2 -11  13    0.56    0.22 
   2 -11  13    0.52    0.11 
   2 -11  13    0.59    0.18 
   3 -11  13   -0.02    0.16 
   3 -11  13   -0.04    0.13 
  -7 -10  13    1.10    0.29 
  -7 -10  13    0.99    0.18 
  -6 -10  13    7.31    0.66 
  -6 -10  13    7.69    0.71 
   5  10 -13    0.13    0.50 
  -5 -10  13    0.14    0.29 
   4  10 -13   11.42    1.48 
  -4 -10  13   14.41    1.17 
   3  10 -13    1.32    0.53 
  -3 -10  13    0.77    0.30 
  -3 -10  13    1.17    0.17 
   2  10 -13    5.31    0.68 
  -2 -10  13    5.48    0.55 
  -2 -10  13    5.13    0.49 
   1  10 -13    0.00    0.33 
  -1 -10  13    0.38    0.11 
  -1 -10  13   -0.05    0.27 
  -1 -10  13    0.47    0.21 
   0 -10  13    0.68    0.27 
   0 -10  13    0.31    0.22 
   0 -10  13    0.64    0.30 
   1 -10  13    0.21    0.20 
   1 -10  13    0.38    0.12 
   1 -10  13    0.54    0.26 
   2 -10  13    2.07    0.26 
   2 -10  13    2.03    0.26 
   2 -10  13    2.09    0.31 
  -3  10 -13    0.13    0.13 
   3 -10  13   -0.05    0.14 
   3 -10  13    0.03    0.19 
   3 -10  13    0.09    0.08 
  -8  -9  13    0.04    0.12 
  -8  -9  13   -0.04    0.07 
  -7  -9  13    3.11    0.50 
  -7  -9  13    3.75    0.36 
  -7  -9  13    4.06    0.47 
  -6  -9  13    0.05    0.30 
  -6  -9  13    0.08    0.09 
   5   9 -13    3.95    0.69 
  -5  -9  13    3.90    0.48 
   4   9 -13    2.83    0.65 
  -4  -9  13    3.21    0.42 
   3   9 -13    9.46    1.26 
  -3  -9  13   11.13    0.96 
  -3  -9  13   12.10    1.01 
   2   9 -13    1.38    0.42 
  -2  -9  13    0.85    0.15 
  -2  -9  13    1.45    0.32 
   1   9 -13    4.14    0.56 
  -1  -9  13    4.58    0.49 
  -1  -9  13    4.18    0.51 
  -1  -9  13    4.38    0.43 
   0   9 -13    1.46    0.35 
   0  -9  13    1.53    0.26 
   0  -9  13    1.99    0.33 
   0  -9  13    1.50    0.35 
   1  -9  13    1.20    0.22 
   1  -9  13    0.98    0.33 
   1  -9  13    0.64    0.29 
   2  -9  13    4.30    0.42 
   2  -9  13    3.89    0.45 
   2  -9  13    4.82    0.50 
  -3   9 -13    1.53    0.25 
   3  -9  13    0.72    0.14 
   3  -9  13    1.14    0.18 
   3  -9  13    0.94    0.22 
  -9  -8  13    2.94    0.28 
  -8  -8  13    1.45    0.18 
  -8  -8  13    0.70    0.38 
  -8  -8  13    0.73    0.18 
  -7  -8  13    0.21    0.09 
  -7  -8  13    0.22    0.34 
  -7  -8  13   -0.09    0.39 
  -6  -8  13   14.96    1.26 
  -6  -8  13   14.41    1.31 
   5   8 -13   -0.30    0.50 
  -5  -8  13    0.27    0.28 
  -5  -8  13    0.07    0.32 
   4   8 -13    4.26    0.71 
  -4  -8  13    4.53    0.51 
   3   8 -13   11.13    1.12 
  -3  -8  13    9.80    0.93 
  -3  -8  13    9.58    0.87 
   2   8 -13   10.92    1.11 
  -2  -8  13   10.13    0.95 
  -2  -8  13    9.76    0.94 
   1   8 -13    3.85    0.56 
  -1  -8  13    4.41    0.49 
  -1  -8  13    4.11    0.42 
  -1  -8  13    4.81    0.52 
   0   8 -13    0.15    0.31 
   0  -8  13    0.20    0.20 
   0  -8  13    0.62    0.29 
   0  -8  13    0.30    0.30 
  -1   8 -13    7.79    0.83 
   1  -8  13    7.25    0.69 
   1  -8  13    7.53    0.65 
   1  -8  13    6.80    0.74 
  -2   8 -13   -0.02    0.38 
   2  -8  13   -0.24    0.18 
   2  -8  13    0.00    0.26 
   2  -8  13   -0.22    0.22 
  -3   8 -13    5.93    0.62 
  -3   8 -13    6.44    0.68 
   3  -8  13    6.91    0.57 
   3  -8  13    6.31    0.59 
   4  -8  13    0.06    0.13 
  -9  -7  13    8.41    0.72 
  -8  -7  13   -0.35    0.36 
  -8  -7  13    0.14    0.39 
  -8  -7  13    0.03    0.23 
  -7  -7  13    5.72    0.53 
  -7  -7  13    4.61    0.60 
  -6  -7  13    5.93    0.69 
  -6  -7  13    6.88    0.63 
  -5  -7  13    5.42    0.53 
  -5  -7  13    4.28    0.56 
   4   7 -13    0.79    0.45 
  -4  -7  13    0.67    0.32 
   3   7 -13   19.33    1.78 
  -3  -7  13   16.39    1.54 
  -3  -7  13   17.25    1.51 
   2   7 -13    8.82    0.87 
  -2  -7  13    6.51    0.74 
  -2  -7  13    7.65    0.74 
   1   7 -13    2.01    0.41 
  -1  -7  13    1.64    0.34 
  -1  -7  13    2.04    0.37 
  -1  -7  13    2.11    0.27 
   0   7 -13   25.61    2.40 
   0  -7  13   23.49    2.09 
   0  -7  13   24.30    2.13 
   0  -7  13   24.65    2.01 
  -1   7 -13    0.24    0.45 
   1  -7  13    0.30    0.28 
   1  -7  13    0.06    0.19 
   1  -7  13   -0.37    0.25 
  -2   7 -13    4.28    0.60 
   2  -7  13    4.43    0.48 
   2  -7  13    4.23    0.42 
  -3   7 -13    0.02    0.14 
  -3   7 -13   -0.04    0.33 
   3  -7  13   -0.09    0.16 
   4  -7  13    0.94    0.16 
  -9  -6  13    2.40    0.44 
  -9  -6  13    2.39    0.24 
  -9  -6  13    2.01    0.47 
  -8  -6  13    5.09    0.48 
  -8  -6  13    5.15    0.62 
  -8  -6  13    6.39    0.68 
  -7  -6  13    0.01    0.09 
  -7  -6  13    0.15    0.36 
  -6  -6  13    8.98    0.80 
  -6  -6  13    8.21    0.85 
  -5  -6  13    0.29    0.11 
  -5  -6  13    0.13    0.33 
   4   6 -13   12.53    1.48 
  -4  -6  13   15.53    1.25 
  -4  -6  13   14.24    1.26 
  -4  -6  13   15.41    1.29 
   3   6 -13   13.94    1.37 
  -3  -6  13   12.53    1.20 
  -3  -6  13   13.73    1.20 
  -3  -6  13   13.32    1.19 
   2   6 -13   -1.16    0.36 
  -2  -6  13    0.08    0.28 
  -2  -6  13   -0.06    0.18 
  -2  -6  13   -0.25    0.27 
   1   6 -13    8.24    0.81 
  -1  -6  13    6.67    0.64 
  -1  -6  13    6.99    0.72 
   0   6 -13    0.10    0.31 
   0  -6  13    0.07    0.28 
   0  -6  13    0.23    0.19 
  -1   6 -13    2.83    0.59 
   1  -6  13    3.89    0.39 
   1  -6  13    4.26    0.45 
  -2   6 -13   -0.13    0.40 
   2  -6  13    0.08    0.18 
   2  -6  13   -0.03    0.23 
  -3   6 -13    0.62    0.35 
  -3   6 -13    0.70    0.35 
   3  -6  13    1.00    0.19 
   4  -6  13    2.52    0.26 
  -9  -5  13   10.60    0.92 
  -9  -5  13   11.44    1.06 
  -8  -5  13   -0.63    0.37 
  -8  -5  13   -0.13    0.08 
  -7  -5  13    1.43    0.30 
  -7  -5  13    1.70    0.41 
  -6  -5  13   -0.02    0.26 
  -6  -5  13    0.03    0.34 
  -5  -5  13    8.83    0.92 
  -5  -5  13   10.31    0.88 
   4   5 -13   11.35    1.18 
   3   5 -13    2.55    0.45 
  -3  -5  13    3.11    0.43 
  -3  -5  13    2.40    0.36 
   2   5 -13    3.41    0.48 
  -2  -5  13    2.44    0.39 
  -2  -5  13    2.63    0.41 
  -2  -5  13    2.96    0.32 
   1   5 -13    0.34    0.35 
  -1  -5  13    0.37    0.20 
  -1  -5  13    0.15    0.27 
   0   5 -13    4.81    0.56 
   0  -5  13    4.00    0.50 
   0  -5  13    4.34    0.43 
  -1   5 -13    0.74    0.44 
   1  -5  13    0.86    0.21 
   1  -5  13    0.83    0.28 
  -2   5 -13    1.26    0.44 
   2  -5  13    1.45    0.30 
   2  -5  13    1.81    0.24 
  -3   5 -13    0.45    0.32 
  -3   5 -13    0.16    0.30 
   3  -5  13    0.75    0.15 
   4  -5  13    1.33    0.18 
  -9  -4  13    0.50    0.39 
  -9  -4  13    0.47    0.10 
  -8  -4  13   -0.03    0.36 
  -8  -4  13    0.21    0.09 
  -7  -4  13    6.73    0.60 
  -6  -4  13    1.93    0.25 
  -5  -4  13   21.38    1.83 
   4   4 -13    5.11    0.67 
  -4  -4  13    6.52    0.63 
   3   4 -13    0.44    0.35 
  -3  -4  13    0.21    0.27 
  -3  -4  13    1.18    0.33 
   2   4 -13    3.70    0.53 
  -2  -4  13    3.52    0.36 
  -2  -4  13    3.49    0.44 
   1   4 -13    0.91    0.37 
  -1  -4  13    1.55    0.30 
  -1  -4  13    1.16    0.23 
   0   4 -13   -0.12    0.31 
   0  -4  13   -0.08    0.19 
   0  -4  13   -0.14    0.25 
  -1   4 -13    6.91    0.87 
   1  -4  13    8.67    0.77 
   1  -4  13    7.82    0.70 
  -2   4 -13    4.35    0.60 
   2  -4  13    5.29    0.53 
   2  -4  13    4.64    0.45 
  -3   4 -13    0.69    0.30 
  -3   4 -13    0.81    0.28 
   3  -4  13    0.45    0.14 
 -10  -3  13    0.56    0.09 
  -9  -3  13    2.08    0.23 
  -8  -3  13    2.31    0.26 
  -7  -3  13    0.49    0.28 
  -6  -3  13    9.94    0.90 
   5   3 -13    2.76    0.38 
   4   3 -13    0.67    0.39 
   3   3 -13    3.03    0.47 
  -3  -3  13    2.25    0.38 
   2   3 -13   14.03    1.34 
  -2  -3  13   12.71    1.09 
  -2  -3  13   12.17    1.17 
   1   3 -13    2.48    0.45 
  -1  -3  13    2.47    0.31 
  -1  -3  13    2.68    0.39 
   0   3 -13    2.18    0.41 
   0  -3  13    2.03    0.37 
   0  -3  13    2.38    0.29 
  -1   3 -13    4.93    0.74 
   1  -3  13    6.57    0.60 
   1  -3  13    7.78    0.68 
  -2   3 -13    1.57    0.36 
   2  -3  13    1.83    0.33 
   2  -3  13    1.69    0.24 
  -3   3 -13    0.65    0.21 
  -3   3 -13    1.27    0.30 
   3  -3  13    1.07    0.18 
 -10  -2  13    1.18    0.16 
  -9  -2  13    0.05    0.10 
  -8  -2  13    0.06    0.09 
  -7  -2  13    0.17    0.28 
  -6  -2  13    1.23    0.33 
   5   2 -13    9.88    1.09 
  -5  -2  13   10.71    0.95 
   4   2 -13    5.86    0.68 
  -4  -2  13    5.12    0.56 
   3   2 -13   17.58    1.64 
  -3  -2  13   14.92    1.44 
   2   2 -13    0.39    0.35 
  -2  -2  13    0.70    0.22 
  -2  -2  13   -0.53    0.29 
   1   2 -13    5.08    0.57 
  -1  -2  13    3.99    0.51 
  -1  -2  13    3.95    0.43 
   0   2 -13    3.24    0.50 
   0  -2  13    4.29    0.49 
   0  -2  13    3.85    0.39 
  -1   2 -13    1.02    0.32 
   1  -2  13    1.52    0.24 
   1  -2  13    2.07    0.33 
  -2   2 -13    1.82    0.33 
  -2   2 -13    1.26    0.31 
  -2   2 -13    2.46    0.37 
   2  -2  13    2.93    0.35 
   2  -2  13    2.21    0.27 
  -3   2 -13    0.24    0.27 
   3  -2  13    0.07    0.13 
 -10  -1  13    1.26    0.17 
  -9  -1  13    0.53    0.12 
  -8  -1  13   -0.03    0.11 
  -7  -1  13    0.53    0.14 
  -6  -1  13    9.08    0.85 
   5   1 -13    4.76    0.64 
  -5  -1  13    5.63    0.58 
   4   1 -13   21.66    2.09 
  -4  -1  13   20.57    1.82 
   3   1 -13   -0.09    0.37 
  -3  -1  13    0.03    0.29 
   2   1 -13    3.03    0.46 
  -2  -1  13    2.39    0.33 
  -2  -1  13    2.77    0.40 
   1   1 -13    4.71    0.57 
  -1  -1  13    4.36    0.50 
  -1  -1  13    3.82    0.42 
   0  -1  13    1.22    0.24 
   0  -1  13    1.50    0.32 
  -1   1 -13    0.41    0.25 
   1  -1  13    0.67    0.28 
   1  -1  13    0.62    0.19 
  -2   1 -13    0.15    0.18 
  -2   1 -13   -0.14    0.29 
   2  -1  13    0.06    0.14 
   2  -1  13    0.20    0.24 
   3  -1  13    2.73    0.28 
  -9   0  13    0.93    0.18 
  -8   0  13    0.47    0.13 
  -7   0  13    5.36    0.51 
   6   0 -13    2.58    0.40 
  -6   0  13    3.01    0.42 
   5   0 -13   15.12    1.54 
   4   0 -13    4.53    0.53 
  -4   0  13    3.02    0.41 
   3   0 -13    0.89    0.39 
  -3   0  13    0.43    0.30 
   2   0 -13    1.47    0.38 
  -2   0  13    1.07    0.32 
  -2   0  13    1.27    0.25 
   1   0 -13    5.79    0.62 
  -1   0  13    4.60    0.49 
  -1   0  13    5.15    0.57 
   0   0  13    8.00    0.80 
   0   0  13    8.20    0.71 
  -1   0 -13   -0.01    0.23 
   1   0  13    0.08    0.25 
   1   0  13    0.92    0.18 
  -2   0 -13    1.77    0.26 
   2   0  13    2.36    0.24 
  -9   1  13    0.65    0.13 
  -8   1  13    3.93    0.45 
  -7   1  13    1.22    0.32 
   6  -1 -13   16.53    1.66 
   5  -1 -13    5.44    0.68 
   4  -1 -13    0.13    0.35 
  -4   1  13   -0.02    0.23 
   3  -1 -13    0.51    0.36 
  -3   1  13    0.48    0.27 
   2  -1 -13    1.60    0.37 
  -2   1  13    1.16    0.22 
  -2   1  13    0.71    0.31 
  -1   1  13   17.41    1.43 
  -1   1  13   17.08    1.53 
   0  -1 -13   -0.05    0.11 
   0   1  13    0.00    0.14 
   0   1  13   -0.14    0.23 
  -1  -1 -13    3.36    0.39 
   1   1  13    4.34    0.37 
   1   1  13    4.18    0.44 
  -9   2  13    2.18    0.26 
  -8   2  13    0.01    0.12 
  -7   2  13   11.35    1.02 
   5  -2 -13   -0.14    0.36 
   4  -2 -13    0.12    0.45 
   3  -2 -13    0.54    0.36 
  -3   2  13    0.98    0.27 
   2  -2 -13   24.03    2.43 
  -2   2  13   25.77    2.04 
  -2   2  13   25.16    2.15 
  -1   2  13    0.19    0.15 
  -1   2  13    0.17    0.24 
   0  -2 -13    8.82    0.76 
   0   2  13    9.23    0.74 
   0   2  13    8.15    0.81 
   7  -3 -13    5.35    0.56 
   5  -3 -13    0.38    0.32 
   3  -3 -13   23.86    2.31 
  -3   3  13   23.74    2.03 
  -2   3  13    1.94    0.28 
  -1   3  13    7.61    0.64 
  -1   3  13    7.34    0.69 
   5  -4 -13    0.12    0.23 
   4  -4 -13   18.22    1.78 
   4  12 -14    2.71    0.37 
  -4 -12  14    2.88    0.33 
   3  12 -14    1.04    0.27 
  -3 -12  14    0.75    0.22 
   2  12 -14    2.02    0.31 
  -2 -12  14    2.51    0.28 
  -1 -12  14    0.19    0.19 
  -1 -12  14    0.07    0.06 
   0 -12  14    0.21    0.07 
   0 -12  14    0.15    0.17 
  -6 -11  14    1.06    0.18 
   5  11 -14    7.88    0.90 
  -5 -11  14    9.22    0.77 
   4  11 -14    0.68    0.32 
  -4 -11  14    0.56    0.25 
   3  11 -14    1.63    0.36 
  -3 -11  14    1.87    0.28 
   2  11 -14   -0.37    0.26 
  -2 -11  14    0.03    0.06 
  -2 -11  14   -0.11    0.23 
   1  11 -14    1.02    0.24 
  -1 -11  14   -0.06    0.22 
  -1 -11  14   -0.03    0.08 
   0 -11  14    0.82    0.24 
   0 -11  14    0.75    0.17 
   0 -11  14    0.82    0.15 
   1 -11  14   -0.03    0.13 
   1 -11  14   -0.08    0.19 
   1 -11  14   -0.03    0.07 
   6  10 -14    4.81    0.66 
  -6 -10  14    7.05    0.59 
  -6 -10  14    6.07    0.53 
   5  10 -14    0.16    0.35 
  -5 -10  14    0.46    0.28 
   4  10 -14    0.86    0.36 
  -4 -10  14    0.60    0.26 
   3  10 -14    1.29    0.32 
  -3 -10  14   -0.68    0.25 
   2  10 -14    0.71    0.32 
  -2 -10  14    1.11    0.28 
  -2 -10  14    1.13    0.17 
   1  10 -14    2.36    0.36 
  -1 -10  14    2.18    0.32 
  -1 -10  14    2.39    0.26 
   0 -10  14    0.04    0.16 
   0 -10  14    0.00    0.23 
   0 -10  14   -0.05    0.24 
   1 -10  14    2.81    0.30 
   1 -10  14    2.72    0.29 
   1 -10  14    3.17    0.34 
   2 -10  14   -0.12    0.17 
   2 -10  14    0.05    0.13 
  -7  -9  14    8.41    0.71 
  -7  -9  14    7.03    0.65 
   6   9 -14    0.02    0.30 
  -6  -9  14    0.08    0.29 
  -6  -9  14    0.12    0.08 
   5   9 -14    1.72    0.39 
  -5  -9  14    1.65    0.34 
   4   9 -14    0.04    0.34 
  -4  -9  14   -0.10    0.25 
   3   9 -14   -0.24    0.36 
  -3  -9  14   -0.01    0.27 
   2   9 -14   10.17    1.04 
  -2  -9  14   10.05    0.86 
  -2  -9  14    9.30    0.90 
   1   9 -14   -0.53    0.28 
  -1  -9  14   -0.02    0.16 
  -1  -9  14    0.34    0.25 
  -1  -9  14    0.34    0.10 
   0  -9  14    4.39    0.40 
   0  -9  14    4.31    0.47 
   0  -9  14    3.64    0.44 
   1  -9  14    0.23    0.24 
   1  -9  14    0.29    0.21 
   1  -9  14    0.13    0.16 
   2  -9  14    1.80    0.29 
   2  -9  14    1.89    0.24 
   2  -9  14    1.91    0.22 
  -8  -8  14    8.61    0.74 
  -8  -8  14    8.75    0.81 
  -7  -8  14    0.14    0.13 
  -7  -8  14    0.22    0.10 
  -6  -8  14    5.36    0.50 
  -6  -8  14    5.90    0.58 
   5   8 -14    1.71    0.40 
  -5  -8  14    2.21    0.25 
  -5  -8  14    2.29    0.37 
   4   8 -14    0.51    0.36 
  -4  -8  14    0.51    0.28 
   3   8 -14    4.37    0.55 
  -3  -8  14    4.23    0.38 
  -3  -8  14    3.53    0.47 
   2   8 -14    1.13    0.36 
  -2  -8  14    1.16    0.30 
  -2  -8  14    1.34    0.20 
   1   8 -14   12.06    1.24 
  -1  -8  14   11.12    1.07 
  -1  -8  14   12.95    1.09 
  -1  -8  14   12.32    1.01 
   0   8 -14    1.81    0.44 
   0  -8  14    2.01    0.25 
   0  -8  14    1.82    0.30 
   0  -8  14    1.85    0.32 
   1  -8  14    0.18    0.16 
   1  -8  14    0.03    0.20 
   1  -8  14   -0.02    0.24 
  -2   8 -14    0.90    0.32 
   2  -8  14    1.37    0.19 
   2  -8  14    1.27    0.25 
   3  -8  14    5.19    0.45 
  -8  -7  14    0.64    0.15 
  -7  -7  14   16.66    1.50 
  -7  -7  14   17.41    1.45 
  -6  -7  14    1.05    0.33 
  -6  -7  14    1.21    0.20 
   5   7 -14    1.26    0.36 
  -5  -7  14    0.95    0.35 
  -5  -7  14    1.72    0.22 
   4   7 -14    7.04    0.79 
  -4  -7  14    7.08    0.69 
   3   7 -14    3.32    0.48 
  -3  -7  14    2.69    0.40 
  -3  -7  14    3.01    0.31 
   2   7 -14    6.35    0.70 
  -2  -7  14    6.81    0.60 
  -2  -7  14    4.95    0.60 
   1   7 -14    8.68    0.98 
  -1  -7  14    9.62    0.87 
  -1  -7  14    9.60    0.80 
   0   7 -14    5.43    0.69 
   0  -7  14    5.44    0.56 
   0  -7  14    5.54    0.50 
  -1   7 -14   -0.42    0.38 
   1  -7  14    0.04    0.23 
   1  -7  14    0.27    0.16 
  -2   7 -14    3.84    0.55 
   2  -7  14    5.14    0.45 
   2  -7  14    5.24    0.50 
   3  -7  14    0.23    0.10 
  -9  -6  14    0.33    0.08 
  -8  -6  14   14.26    1.21 
  -7  -6  14    7.64    0.68 
  -7  -6  14    7.77    0.76 
  -6  -6  14    2.20    0.26 
  -6  -6  14    2.10    0.38 
   5   6 -14    6.13    0.68 
  -5  -6  14    6.22    0.63 
  -5  -6  14    5.64    0.55 
   4   6 -14    9.87    1.04 
   3   6 -14    3.09    0.48 
  -3  -6  14    3.33    0.34 
   2   6 -14    1.39    0.36 
  -2  -6  14    1.32    0.28 
   1   6 -14    7.44    0.83 
  -1  -6  14    7.58    0.72 
  -1  -6  14    7.63    0.66 
   0  -6  14    1.01    0.20 
   0  -6  14    1.30    0.27 
  -1   6 -14    1.87    0.45 
   1  -6  14    2.10    0.24 
   1  -6  14    1.71    0.31 
  -2   6 -14    0.44    0.31 
   2  -6  14    0.17    0.15 
   2  -6  14    0.33    0.23 
   3  -6  14    0.22    0.10 
  -9  -5  14    5.68    0.50 
  -8  -5  14    4.03    0.39 
  -8  -5  14    4.48    0.51 
  -7  -5  14    3.59    0.36 
  -6  -5  14    4.72    0.51 
   5   5 -14    4.32    0.56 
  -5  -5  14    4.37    0.43 
   4   5 -14   10.92    1.13 
   3   5 -14    2.74    0.46 
  -3  -5  14    3.24    0.38 
   2   5 -14    5.96    0.69 
  -2  -5  14    5.71    0.59 
   1   5 -14   -0.78    0.32 
  -1  -5  14   -0.02    0.18 
  -1  -5  14   -0.06    0.23 
   0  -5  14    2.69    0.37 
   0  -5  14    2.95    0.30 
  -1   5 -14    0.69    0.37 
   1  -5  14    0.65    0.17 
   1  -5  14    0.37    0.25 
  -2   5 -14   -0.01    0.28 
   2  -5  14   -0.02    0.15 
   2  -5  14   -0.09    0.22 
   3  -5  14    6.44    0.55 
  -9  -4  14    1.43    0.18 
  -8  -4  14    0.32    0.10 
  -7  -4  14    1.34    0.21 
  -6  -4  14    4.19    0.47 
   5   4 -14    8.07    0.96 
  -5  -4  14    9.87    0.83 
   4   4 -14   -0.40    0.34 
   3   4 -14    8.34    0.92 
  -3  -4  14    8.77    0.80 
   2   4 -14    1.12    0.34 
  -2  -4  14    0.73    0.28 
   1   4 -14   -0.04    0.31 
  -1  -4  14   -0.15    0.25 
  -1  -4  14   -0.03    0.17 
   0   4 -14    1.23    0.40 
   0  -4  14    0.83    0.27 
   0  -4  14    0.92    0.19 
  -1   4 -14    0.62    0.36 
   1  -4  14    0.95    0.18 
   1  -4  14    0.90    0.27 
  -2   4 -14    3.89    0.54 
   2  -4  14    5.28    0.46 
   2  -4  14    5.87    0.53 
  -9  -3  14   -0.16    0.09 
  -8  -3  14    0.02    0.09 
  -7  -3  14   -0.44    0.27 
  -6  -3  14   16.22    1.41 
   5   3 -14   -0.30    0.35 
  -5  -3  14    0.02    0.10 
   4   3 -14    3.41    0.51 
   3   3 -14   -0.04    0.35 
  -3  -3  14    0.14    0.25 
   2   3 -14    0.87    0.35 
  -2  -3  14    1.69    0.29 
   1   3 -14   -0.05    0.29 
   1   3 -14   -0.12    0.29 
  -1  -3  14   -0.05    0.26 
  -1  -3  14   -0.12    0.18 
   0   3 -14    1.04    0.29 
   0  -3  14    1.34    0.29 
   0  -3  14    1.03    0.21 
  -1   3 -14    3.75    0.53 
   1  -3  14    4.75    0.44 
   1  -3  14    5.59    0.51 
   2  -3  14    2.36    0.26 
  -9  -2  14   -0.08    0.09 
  -8  -2  14    2.17    0.26 
  -7  -2  14    8.69    0.77 
  -6  -2  14    0.97    0.34 
   5   2 -14    1.41    0.37 
   4   2 -14    0.74    0.35 
   3   2 -14    3.55    0.50 
  -3  -2  14    3.47    0.43 
   2   2 -14    1.23    0.35 
  -2  -2  14    0.59    0.28 
   1   2 -14    2.64    0.40 
  -1  -2  14    2.72    0.38 
  -1  -2  14    2.47    0.30 
   0   2 -14    7.20    0.87 
   0  -2  14    9.08    0.76 
   0  -2  14   10.25    0.85 
  -1   2 -14    0.12    0.23 
   1  -2  14    0.26    0.24 
   1  -2  14    0.41    0.16 
   2  -2  14    4.13    0.37 
  -9  -1  14    1.12    0.18 
  -8  -1  14    3.13    0.32 
  -7  -1  14    0.21    0.13 
   6   1 -14    0.41    0.16 
  -6  -1  14   -0.18    0.29 
   5   1 -14    0.04    0.33 
   4   1 -14    6.22    0.72 
   3   1 -14    1.75    0.39 
  -3  -1  14    1.05    0.29 
   2   1 -14    2.99    0.40 
  -2  -1  14    1.61    0.34 
  -1  -1  14   18.59    1.58 
  -1  -1  14   17.47    1.47 
   0   1 -14    0.02    0.21 
   0  -1  14   -0.23    0.25 
   0  -1  14    0.10    0.16 
  -1   1 -14    1.30    0.23 
   1  -1  14    1.85    0.28 
   1  -1  14    1.67    0.20 
  -9   0  14    1.08    0.20 
  -8   0  14   -0.08    0.10 
   7   0 -14    0.04    0.13 
  -7   0  14    0.54    0.29 
   6   0 -14    0.27    0.44 
   5   0 -14    6.54    0.75 
   4   0 -14    4.72    0.59 
   3   0 -14    0.07    0.32 
  -3   0  14    0.05    0.22 
   2   0 -14   20.43    1.89 
  -2   0  14   17.83    1.66 
  -1   0  14   -0.14    0.22 
  -1   0  14   -0.01    0.15 
   0   0 -14    2.70    0.31 
   0   0  14    2.52    0.25 
   0   0  14    2.59    0.33 
  -8   1  14    0.26    0.11 
   7  -1 -14   -0.08    0.14 
  -7   1  14    0.09    0.28 
   4  -1 -14    2.40    0.42 
   3  -1 -14    7.91    0.77 
  -3   1  14    6.40    0.64 
  -2   1  14    0.33    0.21 
   1  -1 -14    2.74    0.34 
  -1   1  14    2.92    0.35 
  -1   1  14    3.41    0.30 
   7  -2 -14    2.66    0.32 
   5  -2 -14    0.62    0.30 
   4  -2 -14    1.24    0.31 
   3  -2 -14    0.00    0.21 
   4  11 -15    3.30    0.40 
  -4 -11  15    3.19    0.36 
   3  11 -15    1.20    0.27 
  -3 -11  15    1.44    0.24 
   2  11 -15    3.26    0.40 
  -2 -11  15    3.46    0.36 
  -1 -11  15   -0.03    0.18 
   5  10 -15    0.54    0.25 
  -5 -10  15    0.19    0.24 
   4  10 -15    0.18    0.27 
  -4 -10  15    0.61    0.24 
   3  10 -15    5.39    0.63 
  -3 -10  15    6.01    0.55 
   2  10 -15   -0.17    0.24 
  -2 -10  15   -0.08    0.22 
  -1 -10  15    1.50    0.25 
  -1 -10  15    1.42    0.17 
   0 -10  15    0.95    0.20 
   0 -10  15    0.85    0.14 
   6   9 -15    0.81    0.26 
  -6  -9  15    0.67    0.12 
  -6  -9  15    1.02    0.27 
   5   9 -15    0.02    0.28 
  -5  -9  15    0.12    0.27 
   4   9 -15    1.29    0.35 
  -4  -9  15    1.96    0.31 
   3   9 -15    0.13    0.27 
  -3  -9  15    0.25    0.24 
   2   9 -15    2.96    0.44 
  -2  -9  15    3.40    0.39 
  -2  -9  15    3.54    0.32 
   1   9 -15   -0.02    0.25 
  -1  -9  15    0.51    0.22 
  -1  -9  15    0.32    0.08 
   0  -9  15    2.68    0.27 
   0  -9  15    2.49    0.30 
   0  -9  15    2.78    0.32 
   1  -9  15    1.10    0.16 
  -7  -8  15    0.03    0.25 
  -7  -8  15    0.30    0.09 
   6   8 -15    0.18    0.25 
  -6  -8  15    0.06    0.28 
  -6  -8  15    0.09    0.09 
   5   8 -15    1.44    0.33 
  -5  -8  15    1.68    0.32 
   4   8 -15   -0.27    0.28 
  -4  -8  15    0.06    0.25 
   3   8 -15    2.06    0.35 
  -3  -8  15    1.81    0.30 
   2   8 -15    0.14    0.29 
  -2  -8  15    0.14    0.09 
  -2  -8  15    0.01    0.22 
   1   8 -15    1.03    0.28 
   1   8 -15    0.88    0.36 
  -1  -8  15    1.20    0.24 
   0   8 -15    1.10    0.36 
   0  -8  15    1.90    0.27 
   0  -8  15    1.80    0.21 
   1  -8  15   -0.01    0.18 
   1  -8  15    0.00    0.13 
  -7  -7  15   -0.02    0.28 
  -7  -7  15   -0.22    0.07 
   6   7 -15    0.66    0.29 
  -6  -7  15    1.00    0.18 
  -6  -7  15    1.11    0.30 
   5   7 -15    0.57    0.30 
  -5  -7  15    1.01    0.30 
   4   7 -15    2.09    0.37 
  -4  -7  15    1.73    0.32 
   3   7 -15   -0.17    0.29 
   2   7 -15    2.57    0.41 
  -2  -7  15    2.80    0.29 
   1   7 -15    3.09    0.43 
  -1  -7  15    3.49    0.38 
   0   7 -15   -0.23    0.32 
   0  -7  15    0.05    0.14 
   0  -7  15   -0.01    0.21 
   1  -7  15    6.21    0.58 
   1  -7  15    6.02    0.52 
  -8  -6  15    0.20    0.08 
  -7  -6  15    1.68    0.21 
   6   6 -15   -0.28    0.29 
  -6  -6  15   -0.07    0.09 
   5   6 -15    3.72    0.42 
   4   6 -15    1.14    0.34 
   3   6 -15    1.81    0.37 
   2   6 -15    4.59    0.58 
  -2  -6  15    5.28    0.50 
   1   6 -15   -0.12    0.28 
  -1  -6  15    0.31    0.23 
  -1  -6  15    0.36    0.15 
   0  -6  15   11.51    1.00 
   0  -6  15   10.98    0.93 
   1  -6  15    2.22    0.31 
   1  -6  15    2.48    0.25 
  -8  -5  15    1.59    0.19 
  -7  -5  15    0.01    0.09 
  -6  -5  15   15.02    1.30 
   5   5 -15    3.00    0.44 
   4   5 -15    4.85    0.60 
   3   5 -15    8.26    0.88 
   2   5 -15    0.69    0.32 
  -2  -5  15    0.86    0.25 
   1   5 -15    7.09    0.73 
  -1  -5  15    6.70    0.59 
  -1  -5  15    6.75    0.65 
   0   5 -15    1.55    0.40 
   0  -5  15    1.97    0.31 
   0  -5  15    2.23    0.24 
   1  -5  15    3.09    0.30 
   1  -5  15    2.94    0.35 
  -8  -4  15    0.64    0.12 
  -7  -4  15   11.53    0.99 
   6   4 -15    5.48    0.62 
  -6  -4  15    5.22    0.54 
   5   4 -15    2.63    0.45 
   4   4 -15   10.58    1.09 
   3   4 -15    1.52    0.35 
  -3  -4  15    1.39    0.20 
   2   4 -15    3.12    0.43 
  -2  -4  15    2.96    0.37 
   1   4 -15    0.03    0.27 
  -1  -4  15    0.33    0.22 
  -1  -4  15    0.18    0.15 
   0   4 -15    2.05    0.38 
   0  -4  15    2.15    0.24 
   0  -4  15    2.64    0.31 
   1  -4  15    1.33    0.18 
  -8  -3  15    6.30    0.56 
  -7  -3  15    7.27    0.69 
   6   3 -15    6.59    0.73 
   5   3 -15    6.52    0.72 
   4   3 -15    1.19    0.34 
   3   3 -15    4.35    0.53 
   2   3 -15   -0.82    0.29 
  -2  -3  15   -0.15    0.23 
   1   3 -15    1.02    0.31 
  -1  -3  15    0.90    0.24 
  -1  -3  15    0.54    0.16 
   0  -3  15    0.08    0.13 
   0  -3  15    0.53    0.22 
  -8  -2  15    3.71    0.35 
   7   2 -15    4.07    0.49 
  -7  -2  15    5.05    0.43 
   6   2 -15    2.58    0.34 
   5   2 -15    2.08    0.37 
   4   2 -15    1.36    0.35 
   3   2 -15    0.56    0.32 
   2   2 -15    3.79    0.44 
  -2  -2  15    2.81    0.37 
  -1  -2  15   -0.06    0.20 
   0  -2  15    2.59    0.25 
   7   1 -15    3.50    0.43 
  -7  -1  15    4.31    0.37 
   6   1 -15    2.10    0.29 
   5   1 -15    1.59    0.36 
   4   1 -15    3.33    0.45 
   3   1 -15    3.76    0.48 
  -2  -1  15    1.21    0.21 
   6   0 -15    1.19    0.23 
   5   0 -15    4.37    0.54 
   4   0 -15    0.23    0.28 
   3   0 -15    1.72    0.30 
   5  -1 -15    0.09    0.09 
   4   9 -16    1.14    0.26 
   3   9 -16   -0.13    0.21 
   5   8 -16    0.81    0.25 
   4   8 -16    0.25    0.26 
   3   8 -16    0.34    0.25 
   2   8 -16    4.93    0.55 
   6   7 -16    0.75    0.14 
   5   7 -16    0.91    0.28 
   4   7 -16    0.07    0.26 
   3   7 -16    3.46    0.43 
   2   7 -16    0.89    0.26 
   6   6 -16    0.95    0.19 
   5   6 -16    0.49    0.12 
   4   6 -16    1.50    0.32 
   3   6 -16    0.04    0.26 
   2   6 -16    6.14    0.65 
   6   5 -16    0.36    0.11 
   5   5 -16    2.35    0.30 
   4   5 -16    1.31    0.31 
   3   5 -16    2.82    0.39 
   2   5 -16    0.06    0.25 
   6   4 -16    1.97    0.26 
   5   4 -16    0.23    0.10 
   4   4 -16    9.76    0.99 
   3   4 -16    2.57    0.37 
   2   4 -16    6.40    0.67 
   6   3 -16   -0.12    0.10 
   5   3 -16   13.06    1.30 
   4   3 -16   -0.12    0.26 
   3   3 -16    5.45    0.59 
   5   2 -16    0.57    0.25 
   4   2 -16    1.55    0.30 
;
loop_
_symmetry_equiv_pos_as_xyz
x,y,z
-x,-y,-z
loop_
_atom_site_label
_atom_site_type_symbol
_atom_site_fract_x
_atom_site_fract_y
_atom_site_fract_z
_atom_site_U_iso_or_equiv
_atom_site_occupancy
_atom_site_adp_type
_atom_site_refinement_flags_posn
_atom_site_disorder_group
Zn1 Zn 0.0000 0.0000 0.0000 0.0273 1.0000 Uani S .
Si1 Si -0.56306(13) -0.57123(10) -0.22220(10) 0.0311 1.0000 Uani . .
N1 N 0.1634(4) 0.1028(3) 0.1484(3) 0.0247 1.0000 Uani . .
N2 N -0.0541(4) -0.0986(3) 0.0758(3) 0.0252 1.0000 Uani . .
O1 O -0.1582(4) 0.1173(3) 0.0498(3) 0.0453 1.0000 Uani . .
C4 C 0.2028(4) 0.0884(3) 0.2470(3) 0.0240 1.0000 Uani . .
C5 C 0.1337(4) 0.0020(4) 0.2647(3) 0.0247 1.0000 Uani . .
C6 C 0.1933(4) 0.0020(3) 0.3793(3) 0.0236 1.0000 Uani . .
C7 C 0.1543(4) 0.0721(3) 0.4677(3) 0.0254 1.0000 Uani . .
C8 C 0.2079(5) 0.0672(4) 0.5718(3) 0.0308 1.0000 Uani . .
C9 C 0.2978(5) -0.0037(4) 0.5915(4) 0.0334 1.0000 Uani . .
C10 C 0.3502(6) -0.0081(5) 0.7059(4) 0.0495 1.0000 Uani . .
C11 C 0.3355(5) -0.0713(4) 0.5035(4) 0.0336 1.0000 Uani . .
C12 C 0.2848(4) -0.0705(3) 0.3976(4) 0.0289 1.0000 Uani . .
C13 C 0.3275(5) -0.1466(4) 0.3045(4) 0.0413 1.0000 Uani . .
C14 C 0.0583(5) 0.1516(4) 0.4523(4) 0.0326 1.0000 Uani . .
C15 C 0.0167(4) -0.0850(3) 0.1842(3) 0.0238 1.0000 Uani . .
C17 C -0.1600(4) -0.1929(3) 0.0265(3) 0.0253 1.0000 Uani . .
C18 C -0.1586(5) -0.2424(4) 0.1050(3) 0.0282 1.0000 Uani . .
C19 C -0.0501(5) -0.1760(4) 0.2023(3) 0.0277 1.0000 Uani . .
C20 C -0.2578(4) -0.2389(3) -0.0868(3) 0.0255 1.0000 Uani . .
C21 C -0.2581(4) -0.1941(4) -0.1664(3) 0.0256 1.0000 Uani . .
C22 C -0.3626(4) -0.2407(4) -0.2801(3) 0.0277 1.0000 Uani . .
C23 C -0.3267(4) -0.1751(3) -0.3294(3) 0.0265 1.0000 Uani . .
C24 C -0.3612(4) -0.3411(4) -0.1243(3) 0.0284 1.0000 Uani . .
C25 C -0.4468(5) -0.4284(4) -0.1585(3) 0.0308 1.0000 Uani . .
C27 C -0.5549(6) -0.6457(4) -0.3646(4) 0.0452 1.0000 Uani . .
C28 C -0.4958(6) -0.6480(4) -0.1330(4) 0.0400 1.0000 Uani . .
C29 C -0.7488(5) -0.5585(5) -0.2349(5) 0.0458 1.0000 Uani . .
O30 O 0.7739(12) 0.4557(10) 0.4650(10) 0.182(4) 1.0000 Uiso . .
C31 C 0.8612(16) 0.5534(13) 0.5828(12) 0.153(5) 1.0000 Uiso . .
C32 C 0.8471(15) 0.5081(11) 0.6553(11) 0.135(4) 1.0000 Uiso . .
C33 C 0.8408(11) 0.3816(9) 0.5946(8) 0.101(3) 1.0000 Uiso . .
C34 C 0.7642(13) 0.3557(11) 0.4830(10) 0.123(4) 1.0000 Uiso . .
C35 C -0.3079(14) 0.0549(11) 0.0117(11) 0.061(3) 0.5000 Uiso . 2
C36 C -0.1268(18) 0.2081(15) 0.1409(15) 0.084(4) 0.5000 Uiso . 2
C37 C -0.3796(13) 0.1461(11) 0.0621(11) 0.055(3) 0.5000 Uiso . 2
C38 C -0.2583(17) 0.2365(15) 0.1598(13) 0.073(4) 0.5000 Uiso . 2
C39 C -0.1784(13) 0.1566(11) 0.1586(10) 0.056(3) 0.5000 Uiso . 1
C40 C -0.3214(18) 0.1868(15) 0.1402(14) 0.070(4) 0.5000 Uiso . 1
C41 C -0.3606(13) 0.2027(11) 0.0383(10) 0.054(3) 0.5000 Uiso . 1
C42 C -0.2747(11) 0.1397(9) -0.0247(9) 0.044(2) 0.5000 Uiso . 1
O2 O 0.1442(12) 0.5764(9) 0.0072(9) 0.079(3) 0.5000 Uiso . .
C2 C -0.0754(15) 0.4651(12) -0.1194(13) 0.063(3) 0.5000 Uiso . .
C3 C 0.0248(14) 0.5744(12) -0.0810(11) 0.063(3) 0.5000 Uiso . .
C16 C 0.0911(15) 0.5289(12) 0.0692(13) 0.059(3) 0.5000 Uiso . .
C1 C -0.0506(16) 0.4528(13) -0.0083(13) 0.068(3) 0.5000 Uiso . .
H81 H 0.1816 0.1144 0.6317 0.0369 1.0000 Uiso R .
H101 H 0.4105 -0.0608 0.7048 0.0594 1.0000 Uiso R .
H102 H 0.4020 0.0654 0.7622 0.0594 1.0000 Uiso R .
H103 H 0.2709 -0.0315 0.7221 0.0594 1.0000 Uiso R .
H111 H 0.3982 -0.1198 0.5158 0.0403 1.0000 Uiso R .
H131 H 0.3891 -0.1894 0.3316 0.0497 1.0000 Uiso R .
H132 H 0.3755 -0.1014 0.2794 0.0497 1.0000 Uiso R .
H133 H 0.2448 -0.1970 0.2436 0.0497 1.0000 Uiso R .
H141 H 0.0441 0.1916 0.5208 0.0392 1.0000 Uiso R .
H142 H 0.1008 0.2044 0.4318 0.0392 1.0000 Uiso R .
H143 H -0.0309 0.1091 0.3946 0.0392 1.0000 Uiso R .
H181 H -0.2219 -0.3089 0.0910 0.0339 1.0000 Uiso R .
H191 H -0.0227 -0.1869 0.2698 0.0333 1.0000 Uiso R .
H221 H -0.4404 -0.3043 -0.3134 0.0333 1.0000 Uiso R .
H231 H -0.3745 -0.1847 -0.4044 0.0318 1.0000 Uiso R .
H271 H -0.6137 -0.7202 -0.4007 0.0544 1.0000 Uiso R .
H272 H -0.5875 -0.6043 -0.4082 0.0544 1.0000 Uiso R .
H273 H -0.4593 -0.6507 -0.3577 0.0544 1.0000 Uiso R .
H281 H -0.5554 -0.7218 -0.1655 0.0480 1.0000 Uiso R .
H282 H -0.4964 -0.6066 -0.0596 0.0480 1.0000 Uiso R .
H283 H -0.4013 -0.6547 -0.1284 0.0480 1.0000 Uiso R .
H291 H -0.8084 -0.6323 -0.2678 0.0550 1.0000 Uiso R .
H292 H -0.7514 -0.5169 -0.1622 0.0550 1.0000 Uiso R .
H293 H -0.7816 -0.5197 -0.2811 0.0550 1.0000 Uiso R .
H311 H 0.9584 0.5719 0.5917 0.1841 1.0000 Uiso R .
H312 H 0.8226 0.6195 0.5940 0.1841 1.0000 Uiso R .
H321 H 0.9266 0.5418 0.7241 0.1619 1.0000 Uiso R .
H322 H 0.7620 0.5194 0.6700 0.1619 1.0000 Uiso R .
H331 H 0.9339 0.3676 0.6040 0.1216 1.0000 Uiso R .
H332 H 0.7933 0.3383 0.6217 0.1216 1.0000 Uiso R .
H341 H 0.8022 0.3021 0.4362 0.1484 1.0000 Uiso R .
H342 H 0.6671 0.3242 0.4653 0.1484 1.0000 Uiso R .
H351 H -0.3503 0.0211 -0.0682 0.0733 0.5000 Uiso R 2
H352 H -0.3119 -0.0022 0.0390 0.0733 0.5000 Uiso R 2
H361 H -0.0760 0.2693 0.1354 0.1008 0.5000 Uiso R 2
H362 H -0.0691 0.1953 0.2025 0.1008 0.5000 Uiso R 2
H371 H -0.4463 0.1184 0.0876 0.0664 0.5000 Uiso R 2
H372 H -0.4267 0.1744 0.0093 0.0664 0.5000 Uiso R 2
H381 H -0.2661 0.3093 0.1608 0.0876 0.5000 Uiso R 2
H382 H -0.2582 0.2364 0.2290 0.0876 0.5000 Uiso R 2
H391 H -0.1056 0.2212 0.2132 0.0670 0.5000 Uiso R 1
H392 H -0.1761 0.0973 0.1835 0.0670 0.5000 Uiso R 1
H401 H -0.3156 0.2551 0.2016 0.0839 0.5000 Uiso R 1
H402 H -0.3898 0.1271 0.1332 0.0839 0.5000 Uiso R 1
H411 H -0.4596 0.1727 -0.0039 0.0654 0.5000 Uiso R 1
H412 H -0.3386 0.2814 0.0546 0.0654 0.5000 Uiso R 1
H421 H -0.2386 0.1840 -0.0563 0.0523 0.5000 Uiso R 1
H422 H -0.3335 0.0695 -0.0832 0.0523 0.5000 Uiso R 1
H21 H -0.1711 0.4692 -0.1525 0.0762 0.5000 Uiso R .
H22 H -0.0527 0.4038 -0.1718 0.0762 0.5000 Uiso R .
H31 H -0.0174 0.6369 -0.0542 0.0753 0.5000 Uiso R .
H32 H 0.0519 0.5770 -0.1407 0.0753 0.5000 Uiso R .
H11 H -0.1227 0.4761 0.0207 0.0811 0.5000 Uiso . .
H12 H -0.0492 0.3760 -0.0192 0.0811 0.5000 Uiso . .
H161 H 0.0813 0.5878 0.1318 0.0715 0.5000 Uiso . .
H162 H 0.1542 0.4865 0.0954 0.0715 0.5000 Uiso . .
loop_
_atom_site_aniso_label
_atom_site_aniso_U_11
_atom_site_aniso_U_22
_atom_site_aniso_U_33
_atom_site_aniso_U_23
_atom_site_aniso_U_13
_atom_site_aniso_U_12
Zn1 0.0312(5) 0.0267(4) 0.0165(4) 0.0072(3) 0.0047(3) -0.0092(3)
Si1 0.0349(7) 0.0241(6) 0.0256(6) 0.0033(5) 0.0119(5) -0.0074(5)
N1 0.0263(17) 0.0230(17) 0.0205(16) 0.0075(14) 0.0070(13) -0.0032(14)
N2 0.0272(18) 0.0239(17) 0.0203(16) 0.0073(14) 0.0074(13) -0.0031(14)
O1 0.047(2) 0.055(2) 0.0375(18) 0.0177(17) 0.0203(15) 0.0172(17)
C4 0.028(2) 0.023(2) 0.0175(18) 0.0052(15) 0.0078(15) -0.0010(16)
C5 0.027(2) 0.028(2) 0.0190(19) 0.0097(16) 0.0097(15) 0.0028(16)
C6 0.0231(19) 0.0219(19) 0.0219(19) 0.0085(16) 0.0057(15) -0.0026(15)
C7 0.029(2) 0.0176(19) 0.0229(19) 0.0061(15) 0.0066(16) -0.0039(16)
C8 0.039(2) 0.027(2) 0.0192(19) 0.0067(16) 0.0085(17) -0.0026(18)
C9 0.031(2) 0.035(2) 0.028(2) 0.0173(19) 0.0021(17) -0.0064(18)
C10 0.050(3) 0.060(3) 0.037(3) 0.034(3) 0.001(2) -0.002(3)
C11 0.029(2) 0.027(2) 0.042(3) 0.019(2) 0.0047(19) 0.0018(17)
C12 0.027(2) 0.021(2) 0.034(2) 0.0088(17) 0.0090(17) 0.0013(16)
C13 0.039(3) 0.037(3) 0.046(3) 0.013(2) 0.018(2) 0.011(2)
C14 0.039(2) 0.029(2) 0.027(2) 0.0095(18) 0.0117(18) 0.0070(19)
C15 0.029(2) 0.0208(19) 0.0208(19) 0.0076(15) 0.0100(16) 0.0015(16)
C17 0.029(2) 0.026(2) 0.0185(18) 0.0063(16) 0.0100(16) -0.0016(16)
C18 0.033(2) 0.027(2) 0.023(2) 0.0094(17) 0.0113(17) -0.0045(17)
C19 0.035(2) 0.028(2) 0.0200(19) 0.0094(16) 0.0120(17) -0.0004(17)
C20 0.030(2) 0.023(2) 0.0189(19) 0.0055(15) 0.0084(16) -0.0015(16)
C21 0.025(2) 0.028(2) 0.0173(18) 0.0053(16) 0.0068(15) -0.0028(16)
C22 0.030(2) 0.024(2) 0.0197(19) 0.0039(16) 0.0051(16) -0.0039(16)
C23 0.031(2) 0.024(2) 0.0189(18) 0.0068(16) 0.0051(16) 0.0002(16)
C24 0.030(2) 0.032(2) 0.0180(19) 0.0084(17) 0.0077(16) -0.0026(18)
C25 0.035(2) 0.027(2) 0.022(2) 0.0040(17) 0.0098(17) -0.0068(18)
C27 0.056(3) 0.039(3) 0.030(2) 0.002(2) 0.020(2) -0.003(2)
C28 0.049(3) 0.033(2) 0.037(3) 0.011(2) 0.020(2) -0.001(2)
C29 0.042(3) 0.038(3) 0.051(3) 0.014(2) 0.018(2) -0.002(2)
loop_
_atom_type_symbol
_atom_type_scat_dispersion_real
_atom_type_scat_dispersion_imag
_atom_type_scat_Cromer_Mann_a1
_atom_type_scat_Cromer_Mann_b1
_atom_type_scat_Cromer_Mann_a2
_atom_type_scat_Cromer_Mann_b2
_atom_type_scat_Cromer_Mann_a3
_atom_type_scat_Cromer_Mann_b3
_atom_type_scat_Cromer_Mann_a4
_atom_type_scat_Cromer_Mann_b4
_atom_type_scat_Cromer_Mann_c
_atom_type_scat_source
C 0.0181 0.0091 2.3100 20.8439 1.0200 10.2075 1.5886 0.5687 0.8650 51.6512
0.2156 'International Tables Vol C 4.2.6.8 and 6.1.1.4'
H 0.0000 0.0000 0.4930 10.5109 0.3229 26.1257 0.1402 3.1424 0.0408 57.7998
0.0030 'International Tables Vol C 4.2.6.8 and 6.1.1.4'
N 0.0311 0.0180 12.2126 0.0057 3.1322 9.8933 2.0125 28.9975 1.1663 0.5826
-11.5290 'International Tables Vol C 4.2.6.8 and 6.1.1.4'
Si 0.2541 0.3302 6.2915 2.4386 3.0353 32.3337 1.9891 0.6785 1.5410 81.6937
1.1407 'International Tables Vol C 4.2.6.8 and 6.1.1.4'
Zn -1.5491 0.6778 14.0743 3.2655 7.0318 0.2333 5.1652 10.3163 2.4100 58.7097
1.3041 'International Tables Vol C 4.2.6.8 and 6.1.1.4'
O 0.0492 0.0322 3.0485 13.2771 2.2868 5.7011 1.5463 0.3239 0.8670 32.9089
0.2508 'International Tables Vol C 4.2.6.8 and 6.1.1.4'
loop_
_geom_angle_atom_site_label_1
_geom_angle_site_symmetry_1
_geom_angle_atom_site_label_2
_geom_angle_atom_site_label_3
_geom_angle_site_symmetry_3
_geom_angle
_geom_angle_publ_flag
O1 2_555 Zn1 N2 2_555 91.25(13) yes
O1 2_555 Zn1 N1 2_555 91.10(13) yes
N2 2_555 Zn1 N1 2_555 89.84(13) yes
O1 2_555 Zn1 N1 . 88.90(13) yes
N2 2_555 Zn1 N1 . 90.16(13) yes
N1 2_555 Zn1 N1 . 179.99 yes
O1 2_555 Zn1 N2 . 88.75(13) yes
N2 2_555 Zn1 N2 . 179.99 yes
N1 2_555 Zn1 N2 . 90.16(13) yes
N1 . Zn1 N2 . 89.84(13) yes
O1 2_555 Zn1 O1 . 180.00 yes
N2 2_555 Zn1 O1 . 88.75(13) yes
N1 2_555 Zn1 O1 . 88.90(13) yes
N1 . Zn1 O1 . 91.10(13) yes
N2 . Zn1 O1 . 91.25(13) yes
C25 . Si1 C27 . 106.7(2) yes
C25 . Si1 C28 . 109.1(2) yes
C27 . Si1 C28 . 110.8(3) yes
C25 . Si1 C29 . 109.8(2) yes
C27 . Si1 C29 . 109.8(3) yes
C28 . Si1 C29 . 110.6(2) yes
C21 2_555 N1 Zn1 . 126.6(3) yes
C21 2_555 N1 C4 . 106.6(3) yes
Zn1 . N1 C4 . 126.7(3) yes
Zn1 . N2 C15 . 126.2(3) yes
Zn1 . N2 C17 . 126.5(3) yes
C15 . N2 C17 . 107.1(3) yes
C23 2_555 C4 N1 . 109.5(3) yes
C23 2_555 C4 C5 . 125.0(4) yes
N1 . C4 C5 . 125.5(3) yes
C4 . C5 C6 . 117.1(3) yes
C4 . C5 C15 . 125.6(4) yes
C6 . C5 C15 . 117.3(3) yes
C5 . C6 C7 . 120.1(4) yes
C5 . C6 C12 . 120.2(4) yes
C7 . C6 C12 . 119.7(4) yes
C6 . C7 C8 . 118.6(4) yes
C6 . C7 C14 . 121.6(4) yes
C8 . C7 C14 . 119.9(4) yes
C7 . C8 C9 . 122.6(4) yes
C7 . C8 H81 . 118.7 no
C9 . C8 H81 . 118.7 no
C8 . C9 C10 . 120.5(5) yes
C8 . C9 C11 . 117.8(4) yes
C10 . C9 C11 . 121.7(5) yes
C9 . C10 H101 . 109.5 no
C9 . C10 H102 . 109.5 no
H101 . C10 H102 . 109.5 no
C9 . C10 H103 . 109.5 no
H101 . C10 H103 . 109.5 no
H102 . C10 H103 . 109.5 no
C9 . C11 C12 . 122.1(4) yes
C9 . C11 H111 . 118.9 no
C12 . C11 H111 . 118.9 no
C6 . C12 C11 . 119.2(4) yes
C6 . C12 C13 . 120.8(4) yes
C11 . C12 C13 . 120.0(4) yes
C12 . C13 H131 . 109.5 no
C12 . C13 H132 . 109.5 no
H131 . C13 H132 . 109.5 no
C12 . C13 H133 . 109.5 no
H131 . C13 H133 . 109.5 no
H132 . C13 H133 . 109.5 no
C7 . C14 H141 . 109.5 no
C7 . C14 H142 . 109.5 no
H141 . C14 H142 . 109.5 no
C7 . C14 H143 . 109.5 no
H141 . C14 H143 . 109.5 no
H142 . C14 H143 . 109.5 no
C5 . C15 N2 . 126.1(4) yes
C5 . C15 C19 . 125.0(4) yes
N2 . C15 C19 . 108.9(3) yes
N2 . C17 C18 . 110.1(3) yes
N2 . C17 C20 . 125.6(4) yes
C18 . C17 C20 . 124.3(4) yes
C17 . C18 C19 . 106.9(4) yes
C17 . C18 H181 . 126.6 no
C19 . C18 H181 . 126.5 no
C15 . C19 C18 . 107.0(4) yes
C15 . C19 H191 . 126.5 no
C18 . C19 H191 . 126.5 no
C17 . C20 C21 . 125.3(4) yes
C17 . C20 C24 . 117.3(4) yes
C21 . C20 C24 . 117.3(3) yes
C20 . C21 N1 2_555 125.7(4) yes
C20 . C21 C22 . 123.9(4) yes
N1 2_555 C21 C22 . 110.4(3) yes
C21 . C22 C23 . 106.1(4) yes
C21 . C22 H221 . 127.0 no
C23 . C22 H221 . 126.9 no
C4 2_555 C23 C22 . 107.4(3) yes
C4 2_555 C23 H231 . 126.3 no
C22 . C23 H231 . 126.3 no
C20 . C24 C25 . 178.1(5) yes
Si1 . C25 C24 . 172.1(4) yes
Si1 . C27 H271 . 109.5 no
Si1 . C27 H272 . 109.5 no
H271 . C27 H272 . 109.5 no
Si1 . C27 H273 . 109.5 no
H271 . C27 H273 . 109.5 no
H272 . C27 H273 . 109.5 no
Si1 . C28 H281 . 109.5 no
Si1 . C28 H282 . 109.5 no
H281 . C28 H282 . 109.5 no
Si1 . C28 H283 . 109.5 no
H281 . C28 H283 . 109.5 no
H282 . C28 H283 . 109.5 no
Si1 . C29 H291 . 109.5 no
Si1 . C29 H292 . 109.5 no
H291 . C29 H292 . 109.5 no
Si1 . C29 H293 . 109.5 no
H291 . C29 H293 . 109.5 no
H292 . C29 H293 . 109.5 no
C31 . O30 C34 . 105.4(11) yes
O30 . C31 C32 . 103.1(12) yes
O30 . C31 H311 . 111.0 no
C32 . C31 H311 . 111.0 no
O30 . C31 H312 . 111.0 no
C32 . C31 H312 . 111.1 no
H311 . C31 H312 . 109.5 no
C31 . C32 C33 . 104.9(12) yes
C31 . C32 H321 . 110.6 no
C33 . C32 H321 . 110.6 no
C31 . C32 H322 . 110.6 no
C33 . C32 H322 . 110.6 no
H321 . C32 H322 . 109.5 no
C32 . C33 C34 . 103.8(10) yes
C32 . C33 H331 . 110.9 no
C34 . C33 H331 . 110.9 no
C32 . C33 H332 . 110.8 no
C34 . C33 H332 . 110.9 no
H331 . C33 H332 . 109.5 no
O30 . C34 C33 . 109.5(11) yes
O30 . C34 H341 . 109.4 no
C33 . C34 H341 . 109.4 no
O30 . C34 H342 . 109.5 no
C33 . C34 H342 . 109.5 no
H341 . C34 H342 . 109.5 no
O1 . C35 C37 . 103.4(9) yes
O1 . C35 H351 . 110.9 no
C37 . C35 H351 . 110.9 no
O1 . C35 H352 . 111.0 no
C37 . C35 H352 . 111.1 no
H351 . C35 H352 . 109.5 no
O1 . C36 C38 . 109.9(14) yes
O1 . C36 H361 . 109.7 no
C38 . C36 H361 . 109.8 no
O1 . C36 H362 . 109.0 no
C38 . C36 H362 . 108.9 no
H361 . C36 H362 . 109.5 no
C35 . C37 C38 . 103.4(11) yes
C35 . C37 H371 . 110.9 no
C38 . C37 H371 . 110.7 no
C35 . C37 H372 . 111.0 no
C38 . C37 H372 . 111.2 no
H371 . C37 H372 . 109.5 no
C37 . C38 C36 . 105.9(13) yes
C37 . C38 H381 . 110.1 no
C36 . C38 H381 . 109.8 no
C37 . C38 H382 . 110.6 no
C36 . C38 H382 . 110.8 no
H381 . C38 H382 . 109.5 no
O1 . C39 C40 . 107.2(10) yes
O1 . C39 H391 . 110.2 no
C40 . C39 H391 . 110.3 no
O1 . C39 H392 . 109.9 no
C40 . C39 H392 . 109.8 no
H391 . C39 H392 . 109.5 no
C39 . C40 C41 . 106.9(12) yes
C39 . C40 H401 . 109.9 no
C41 . C40 H401 . 110.1 no
C39 . C40 H402 . 110.4 no
C41 . C40 H402 . 110.1 no
H401 . C40 H402 . 109.5 no
C40 . C41 C42 . 105.3(11) yes
C40 . C41 H411 . 110.5 no
C42 . C41 H411 . 110.6 no
C40 . C41 H412 . 110.5 no
C42 . C41 H412 . 110.4 no
H411 . C41 H412 . 109.5 no
C41 . C42 O1 . 110.0(8) yes
C41 . C42 H421 . 109.4 no
O1 . C42 H421 . 109.4 no
C41 . C42 H422 . 109.3 no
O1 . C42 H422 . 109.3 no
H421 . C42 H422 . 109.5 no
H12 2_565 O2 H11 2_565 112.6 no
H12 2_565 O2 C1 2_565 50.3 no
H11 2_565 O2 C1 2_565 67.3 no
H12 2_565 O2 C3 . 54.6 no
H11 2_565 O2 C3 . 80.5 no
C1 2_565 O2 C3 . 65.7(13) yes
H12 2_565 O2 C16 . 77.4 no
H11 2_565 O2 C16 . 70.7 no
C1 2_565 O2 C16 . 41.3(11) yes
C3 . O2 C16 . 107.0(11) yes
H162 2_565 C2 C1 2_565 90.2 no
H162 2_565 C2 H161 2_565 123.9 no
C1 2_565 C2 H161 2_565 112.7 no
H162 2_565 C2 C3 . 89.0 no
C1 2_565 C2 C3 . 50.0(8) yes
H161 2_565 C2 C3 . 145.2 no
H162 2_565 C2 C1 . 83.7 no
C1 2_565 C2 C1 . 52.3(11) yes
H161 2_565 C2 C1 . 74.0 no
C3 . C2 C1 . 101.9(12) yes
H162 2_565 C2 H21 . 41.0 no
C1 2_565 C2 H21 . 131.0 no
H161 2_565 C2 H21 . 102.1 no
C3 . C2 H21 . 111.3 no
C1 . C2 H21 . 111.3 no
H162 2_565 C2 H22 . 150.2 no
C1 2_565 C2 H22 . 119.5 no
H161 2_565 C2 H22 . 45.0 no
C3 . C2 H22 . 111.4 no
C1 . C2 H22 . 111.4 no
H21 . C2 H22 . 109.5 no
C2 . C3 O2 . 105.0(11) yes
C2 . C3 H12 2_565 105.7 no
O2 . C3 H12 2_565 53.7 no
C2 . C3 C1 2_565 73.0(11) yes
O2 . C3 C1 2_565 42.0(8) yes
H12 2_565 C3 C1 2_565 43.0 no
C2 . C3 C16 2_565 23.4(7) yes
O2 . C3 C16 2_565 93.2(10) yes
H12 2_565 C3 C16 2_565 82.4 no
C1 2_565 C3 C16 2_565 54.3(9) yes
C2 . C3 H31 . 110.6 no
O2 . C3 H31 . 110.5 no
H12 2_565 C3 H31 . 60.1 no
C1 2_565 C3 H31 . 97.5 no
C16 2_565 C3 H31 . 97.1 no
C2 . C3 H32 . 110.5 no
O2 . C3 H32 . 110.6 no
H12 2_565 C3 H32 . 143.4 no
C1 2_565 C3 H32 . 148.5 no
C16 2_565 C3 H32 . 134.0 no
H31 . C3 H32 . 109.5 no
H21 2_565 C16 O2 . 118.7 no
H21 2_565 C16 C3 2_565 83.7 no
O2 . C16 C3 2_565 153.2(12) yes
H21 2_565 C16 C1 2_565 161.3 no
O2 . C16 C1 2_565 44.5(12) yes
C3 2_565 C16 C1 2_565 114.9(16) yes
H21 2_565 C16 C1 . 130.8 no
O2 . C16 C1 . 107.2(15) yes
C3 2_565 C16 C1 . 47.7(9) yes
C1 2_565 C16 C1 . 67.9(17) yes
H21 2_565 C16 H161 . 71.2 no
O2 . C16 H161 . 110.0 no
C3 2_565 C16 H161 . 90.5 no
C1 2_565 C16 H161 . 104.6 no
C1 . C16 H161 . 110.0 no
H21 2_565 C16 H162 . 38.8 no
O2 . C16 H162 . 110.1 no
C3 2_565 C16 H162 . 77.3 no
C1 2_565 C16 H162 . 143.8 no
C1 . C16 H162 . 110.1 no
H161 . C16 H162 . 109.4 no
C2 . C1 C16 . 104.6(13) yes
C2 . C1 C2 2_565 127.7(11) yes
C16 . C1 C2 2_565 25.6(7) yes
C2 . C1 C3 2_565 170.9(15) yes
C16 . C1 C3 2_565 78.0(13) yes
C2 2_565 C1 C3 2_565 57.0(10) yes
C2 . C1 O2 2_565 108.8(15) yes
C16 . C1 O2 2_565 140.8(18) yes
C2 2_565 C1 O2 2_565 115.4(16) yes
C3 2_565 C1 O2 2_565 72.3(13) yes
C2 . C1 C16 2_565 19.8(12) yes
C16 . C1 C16 2_565 112.1(17) yes
C2 2_565 C1 C16 2_565 129.2(18) yes
C3 2_565 C1 C16 2_565 165.8(20) yes
O2 2_565 C1 C16 2_565 94.2(18) yes
C2 . C1 H11 . 110.8 no
C16 . C1 H11 . 110.7 no
C2 2_565 C1 H11 . 89.9 no
C3 2_565 C1 H11 . 75.7 no
O2 2_565 C1 H11 . 37.3 no
C2 . C1 H12 . 110.6 no
C16 . C1 H12 . 110.6 no
C2 2_565 C1 H12 . 106.1 no
C3 2_565 C1 H12 . 60.6 no
O2 2_565 C1 H12 . 76.2 no
C16 2_565 C1 H11 . 91.0 no
C16 2_565 C1 H12 . 121.2 no
H11 . C1 H12 . 109.5 no
C16 2_565 H21 H162 2_565 54.1 no
C16 2_565 H21 C2 . 38.5 no
H162 2_565 H21 C2 . 80.9 no
H161 2_565 H22 C2 . 41.8 no
C1 . H11 O2 2_565 75.3 no
O2 2_565 H12 C3 2_565 71.8 no
O2 2_565 H12 C1 . 53.6 no
C3 2_565 H12 C1 . 76.4 no
H22 2_565 H161 C16 . 141.6 no
H22 2_565 H161 C2 2_565 93.1 no
C16 . H161 C2 2_565 50.2 no
C2 2_565 H162 H21 2_565 58.1 no
C2 2_565 H162 C16 . 40.8 no
H21 2_565 H162 C16 . 87.2 no
loop_
_geom_bond_atom_site_label_1
_geom_bond_atom_site_label_2
_geom_bond_site_symmetry_2
_geom_bond_distance
_geom_bond_publ_flag
Zn1 O1 2_555 2.368(4) yes
Zn1 N2 2_555 2.059(3) yes
Zn1 N1 2_555 2.055(3) yes
Zn1 N1 . 2.055(3) yes
Zn1 N2 . 2.059(3) yes
Zn1 O1 . 2.368(4) yes
Si1 C25 . 1.842(4) yes
Si1 C27 . 1.860(5) yes
Si1 C28 . 1.861(5) yes
Si1 C29 . 1.856(5) yes
N1 C21 2_555 1.354(5) yes
N1 C4 . 1.376(5) yes
N2 C15 . 1.376(5) yes
N2 C17 . 1.352(5) yes
C4 C23 2_555 1.439(5) yes
C4 C5 . 1.408(6) yes
C5 C6 . 1.503(5) yes
C5 C15 . 1.396(6) yes
C6 C7 . 1.406(6) yes
C6 C12 . 1.405(6) yes
C7 C8 . 1.394(6) yes
C7 C14 . 1.498(6) yes
C8 C9 . 1.383(7) yes
C8 H81 . 0.950 no
C9 C10 . 1.521(6) yes
C9 C11 . 1.384(7) yes
C10 H101 . 0.950 no
C10 H102 . 0.950 no
C10 H103 . 0.950 no
C11 C12 . 1.391(6) yes
C11 H111 . 0.950 no
C12 C13 . 1.501(6) yes
C13 H131 . 0.950 no
C13 H132 . 0.950 no
C13 H133 . 0.950 no
C14 H141 . 0.950 no
C14 H142 . 0.950 no
C14 H143 . 0.950 no
C15 C19 . 1.451(5) yes
C17 C18 . 1.443(6) yes
C17 C20 . 1.423(5) yes
C18 C19 . 1.350(6) yes
C18 H181 . 0.950 no
C19 H191 . 0.950 no
C20 C21 . 1.416(6) yes
C20 C24 . 1.432(6) yes
C21 C22 . 1.452(5) yes
C22 C23 . 1.356(6) yes
C22 H221 . 0.950 no
C23 H231 . 0.950 no
C24 C25 . 1.203(6) yes
C27 H271 . 0.950 no
C27 H272 . 0.950 no
C27 H273 . 0.950 no
C28 H281 . 0.950 no
C28 H282 . 0.950 no
C28 H283 . 0.950 no
C29 H291 . 0.950 no
C29 H292 . 0.950 no
C29 H293 . 0.950 no
O30 C31 . 1.556(16) yes
O30 C34 . 1.409(14) yes
C31 C32 . 1.364(17) yes
C31 H311 . 0.950 no
C31 H312 . 0.950 no
C32 C33 . 1.524(15) yes
C32 H321 . 0.950 no
C32 H322 . 0.950 no
C33 C34 . 1.382(13) yes
C33 H331 . 0.950 no
C33 H332 . 0.950 no
C34 H341 . 0.950 no
C34 H342 . 0.950 no
C35 C37 . 1.494(18) yes
C35 H351 . 0.950 no
C35 H352 . 0.950 no
C36 C38 . 1.48(2) yes
C36 H361 . 0.950 no
C36 H362 . 0.950 no
C37 C38 . 1.506(19) yes
C37 H371 . 0.950 no
C37 H372 . 0.950 no
C38 H381 . 0.950 no
C38 H382 . 0.950 no
C39 C40 . 1.498(19) yes
C39 H391 . 0.950 no
C39 H392 . 0.950 no
C40 C41 . 1.430(19) yes
C40 H401 . 0.950 no
C40 H402 . 0.950 no
C41 C42 . 1.487(16) yes
C41 H411 . 0.950 no
C41 H412 . 0.950 no
C42 H421 . 0.950 no
C42 H422 . 0.950 no
O2 H12 2_565 1.201 no
O2 H11 2_565 0.624 no
O2 C1 2_565 0.995(16) yes
O2 C3 . 1.416(16) yes
O2 C16 . 1.417(19) yes
C2 H162 2_565 1.105 no
C2 C1 2_565 1.69(2) yes
C2 H161 2_565 0.635 no
C2 C3 . 1.483(19) yes
C2 C1 . 1.54(2) yes
C2 H21 . 0.950 no
C2 H22 . 0.950 no
C3 H12 2_565 1.215 no
C3 C1 2_565 1.35(2) yes
C3 C16 2_565 1.79(2) yes
C3 H31 . 0.950 no
C3 H32 . 0.950 no
C16 H21 2_565 1.172 no
C16 C1 2_565 0.938(17) yes
C16 C1 . 1.489(19) yes
C16 H161 . 0.951 no
C16 H162 . 0.950 no
C1 H11 . 0.949 no
C1 H12 . 0.951 no
H21 H162 2_565 0.734 no
H22 H161 2_565 0.673 no
loop_
_geom_hbond_atom_site_label_D
_geom_hbond_atom_site_label_H
_geom_hbond_atom_site_label_A
_geom_hbond_site_symmetry_A
_geom_hbond_angle_DHA
_geom_hbond_distance_DH
_geom_hbond_distance_HA
_geom_hbond_distance_DA
_geom_hbond_publ_flag
C28 H283 O2 2_555 145 0.95 2.49 3.315(13) yes
C32 H321 C3 1_656 147 0.95 2.41 3.246(13) yes
C36 H361 C3 2_565 161 0.95 2.47 3.386(13) yes
loop_
_oxford_refln_omitted_index_h
_oxford_refln_omitted_index_k
_oxford_refln_omitted_index_l
_oxford_refln_omitted_flag
-3 1 0 x
-3 1 1 x
-2 -2 1 x
-2 -3 1 x
3 -1 1 x
-4 -5 2 x
