#------------------------------------------------------------------------------
#$Date: 2019-11-24 15:00:31 +0200 (Sun, 24 Nov 2019) $
#$Revision: 238266 $
#$URL: file:///home/coder/svn-repositories/cod/cif/1/55/50/1555001.cif $
#------------------------------------------------------------------------------
#
# This file is available in the Crystallography Open Database (COD),
# http://www.crystallography.net/
#
# All data on this site have been placed in the public domain by the
# contributors.
#
data_1555001
loop_
_publ_author_name
'Ren, Demin'
'Fu, Xinliang'
'Li, Xiaofang'
'Koniarz, Sebastian'
'Chmielewski, Piotr J.'
_publ_section_title
;
 Reaction of antiaromatic porphyrinoid with active methylene compounds
;
_journal_issue                   16
_journal_name_full               'Organic Chemistry Frontiers'
_journal_page_first              2924
_journal_paper_doi               10.1039/C9QO00679F
_journal_volume                  6
_journal_year                    2019
_chemical_formula_moiety         'C44 H40 N4 Ni O2'
_chemical_formula_sum            'C44 H40 N4 Ni O2'
_chemical_formula_weight         715.51
_space_group_crystal_system      monoclinic
_space_group_IT_number           14
_space_group_name_Hall           '-P 2ybc'
_space_group_name_H-M_alt        'P 1 21/c 1'
_atom_sites_solution_hydrogens   geom
_audit_creation_date             2018-11-27
_audit_creation_method
;
Olex2 1.2
(compiled 2018.05.29 svn.r3508 for OlexSys, GUI svn.r5506)
;
_audit_update_record
;
2019-05-22 deposited with the CCDC.	2019-07-09 downloaded from the CCDC.
;
_cell_angle_alpha                90
_cell_angle_beta                 117.363(11)
_cell_angle_gamma                90
_cell_formula_units_Z            4
_cell_length_a                   19.861(8)
_cell_length_b                   13.383(5)
_cell_length_c                   18.290(7)
_cell_measurement_reflns_used    6178
_cell_measurement_temperature    296(2)
_cell_measurement_theta_max      22.45
_cell_measurement_theta_min      2.51
_cell_volume                     4318(3)
_computing_cell_refinement       'SAINT V8.38A (?, 2016)'
_computing_data_reduction        'SAINT V8.38A (?, 2016)'
_computing_molecular_graphics    'Olex2 (Dolomanov et al., 2009)'
_computing_publication_material  'Olex2 (Dolomanov et al., 2009)'
_computing_structure_refinement  'ShelXL (Sheldrick, 2015)'
_computing_structure_solution    'SHELXT 2018/2 (Sheldrick, 2018)'
_diffrn_ambient_temperature      296
_diffrn_measured_fraction_theta_full 0.986
_diffrn_measured_fraction_theta_max 0.986
_diffrn_measurement_device_type  'Bruker APEX-II CCD'
_diffrn_measurement_method       '\f and \w scans'
_diffrn_radiation_type           MoK\a
_diffrn_radiation_wavelength     0.71073
_diffrn_reflns_av_R_equivalents  0.0406
_diffrn_reflns_av_unetI/netI     0.0402
_diffrn_reflns_Laue_measured_fraction_full 0.986
_diffrn_reflns_Laue_measured_fraction_max 0.986
_diffrn_reflns_limit_h_max       23
_diffrn_reflns_limit_h_min       -23
_diffrn_reflns_limit_k_max       15
_diffrn_reflns_limit_k_min       -5
_diffrn_reflns_limit_l_max       21
_diffrn_reflns_limit_l_min       -21
_diffrn_reflns_number            28670
_diffrn_reflns_point_group_measured_fraction_full 0.986
_diffrn_reflns_point_group_measured_fraction_max 0.986
_diffrn_reflns_theta_full        25.009
_diffrn_reflns_theta_max         25.009
_diffrn_reflns_theta_min         1.972
_diffrn_standards_number         0
_exptl_absorpt_coefficient_mu    0.486
_exptl_absorpt_correction_T_max  0.7454
_exptl_absorpt_correction_T_min  0.5905
_exptl_absorpt_correction_type   multi-scan
_exptl_absorpt_process_details
;
SADABS-2016/2 (Bruker,2016/2) was used for absorption correction.
wR2(int) was 0.1030 before and 0.0451 after correction.
The Ratio of minimum to maximum transmission is 0.7922.
The \l/2 correction factor is Not present.
;
_exptl_crystal_colour            Black
_exptl_crystal_density_diffrn    1.101
_exptl_crystal_description       Sheet
_exptl_crystal_F_000             1504
_exptl_crystal_size_max          0.28
_exptl_crystal_size_mid          0.24
_exptl_crystal_size_min          0.12
_exptl_transmission_factor_max   0.7454
_exptl_transmission_factor_min   0.5905
_refine_diff_density_max         0.446
_refine_diff_density_min         -0.248
_refine_diff_density_rms         0.041
_refine_ls_extinction_method     none
_refine_ls_goodness_of_fit_ref   1.046
_refine_ls_hydrogen_treatment    constr
_refine_ls_matrix_type           full
_refine_ls_number_parameters     469
_refine_ls_number_reflns         7501
_refine_ls_number_restraints     0
_refine_ls_restrained_S_all      1.046
_refine_ls_R_factor_all          0.1009
_refine_ls_R_factor_gt           0.0543
_refine_ls_shift/su_max          0.001
_refine_ls_shift/su_mean         0.000
_refine_ls_structure_factor_coef Fsqd
_refine_ls_weighting_details
'w=1/[\s^2^(Fo^2^)+(0.0611P)^2^+2.8863P] where P=(Fo^2^+2Fc^2^)/3'
_refine_ls_weighting_scheme      calc
_refine_ls_wR_factor_gt          0.1273
_refine_ls_wR_factor_ref         0.1625
_reflns_Friedel_coverage         0.000
_reflns_number_gt                4559
_reflns_number_total             7501
_reflns_threshold_expression     'I > 2\s(I)'
_cod_data_source_file            c9qo00679f2.cif
_cod_data_source_block           z20181127a_0ma_sq
_cod_depositor_comments
;
The following automatic conversions were performed:

data item '_exptl_absorpt_correction_type' value 'Multi-scan' was
changed to 'multi-scan' in accordance with the
/home/saulius/struct/COD-crude-data/automatic-downloads/DataCite-retrospective/RSC/depositions/lib/dictionaries/cif_core.dic
dictionary named 'cif_core.dic' version 2.4.2 last updated on
2011-04-26.

Automatic conversion script
Id: cif_fix_values 6909 2019-04-08 15:41:33Z antanas 
;
_cod_database_code               1555001
_shelx_shelxl_version_number     2018/3
_shelx_space_group_comment
;
The symmetry employed for this shelxl refinement is uniquely defined
by the following loop, which should always be used as a source of
symmetry information in preference to the above space-group names.
They are only intended as comments.
;
_shelx_estimated_absorpt_t_max   0.944
_shelx_estimated_absorpt_t_min   0.876
_olex2_refinement_description
;
1. Fixed Uiso
 At 1.2 times of:
  All C(H) groups, All C(H,H) groups
 At 1.5 times of:
  All C(H,H,H) groups, All O(H) groups
2.a Secondary CH2 refined with riding coordinates:
 C30(H30A,H30B), C32(H32A,H32B)
2.b Aromatic/amide H refined with riding coordinates:
 C2(H2A), C3(H3), C6(H6), C7(H7), C11(H11), C12(H12), C15(H15), C21(H21),
 C23(H23), C38(H38), C40(H40)
2.c Idealised Me refined as rotating group:
 C25(H25A,H25B,H25C), C26(H26A,H26B,H26C), C27(H27A,H27B,H27C), C34(H34A,H34B,
 H34C), C35(H35A,H35B,H35C), C42(H42A,H42B,H42C), C43(H43A,H43B,H43C), C44(H44A,
 H44B,H44C)
2.d Idealised tetrahedral OH refined as rotating group:
 O2(H2)
;
_shelx_res_file
;
TITL z20181127a_0ma_a.res in P2(1)/c
    z20181127a_0ma_sq.res
    created by SHELXL-2018/3 at 20:42:56 on 27-Nov-2018
REM Old TITL Z20181127A_0ma in P2(1)/c
REM SHELXT solution in P2(1)/c: R1 0.330, Rweak 0.047, Alpha 0.064
REM <I/s> 0.389 for 386 systematic absences, Orientation as input
REM Formula found by SHELXT: C41 N10 O2 Br
CELL 0.71073 19.8607 13.3832 18.2899 90 117.363 90
ZERR 4 0.0075 0.0051 0.0068 0 0.011 0
LATT 1
SYMM -X,0.5+Y,0.5-Z
SFAC C H N Ni O
UNIT 176 160 16 4 8

L.S. 10 0 56
PLAN  5
SIZE 0.28 0.24 0.12
TEMP 23
HTAB
BOND $H
list 4
ABIN
fmap 2 53
acta
OMIT -3 50.02
OMIT 1 0 0
OMIT 1 6 2
OMIT 1 1 0
OMIT -7 2 6
OMIT 2 5 5
OMIT 1 0 8
OMIT 1 3 1
OMIT -3 3 8
OMIT -2 3 6
OMIT 1 1 4
REM <olex2.extras>
REM <HklSrc "%.\\z20181127a_0ma_sq.hkl">
REM </olex2.extras>

WGHT    0.061100    2.886300
FVAR       0.21782
NI1   4    0.233772    0.532768    0.469200    11.00000    0.05720    0.11153 =
         0.06453    0.02604    0.02958    0.00176
O1    5    0.500980    0.587355    0.814251    11.00000    0.14615    0.04831 =
         0.11106   -0.01157    0.04868    0.00519
O2    5    0.493838    0.282915    0.684681    11.00000    0.10428    0.05022 =
         0.06498   -0.00893    0.02407    0.00137
AFIX 147
H2    2    0.504365    0.224157    0.697575    11.00000   -1.50000
AFIX   0
N1    3    0.188943    0.484153    0.527747    11.00000    0.05904    0.11954 =
         0.07104    0.02483    0.03247   -0.00099
N2    3    0.329075    0.521106    0.551520    11.00000    0.05276    0.09898 =
         0.05806    0.02099    0.02704    0.00222
N3    3    0.278658    0.576534    0.408964    11.00000    0.05635    0.09799 =
         0.06102    0.01989    0.02748   -0.00080
N4    3    0.139174    0.540491    0.385880    11.00000    0.05176    0.11703 =
         0.06770    0.02162    0.03055   -0.00124
C1    1    0.221500    0.442708    0.606137    11.00000    0.06615    0.08711 =
         0.06516    0.01527    0.03666   -0.00075
C2    1    0.159144    0.404355    0.616762    11.00000    0.08475    0.10344 =
         0.08385    0.02099    0.05450    0.00149
AFIX  43
H2A   2    0.162474    0.372909    0.663653    11.00000   -1.20000
AFIX   0
C3    1    0.092052    0.422591    0.543883    11.00000    0.06527    0.13343 =
         0.08281    0.02149    0.04107   -0.00243
AFIX  43
H3    2    0.043181    0.405367    0.533821    11.00000   -1.20000
AFIX   0
C4    1    0.112684    0.472028    0.488665    11.00000    0.06203    0.10510 =
         0.07473    0.01582    0.03485    0.00030
C5    1    0.081944    0.507920    0.400235    11.00000    0.05673    0.10578 =
         0.07761    0.01470    0.03014    0.00154
C6    1    0.013620    0.517922    0.325072    11.00000    0.05812    0.13639 =
         0.08802    0.01782    0.02952   -0.00687
AFIX  43
H6    2   -0.035062    0.503222    0.317073    11.00000   -1.20000
AFIX   0
C7    1    0.033043    0.553533    0.266174    11.00000    0.06009    0.13263 =
         0.07008    0.01718    0.02082    0.00266
AFIX  43
H7    2   -0.000533    0.565601    0.211219    11.00000   -1.20000
AFIX   0
C8    1    0.114193    0.568853    0.304276    11.00000    0.06028    0.09680 =
         0.06589    0.01722    0.02624    0.00393
C9    1    0.166309    0.600946    0.275313    11.00000    0.06394    0.07873 =
         0.06480    0.01038    0.02894    0.00322
C10   1    0.247196    0.606411    0.327806    11.00000    0.06239    0.07993 =
         0.06013    0.01165    0.02987    0.00160
C11   1    0.310178    0.635536    0.314792    11.00000    0.07805    0.08631 =
         0.06173    0.01762    0.03890    0.00510
AFIX  43
H11   2    0.307166    0.660305    0.265870    11.00000   -1.20000
AFIX   0
C12   1    0.377660    0.620457    0.388501    11.00000    0.06430    0.08052 =
         0.07056    0.01057    0.03608    0.00210
AFIX  43
H12   2    0.426895    0.632922    0.397334    11.00000   -1.20000
AFIX   0
C13   1    0.355112    0.582335    0.446536    11.00000    0.05951    0.07094 =
         0.05826    0.01293    0.02835    0.00103
C14   1    0.386156    0.544862    0.534453    11.00000    0.05764    0.06422 =
         0.06119    0.00579    0.03126   -0.00188
C15   1    0.455905    0.519944    0.604370    11.00000    0.05808    0.05668 =
         0.06486    0.00812    0.03042   -0.00047
AFIX  43
H15   2    0.504296    0.530488    0.609865    11.00000   -1.20000
AFIX   0
C16   1    0.438211    0.476596    0.663391    11.00000    0.06715    0.04603 =
         0.05808    0.00304    0.02783    0.00055
C17   1    0.355684    0.476738    0.629145    11.00000    0.06176    0.07057 =
         0.05979    0.01450    0.03160    0.00148
C18   1    0.303029    0.438335    0.655632    11.00000    0.07091    0.06589 =
         0.06280    0.00848    0.03435    0.00380
C19   1    0.331510    0.384685    0.737037    11.00000    0.06554    0.07425 =
         0.06059    0.01267    0.03654    0.00553
C20   1    0.339002    0.279340    0.739567    11.00000    0.08345    0.06710 =
         0.08327    0.01465    0.04733    0.00607
C21   1    0.365829    0.231541    0.815802    11.00000    0.11261    0.09488 =
         0.11880    0.04505    0.06261    0.02941
AFIX  43
H21   2    0.371453    0.162453    0.817962    11.00000   -1.20000
AFIX   0
C22   1    0.384413    0.283241    0.888459    11.00000    0.12626    0.15431 =
         0.08868    0.05972    0.05830    0.04299
C23   1    0.374932    0.386623    0.883861    11.00000    0.10921    0.16881 =
         0.05885    0.00739    0.04520    0.02205
AFIX  43
H23   2    0.386817    0.421674    0.932176    11.00000   -1.20000
AFIX   0
C24   1    0.348234    0.440677    0.809649    11.00000    0.08711    0.09579 =
         0.06819   -0.00055    0.04768    0.00819
C25   1    0.319077    0.218860    0.662096    11.00000    0.11914    0.08160 =
         0.12293   -0.01665    0.06096   -0.00527
AFIX 137
H25A  2    0.265274    0.208282    0.633576    11.00000   -1.50000
H25B  2    0.344536    0.155512    0.676692    11.00000   -1.50000
H25C  2    0.334821    0.254534    0.627023    11.00000   -1.50000
AFIX   0
C26   1    0.413279    0.226999    0.971457    11.00000    0.23683    0.28308 =
         0.12577    0.12770    0.09545    0.09477
AFIX 137
H26A  2    0.375308    0.180534    0.968572    11.00000   -1.50000
H26B  2    0.423493    0.274152    1.014863    11.00000   -1.50000
H26C  2    0.458924    0.191455    0.982373    11.00000   -1.50000
AFIX   0
C27   1    0.335795    0.552296    0.807364    11.00000    0.14452    0.10352 =
         0.12033   -0.02681    0.07421    0.00837
AFIX 137
H27A  2    0.379323    0.586192    0.809655    11.00000   -1.50000
H27B  2    0.328386    0.571773    0.853674    11.00000   -1.50000
H27C  2    0.291777    0.569813    0.757312    11.00000   -1.50000
AFIX   0
C28   1    0.495356    0.435424    0.745437    11.00000    0.06238    0.04757 =
         0.05609   -0.00062    0.02566   -0.00385
C29   1    0.520829    0.339558    0.753009    11.00000    0.06523    0.04571 =
         0.05411   -0.00273    0.02253   -0.00542
C30   1    0.577645    0.292651    0.833057    11.00000    0.07751    0.05356 =
         0.07141    0.00629    0.02186   -0.00172
AFIX  23
H30A  2    0.611820    0.250687    0.822120    11.00000   -1.20000
H30B  2    0.550723    0.250013    0.853755    11.00000   -1.20000
AFIX   0
C31   1    0.625118    0.369544    0.900616    11.00000    0.07979    0.06772 =
         0.05231    0.00678    0.02341    0.00366
C32   1    0.573323    0.453485    0.902013    11.00000    0.11185    0.08805 =
         0.06881   -0.01536    0.03473   -0.00864
AFIX  23
H32A  2    0.541660    0.427355    0.925129    11.00000   -1.20000
H32B  2    0.604643    0.505869    0.938408    11.00000   -1.20000
AFIX   0
C33   1    0.522275    0.499494    0.818368    11.00000    0.09448    0.04824 =
         0.06988   -0.00465    0.02800   -0.00140
C34   1    0.668397    0.320038    0.986178    11.00000    0.14126    0.12295 =
         0.07264    0.01766    0.01173    0.00118
AFIX 137
H34A  2    0.632773    0.290833    1.001835    11.00000   -1.50000
H34B  2    0.697992    0.369577    1.025977    11.00000   -1.50000
H34C  2    0.701299    0.268964    0.983850    11.00000   -1.50000
AFIX   0
C35   1    0.686546    0.416600    0.880742    11.00000    0.10362    0.10678 =
         0.08397   -0.00869    0.03231   -0.02021
AFIX 137
H35A  2    0.720991    0.365543    0.881943    11.00000   -1.50000
H35B  2    0.713979    0.466800    0.921001    11.00000   -1.50000
H35C  2    0.662538    0.446469    0.827032    11.00000   -1.50000
AFIX   0
C36   1    0.137718    0.627684    0.185490    11.00000    0.06327    0.08588 =
         0.06722    0.01349    0.02858    0.00020
C37   1    0.128506    0.729818    0.161828    11.00000    0.07366    0.08938 =
         0.08637    0.02149    0.02877   -0.00217
C38   1    0.106889    0.752771    0.079052    11.00000    0.08892    0.11517 =
         0.10021    0.04728    0.02568    0.00163
AFIX  43
H38   2    0.101805    0.819509    0.063223    11.00000   -1.20000
AFIX   0
C39   1    0.092847    0.679674    0.020062    11.00000    0.09139    0.14539 =
         0.07835    0.04014    0.02654   -0.00223
C40   1    0.100579    0.579903    0.043943    11.00000    0.09408    0.14508 =
         0.06877   -0.00059    0.03552   -0.01035
AFIX  43
H40   2    0.090272    0.530491    0.004456    11.00000   -1.20000
AFIX   0
C41   1    0.123667    0.551433    0.126564    11.00000    0.08083    0.10334 =
         0.06925    0.01501    0.03240    0.00094
C42   1    0.140151    0.812046    0.223443    11.00000    0.13775    0.08548 =
         0.13644    0.01161    0.04673   -0.00002
AFIX 137
H42A  2    0.099961    0.810026    0.238747    11.00000   -1.50000
H42B  2    0.139973    0.875691    0.199144    11.00000   -1.50000
H42C  2    0.187899    0.802530    0.271484    11.00000   -1.50000
AFIX   0
C43   1    0.071670    0.707006   -0.070517    11.00000    0.16106    0.24247 =
         0.08399    0.05723    0.04149   -0.00760
AFIX 137
H43A  2    0.018464    0.721616   -0.099880    11.00000   -1.50000
H43B  2    0.083284    0.651756   -0.096264    11.00000   -1.50000
H43C  2    0.100177    0.764534   -0.071363    11.00000   -1.50000
AFIX   0
C44   1    0.134598    0.440515    0.150480    11.00000    0.16176    0.09632 =
         0.10947    0.00323    0.06626    0.00498
AFIX 137
H44A  2    0.184738    0.430286    0.194501    11.00000   -1.50000
H44B  2    0.127971    0.401167    0.103754    11.00000   -1.50000
H44C  2    0.097925    0.420700    0.168147    11.00000   -1.50000
AFIX   0
HKLF 4




REM  z20181127a_0ma_a.res in P2(1)/c
REM wR2 = 0.1625, GooF = S = 1.046, Restrained GooF = 1.046 for all data
REM R1 = 0.0543 for 4559 Fo > 4sig(Fo) and 0.1009 for all 7501 data
REM 469 parameters refined using 0 restraints

END

WGHT      0.0610      2.8861

REM Instructions for potential hydrogen bonds
EQIV $1 -x+1, y-1/2, -z+3/2
HTAB O2 O1_$1

REM Highest difference peak  0.446,  deepest hole -0.248,  1-sigma level  0.041
Q1    1   0.2371  0.4590  0.4640  11.00000  0.05    0.45
Q2    1   0.6240  0.4560  0.8756  11.00000  0.05    0.39
Q3    1   0.5608  0.3440  0.9372  11.00000  0.05    0.37
Q4    1   0.2548  0.5735  0.4391  11.00000  0.05    0.24
Q5    1   0.6993  0.3221  0.9398  11.00000  0.05    0.23
;
_shelx_res_checksum              55613
_shelx_fab_file
;
    0    0    2     19.69      0.00
    0    0    4    -45.54      0.00
    0    0    6    -19.60      0.00
    0    0    8    -19.78      0.00
    0    0   10     -0.61      0.00
    0    0   12     -4.09      0.00
    0    0   14      2.75      0.00
    0    0   16      2.03      0.00
    0    0   18     -0.32      0.00
    0    1    1    -52.11      0.00
    0    1    2    125.65      0.00
    0    1    3      7.08      0.00
    0    1    4     18.14      0.00
    0    1    5     20.03      0.00
    0    1    6     22.14      0.00
    0    1    7      1.67      0.00
    0    1    8     -9.83      0.00
    0    1    9      1.15      0.00
    0    1   10     -4.99      0.00
    0    1   11      4.40      0.00
    0    1   12     -2.15      0.00
    0    1   13     -0.23      0.00
    0    1   14     -3.14      0.00
    0    1   15     -1.23      0.00
    0    1   16      1.08      0.00
    0    1   17      0.18      0.00
    0    1   18      0.64      0.00
    0    1   19     -0.17      0.00
    0    2    2      2.32      0.00
    0    2    3    -46.67      0.00
    0    2    4      1.11      0.00
    0    2    5    -16.14      0.00
    0    2    6      9.11      0.00
    0    2    7      2.99      0.00
    0    2    8     23.49      0.00
    0    2    9     -1.56      0.00
    0    2   10     -4.89      0.00
    0    2   11      1.75      0.00
    0    2   12      1.12      0.00
    0    2   13      3.59      0.00
    0    2   14     -0.81      0.00
    0    2   15      0.16      0.00
    0    2   16     -1.10      0.00
    0    2   17      0.08      0.00
    0    2   18     -0.44      0.00
    0    2   19      0.17      0.00
    0    3    2    -25.44      0.00
    0    3    3     21.85      0.00
    0    3    4     12.13      0.00
    0    3    5     -8.95      0.00
    0    3    6    -24.60      0.00
    0    3    7    -15.94      0.00
    0    3    8      8.61      0.00
    0    3    9     -3.57      0.00
    0    3   10      4.92      0.00
    0    3   11     -2.85      0.00
    0    3   12     -1.95      0.00
    0    3   13      0.46      0.00
    0    3   14      0.95      0.00
    0    3   15      0.84      0.00
    0    3   16     -0.20      0.00
    0    3   17      0.43      0.00
    0    3   18      0.80      0.00
    0    4    3      7.29      0.00
    0    4    4     -3.49      0.00
    0    4    5     26.99      0.00
    0    4    6      4.08      0.00
    0    4    7      3.82      0.00
    0    4    8     -8.13      0.00
    0    4    9     -2.31      0.00
    0    4   10      5.19      0.00
    0    4   11     -0.56      0.00
    0    4   12     -0.90      0.00
    0    4   13     -1.46      0.00
    0    4   14      0.59      0.00
    0    4   15     -0.07      0.00
    0    4   16     -0.75      0.00
    0    4   17     -0.49      0.00
    0    4   18      0.41      0.00
    0    5    3    -13.61      0.00
    0    5    4    -16.32      0.00
    0    5    5      2.75      0.00
    0    5    6      0.08      0.00
    0    5    7      5.99      0.00
    0    5    8     -6.24      0.00
    0    5    9     -1.35      0.00
    0    5   10     -0.01      0.00
    0    5   11      2.82      0.00
    0    5   12      1.03      0.00
    0    5   13     -1.56      0.00
    0    5   14     -0.14      0.00
    0    5   15      0.04      0.00
    0    5   16      0.26      0.00
    0    5   17      0.16      0.00
    0    5   18     -1.48      0.00
    0    6    2     12.47      0.00
    0    6    3     -9.96      0.00
    0    6    4      5.60      0.00
    0    6    5     -4.59      0.00
    0    6    6      1.48      0.00
    0    6    7      7.24      0.00
    0    6    8      4.04      0.00
    0    6    9     -1.87      0.00
    0    6   10     -4.12      0.00
    0    6   11     -0.24      0.00
    0    6   12      1.04      0.00
    0    6   13      1.01      0.00
    0    6   14      0.06      0.00
    0    6   15     -0.72      0.00
    0    6   16      1.21      0.00
    0    6   17      0.38      0.00
    0    7    2      0.05      0.00
    0    7    3      1.68      0.00
    0    7    4      5.34      0.00
    0    7    5    -11.57      0.00
    0    7    6     -8.40      0.00
    0    7    7     -2.57      0.00
    0    7    8      5.13      0.00
    0    7    9      3.24      0.00
    0    7   10      1.47      0.00
    0    7   11     -1.28      0.00
    0    7   12     -1.41      0.00
    0    7   13      1.48      0.00
    0    7   14     -0.12      0.00
    0    7   15      0.00      0.00
    0    7   16      0.09      0.00
    0    7   17     -0.70      0.00
    0    8    2     -5.77      0.00
    0    8    3      6.28      0.00
    0    8    4      8.12      0.00
    0    8    5      7.09      0.00
    0    8    6     -0.12      0.00
    0    8    7     -4.69      0.00
    0    8    8     -4.52      0.00
    0    8    9     -2.91      0.00
    0    8   10      2.42      0.00
    0    8   11     -0.84      0.00
    0    8   12     -1.26      0.00
    0    8   13      0.17      0.00
    0    8   14     -1.14      0.00
    0    8   15      1.24      0.00
    0    8   16     -1.45      0.00
    0    9    2     -2.41      0.00
    0    9    3     -5.87      0.00
    0    9    4     -5.21      0.00
    0    9    5      3.73      0.00
    0    9    6      3.58      0.00
    0    9    7      5.89      0.00
    0    9    8     -0.66      0.00
    0    9    9      0.22      0.00
    0    9   10      1.30      0.00
    0    9   11     -0.24      0.00
    0    9   12      0.87      0.00
    0    9   13     -0.63      0.00
    0    9   14     -0.46      0.00
    0    9   15      1.31      0.00
    0   10    2      3.85      0.00
    0   10    3     -1.36      0.00
    0   10    4     -0.66      0.00
    0   10    5     -4.30      0.00
    0   10    6     -2.64      0.00
    0   10    7      1.29      0.00
    0   10    8     -2.02      0.00
    0   10    9      0.59      0.00
    0   10   10     -1.62      0.00
    0   10   11      1.09      0.00
    0   10   12      1.44      0.00
    0   10   13     -0.51      0.00
    0   10   14     -0.31      0.00
    0   10   15     -1.11      0.00
    0   11    2     -0.01      0.00
    0   11    3      0.88      0.00
    0   11    4      3.00      0.00
    0   11    5     -1.92      0.00
    0   11    6      0.81      0.00
    0   11    7     -0.31      0.00
    0   11    8      1.74      0.00
    0   11    9      0.44      0.00
    0   11   10     -1.29      0.00
    0   11   11     -0.56      0.00
    0   11   12     -0.26      0.00
    0   11   13      0.43      0.00
    0   12    3      0.99      0.00
    0   12    4      0.66      0.00
    0   12    5      0.41      0.00
    0   12    6     -0.75      0.00
    0   12    7     -1.43      0.00
    0   12    8      0.71      0.00
    0   12    9     -0.43      0.00
    0   12   10      1.31      0.00
    0   12   11      0.06      0.00
    0   12   12      0.10      0.00
    0   13    3      0.42      0.00
    0   13    4     -0.08      0.00
    0   13    5      1.14      0.00
    0   13    6      0.68      0.00
    0   13    7      1.16      0.00
    0   13    8     -0.61      0.00
    0   13    9     -0.29      0.00
    0   13   10     -0.48      0.00
    0   13   11     -0.87      0.00
    0   14    3      0.10      0.00
    0   14    4     -1.30      0.00
    0   14    5     -0.45      0.00
    0   14    6     -0.17      0.00
    0   14    7     -0.45      0.00
    0   14    8     -0.36      0.00
    0   14    9      1.85      0.00
    0   15    4     -0.15      0.00
    0   15    5      0.52      0.00
    0   15    6      0.30      0.00
   -1    0   18     -0.27      0.00
   -1    0   16      0.58      0.00
   -1    0   14      5.18      0.00
   -1    0   12      0.40      0.00
   -1    0   10      2.68      0.00
   -1    0    8    -11.09      0.00
   -1    0    6    -23.84      0.00
   -1    0    4    -42.91      0.00
   -1    0    2   -125.44      0.00
    1    0    0    117.03      0.00
    1    0    2    122.16      0.00
    1    0    4     -0.47      0.00
    1    0    6     -2.38      0.00
    1    0    8    -14.22      0.00
    1    0   10     -0.03      0.00
    1    0   12     -3.30      0.00
    1    0   14      0.10      0.00
    1    0   16      2.54      0.00
    1    0   18      0.24      0.00
   -1    1   19     -0.56      0.00
   -1    1   18      0.37      0.00
   -1    1   17     -0.04      0.00
   -1    1   16      2.21      0.00
   -1    1   15     -0.88      0.00
   -1    1   14     -0.79      0.00
   -1    1   13     -2.83      0.00
   -1    1   12     -4.56      0.00
   -1    1   11      1.96      0.00
   -1    1   10     -4.45      0.00
   -1    1    9      4.07      0.00
   -1    1    8    -26.39      0.00
   -1    1    7     -2.42      0.00
   -1    1    6      6.68      0.00
   -1    1    5     13.04      0.00
   -1    1    4    -17.21      0.00
   -1    1    3     39.74      0.00
   -1    1    2     81.86      0.00
   -1    1    1      6.78      0.00
    1    1    0   -135.60      0.00
    1    1    1    -51.59      0.00
    1    1    2     53.94      0.00
    1    1    3    -29.49      0.00
    1    1    4     29.05      0.00
    1    1    5      7.19      0.00
    1    1    6     23.45      0.00
    1    1    7      5.04      0.00
    1    1    8      6.24      0.00
    1    1    9     -3.12      0.00
    1    1   10     -3.65      0.00
    1    1   11      1.66      0.00
    1    1   12      0.39      0.00
    1    1   13      1.54      0.00
    1    1   14     -2.84      0.00
    1    1   15     -0.70      0.00
    1    1   16      0.06      0.00
    1    1   17     -0.16      0.00
    1    1   18      0.46      0.00
   -1    2   19     -0.92      0.00
   -1    2   18     -0.28      0.00
   -1    2   17     -0.29      0.00
   -1    2   16     -0.80      0.00
   -1    2   15     -1.80      0.00
   -1    2   14     -2.97      0.00
   -1    2   13      2.26      0.00
   -1    2   12      1.52      0.00
   -1    2   11      6.25      0.00
   -1    2   10     -8.35      0.00
   -1    2    9      2.68      0.00
   -1    2    8     11.43      0.00
   -1    2    7      9.40      0.00
   -1    2    6     32.47      0.00
   -1    2    5      7.70      0.00
   -1    2    4      2.73      0.00
   -1    2    3    -27.09      0.00
   -1    2    2     45.69      0.00
    1    2    1     30.17      0.00
    1    2    2    -36.77      0.00
    1    2    3    -22.21      0.00
    1    2    4      0.22      0.00
    1    2    5    -25.66      0.00
    1    2    6    -13.03      0.00
    1    2    7     -3.76      0.00
    1    2    8     19.09      0.00
    1    2    9     -1.09      0.00
    1    2   10      1.08      0.00
    1    2   11     -1.79      0.00
    1    2   12     -0.43      0.00
    1    2   13      2.09      0.00
    1    2   14      0.00      0.00
    1    2   15      0.98      0.00
    1    2   16     -0.65      0.00
    1    2   17      0.03      0.00
    1    2   18      0.22      0.00
   -1    3   19      0.78      0.00
   -1    3   18      0.37      0.00
   -1    3   17      0.89      0.00
   -1    3   16     -0.42      0.00
   -1    3   15      1.74      0.00
   -1    3   14      1.30      0.00
   -1    3   13      3.19      0.00
   -1    3   12      0.40      0.00
   -1    3   11     -2.04      0.00
   -1    3   10     -0.75      0.00
   -1    3    9     -1.86      0.00
   -1    3    8     21.94      0.00
   -1    3    7    -15.24      0.00
   -1    3    6    -19.60      0.00
   -1    3    5    -32.12      0.00
   -1    3    4     -3.37      0.00
   -1    3    3     -7.83      0.00
   -1    3    2     -9.27      0.00
    1    3    1     24.08      0.00
    1    3    2    -33.99      0.00
    1    3    3     27.03      0.00
    1    3    4     13.54      0.00
    1    3    5     12.67      0.00
    1    3    6    -11.26      0.00
    1    3    7     -7.76      0.00
    1    3    8     -3.91      0.00
    1    3    9     -3.48      0.00
    1    3   10      7.36      0.00
    1    3   11     -1.31      0.00
    1    3   12     -1.57      0.00
    1    3   13     -0.47      0.00
    1    3   14     -0.03      0.00
    1    3   15      0.12      0.00
    1    3   16     -0.65      0.00
    1    3   17     -0.09      0.00
    1    3   18      0.92      0.00
   -1    4   19      0.28      0.00
   -1    4   18      1.15      0.00
   -1    4   17     -0.05      0.00
   -1    4   16     -1.30      0.00
   -1    4   15      0.43      0.00
   -1    4   14      1.24      0.00
   -1    4   13     -1.91      0.00
   -1    4   12     -1.45      0.00
   -1    4   11     -4.28      0.00
   -1    4   10      5.55      0.00
   -1    4    9     -4.18      0.00
   -1    4    8     -3.06      0.00
   -1    4    7    -10.46      0.00
   -1    4    6     -6.99      0.00
   -1    4    5     21.70      0.00
   -1    4    4     15.82      0.00
   -1    4    3     32.48      0.00
    1    4    2      1.88      0.00
    1    4    3     -9.78      0.00
    1    4    4    -18.25      0.00
    1    4    5     11.18      0.00
    1    4    6      4.87      0.00
    1    4    7      8.09      0.00
    1    4    8     -8.96      0.00
    1    4    9     -2.01      0.00
    1    4   10      2.95      0.00
    1    4   11     -0.51      0.00
    1    4   12      0.50      0.00
    1    4   13     -0.91      0.00
    1    4   14      0.37      0.00
    1    4   15      0.34      0.00
    1    4   16     -0.33      0.00
    1    4   17     -0.04      0.00
    1    4   18     -0.75      0.00
   -1    5   18     -1.06      0.00
   -1    5   17     -0.49      0.00
   -1    5   16     -0.36      0.00
   -1    5   15     -0.08      0.00
   -1    5   14      0.47      0.00
   -1    5   13     -3.11      0.00
   -1    5   12     -0.31      0.00
   -1    5   11      2.90      0.00
   -1    5   10      2.54      0.00
   -1    5    9      2.25      0.00
   -1    5    8     -7.91      0.00
   -1    5    7      7.54      0.00
   -1    5    6      5.06      0.00
   -1    5    5     16.57      0.00
   -1    5    4    -18.63      0.00
    1    5    2     29.19      0.00
    1    5    3     -5.92      0.00
    1    5    4      1.73      0.00
    1    5    5     -1.67      0.00
    1    5    6     -0.16      0.00
    1    5    7      6.31      0.00
    1    5    8     -3.59      0.00
    1    5    9     -0.77      0.00
    1    5   10     -2.40      0.00
    1    5   11      0.84      0.00
    1    5   12      2.14      0.00
    1    5   13     -1.15      0.00
    1    5   14     -0.14      0.00
    1    5   15     -0.57      0.00
    1    5   16      1.01      0.00
    1    5   17      0.06      0.00
   -1    6   18     -0.65      0.00
   -1    6   17      0.60      0.00
   -1    6   16      1.64      0.00
   -1    6   15     -0.17      0.00
   -1    6   14     -0.44      0.00
   -1    6   13      0.81      0.00
   -1    6   12      1.06      0.00
   -1    6   11      4.45      0.00
   -1    6   10     -5.04      0.00
   -1    6    9     -3.26      0.00
   -1    6    8     -2.41      0.00
   -1    6    7      3.33      0.00
   -1    6    6      3.07      0.00
   -1    6    5     -0.64      0.00
   -1    6    4     -4.09      0.00
   -1    6    3    -12.24      0.00
   -1    6    2     19.44      0.00
    1    6    1     -1.56      0.00
    1    6    2     -3.10      0.00
    1    6    3     -8.60      0.00
    1    6    4      7.71      0.00
    1    6    5    -10.45      0.00
    1    6    6     -1.53      0.00
    1    6    7      6.32      0.00
    1    6    8      5.23      0.00
    1    6    9      3.61      0.00
    1    6   10     -2.74      0.00
    1    6   11     -1.02      0.00
    1    6   12      0.14      0.00
    1    6   13      0.85      0.00
    1    6   14      0.35      0.00
    1    6   15     -1.03      0.00
    1    6   16      0.85      0.00
    1    6   17     -0.43      0.00
   -1    7   17     -0.70      0.00
   -1    7   16      0.68      0.00
   -1    7   15     -0.44      0.00
   -1    7   14     -0.67      0.00
   -1    7   13      2.09      0.00
   -1    7   12     -1.16      0.00
   -1    7   11     -1.08      0.00
   -1    7   10     -2.27      0.00
   -1    7    9      0.35      0.00
   -1    7    8     10.98      0.00
   -1    7    7      2.64      0.00
   -1    7    6     -1.16      0.00
   -1    7    5     -9.95      0.00
   -1    7    4      0.40      0.00
   -1    7    3     -4.75      0.00
   -1    7    2      3.67      0.00
    1    7    1      8.63      0.00
    1    7    2     -5.17      0.00
    1    7    3      8.58      0.00
    1    7    4      8.46      0.00
    1    7    5     -6.45      0.00
    1    7    6     -6.01      0.00
    1    7    7     -8.15      0.00
    1    7    8     -2.59      0.00
    1    7    9      1.53      0.00
    1    7   10      1.86      0.00
    1    7   11     -0.22      0.00
    1    7   12     -1.30      0.00
    1    7   13      1.21      0.00
    1    7   14     -0.16      0.00
    1    7   15      0.89      0.00
    1    7   16     -0.10      0.00
   -1    8   17     -1.67      0.00
   -1    8   16     -0.88      0.00
   -1    8   15      0.31      0.00
   -1    8   14     -0.33      0.00
   -1    8   13      0.63      0.00
   -1    8   12     -1.87      0.00
   -1    8   11     -0.82      0.00
   -1    8   10      3.64      0.00
   -1    8    9     -0.91      0.00
   -1    8    8      0.68      0.00
   -1    8    7     -7.52      0.00
   -1    8    6     -8.25      0.00
   -1    8    5     -0.37      0.00
   -1    8    4      5.25      0.00
   -1    8    3      9.59      0.00
   -1    8    2     -0.49      0.00
    1    8    1     -1.45      0.00
    1    8    2     -9.72      0.00
    1    8    3      1.29      0.00
    1    8    4      0.76      0.00
    1    8    5      9.37      0.00
    1    8    6      7.83      0.00
    1    8    7      1.17      0.00
    1    8    8     -2.34      0.00
    1    8    9     -2.46      0.00
    1    8   10      1.21      0.00
    1    8   11     -1.22      0.00
    1    8   12     -0.08      0.00
    1    8   13     -0.63      0.00
    1    8   14     -1.32      0.00
    1    8   15      0.52      0.00
    1    8   16     -1.57      0.00
   -1    9   16     -0.15      0.00
   -1    9   15      1.76      0.00
   -1    9   14     -0.16      0.00
   -1    9   13      0.32      0.00
   -1    9   12     -0.02      0.00
   -1    9   11     -1.01      0.00
   -1    9   10      2.21      0.00
   -1    9    9     -2.07      0.00
   -1    9    8     -2.51      0.00
   -1    9    7      2.10      0.00
   -1    9    6      2.59      0.00
   -1    9    5      9.40      0.00
   -1    9    4      0.36      0.00
   -1    9    3     -1.60      0.00
   -1    9    2     -3.35      0.00
    1    9    1      1.90      0.00
    1    9    2      2.45      0.00
    1    9    3     -2.97      0.00
    1    9    4     -7.52      0.00
    1    9    5     -2.64      0.00
    1    9    6     -0.74      0.00
    1    9    7      3.53      0.00
    1    9    8     -0.03      0.00
    1    9    9      1.18      0.00
    1    9   10      0.52      0.00
    1    9   11      0.22      0.00
    1    9   12      1.79      0.00
    1    9   13     -0.76      0.00
    1    9   14      0.59      0.00
    1    9   15      0.04      0.00
   -1   10   15      0.01      0.00
   -1   10   14     -1.58      0.00
   -1   10   13     -1.46      0.00
   -1   10   12      1.22      0.00
   -1   10   11      0.67      0.00
   -1   10   10     -0.35      0.00
   -1   10    9      1.00      0.00
   -1   10    8     -1.90      0.00
   -1   10    7      3.31      0.00
   -1   10    6     -1.10      0.00
   -1   10    5     -0.95      0.00
   -1   10    4     -3.54      0.00
   -1   10    3     -4.39      0.00
   -1   10    2      2.41      0.00
    1   10    1     -0.43      0.00
    1   10    2      2.19      0.00
    1   10    3      1.17      0.00
    1   10    4      3.51      0.00
    1   10    5     -3.06      0.00
    1   10    6     -0.64      0.00
    1   10    7     -0.56      0.00
    1   10    8     -0.24      0.00
    1   10    9      0.11      0.00
    1   10   10     -2.11      0.00
    1   10   11      0.17      0.00
    1   10   12      0.39      0.00
    1   10   13      0.34      0.00
    1   10   14      0.58      0.00
   -1   11   14      0.76      0.00
   -1   11   13      0.43      0.00
   -1   11   12      1.13      0.00
   -1   11   11      0.46      0.00
   -1   11   10     -2.31      0.00
   -1   11    9     -0.14      0.00
   -1   11    8     -0.44      0.00
   -1   11    7      0.73      0.00
   -1   11    6     -0.34      0.00
   -1   11    5     -2.38      0.00
   -1   11    4      1.89      0.00
   -1   11    3     -0.33      0.00
    1   11    1      0.29      0.00
    1   11    2     -1.82      0.00
    1   11    3      0.36      0.00
    1   11    4      1.83      0.00
    1   11    5     -0.97      0.00
    1   11    6      0.94      0.00
    1   11    7     -1.47      0.00
    1   11    8      2.50      0.00
    1   11    9      0.68      0.00
    1   11   10      0.90      0.00
    1   11   11     -0.29      0.00
    1   11   12     -1.34      0.00
    1   11   13      0.01      0.00
   -1   12   13     -0.78      0.00
   -1   12   12     -0.44      0.00
   -1   12   11     -1.12      0.00
   -1   12   10      0.86      0.00
   -1   12    9      0.30      0.00
   -1   12    8      2.24      0.00
   -1   12    7     -0.44      0.00
   -1   12    6      0.30      0.00
   -1   12    5     -0.69      0.00
   -1   12    4      1.41      0.00
   -1   12    3      0.47      0.00
    1   12    2     -1.20      0.00
    1   12    3      0.75      0.00
    1   12    4     -0.43      0.00
    1   12    5      1.37      0.00
    1   12    6     -0.31      0.00
    1   12    7     -0.73      0.00
    1   12    8     -1.40      0.00
    1   12    9     -1.00      0.00
    1   12   10      0.98      0.00
    1   12   11      0.28      0.00
    1   12   12      0.76      0.00
   -1   13   11     -0.63      0.00
   -1   13   10      0.55      0.00
   -1   13    9     -0.93      0.00
   -1   13    8     -0.54      0.00
   -1   13    7     -0.78      0.00
   -1   13    6     -0.47      0.00
   -1   13    5      0.04      0.00
   -1   13    4      0.14      0.00
   -1   13    3      0.01      0.00
    1   13    2     -0.73      0.00
    1   13    3     -0.28      0.00
    1   13    4     -1.77      0.00
    1   13    5      0.42      0.00
    1   13    6      0.34      0.00
    1   13    7      1.16      0.00
    1   13    8     -0.87      0.00
    1   13    9      1.30      0.00
    1   13   10     -0.68      0.00
   -1   14    9      1.25      0.00
   -1   14    8      0.86      0.00
   -1   14    7      0.58      0.00
   -1   14    6      0.98      0.00
   -1   14    5     -0.38      0.00
   -1   14    4     -0.37      0.00
    1   14    2      0.40      0.00
    1   14    3      0.53      0.00
    1   14    4     -0.38      0.00
    1   14    5      0.23      0.00
    1   14    6     -0.23      0.00
    1   14    7     -0.99      0.00
    1   14    8     -1.78      0.00
   -1   15    6     -0.07      0.00
   -1   15    5     -0.06      0.00
   -1   15    4      0.17      0.00
    1   15    3      0.20      0.00
    1   15    4     -0.05      0.00
    1   15    5      0.23      0.00
    1   15    6      0.87      0.00
   -2    0   20     -0.89      0.00
   -2    0   18     -0.19      0.00
   -2    0   16     -0.94      0.00
   -2    0   14      4.67      0.00
   -2    0   12      5.51      0.00
   -2    0   10      6.38      0.00
   -2    0    8      8.75      0.00
   -2    0    6    -19.90      0.00
   -2    0    4     14.60      0.00
   -2    0    2   -136.67      0.00
    2    0    0    -66.49      0.00
    2    0    2     92.31      0.00
    2    0    4     30.78      0.00
    2    0    6     13.07      0.00
    2    0    8     -7.07      0.00
    2    0   10     -0.14      0.00
    2    0   12     -0.39      0.00
    2    0   14     -1.63      0.00
    2    0   16      1.51      0.00
    2    0   18      0.41      0.00
   -2    1   20     -0.25      0.00
   -2    1   19      0.14      0.00
   -2    1   18      0.41      0.00
   -2    1   17      0.07      0.00
   -2    1   16      2.07      0.00
   -2    1   15      0.31      0.00
   -2    1   14      3.28      0.00
   -2    1   13     -2.94      0.00
   -2    1   12     -3.78      0.00
   -2    1   11     -3.06      0.00
   -2    1   10      0.99      0.00
   -2    1    9      3.72      0.00
   -2    1    8    -29.63      0.00
   -2    1    7     -2.03      0.00
   -2    1    6    -11.36      0.00
   -2    1    5     -7.22      0.00
   -2    1    4    -29.26      0.00
   -2    1    3     23.86      0.00
   -2    1    2    -34.98      0.00
   -2    1    1     48.31      0.00
    2    1    0   -130.78      0.00
    2    1    1     -1.90      0.00
    2    1    2    -32.30      0.00
    2    1    3    -32.08      0.00
    2    1    4     10.29      0.00
    2    1    5    -10.02      0.00
    2    1    6     10.49      0.00
    2    1    7      5.49      0.00
    2    1    8     11.51      0.00
    2    1    9     -2.21      0.00
    2    1   10     -2.89      0.00
    2    1   11     -1.11      0.00
    2    1   12      1.32      0.00
    2    1   13      1.19      0.00
    2    1   14     -1.18      0.00
    2    1   15      0.02      0.00
    2    1   16     -0.66      0.00
    2    1   17     -0.48      0.00
    2    1   18     -0.13      0.00
   -2    2   19     -1.03      0.00
   -2    2   18      0.18      0.00
   -2    2   17     -0.28      0.00
   -2    2   16      0.60      0.00
   -2    2   15     -2.30      0.00
   -2    2   14     -4.43      0.00
   -2    2   13     -1.60      0.00
   -2    2   12     -1.46      0.00
   -2    2   11      6.06      0.00
   -2    2   10     -7.77      0.00
   -2    2    9      6.25      0.00
   -2    2    8    -13.83      0.00
   -2    2    7      8.53      0.00
   -2    2    6     36.76      0.00
   -2    2    5     20.66      0.00
   -2    2    4      1.88      0.00
   -2    2    3     15.65      0.00
   -2    2    2     52.75      0.00
   -2    2    1    -27.04      0.00
    2    2    0      3.79      0.00
    2    2    1     50.29      0.00
    2    2    2    -42.87      0.00
    2    2    3     14.89      0.00
    2    2    4      5.10      0.00
    2    2    5    -13.49      0.00
    2    2    6    -18.00      0.00
    2    2    7     -6.04      0.00
    2    2    8      6.37      0.00
    2    2    9      1.12      0.00
    2    2   10      4.80      0.00
    2    2   11     -1.90      0.00
    2    2   12     -0.82      0.00
    2    2   13     -0.22      0.00
    2    2   14      0.02      0.00
    2    2   15      0.19      0.00
    2    2   16     -0.47      0.00
    2    2   17      0.03      0.00
    2    2   18      0.46      0.00
   -2    3   19     -0.09      0.00
   -2    3   18     -0.01      0.00
   -2    3   17     -0.07      0.00
   -2    3   16     -1.30      0.00
   -2    3   15      1.01      0.00
   -2    3   14     -1.05      0.00
   -2    3   13      5.29      0.00
   -2    3   12      3.14      0.00
   -2    3   11      3.50      0.00
   -2    3   10     -5.17      0.00
   -2    3    9      2.88      0.00
   -2    3    8     24.47      0.00
   -2    3    7     -0.21      0.00
   -2    3    6      5.35      0.00
   -2    3    5    -29.53      0.00
   -2    3    4    -17.28      0.00
   -2    3    3    -30.58      0.00
   -2    3    2     -0.15      0.00
   -2    3    1     -7.58      0.00
    2    3    0     40.21      0.00
    2    3    1      5.80      0.00
    2    3    2    -24.72      0.00
    2    3    3     10.63      0.00
    2    3    4     -1.30      0.00
    2    3    5     15.71      0.00
    2    3    6      2.12      0.00
    2    3    7      0.45      0.00
    2    3    8     -9.77      0.00
    2    3    9     -2.87      0.00
    2    3   10      5.15      0.00
    2    3   11     -1.00      0.00
    2    3   12      0.89      0.00
    2    3   13      0.13      0.00
    2    3   14      0.34      0.00
    2    3   15      0.43      0.00
    2    3   16     -0.25      0.00
    2    3   17      0.38      0.00
    2    3   18      0.40      0.00
   -2    4   19      0.89      0.00
   -2    4   18      0.85      0.00
   -2    4   17      1.12      0.00
   -2    4   16     -1.26      0.00
   -2    4   15      1.63      0.00
   -2    4   14      1.76      0.00
   -2    4   13      0.00      0.00
   -2    4   12      0.10      0.00
   -2    4   11     -7.68      0.00
   -2    4   10      2.92      0.00
   -2    4    9     -5.65      0.00
   -2    4    8      5.75      0.00
   -2    4    7    -21.82      0.00
   -2    4    6    -20.28      0.00
   -2    4    5     -7.50      0.00
   -2    4    4     15.43      0.00
   -2    4    3     35.57      0.00
    2    4    1      4.98      0.00
    2    4    2     28.27      0.00
    2    4    3     -4.62      0.00
    2    4    4    -14.52      0.00
    2    4    5     -0.72      0.00
    2    4    6      0.37      0.00
    2    4    7      6.64      0.00
    2    4    8     -7.32      0.00
    2    4    9      0.02      0.00
    2    4   10     -0.42      0.00
    2    4   11     -1.64      0.00
    2    4   12      1.47      0.00
    2    4   13     -1.46      0.00
    2    4   14      0.18      0.00
    2    4   15      0.40      0.00
    2    4   16     -0.14      0.00
    2    4   17     -0.11      0.00
   -2    5   19      0.04      0.00
   -2    5   18     -0.77      0.00
   -2    5   17     -1.07      0.00
   -2    5   16     -0.75      0.00
   -2    5   15     -0.77      0.00
   -2    5   14      1.50      0.00
   -2    5   13     -4.79      0.00
   -2    5   12     -0.43      0.00
   -2    5   11     -2.26      0.00
   -2    5   10      4.65      0.00
   -2    5    9      2.87      0.00
   -2    5    8     -6.58      0.00
   -2    5    7      3.59      0.00
   -2    5    6      6.25      0.00
   -2    5    5     25.87      0.00
   -2    5    4     -1.87      0.00
   -2    5    3     10.75      0.00
    2    5    1    -13.38      0.00
    2    5    2      9.98      0.00
    2    5    3     -3.29      0.00
    2    5    4     12.99      0.00
    2    5    5     -0.91      0.00
    2    5    6      2.87      0.00
    2    5    7      7.67      0.00
    2    5    8     -0.45      0.00
    2    5    9      3.50      0.00
    2    5   10     -4.40      0.00
    2    5   11      0.52      0.00
    2    5   12      1.15      0.00
    2    5   13     -1.02      0.00
    2    5   14     -0.21      0.00
    2    5   15     -1.22      0.00
    2    5   16      0.63      0.00
    2    5   17     -0.04      0.00
   -2    6   18     -1.03      0.00
   -2    6   17     -0.47      0.00
   -2    6   16      1.65      0.00
   -2    6   15     -0.36      0.00
   -2    6   14     -0.03      0.00
   -2    6   13     -1.30      0.00
   -2    6   12      1.15      0.00
   -2    6   11      7.16      0.00
   -2    6   10     -2.52      0.00
   -2    6    9      2.17      0.00
   -2    6    8     -9.11      0.00
   -2    6    7      3.17      0.00
   -2    6    6      2.97      0.00
   -2    6    5      4.26      0.00
   -2    6    4    -12.37      0.00
   -2    6    3    -11.08      0.00
   -2    6    2     12.77      0.00
   -2    6    1    -13.59      0.00
    2    6    0      4.18      0.00
    2    6    1      5.68      0.00
    2    6    2    -12.55      0.00
    2    6    3     -3.73      0.00
    2    6    4      3.65      0.00
    2    6    5    -14.37      0.00
    2    6    6     -3.34      0.00
    2    6    7     -2.78      0.00
    2    6    8      2.74      0.00
    2    6    9      5.14      0.00
    2    6   10     -1.09      0.00
    2    6   11      1.08      0.00
    2    6   12     -1.28      0.00
    2    6   13      2.13      0.00
    2    6   14      0.48      0.00
    2    6   15      0.05      0.00
    2    6   16      0.52      0.00
   -2    7   18      0.93      0.00
   -2    7   17      0.87      0.00
   -2    7   16      1.78      0.00
   -2    7   15      0.03      0.00
   -2    7   14     -0.68      0.00
   -2    7   13      2.70      0.00
   -2    7   12     -0.18      0.00
   -2    7   11      2.05      0.00
   -2    7   10     -7.70      0.00
   -2    7    9     -2.09      0.00
   -2    7    8      5.31      0.00
   -2    7    7      3.15      0.00
   -2    7    6      6.56      0.00
   -2    7    5     -5.80      0.00
   -2    7    4     -1.23      0.00
   -2    7    3     -9.44      0.00
   -2    7    2      6.40      0.00
   -2    7    1     -0.64      0.00
    2    7    0      3.56      0.00
    2    7    1      5.60      0.00
    2    7    2     -8.36      0.00
    2    7    3     11.10      0.00
    2    7    4      5.59      0.00
    2    7    5      3.71      0.00
    2    7    6      3.48      0.00
    2    7    7     -7.81      0.00
    2    7    8     -3.45      0.00
    2    7    9     -2.42      0.00
    2    7   10      1.16      0.00
    2    7   11     -0.44      0.00
    2    7   12     -1.07      0.00
    2    7   13      0.32      0.00
    2    7   14     -1.53      0.00
    2    7   15      0.75      0.00
    2    7   16     -0.83      0.00
   -2    8   17     -1.36      0.00
   -2    8   16     -0.43      0.00
   -2    8   15     -0.74      0.00
   -2    8   14     -0.53      0.00
   -2    8   13      1.24      0.00
   -2    8   12     -2.65      0.00
   -2    8   11     -0.91      0.00
   -2    8   10      1.30      0.00
   -2    8    9      1.41      0.00
   -2    8    8      8.82      0.00
   -2    8    7     -5.39      0.00
   -2    8    6     -5.61      0.00
   -2    8    5     -7.86      0.00
   -2    8    4     -0.67      0.00
   -2    8    3      6.68      0.00
   -2    8    2      0.76      0.00
   -2    8    1      4.80      0.00
    2    8    0      3.37      0.00
    2    8    1     -1.32      0.00
    2    8    2     -4.65      0.00
    2    8    3     -2.69      0.00
    2    8    4     -9.23      0.00
    2    8    5      4.70      0.00
    2    8    6      6.11      0.00
    2    8    7      4.34      0.00
    2    8    8      1.51      0.00
    2    8    9     -0.56      0.00
    2    8   10      0.95      0.00
    2    8   11     -0.59      0.00
    2    8   12      1.66      0.00
    2    8   13     -0.96      0.00
    2    8   14      0.50      0.00
    2    8   15      0.41      0.00
   -2    9   16     -0.36      0.00
   -2    9   15      0.43      0.00
   -2    9   14      0.25      0.00
   -2    9   13      0.71      0.00
   -2    9   12     -0.80      0.00
   -2    9   11     -1.26      0.00
   -2    9   10      3.54      0.00
   -2    9    9     -2.63      0.00
   -2    9    8     -1.47      0.00
   -2    9    7     -4.44      0.00
   -2    9    6     -1.97      0.00
   -2    9    5      8.24      0.00
   -2    9    4      2.35      0.00
   -2    9    3      6.14      0.00
   -2    9    2     -2.02      0.00
   -2    9    1     -3.59      0.00
    2    9    0      0.45      0.00
    2    9    1      0.14      0.00
    2    9    2      7.08      0.00
    2    9    3      1.07      0.00
    2    9    4     -2.38      0.00
    2    9    5     -4.50      0.00
    2    9    6     -3.77      0.00
    2    9    7     -0.36      0.00
    2    9    8     -0.56      0.00
    2    9    9      0.54      0.00
    2    9   10     -0.60      0.00
    2    9   11      0.42      0.00
    2    9   12      1.18      0.00
    2    9   13     -0.54      0.00
    2    9   14      1.37      0.00
    2    9   15     -0.64      0.00
   -2   10   15      1.35      0.00
   -2   10   14     -0.83      0.00
   -2   10   13     -1.15      0.00
   -2   10   12      0.58      0.00
   -2   10   11     -0.54      0.00
   -2   10   10      0.96      0.00
   -2   10    9     -0.03      0.00
   -2   10    8     -1.54      0.00
   -2   10    7      2.90      0.00
   -2   10    6      0.80      0.00
   -2   10    5      4.48      0.00
   -2   10    4     -3.23      0.00
   -2   10    3     -3.82      0.00
   -2   10    2      0.26      0.00
   -2   10    1     -1.38      0.00
    2   10    0     -0.42      0.00
    2   10    1     -1.55      0.00
    2   10    2     -0.77      0.00
    2   10    3      0.70      0.00
    2   10    4      4.20      0.00
    2   10    5     -0.51      0.00
    2   10    6      1.30      0.00
    2   10    7     -1.08      0.00
    2   10    8      1.43      0.00
    2   10    9     -0.06      0.00
    2   10   10     -1.34      0.00
    2   10   11     -1.17      0.00
    2   10   12     -0.99      0.00
    2   10   13      0.01      0.00
    2   10   14     -0.02      0.00
   -2   11   14     -1.06      0.00
   -2   11   13     -0.08      0.00
   -2   11   12      1.20      0.00
   -2   11   11      1.84      0.00
   -2   11   10     -1.25      0.00
   -2   11    9      0.23      0.00
   -2   11    8     -1.62      0.00
   -2   11    7      1.82      0.00
   -2   11    6     -0.80      0.00
   -2   11    5     -1.69      0.00
   -2   11    4     -0.30      0.00
   -2   11    3     -1.98      0.00
   -2   11    2      1.69      0.00
   -2   11    1      0.01      0.00
    2   11    0      0.25      0.00
    2   11    1      0.58      0.00
    2   11    2     -1.84      0.00
    2   11    3      0.27      0.00
    2   11    4     -0.43      0.00
    2   11    5      0.82      0.00
    2   11    6     -0.34      0.00
    2   11    7     -1.47      0.00
    2   11    8      0.71      0.00
    2   11    9      0.47      0.00
    2   11   10      2.17      0.00
    2   11   11      0.58      0.00
    2   11   12      0.00      0.00
    2   11   13     -0.36      0.00
   -2   12   13      0.76      0.00
   -2   12   12     -0.05      0.00
   -2   12   11     -1.18      0.00
   -2   12   10     -0.34      0.00
   -2   12    9     -0.17      0.00
   -2   12    8      0.95      0.00
   -2   12    7      0.31      0.00
   -2   12    6      1.02      0.00
   -2   12    5     -1.40      0.00
   -2   12    4      1.35      0.00
   -2   12    3      0.08      0.00
   -2   12    1      0.28      0.00
    2   12    0      0.38      0.00
    2   12    1     -0.04      0.00
    2   12    2     -1.01      0.00
    2   12    3     -0.05      0.00
    2   12    4     -1.44      0.00
    2   12    5      1.83      0.00
    2   12    6      0.50      0.00
    2   12    7      0.87      0.00
    2   12    8     -1.72      0.00
    2   12    9     -0.72      0.00
    2   12   10     -0.67      0.00
    2   12   11     -0.64      0.00
   -2   13   11     -1.23      0.00
   -2   13   10      1.56      0.00
   -2   13    9     -0.06      0.00
   -2   13    8      0.28      0.00
   -2   13    7     -1.29      0.00
   -2   13    6     -1.06      0.00
   -2   13    5     -0.15      0.00
   -2   13    4     -0.18      0.00
   -2   13    3     -0.02      0.00
    2   13    1      0.59      0.00
    2   13    2      0.87      0.00
    2   13    3     -0.23      0.00
    2   13    4     -1.98      0.00
    2   13    5     -0.70      0.00
    2   13    6     -0.52      0.00
    2   13    7     -0.23      0.00
    2   13    8     -0.70      0.00
    2   13    9      1.85      0.00
    2   13   10      0.05      0.00
   -2   14    9     -0.42      0.00
   -2   14    8     -0.74      0.00
   -2   14    7      0.81      0.00
   -2   14    6      0.36      0.00
   -2   14    5      0.01      0.00
   -2   14    4      0.07      0.00
    2   14    1     -0.51      0.00
    2   14    2      1.42      0.00
    2   14    3      0.61      0.00
    2   14    4      0.84      0.00
    2   14    5      0.54      0.00
    2   14    6      0.88      0.00
    2   14    7     -0.56      0.00
    2   14    8     -0.76      0.00
   -2   15    7      0.11      0.00
   -2   15    6      0.81      0.00
   -2   15    5     -0.95      0.00
   -2   15    4      0.45      0.00
    2   15    2      0.45      0.00
    2   15    3     -0.11      0.00
    2   15    4      0.52      0.00
    2   15    5     -0.46      0.00
   -3    0   20     -0.80      0.00
   -3    0   18      0.01      0.00
   -3    0   16     -0.94      0.00
   -3    0   14      1.88      0.00
   -3    0   12      8.02      0.00
   -3    0   10      7.37      0.00
   -3    0    8     26.10      0.00
   -3    0    6    -19.20      0.00
   -3    0    4     44.82      0.00
   -3    0    2    -15.51      0.00
    3    0    0   -119.75      0.00
    3    0    2      5.49      0.00
    3    0    4     20.04      0.00
    3    0    6     14.86      0.00
    3    0    8     -2.58      0.00
    3    0   10     -2.24      0.00
    3    0   12      1.51      0.00
    3    0   14     -1.57      0.00
    3    0   16      0.76      0.00
   -3    1   20     -0.39      0.00
   -3    1   19      0.34      0.00
   -3    1   18      0.82      0.00
   -3    1   17     -0.43      0.00
   -3    1   16      0.91      0.00
   -3    1   15      0.17      0.00
   -3    1   14      6.22      0.00
   -3    1   13     -1.47      0.00
   -3    1   12      0.01      0.00
   -3    1   11     -6.37      0.00
   -3    1   10      6.73      0.00
   -3    1    9     -0.91      0.00
   -3    1    8    -15.38      0.00
   -3    1    7      2.21      0.00
   -3    1    6    -23.97      0.00
   -3    1    5    -13.22      0.00
   -3    1    4      4.17      0.00
   -3    1    3    -15.82      0.00
   -3    1    2    -84.37      0.00
   -3    1    1     29.28      0.00
    3    1    0    -28.92      0.00
    3    1    1     34.29      0.00
    3    1    2    -49.02      0.00
    3    1    3     -5.63      0.00
    3    1    4     -5.49      0.00
    3    1    5    -14.89      0.00
    3    1    6     -2.70      0.00
    3    1    7      1.82      0.00
    3    1    8      9.12      0.00
    3    1    9      1.58      0.00
    3    1   10     -1.54      0.00
    3    1   11     -1.81      0.00
    3    1   12      0.49      0.00
    3    1   13     -0.38      0.00
    3    1   14     -0.38      0.00
    3    1   15      0.01      0.00
    3    1   16     -1.40      0.00
    3    1   17     -0.21      0.00
   -3    2   20      0.36      0.00
   -3    2   19     -0.15      0.00
   -3    2   18      0.42      0.00
   -3    2   17     -0.02      0.00
   -3    2   16      2.39      0.00
   -3    2   15     -1.31      0.00
   -3    2   14     -2.14      0.00
   -3    2   13     -4.47      0.00
   -3    2   12     -4.63      0.00
   -3    2   11      0.73      0.00
   -3    2   10     -1.69      0.00
   -3    2    9      4.60      0.00
   -3    2    8    -31.79      0.00
   -3    2    7      2.37      0.00
   -3    2    6     18.51      0.00
   -3    2    5      8.95      0.00
   -3    2    4      5.36      0.00
   -3    2    3     26.76      0.00
   -3    2    2     21.29      0.00
   -3    2    1     22.90      0.00
    3    2    0     38.59      0.00
    3    2    1     20.87      0.00
    3    2    2    -30.25      0.00
    3    2    3     26.27      0.00
    3    2    4      6.60      0.00
    3    2    5      3.63      0.00
    3    2    6     -7.66      0.00
    3    2    7     -5.96      0.00
    3    2    8     -2.87      0.00
    3    2    9      0.78      0.00
    3    2   10      4.95      0.00
    3    2   11     -0.03      0.00
    3    2   12      0.49      0.00
    3    2   13     -0.43      0.00
    3    2   14      0.68      0.00
    3    2   15      0.08      0.00
    3    2   16     -0.59      0.00
    3    2   17      0.61      0.00
   -3    3   20      0.28      0.00
   -3    3   19     -0.78      0.00
   -3    3   18     -0.01      0.00
   -3    3   17     -0.61      0.00
   -3    3   16     -0.79      0.00
   -3    3   15     -0.48      0.00
   -3    3   14     -4.62      0.00
   -3    3   13      4.16      0.00
   -3    3   12      2.41      0.00
   -3    3   11      8.05      0.00
   -3    3   10     -6.37      0.00
   -3    3    9      5.26      0.00
   -3    3    8     10.01      0.00
   -3    3    7     14.53      0.00
   -3    3    6     31.60      0.00
   -3    3    5     -5.00      0.00
   -3    3    4    -11.55      0.00
   -3    3    3    -25.51      0.00
   -3    3    2      4.46      0.00
   -3    3    1    -17.36      0.00
    3    3    0     41.05      0.00
    3    3    1     -2.84      0.00
    3    3    2     -0.76      0.00
    3    3    3     -2.13      0.00
    3    3    4    -16.38      0.00
    3    3    5      6.72      0.00
    3    3    6      5.41      0.00
    3    3    7      3.78      0.00
    3    3    8     -8.55      0.00
    3    3    9     -1.72      0.00
    3    3   10      0.82      0.00
    3    3   11     -1.58      0.00
    3    3   12      1.30      0.00
    3    3   13      0.10      0.00
    3    3   14      0.53      0.00
    3    3   15      0.55      0.00
    3    3   16      0.06      0.00
    3    3   17      0.34      0.00
   -3    4   19      0.08      0.00
   -3    4   18      0.28      0.00
   -3    4   17      1.15      0.00
   -3    4   16     -1.78      0.00
   -3    4   15      2.40      0.00
   -3    4   14     -0.04      0.00
   -3    4   13      4.68      0.00
   -3    4   12      2.06      0.00
   -3    4   11     -4.21      0.00
   -3    4   10     -1.01      0.00
   -3    4    9     -2.90      0.00
   -3    4    8     15.29      0.00
   -3    4    7    -15.75      0.00
   -3    4    6    -18.73      0.00
   -3    4    5    -33.30      0.00
   -3    4    4     -4.12      0.00
   -3    4    3      7.28      0.00
   -3    4    2     -4.26      0.00
   -3    4    1     32.24      0.00
    3    4    0    -13.53      0.00
    3    4    1     -5.88      0.00
    3    4    2     32.16      0.00
    3    4    3      5.51      0.00
    3    4    4      1.55      0.00
    3    4    5     -0.59      0.00
    3    4    6      1.07      0.00
    3    4    7      4.69      0.00
    3    4    8     -3.30      0.00
    3    4    9      3.33      0.00
    3    4   10     -3.19      0.00
    3    4   11     -0.48      0.00
    3    4   12      0.91      0.00
    3    4   13     -1.74      0.00
    3    4   14     -0.67      0.00
    3    4   15      0.00      0.00
    3    4   16      0.06      0.00
    3    4   17     -0.11      0.00
   -3    5   19      1.29      0.00
   -3    5   18     -0.02      0.00
   -3    5   17      0.51      0.00
   -3    5   16     -1.27      0.00
   -3    5   15      0.36      0.00
   -3    5   14      2.18      0.00
   -3    5   13     -3.36      0.00
   -3    5   12     -0.22      0.00
   -3    5   11     -9.25      0.00
   -3    5   10      5.06      0.00
   -3    5    9     -2.31      0.00
   -3    5    8     -1.48      0.00
   -3    5    7     -6.81      0.00
   -3    5    6     -2.23      0.00
   -3    5    5     16.25      0.00
   -3    5    4     15.04      0.00
   -3    5    3     31.23      0.00
   -3    5    2    -20.99      0.00
   -3    5    1      2.80      0.00
    3    5    0    -15.30      0.00
    3    5    1    -15.59      0.00
    3    5    2    -12.95      0.00
    3    5    3     -9.65      0.00
    3    5    4      8.04      0.00
    3    5    5     -6.24      0.00
    3    5    6      3.99      0.00
    3    5    7      2.18      0.00
    3    5    8      3.34      0.00
    3    5    9      4.44      0.00
    3    5   10     -4.08      0.00
    3    5   11      2.18      0.00
    3    5   12      0.09      0.00
    3    5   13      0.85      0.00
    3    5   14      0.21      0.00
    3    5   15     -0.76      0.00
    3    5   16     -0.21      0.00
   -3    6   19     -0.46      0.00
   -3    6   18     -1.92      0.00
   -3    6   17     -1.75      0.00
   -3    6   16      0.43      0.00
   -3    6   15     -1.63      0.00
   -3    6   14      1.17      0.00
   -3    6   13     -4.76      0.00
   -3    6   12      1.37      0.00
   -3    6   11      2.62      0.00
   -3    6   10      3.99      0.00
   -3    6    9      7.03      0.00
   -3    6    8     -9.76      0.00
   -3    6    7      5.49      0.00
   -3    6    6      2.04      0.00
   -3    6    5      9.72      0.00
   -3    6    4    -11.30      0.00
   -3    6    3     -2.54      0.00
   -3    6    2     -3.39      0.00
   -3    6    1    -13.84      0.00
    3    6    0     15.03      0.00
    3    6    1     12.54      0.00
    3    6    2     -7.97      0.00
    3    6    3      5.80      0.00
    3    6    4      1.43      0.00
    3    6    5     -9.37      0.00
    3    6    6     -1.48      0.00
    3    6    7    -10.23      0.00
    3    6    8      1.11      0.00
    3    6    9      0.58      0.00
    3    6   10      0.76      0.00
    3    6   11      0.77      0.00
    3    6   12     -2.17      0.00
    3    6   13      1.93      0.00
    3    6   14      0.10      0.00
    3    6   15      0.82      0.00
    3    6   16      0.01      0.00
   -3    7   18      0.15      0.00
   -3    7   17      0.88      0.00
   -3    7   16      2.80      0.00
   -3    7   15     -0.42      0.00
   -3    7   14     -0.10      0.00
   -3    7   13      0.94      0.00
   -3    7   12      1.79      0.00
   -3    7   11      5.51      0.00
   -3    7   10     -8.13      0.00
   -3    7    9     -0.39      0.00
   -3    7    8     -6.98      0.00
   -3    7    7      1.82      0.00
   -3    7    6      7.17      0.00
   -3    7    5     -1.36      0.00
   -3    7    4     -0.27      0.00
   -3    7    3     -8.90      0.00
   -3    7    2      8.25      0.00
   -3    7    1     -5.65      0.00
    3    7    0      2.65      0.00
    3    7    1     -1.22      0.00
    3    7    2     -6.05      0.00
    3    7    3      6.27      0.00
    3    7    4     -1.83      0.00
    3    7    5      9.82      0.00
    3    7    6      7.90      0.00
    3    7    7     -1.78      0.00
    3    7    8     -0.12      0.00
    3    7    9     -3.51      0.00
    3    7   10      0.82      0.00
    3    7   11     -1.34      0.00
    3    7   12      0.24      0.00
    3    7   13     -0.63      0.00
    3    7   14     -1.03      0.00
    3    7   15      0.51      0.00
   -3    8   17      0.36      0.00
   -3    8   16      0.44      0.00
   -3    8   15     -0.33      0.00
   -3    8   14     -0.51      0.00
   -3    8   13      2.09      0.00
   -3    8   12     -1.82      0.00
   -3    8   11     -0.09      0.00
   -3    8   10     -4.35      0.00
   -3    8    9      1.00      0.00
   -3    8    8      9.58      0.00
   -3    8    7     -0.58      0.00
   -3    8    6      4.04      0.00
   -3    8    5    -10.27      0.00
   -3    8    4     -1.77      0.00
   -3    8    3     -1.04      0.00
   -3    8    2     -0.77      0.00
   -3    8    1      4.86      0.00
    3    8    0      2.82      0.00
    3    8    1     -1.34      0.00
    3    8    2      4.51      0.00
    3    8    3     -3.29      0.00
    3    8    4    -10.50      0.00
    3    8    5     -1.05      0.00
    3    8    6     -1.55      0.00
    3    8    7      3.27      0.00
    3    8    8      1.97      0.00
    3    8    9      1.25      0.00
    3    8   10      0.59      0.00
    3    8   11      0.75      0.00
    3    8   12      1.55      0.00
    3    8   13     -1.18      0.00
    3    8   14      1.73      0.00
    3    8   15      0.35      0.00
   -3    9   17     -1.87      0.00
   -3    9   16     -1.15      0.00
   -3    9   15     -0.79      0.00
   -3    9   14      0.14      0.00
   -3    9   13      0.58      0.00
   -3    9   12     -1.55      0.00
   -3    9   11     -1.21      0.00
   -3    9   10      3.55      0.00
   -3    9    9     -0.62      0.00
   -3    9    8      3.39      0.00
   -3    9    7     -6.93      0.00
   -3    9    6     -3.59      0.00
   -3    9    5      0.28      0.00
   -3    9    4      0.52      0.00
   -3    9    3      9.45      0.00
   -3    9    2     -1.63      0.00
   -3    9    1     -0.26      0.00
    3    9    0     -1.81      0.00
    3    9    1     -2.59      0.00
    3    9    2      5.40      0.00
    3    9    3      2.09      0.00
    3    9    4      3.95      0.00
    3    9    5     -1.12      0.00
    3    9    6     -2.75      0.00
    3    9    7     -1.30      0.00
    3    9    8     -1.15      0.00
    3    9    9     -0.45      0.00
    3    9   10     -1.89      0.00
    3    9   11      0.29      0.00
    3    9   12     -1.00      0.00
    3    9   13     -0.38      0.00
    3    9   14      0.39      0.00
   -3   10   16      1.12      0.00
   -3   10   15      1.15      0.00
   -3   10   14      0.62      0.00
   -3   10   13     -0.39      0.00
   -3   10   12     -0.09      0.00
   -3   10   11     -1.64      0.00
   -3   10   10      2.20      0.00
   -3   10    9     -1.25      0.00
   -3   10    8     -1.20      0.00
   -3   10    7     -0.39      0.00
   -3   10    6      0.43      0.00
   -3   10    5      6.25      0.00
   -3   10    4     -1.41      0.00
   -3   10    3      0.22      0.00
   -3   10    2     -1.67      0.00
   -3   10    1     -2.47      0.00
    3   10    0      0.70      0.00
    3   10    1     -0.34      0.00
    3   10    2     -2.52      0.00
    3   10    3     -1.34      0.00
    3   10    4      0.83      0.00
    3   10    5      0.38      0.00
    3   10    6      0.37      0.00
    3   10    7     -0.06      0.00
    3   10    8      1.62      0.00
    3   10    9      0.86      0.00
    3   10   10      0.73      0.00
    3   10   11     -0.20      0.00
    3   10   12     -1.02      0.00
    3   10   13     -0.02      0.00
   -3   11   15     -0.32      0.00
   -3   11   14     -1.90      0.00
   -3   11   13     -0.66      0.00
   -3   11   12      0.59      0.00
   -3   11   11      2.01      0.00
   -3   11   10      0.01      0.00
   -3   11    9      0.72      0.00
   -3   11    8     -1.46      0.00
   -3   11    7      1.87      0.00
   -3   11    6     -0.35      0.00
   -3   11    5      0.16      0.00
   -3   11    4     -1.75      0.00
   -3   11    3     -1.80      0.00
   -3   11    2      1.42      0.00
   -3   11    1     -0.24      0.00
    3   11    0      0.29      0.00
    3   11    1      0.80      0.00
    3   11    2      0.07      0.00
    3   11    3      0.75      0.00
    3   11    4     -0.77      0.00
    3   11    5      1.75      0.00
    3   11    6     -0.96      0.00
    3   11    7     -0.88      0.00
    3   11    8     -1.98      0.00
    3   11    9     -0.47      0.00
    3   11   10      0.73      0.00
    3   11   11      0.69      0.00
    3   11   12      1.53      0.00
   -3   12   13      2.49      0.00
   -3   12   12      0.09      0.00
   -3   12   11      1.25      0.00
   -3   12   10     -1.43      0.00
   -3   12    9     -0.98      0.00
   -3   12    8     -0.98      0.00
   -3   12    7      0.66      0.00
   -3   12    6      0.35      0.00
   -3   12    5     -1.13      0.00
   -3   12    4      1.18      0.00
   -3   12    3     -0.08      0.00
   -3   12    2      0.53      0.00
   -3   12    1      0.30      0.00
    3   12    0      0.16      0.00
    3   12    1     -0.34      0.00
    3   12    2      0.38      0.00
    3   12    3     -0.72      0.00
    3   12    4     -1.07      0.00
    3   12    5      1.03      0.00
    3   12    6      0.91      0.00
    3   12    7      1.21      0.00
    3   12    8      0.00      0.00
    3   12    9      0.37      0.00
    3   12   10     -1.83      0.00
    3   12   11     -1.04      0.00
   -3   13   12     -1.50      0.00
   -3   13   11     -2.39      0.00
   -3   13   10      1.16      0.00
   -3   13    9      0.09      0.00
   -3   13    8      1.20      0.00
   -3   13    7     -0.18      0.00
   -3   13    6     -0.11      0.00
   -3   13    5      0.07      0.00
   -3   13    4      0.73      0.00
   -3   13    3      0.28      0.00
   -3   13    2     -0.60      0.00
   -3   13    1     -0.70      0.00
    3   13    0      0.73      0.00
    3   13    1     -0.17      0.00
    3   13    2      1.80      0.00
    3   13    3      0.20      0.00
    3   13    4      0.05      0.00
    3   13    5     -0.65      0.00
    3   13    6     -0.23      0.00
    3   13    7     -1.12      0.00
    3   13    8      0.23      0.00
    3   13    9      0.64      0.00
   -3   14   10      0.59      0.00
   -3   14    9     -0.33      0.00
   -3   14    8     -1.52      0.00
   -3   14    7      0.05      0.00
   -3   14    6     -0.92      0.00
   -3   14    5      0.94      0.00
   -3   14    4     -0.38      0.00
   -3   14    3     -1.20      0.00
   -3   14    2     -1.36      0.00
   -3   14    1      0.43      0.00
    3   14    0     -0.60      0.00
    3   14    1     -1.94      0.00
    3   14    2      0.64      0.00
    3   14    3     -0.49      0.00
    3   14    4      1.11      0.00
    3   14    5      0.16      0.00
    3   14    6      1.28      0.00
    3   14    7      0.23      0.00
   -3   15    7      1.60      0.00
   -3   15    6      0.35      0.00
   -3   15    5     -0.83      0.00
   -3   15    4     -0.53      0.00
   -3   15    3      0.12      0.00
    3   15    0     -0.80      0.00
    3   15    1     -0.56      0.00
    3   15    3     -0.83      0.00
    3   15    4      0.39      0.00
   -4    0   20     -0.16      0.00
   -4    0   18     -1.53      0.00
   -4    0   16     -1.54      0.00
   -4    0   14     -3.73      0.00
   -4    0   12      5.12      0.00
   -4    0   10      2.00      0.00
   -4    0    8     29.99      0.00
   -4    0    6    -13.62      0.00
   -4    0    4      1.79      0.00
   -4    0    2     72.83      0.00
    4    0    0    -44.97      0.00
    4    0    2    -30.73      0.00
    4    0    4     -2.83      0.00
    4    0    6      8.17      0.00
    4    0    8      1.97      0.00
    4    0   10     -4.27      0.00
    4    0   12      0.92      0.00
    4    0   14     -0.75      0.00
    4    0   16      0.04      0.00
   -4    1   20     -0.66      0.00
   -4    1   19      0.14      0.00
   -4    1   18      0.90      0.00
   -4    1   17      0.07      0.00
   -4    1   16     -0.15      0.00
   -4    1   15      0.53      0.00
   -4    1   14      6.24      0.00
   -4    1   13      1.59      0.00
   -4    1   12      4.50      0.00
   -4    1   11     -3.80      0.00
   -4    1   10      7.05      0.00
   -4    1    9     -5.22      0.00
   -4    1    8      6.87      0.00
   -4    1    7      4.41      0.00
   -4    1    6    -33.46      0.00
   -4    1    5      3.05      0.00
   -4    1    4     32.41      0.00
   -4    1    3    -25.11      0.00
   -4    1    2    -32.09      0.00
   -4    1    1    -15.02      0.00
    4    1    0     34.68      0.00
    4    1    1     22.96      0.00
    4    1    2    -21.83      0.00
    4    1    3     15.88      0.00
    4    1    4     -3.59      0.00
    4    1    5     -6.61      0.00
    4    1    6     -6.92      0.00
    4    1    7     -2.75      0.00
    4    1    8      5.93      0.00
    4    1    9      3.09      0.00
    4    1   10      0.98      0.00
    4    1   11     -0.36      0.00
    4    1   12     -0.39      0.00
    4    1   13     -0.60      0.00
    4    1   14      0.25      0.00
    4    1   15     -0.02      0.00
    4    1   16     -0.73      0.00
    4    1   17      0.31      0.00
   -4    2   20      0.11      0.00
   -4    2   19     -0.26      0.00
   -4    2   18      0.42      0.00
   -4    2   17     -0.44      0.00
   -4    2   16      2.39      0.00
   -4    2   15     -1.05      0.00
   -4    2   14      2.65      0.00
   -4    2   13     -4.42      0.00
   -4    2   12     -5.82      0.00
   -4    2   11     -4.87      0.00
   -4    2   10      4.59      0.00
   -4    2    9      1.29      0.00
   -4    2    8    -28.42      0.00
   -4    2    7      1.23      0.00
   -4    2    6     -9.17      0.00
   -4    2    5     -5.22      0.00
   -4    2    4     14.92      0.00
   -4    2    3     -0.90      0.00
   -4    2    2     -5.64      0.00
   -4    2    1     25.04      0.00
    4    2    0     37.21      0.00
    4    2    1    -10.99      0.00
    4    2    2    -16.44      0.00
    4    2    3     11.30      0.00
    4    2    4     -2.67      0.00
    4    2    5     10.50      0.00
    4    2    6      1.70      0.00
    4    2    7     -3.83      0.00
    4    2    8     -5.55      0.00
    4    2    9     -1.28      0.00
    4    2   10      2.05      0.00
    4    2   11      0.49      0.00
    4    2   12      1.06      0.00
    4    2   13      0.08      0.00
    4    2   14      0.84      0.00
    4    2   15     -0.31      0.00
    4    2   16     -0.49      0.00
    4    2   17     -0.15      0.00
   -4    3   20     -0.25      0.00
   -4    3   19     -0.23      0.00
   -4    3   18      0.46      0.00
   -4    3   17     -0.83      0.00
   -4    3   16      1.46      0.00
   -4    3   15     -2.35      0.00
   -4    3   14     -5.16      0.00
   -4    3   13     -0.46      0.00
   -4    3   12     -2.20      0.00
   -4    3   11      7.54      0.00
   -4    3   10     -3.66      0.00
   -4    3    9      3.70      0.00
   -4    3    8    -11.84      0.00
   -4    3    7     13.52      0.00
   -4    3    6     35.46      0.00
   -4    3    5     11.95      0.00
   -4    3    4      8.76      0.00
   -4    3    3     -9.25      0.00
   -4    3    2     12.82      0.00
   -4    3    1    -14.92      0.00
    4    3    0     22.49      0.00
    4    3    1     -1.47      0.00
    4    3    2     23.75      0.00
    4    3    3     -0.64      0.00
    4    3    4    -15.79      0.00
    4    3    5      0.63      0.00
    4    3    6      2.17      0.00
    4    3    7      3.81      0.00
    4    3    8     -3.81      0.00
    4    3    9      0.87      0.00
    4    3   10     -2.15      0.00
    4    3   11     -1.05      0.00
    4    3   12     -0.18      0.00
    4    3   13     -0.77      0.00
    4    3   14      0.49      0.00
    4    3   15      0.38      0.00
    4    3   16      0.51      0.00
    4    3   17      0.08      0.00
   -4    4   20      0.19      0.00
   -4    4   19     -0.88      0.00
   -4    4   18      0.76      0.00
   -4    4   17      0.00      0.00
   -4    4   16     -1.00      0.00
   -4    4   15      1.95      0.00
   -4    4   14     -2.40      0.00
   -4    4   13      8.12      0.00
   -4    4   12      2.46      0.00
   -4    4   11      4.09      0.00
   -4    4   10     -3.65      0.00
   -4    4    9      0.39      0.00
   -4    4    8     16.78      0.00
   -4    4    7      1.44      0.00
   -4    4    6      0.85      0.00
   -4    4    5    -30.18      0.00
   -4    4    4    -16.29      0.00
   -4    4    3    -24.78      0.00
   -4    4    2     -0.88      0.00
   -4    4    1     18.57      0.00
    4    4    0    -28.20      0.00
    4    4    1    -21.30      0.00
    4    4    2     13.22      0.00
    4    4    3      2.10      0.00
    4    4    4     10.51      0.00
    4    4    5      1.54      0.00
    4    4    6      3.76      0.00
    4    4    7      1.79      0.00
    4    4    8      1.02      0.00
    4    4    9      4.07      0.00
    4    4   10     -3.33      0.00
    4    4   11      2.15      0.00
    4    4   12      0.09      0.00
    4    4   13     -0.63      0.00
    4    4   14     -0.66      0.00
    4    4   15     -0.49      0.00
    4    4   16      0.01      0.00
   -4    5   19      0.58      0.00
   -4    5   18      0.54      0.00
   -4    5   17      1.74      0.00
   -4    5   16     -2.03      0.00
   -4    5   15      2.08      0.00
   -4    5   14      1.17      0.00
   -4    5   13      1.15      0.00
   -4    5   12      0.00      0.00
   -4    5   11     -9.99      0.00
   -4    5   10      2.62      0.00
   -4    5    9     -6.41      0.00
   -4    5    8      4.76      0.00
   -4    5    7    -12.57      0.00
   -4    5    6    -13.40      0.00
   -4    5    5     -5.47      0.00
   -4    5    4     15.11      0.00
   -4    5    3     25.89      0.00
   -4    5    2     -9.65      0.00
   -4    5    1     24.15      0.00
    4    5    0      6.55      0.00
    4    5    1     -1.74      0.00
    4    5    2    -16.19      0.00
    4    5    3    -10.58      0.00
    4    5    4     -1.99      0.00
    4    5    5    -10.03      0.00
    4    5    6      0.81      0.00
    4    5    7     -5.05      0.00
    4    5    8      4.88      0.00
    4    5    9      1.08      0.00
    4    5   10     -1.34      0.00
    4    5   11      1.91      0.00
    4    5   12     -0.69      0.00
    4    5   13      1.84      0.00
    4    5   14      0.36      0.00
    4    5   15     -0.25      0.00
    4    5   16     -0.68      0.00
   -4    6   19      1.34      0.00
   -4    6   18     -1.69      0.00
   -4    6   17     -0.79      0.00
   -4    6   16     -0.82      0.00
   -4    6   15     -1.43      0.00
   -4    6   14      2.20      0.00
   -4    6   13     -6.19      0.00
   -4    6   12      0.23      0.00
   -4    6   11     -5.62      0.00
   -4    6   10      7.70      0.00
   -4    6    9      4.79      0.00
   -4    6    8     -4.43      0.00
   -4    6    7      5.62      0.00
   -4    6    6      0.29      0.00
   -4    6    5     12.36      0.00
   -4    6    4     -0.78      0.00
   -4    6    3      7.94      0.00
   -4    6    2    -15.66      0.00
   -4    6    1     -3.46      0.00
    4    6    0     10.70      0.00
    4    6    1      9.95      0.00
    4    6    2      0.35      0.00
    4    6    3     11.95      0.00
    4    6    4      1.24      0.00
    4    6    5      2.55      0.00
    4    6    6      0.45      0.00
    4    6    7     -7.83      0.00
    4    6    8     -0.12      0.00
    4    6    9     -3.66      0.00
    4    6   10      1.79      0.00
    4    6   11     -0.90      0.00
    4    6   12     -0.96      0.00
    4    6   13      0.33      0.00
    4    6   14      0.08      0.00
    4    6   15      1.56      0.00
   -4    7   18     -1.33      0.00
   -4    7   17     -0.73      0.00
   -4    7   16      2.32      0.00
   -4    7   15     -1.33      0.00
   -4    7   14      0.47      0.00
   -4    7   13     -2.11      0.00
   -4    7   12      3.35      0.00
   -4    7   11      6.06      0.00
   -4    7   10     -0.92      0.00
   -4    7    9      3.78      0.00
   -4    7    8    -13.03      0.00
   -4    7    7      2.59      0.00
   -4    7    6      0.53      0.00
   -4    7    5      1.19      0.00
   -4    7    4     -2.25      0.00
   -4    7    3     -4.68      0.00
   -4    7    2      5.17      0.00
   -4    7    1     -5.03      0.00
    4    7    0     -0.30      0.00
    4    7    1     -5.60      0.00
    4    7    2     -0.95      0.00
    4    7    3     -1.45      0.00
    4    7    4     -7.83      0.00
    4    7    5      7.01      0.00
    4    7    6      3.58      0.00
    4    7    7      4.24      0.00
    4    7    8      1.93      0.00
    4    7    9     -1.34      0.00
    4    7   10      0.37      0.00
    4    7   11     -0.78      0.00
    4    7   12      0.77      0.00
    4    7   13     -1.41      0.00
    4    7   14      0.09      0.00
    4    7   15      0.05      0.00
   -4    8   18      0.76      0.00
   -4    8   17      1.13      0.00
   -4    8   16      1.02      0.00
   -4    8   15     -0.13      0.00
   -4    8   14     -0.92      0.00
   -4    8   13      2.12      0.00
   -4    8   12     -0.01      0.00
   -4    8   11      1.66      0.00
   -4    8   10     -8.51      0.00
   -4    8    9     -0.86      0.00
   -4    8    8      0.57      0.00
   -4    8    7      3.19      0.00
   -4    8    6      8.47      0.00
   -4    8    5     -5.75      0.00
   -4    8    4      2.20      0.00
   -4    8    3     -5.61      0.00
   -4    8    2      0.70      0.00
   -4    8    1      2.02      0.00
    4    8    0     -1.32      0.00
    4    8    1     -1.03      0.00
    4    8    2      8.96      0.00
    4    8    3      0.02      0.00
    4    8    4     -2.50      0.00
    4    8    5     -2.35      0.00
    4    8    6     -5.69      0.00
    4    8    7      0.43      0.00
    4    8    8     -0.34      0.00
    4    8    9      0.67      0.00
    4    8   10     -0.26      0.00
    4    8   11      1.23      0.00
    4    8   12     -0.34      0.00
    4    8   13     -0.72      0.00
    4    8   14      0.75      0.00
   -4    9   17      0.07      0.00
   -4    9   16     -1.39      0.00
   -4    9   15     -0.21      0.00
   -4    9   14     -0.28      0.00
   -4    9   13      1.63      0.00
   -4    9   12     -1.75      0.00
   -4    9   11     -0.85      0.00
   -4    9   10      0.45      0.00
   -4    9    9      1.63      0.00
   -4    9    8      6.49      0.00
   -4    9    7     -3.44      0.00
   -4    9    6     -0.51      0.00
   -4    9    5     -7.01      0.00
   -4    9    4     -0.42      0.00
   -4    9    3      4.64      0.00
   -4    9    2     -1.78      0.00
   -4    9    1      2.99      0.00
    4    9    0     -2.09      0.00
    4    9    1     -3.22      0.00
    4    9    2     -1.01      0.00
    4    9    3     -0.52      0.00
    4    9    4      4.91      0.00
    4    9    5      2.08      0.00
    4    9    6     -0.10      0.00
    4    9    7      0.50      0.00
    4    9    8     -0.09      0.00
    4    9    9     -0.19      0.00
    4    9   10     -1.14      0.00
    4    9   11     -0.12      0.00
    4    9   12     -1.48      0.00
    4    9   13      0.47      0.00
   -4   10   16      0.18      0.00
   -4   10   15      0.61      0.00
   -4   10   14      1.36      0.00
   -4   10   13      0.17      0.00
   -4   10   12     -0.58      0.00
   -4   10   11     -1.93      0.00
   -4   10   10      2.68      0.00
   -4   10    9     -0.66      0.00
   -4   10    8      0.17      0.00
   -4   10    7     -3.34      0.00
   -4   10    6     -0.49      0.00
   -4   10    5      2.88      0.00
   -4   10    4      0.64      0.00
   -4   10    3      3.13      0.00
   -4   10    2     -2.50      0.00
   -4   10    1     -2.13      0.00
    4   10    0      1.31      0.00
    4   10    1      1.97      0.00
    4   10    2     -1.49      0.00
    4   10    3     -1.76      0.00
    4   10    4     -1.16      0.00
    4   10    5     -0.64      0.00
    4   10    6     -1.29      0.00
    4   10    7     -0.08      0.00
    4   10    8      0.42      0.00
    4   10    9      1.04      0.00
    4   10   10      1.79      0.00
    4   10   11      0.97      0.00
    4   10   12      0.42      0.00
   -4   11   15     -0.54      0.00
   -4   11   14     -0.67      0.00
   -4   11   13     -2.26      0.00
   -4   11   12      0.01      0.00
   -4   11   11      0.00      0.00
   -4   11   10      0.39      0.00
   -4   11    9      0.00      0.00
   -4   11    8     -0.84      0.00
   -4   11    7      0.37      0.00
   -4   11    6      0.14      0.00
   -4   11    5      1.43      0.00
   -4   11    4     -1.74      0.00
   -4   11    3     -0.74      0.00
   -4   11    2      0.92      0.00
   -4   11    1      0.03      0.00
    4   11    0     -0.90      0.00
    4   11    1      0.64      0.00
    4   11    2      0.40      0.00
    4   11    3      0.52      0.00
    4   11    4      0.50      0.00
    4   11    5      1.73      0.00
    4   11    6      0.51      0.00
    4   11    7     -0.13      0.00
    4   11    8     -1.53      0.00
    4   11    9     -1.16      0.00
    4   11   10     -1.11      0.00
    4   11   11     -0.38      0.00
   -4   12   13      1.38      0.00
   -4   12   12      0.97      0.00
   -4   12   11      3.91      0.00
   -4   12   10     -0.56      0.00
   -4   12    9     -0.31      0.00
   -4   12    8     -0.92      0.00
   -4   12    7      1.30      0.00
   -4   12    6     -0.60      0.00
   -4   12    5     -0.29      0.00
   -4   12    4      0.33      0.00
   -4   12    3     -0.29      0.00
   -4   12    2      0.87      0.00
   -4   12    1     -0.13      0.00
    4   12    0     -0.21      0.00
    4   12    1      0.21      0.00
    4   12    2      0.81      0.00
    4   12    3     -0.78      0.00
    4   12    4     -0.69      0.00
    4   12    5     -0.43      0.00
    4   12    6     -0.02      0.00
    4   12    7      0.17      0.00
    4   12    8      1.30      0.00
    4   12    9      0.88      0.00
    4   12   10     -0.33      0.00
   -4   13   12     -2.37      0.00
   -4   13   11     -1.73      0.00
   -4   13   10     -0.72      0.00
   -4   13    9     -1.24      0.00
   -4   13    8      0.90      0.00
   -4   13    7      0.40      0.00
   -4   13    6      0.83      0.00
   -4   13    5     -0.48      0.00
   -4   13    4      1.44      0.00
   -4   13    3      0.41      0.00
   -4   13    2      0.30      0.00
   -4   13    1     -0.31      0.00
    4   13    0     -0.40      0.00
    4   13    1     -0.95      0.00
    4   13    2      1.45      0.00
    4   13    3      0.11      0.00
    4   13    4      1.49      0.00
    4   13    5      0.06      0.00
    4   13    6      0.44      0.00
    4   13    7     -0.70      0.00
    4   13    8      0.27      0.00
   -4   14   10      2.91      0.00
   -4   14    9     -0.04      0.00
   -4   14    8      0.66      0.00
   -4   14    7     -1.60      0.00
   -4   14    6     -0.95      0.00
   -4   14    5      1.22      0.00
   -4   14    4      0.04      0.00
   -4   14    3     -0.29      0.00
   -4   14    2     -1.14      0.00
   -4   14    1     -0.65      0.00
    4   14    0     -1.43      0.00
    4   14    1     -1.14      0.00
    4   14    2     -0.59      0.00
    4   14    3     -1.55      0.00
    4   14    4      0.54      0.00
    4   14    5     -0.61      0.00
    4   14    6      0.16      0.00
   -4   15    7      1.23      0.00
   -4   15    6     -1.01      0.00
   -4   15    5      0.68      0.00
   -4   15    4     -1.27      0.00
   -4   15    3     -0.91      0.00
   -4   15    2     -1.64      0.00
   -4   15    1      1.33      0.00
    4   15    0      0.08      0.00
    4   15    1      0.92      0.00
    4   15    2     -0.48      0.00
    4   15    3     -0.32      0.00
   -5    0   20      0.25      0.00
   -5    0   18     -2.49      0.00
   -5    0   16     -1.60      0.00
   -5    0   14     -7.63      0.00
   -5    0   12      0.74      0.00
   -5    0   10     -2.89      0.00
   -5    0    8     22.22      0.00
   -5    0    6     11.78      0.00
   -5    0    4    -53.14      0.00
   -5    0    2     39.10      0.00
    5    0    0     19.32      0.00
    5    0    2    -10.80      0.00
    5    0    4     -7.28      0.00
    5    0    6      2.74      0.00
    5    0    8      6.67      0.00
    5    0   10     -3.11      0.00
    5    0   12     -0.33      0.00
    5    0   14      0.49      0.00
    5    0   16     -0.07      0.00
   -5    1   20     -0.86      0.00
   -5    1   19      0.37      0.00
   -5    1   18     -0.14      0.00
   -5    1   17      0.88      0.00
   -5    1   16     -1.75      0.00
   -5    1   15      0.61      0.00
   -5    1   14      2.81      0.00
   -5    1   13      2.29      0.00
   -5    1   12      7.48      0.00
   -5    1   11     -0.13      0.00
   -5    1   10      3.00      0.00
   -5    1    9     -6.52      0.00
   -5    1    8     21.94      0.00
   -5    1    7     -1.58      0.00
   -5    1    6    -34.82      0.00
   -5    1    5     17.25      0.00
   -5    1    4      7.19      0.00
   -5    1    3      4.36      0.00
   -5    1    2     24.32      0.00
   -5    1    1    -25.77      0.00
    5    1    0     23.68      0.00
    5    1    1     -7.18      0.00
    5    1    2     -4.73      0.00
    5    1    3     13.28      0.00
    5    1    4      2.35      0.00
    5    1    5      2.75      0.00
    5    1    6     -5.43      0.00
    5    1    7     -4.97      0.00
    5    1    8      2.30      0.00
    5    1    9      0.94      0.00
    5    1   10      2.11      0.00
    5    1   11      1.21      0.00
    5    1   12     -0.94      0.00
    5    1   13     -0.17      0.00
    5    1   14      0.30      0.00
    5    1   15     -0.61      0.00
    5    1   16     -0.61      0.00
   -5    2   20     -0.20      0.00
   -5    2   19     -0.31      0.00
   -5    2   18      0.61      0.00
   -5    2   17     -0.07      0.00
   -5    2   16      1.14      0.00
   -5    2   15     -0.35      0.00
   -5    2   14      7.35      0.00
   -5    2   13     -1.90      0.00
   -5    2   12     -2.85      0.00
   -5    2   11     -6.14      0.00
   -5    2   10      5.11      0.00
   -5    2    9     -0.70      0.00
   -5    2    8     -9.41      0.00
   -5    2    7      5.68      0.00
   -5    2    6    -29.34      0.00
   -5    2    5      2.88      0.00
   -5    2    4     14.57      0.00
   -5    2    3    -17.57      0.00
   -5    2    2     -7.79      0.00
   -5    2    1     -3.96      0.00
    5    2    0     26.36      0.00
    5    2    1    -14.27      0.00
    5    2    2     -1.01      0.00
    5    2    3     -5.89      0.00
    5    2    4    -11.75      0.00
    5    2    5      6.75      0.00
    5    2    6      2.65      0.00
    5    2    7      0.60      0.00
    5    2    8     -3.73      0.00
    5    2    9     -1.59      0.00
    5    2   10     -0.62      0.00
    5    2   11      0.57      0.00
    5    2   12     -0.04      0.00
    5    2   13      1.11      0.00
    5    2   14      0.44      0.00
    5    2   15      0.62      0.00
    5    2   16      0.32      0.00
   -5    3   20     -0.45      0.00
   -5    3   19      0.06      0.00
   -5    3   18      0.20      0.00
   -5    3   17     -1.22      0.00
   -5    3   16      2.44      0.00
   -5    3   15     -3.13      0.00
   -5    3   14     -1.90      0.00
   -5    3   13     -4.85      0.00
   -5    3   12     -6.71      0.00
   -5    3   11      3.80      0.00
   -5    3   10      1.44      0.00
   -5    3    9      2.56      0.00
   -5    3    8    -22.79      0.00
   -5    3    7      3.67      0.00
   -5    3    6     13.18      0.00
   -5    3    5     10.98      0.00
   -5    3    4     18.85      0.00
   -5    3    3      0.05      0.00
   -5    3    2     18.50      0.00
   -5    3    1    -10.56      0.00
    5    3    0     -4.38      0.00
    5    3    1     -2.97      0.00
    5    3    2     31.68      0.00
    5    3    3      3.98      0.00
    5    3    4     -2.15      0.00
    5    3    5      0.05      0.00
    5    3    6     -0.60      0.00
    5    3    7      1.56      0.00
    5    3    8     -0.30      0.00
    5    3    9      2.05      0.00
    5    3   10     -2.45      0.00
    5    3   11      0.48      0.00
    5    3   12     -1.25      0.00
    5    3   13     -0.74      0.00
    5    3   14     -0.57      0.00
    5    3   15      0.53      0.00
    5    3   16      0.24      0.00
   -5    4   20     -0.05      0.00
   -5    4   19     -0.53      0.00
   -5    4   18      0.63      0.00
   -5    4   17     -0.74      0.00
   -5    4   16      0.40      0.00
   -5    4   15     -0.29      0.00
   -5    4   14     -4.13      0.00
   -5    4   13      5.64      0.00
   -5    4   12      0.68      0.00
   -5    4   11      9.14      0.00
   -5    4   10     -3.67      0.00
   -5    4    9     -0.13      0.00
   -5    4    8      6.59      0.00
   -5    4    7     10.51      0.00
   -5    4    6     19.73      0.00
   -5    4    5     -6.15      0.00
   -5    4    4     -9.70      0.00
   -5    4    3    -30.82      0.00
   -5    4    2      5.23      0.00
   -5    4    1     -7.65      0.00
    5    4    0    -22.14      0.00
    5    4    1    -20.97      0.00
    5    4    2     -7.46      0.00
    5    4    3     -8.96      0.00
    5    4    4      6.29      0.00
    5    4    5      0.32      0.00
    5    4    6      2.94      0.00
    5    4    7     -0.91      0.00
    5    4    8      3.95      0.00
    5    4    9      1.30      0.00
    5    4   10     -1.50      0.00
    5    4   11      2.29      0.00
    5    4   12      0.10      0.00
    5    4   13      0.39      0.00
    5    4   14      0.02      0.00
    5    4   15     -1.07      0.00
    5    4   16     -0.41      0.00
   -5    5   20      0.32      0.00
   -5    5   19     -0.92      0.00
   -5    5   18      0.57      0.00
   -5    5   17      1.38      0.00
   -5    5   16     -1.68      0.00
   -5    5   15      3.03      0.00
   -5    5   14     -0.73      0.00
   -5    5   13      6.00      0.00
   -5    5   12      0.76      0.00
   -5    5   11     -2.99      0.00
   -5    5   10     -1.27      0.00
   -5    5    9     -6.43      0.00
   -5    5    8      9.97      0.00
   -5    5    7     -8.57      0.00
   -5    5    6    -13.20      0.00
   -5    5    5    -17.83      0.00
   -5    5    4      2.80      0.00
   -5    5    3      1.68      0.00
   -5    5    2      6.02      0.00
   -5    5    1     23.39      0.00
    5    5    0     15.56      0.00
    5    5    1     13.93      0.00
    5    5    2     -3.81      0.00
    5    5    3     -1.08      0.00
    5    5    4     -3.96      0.00
    5    5    5     -5.40      0.00
    5    5    6     -3.59      0.00
    5    5    7     -6.14      0.00
    5    5    8      2.59      0.00
    5    5    9     -2.23      0.00
    5    5   10      1.50      0.00
    5    5   11     -0.62      0.00
    5    5   12     -0.72      0.00
    5    5   13      0.66      0.00
    5    5   14      1.04      0.00
    5    5   15      0.20      0.00
   -5    6   19      1.91      0.00
   -5    6   18     -0.08      0.00
   -5    6   17      0.97      0.00
   -5    6   16     -2.02      0.00
   -5    6   15      0.69      0.00
   -5    6   14      1.95      0.00
   -5    6   13     -2.93      0.00
   -5    6   12     -1.57      0.00
   -5    6   11     -9.85      0.00
   -5    6   10      5.50      0.00
   -5    6    9     -2.43      0.00
   -5    6    8      3.07      0.00
   -5    6    7      1.12      0.00
   -5    6    6     -2.68      0.00
   -5    6    5      8.62      0.00
   -5    6    4      9.34      0.00
   -5    6    3     10.12      0.00
   -5    6    2    -13.50      0.00
   -5    6    1      4.95      0.00
    5    6    0     -2.43      0.00
    5    6    1      0.48      0.00
    5    6    2      0.87      0.00
    5    6    3      7.50      0.00
    5    6    4      0.71      0.00
    5    6    5      9.20      0.00
    5    6    6      1.55      0.00
    5    6    7     -0.04      0.00
    5    6    8     -0.79      0.00
    5    6    9     -3.12      0.00
    5    6   10      1.76      0.00
    5    6   11     -1.35      0.00
    5    6   12      0.33      0.00
    5    6   13     -1.59      0.00
    5    6   14      0.04      0.00
    5    6   15      0.81      0.00
   -5    7   18     -2.06      0.00
   -5    7   17     -1.14      0.00
   -5    7   16      1.06      0.00
   -5    7   15     -1.37      0.00
   -5    7   14      1.35      0.00
   -5    7   13     -4.67      0.00
   -5    7   12      2.13      0.00
   -5    7   11      1.24      0.00
   -5    7   10      7.07      0.00
   -5    7    9      5.32      0.00
   -5    7    8     -7.47      0.00
   -5    7    7      4.28      0.00
   -5    7    6     -4.73      0.00
   -5    7    5      2.43      0.00
   -5    7    4     -4.16      0.00
   -5    7    3     -1.92      0.00
   -5    7    2     -1.36      0.00
   -5    7    1     -0.90      0.00
    5    7    0     -1.53      0.00
    5    7    1     -2.53      0.00
    5    7    2      3.40      0.00
    5    7    3     -4.28      0.00
    5    7    4     -7.12      0.00
    5    7    5     -0.10      0.00
    5    7    6     -2.22      0.00
    5    7    7      4.54      0.00
    5    7    8      1.38      0.00
    5    7    9      0.33      0.00
    5    7   10      0.36      0.00
    5    7   11      0.73      0.00
    5    7   12      0.36      0.00
    5    7   13     -1.04      0.00
    5    7   14      0.26      0.00
   -5    8   18      0.44      0.00
   -5    8   17      0.22      0.00
   -5    8   16      2.00      0.00
   -5    8   15     -1.02      0.00
   -5    8   14     -0.72      0.00
   -5    8   13      0.64      0.00
   -5    8   12      2.23      0.00
   -5    8   11      3.79      0.00
   -5    8   10     -5.18      0.00
   -5    8    9     -0.87      0.00
   -5    8    8     -8.31      0.00
   -5    8    7      2.87      0.00
   -5    8    6      3.33      0.00
   -5    8    5     -0.34      0.00
   -5    8    4      3.73      0.00
   -5    8    3     -4.55      0.00
   -5    8    2      3.11      0.00
   -5    8    1      0.21      0.00
    5    8    0     -4.10      0.00
    5    8    1     -1.88      0.00
    5    8    2      5.15      0.00
    5    8    3      1.84      0.00
    5    8    4      4.88      0.00
    5    8    5     -0.06      0.00
    5    8    6     -3.28      0.00
    5    8    7     -0.80      0.00
    5    8    8     -1.86      0.00
    5    8    9     -1.04      0.00
    5    8   10     -0.47      0.00
    5    8   11      0.69      0.00
    5    8   12     -0.84      0.00
    5    8   13      0.90      0.00
    5    8   14     -0.49      0.00
   -5    9   17      0.93      0.00
   -5    9   16     -0.85      0.00
   -5    9   15      0.02      0.00
   -5    9   14     -1.36      0.00
   -5    9   13      2.04      0.00
   -5    9   12     -1.22      0.00
   -5    9   11     -0.68      0.00
   -5    9   10     -3.83      0.00
   -5    9    9      0.57      0.00
   -5    9    8      3.75      0.00
   -5    9    7      1.49      0.00
   -5    9    6      3.20      0.00
   -5    9    5     -6.15      0.00
   -5    9    4      0.67      0.00
   -5    9    3     -1.18      0.00
   -5    9    2     -1.06      0.00
   -5    9    1      4.05      0.00
    5    9    0      0.74      0.00
    5    9    1     -0.68      0.00
    5    9    2     -3.81      0.00
    5    9    3     -3.85      0.00
    5    9    4      1.99      0.00
    5    9    5      0.41      0.00
    5    9    6      1.09      0.00
    5    9    7      1.58      0.00
    5    9    8      1.22      0.00
    5    9    9      0.75      0.00
    5    9   10      0.46      0.00
    5    9   11     -0.53      0.00
    5    9   12     -0.30      0.00
    5    9   13      1.21      0.00
   -5   10   16     -1.68      0.00
   -5   10   15      0.84      0.00
   -5   10   14      1.05      0.00
   -5   10   13      1.24      0.00
   -5   10   12     -0.55      0.00
   -5   10   11     -1.25      0.00
   -5   10   10      1.95      0.00
   -5   10    9      0.89      0.00
   -5   10    8      2.08      0.00
   -5   10    7     -2.56      0.00
   -5   10    6     -0.93      0.00
   -5   10    5     -0.81      0.00
   -5   10    4      1.24      0.00
   -5   10    3      3.42      0.00
   -5   10    2     -2.23      0.00
   -5   10    1      0.14      0.00
    5   10    0      0.16      0.00
    5   10    1      2.27      0.00
    5   10    2      0.67      0.00
    5   10    3     -0.03      0.00
    5   10    4      0.75      0.00
    5   10    5     -1.31      0.00
    5   10    6     -0.65      0.00
    5   10    7     -0.86      0.00
    5   10    8     -0.74      0.00
    5   10    9      0.05      0.00
    5   10   10      0.35      0.00
    5   10   11      0.44      0.00
    5   10   12      1.06      0.00
   -5   11   15      0.31      0.00
   -5   11   14      0.54      0.00
   -5   11   13     -2.34      0.00
   -5   11   12     -0.62      0.00
   -5   11   11     -2.01      0.00
   -5   11   10      0.62      0.00
   -5   11    9     -0.34      0.00
   -5   11    8     -0.65      0.00
   -5   11    7     -0.85      0.00
   -5   11    6      0.01      0.00
   -5   11    5      1.03      0.00
   -5   11    4     -1.01      0.00
   -5   11    3     -0.77      0.00
   -5   11    2     -1.03      0.00
   -5   11    1     -0.32      0.00
    5   11    0     -1.16      0.00
    5   11    1      0.01      0.00
    5   11    2     -0.71      0.00
    5   11    3     -0.58      0.00
    5   11    4      0.57      0.00
    5   11    5      0.95      0.00
    5   11    6      1.32      0.00
    5   11    7      0.38      0.00
    5   11    8      0.52      0.00
    5   11    9     -0.33      0.00
    5   11   10     -1.43      0.00
    5   11   11     -0.83      0.00
   -5   12   14     -0.64      0.00
   -5   12   13     -1.85      0.00
   -5   12   12      1.42      0.00
   -5   12   11      3.35      0.00
   -5   12   10      0.07      0.00
   -5   12    9      1.06      0.00
   -5   12    8     -0.40      0.00
   -5   12    7      1.09      0.00
   -5   12    6     -0.21      0.00
   -5   12    5      0.11      0.00
   -5   12    4     -0.33      0.00
   -5   12    3      0.04      0.00
   -5   12    2      1.30      0.00
   -5   12    1      0.53      0.00
    5   12    0      0.27      0.00
    5   12    1      0.12      0.00
    5   12    2      0.28      0.00
    5   12    3     -0.49      0.00
    5   12    4     -0.55      0.00
    5   12    5     -0.80      0.00
    5   12    6     -1.11      0.00
    5   12    7     -0.29      0.00
    5   12    8      0.58      0.00
    5   12    9      0.61      0.00
   -5   13   12     -0.04      0.00
   -5   13   11      2.35      0.00
   -5   13   10     -2.09      0.00
   -5   13    9     -1.31      0.00
   -5   13    8     -0.23      0.00
   -5   13    7      0.56      0.00
   -5   13    6      0.46      0.00
   -5   13    5     -0.90      0.00
   -5   13    4      0.17      0.00
   -5   13    3      0.00      0.00
   -5   13    2      0.80      0.00
   -5   13    1      0.47      0.00
    5   13    0     -0.58      0.00
    5   13    1     -0.62      0.00
    5   13    2      0.32      0.00
    5   13    3     -0.40      0.00
    5   13    4      0.78      0.00
    5   13    5      0.13      0.00
    5   13    6      0.02      0.00
    5   13    7      0.58      0.00
    5   13    8     -0.49      0.00
   -5   14   10      1.60      0.00
   -5   14    9     -0.55      0.00
   -5   14    8      2.33      0.00
   -5   14    7     -1.94      0.00
   -5   14    6      0.14      0.00
   -5   14    5     -0.02      0.00
   -5   14    4      1.08      0.00
   -5   14    3      0.65      0.00
   -5   14    2      0.80      0.00
   -5   14    1     -0.68      0.00
    5   14    0     -1.10      0.00
    5   14    1      1.56      0.00
    5   14    2     -0.90      0.00
    5   14    3     -0.48      0.00
    5   14    4      0.09      0.00
    5   14    5     -0.68      0.00
    5   14    6     -0.88      0.00
   -5   15    7     -1.23      0.00
   -5   15    6     -0.37      0.00
   -5   15    5      1.30      0.00
   -5   15    4      0.48      0.00
   -5   15    3     -0.65      0.00
   -5   15    2     -1.59      0.00
   -5   15    1     -0.04      0.00
    5   15    0      0.62      0.00
    5   15    1      1.34      0.00
    5   15    2     -0.61      0.00
   -6    0   20      0.54      0.00
   -6    0   18     -1.07      0.00
   -6    0   16     -0.46      0.00
   -6    0   14     -8.27      0.00
   -6    0   12     -5.20      0.00
   -6    0   10     -3.94      0.00
   -6    0    8      6.03      0.00
   -6    0    6     44.97      0.00
   -6    0    4    -40.53      0.00
   -6    0    2    -28.20      0.00
    6    0    0     14.25      0.00
    6    0    2      6.91      0.00
    6    0    4     -0.63      0.00
    6    0    6     -2.82      0.00
    6    0    8      6.17      0.00
    6    0   10     -0.26      0.00
    6    0   12     -1.22      0.00
    6    0   14     -0.21      0.00
    6    0   16     -0.68      0.00
   -6    1   21      0.10      0.00
   -6    1   20     -0.21      0.00
   -6    1   19      0.58      0.00
   -6    1   18     -1.37      0.00
   -6    1   17      0.75      0.00
   -6    1   16     -2.76      0.00
   -6    1   15      0.57      0.00
   -6    1   14     -2.39      0.00
   -6    1   13      1.66      0.00
   -6    1   12      8.26      0.00
   -6    1   11      2.97      0.00
   -6    1   10      0.37      0.00
   -6    1    9     -2.74      0.00
   -6    1    8     23.64      0.00
   -6    1    7    -11.22      0.00
   -6    1    6    -14.53      0.00
   -6    1    5      4.85      0.00
   -6    1    4    -35.80      0.00
   -6    1    3     24.79      0.00
   -6    1    2     21.50      0.00
   -6    1    1     -0.99      0.00
    6    1    0     -2.44      0.00
    6    1    1    -17.07      0.00
    6    1    2     -7.35      0.00
    6    1    3     -0.54      0.00
    6    1    4      0.94      0.00
    6    1    5      6.58      0.00
    6    1    6     -3.17      0.00
    6    1    7     -2.26      0.00
    6    1    8     -1.18      0.00
    6    1    9     -1.26      0.00
    6    1   10      1.73      0.00
    6    1   11      1.44      0.00
    6    1   12     -0.21      0.00
    6    1   13      0.73      0.00
    6    1   14      0.28      0.00
    6    1   15     -0.16      0.00
    6    1   16     -1.05      0.00
   -6    2   21      0.33      0.00
   -6    2   20     -0.30      0.00
   -6    2   19      0.33      0.00
   -6    2   18      0.31      0.00
   -6    2   17      0.80      0.00
   -6    2   16     -0.21      0.00
   -6    2   15      0.68      0.00
   -6    2   14      7.90      0.00
   -6    2   13      0.11      0.00
   -6    2   12      2.99      0.00
   -6    2   11     -4.93      0.00
   -6    2   10     -0.93      0.00
   -6    2    9     -4.37      0.00
   -6    2    8      7.78      0.00
   -6    2    7      3.39      0.00
   -6    2    6    -29.99      0.00
   -6    2    5     17.57      0.00
   -6    2    4      1.10      0.00
   -6    2    3     -0.56      0.00
   -6    2    2     -2.42      0.00
   -6    2    1    -17.92      0.00
    6    2    0     15.34      0.00
    6    2    1      3.53      0.00
    6    2    2     14.19      0.00
    6    2    3     -7.36      0.00
    6    2    4     -9.89      0.00
    6    2    5      0.78      0.00
    6    2    6     -0.68      0.00
    6    2    7      2.96      0.00
    6    2    8     -1.17      0.00
    6    2    9     -0.99      0.00
    6    2   10     -0.79      0.00
    6    2   11     -0.07      0.00
    6    2   12     -1.40      0.00
    6    2   13      0.84      0.00
    6    2   14      0.23      0.00
    6    2   15      1.45      0.00
   -6    3   20     -0.08      0.00
   -6    3   19     -0.13      0.00
   -6    3   18      0.28      0.00
   -6    3   17     -0.85      0.00
   -6    3   16      1.78      0.00
   -6    3   15     -1.96      0.00
   -6    3   14      3.10      0.00
   -6    3   13     -6.10      0.00
   -6    3   12     -6.86      0.00
   -6    3   11     -0.87      0.00
   -6    3   10      3.66      0.00
   -6    3    9      4.58      0.00
   -6    3    8    -15.23      0.00
   -6    3    7      0.62      0.00
   -6    3    6    -11.51      0.00
   -6    3    5      5.38      0.00
   -6    3    4     10.57      0.00
   -6    3    3      2.25      0.00
   -6    3    2     12.89      0.00
   -6    3    1     -8.30      0.00
    6    3    0    -24.69      0.00
    6    3    1     -9.18      0.00
    6    3    2     16.20      0.00
    6    3    3      2.22      0.00
    6    3    4      7.56      0.00
    6    3    5      1.67      0.00
    6    3    6     -0.52      0.00
    6    3    7     -0.20      0.00
    6    3    8      1.26      0.00
    6    3    9      0.59      0.00
    6    3   10      0.09      0.00
    6    3   11      1.09      0.00
    6    3   12     -0.33      0.00
    6    3   13     -0.28      0.00
    6    3   14     -1.09      0.00
    6    3   15     -0.22      0.00
   -6    4   20     -0.33      0.00
   -6    4   19     -0.06      0.00
   -6    4   18     -0.24      0.00
   -6    4   17     -0.86      0.00
   -6    4   16      1.29      0.00
   -6    4   15     -2.73      0.00
   -6    4   14     -3.24      0.00
   -6    4   13     -0.53      0.00
   -6    4   12     -1.68      0.00
   -6    4   11      9.14      0.00
   -6    4   10     -1.54      0.00
   -6    4    9      0.48      0.00
   -6    4    8     -6.75      0.00
   -6    4    7      5.69      0.00
   -6    4    6     20.49      0.00
   -6    4    5     10.35      0.00
   -6    4    4      2.13      0.00
   -6    4    3    -13.40      0.00
   -6    4    2      9.14      0.00
   -6    4    1    -23.61      0.00
    6    4    0     -3.77      0.00
    6    4    1     -2.81      0.00
    6    4    2    -12.16      0.00
    6    4    3    -11.51      0.00
    6    4    4     -1.09      0.00
    6    4    5     -1.67      0.00
    6    4    6     -1.08      0.00
    6    4    7     -1.36      0.00
    6    4    8      3.09      0.00
    6    4    9     -1.66      0.00
    6    4   10      0.05      0.00
    6    4   11     -0.34      0.00
    6    4   12      0.50      0.00
    6    4   13      0.36      0.00
    6    4   14      0.16      0.00
    6    4   15     -1.22      0.00
   -6    5   20     -0.47      0.00
   -6    5   19     -1.12      0.00
   -6    5   18      0.20      0.00
   -6    5   17      0.15      0.00
   -6    5   16     -0.43      0.00
   -6    5   15      1.40      0.00
   -6    5   14     -2.23      0.00
   -6    5   13      6.62      0.00
   -6    5   12      1.02      0.00
   -6    5   11      4.85      0.00
   -6    5   10     -4.01      0.00
   -6    5    9     -4.44      0.00
   -6    5    8      9.89      0.00
   -6    5    7     -2.04      0.00
   -6    5    6     -2.10      0.00
   -6    5    5    -12.72      0.00
   -6    5    4     -9.50      0.00
   -6    5    3    -14.11      0.00
   -6    5    2     12.59      0.00
   -6    5    1      4.72      0.00
    6    5    0      5.97      0.00
    6    5    1     14.64      0.00
    6    5    2      4.48      0.00
    6    5    3      6.89      0.00
    6    5    4      1.96      0.00
    6    5    5      1.62      0.00
    6    5    6     -3.50      0.00
    6    5    7     -1.65      0.00
    6    5    8     -0.86      0.00
    6    5    9     -1.90      0.00
    6    5   10      1.63      0.00
    6    5   11     -1.18      0.00
    6    5   12     -0.36      0.00
    6    5   13     -0.40      0.00
    6    5   14      1.02      0.00
    6    5   15      1.12      0.00
   -6    6   19      0.50      0.00
   -6    6   18      1.16      0.00
   -6    6   17      1.59      0.00
   -6    6   16     -2.59      0.00
   -6    6   15      2.41      0.00
   -6    6   14      0.76      0.00
   -6    6   13      2.53      0.00
   -6    6   12     -1.78      0.00
   -6    6   11     -7.06      0.00
   -6    6   10      0.15      0.00
   -6    6    9     -6.86      0.00
   -6    6    8      6.86      0.00
   -6    6    7     -3.78      0.00
   -6    6    6     -5.60      0.00
   -6    6    5      3.60      0.00
   -6    6    4     10.03      0.00
   -6    6    3      6.17      0.00
   -6    6    2      0.48      0.00
   -6    6    1      3.92      0.00
    6    6    0     -6.77      0.00
    6    6    1     -4.94      0.00
    6    6    2     -3.17      0.00
    6    6    3     -1.83      0.00
    6    6    4     -1.12      0.00
    6    6    5      4.59      0.00
    6    6    6      1.98      0.00
    6    6    7      4.22      0.00
    6    6    8     -0.54      0.00
    6    6    9     -0.40      0.00
    6    6   10      0.60      0.00
    6    6   11      0.25      0.00
    6    6   12     -0.22      0.00
    6    6   13     -1.16      0.00
    6    6   14     -0.41      0.00
   -6    7   19      1.18      0.00
   -6    7   18     -1.72      0.00
   -6    7   17     -0.46      0.00
   -6    7   16     -0.60      0.00
   -6    7   15     -0.05      0.00
   -6    7   14      1.84      0.00
   -6    7   13     -4.39      0.00
   -6    7   12     -1.25      0.00
   -6    7   11     -4.21      0.00
   -6    7   10      7.57      0.00
   -6    7    9      3.34      0.00
   -6    7    8      1.71      0.00
   -6    7    7      4.59      0.00
   -6    7    6     -3.93      0.00
   -6    7    5      4.16      0.00
   -6    7    4     -1.99      0.00
   -6    7    3     -3.11      0.00
   -6    7    2     -4.75      0.00
   -6    7    1     -0.72      0.00
    6    7    0     -0.79      0.00
    6    7    1      1.40      0.00
    6    7    2      5.08      0.00
    6    7    3     -0.72      0.00
    6    7    4     -1.54      0.00
    6    7    5     -3.58      0.00
    6    7    6     -3.54      0.00
    6    7    7      1.18      0.00
    6    7    8     -0.15      0.00
    6    7    9      0.29      0.00
    6    7   10      0.46      0.00
    6    7   11      0.80      0.00
    6    7   12     -0.27      0.00
    6    7   13      0.76      0.00
    6    7   14     -0.59      0.00
   -6    8   18     -0.14      0.00
   -6    8   17     -0.53      0.00
   -6    8   16      2.96      0.00
   -6    8   15     -0.88      0.00
   -6    8   14      0.19      0.00
   -6    8   13     -1.37      0.00
   -6    8   12      2.28      0.00
   -6    8   11      4.48      0.00
   -6    8   10      1.83      0.00
   -6    8    9      1.14      0.00
   -6    8    8     -8.61      0.00
   -6    8    7      0.59      0.00
   -6    8    6     -3.55      0.00
   -6    8    5      0.40      0.00
   -6    8    4      0.80      0.00
   -6    8    3     -2.39      0.00
   -6    8    2      3.90      0.00
   -6    8    1     -0.26      0.00
    6    8    0     -2.25      0.00
    6    8    1     -3.13      0.00
    6    8    2     -1.56      0.00
    6    8    3     -0.85      0.00
    6    8    4      5.20      0.00
    6    8    5      1.74      0.00
    6    8    6      0.84      0.00
    6    8    7      0.21      0.00
    6    8    8     -1.17      0.00
    6    8    9     -0.59      0.00
    6    8   10      0.13      0.00
    6    8   11     -0.42      0.00
    6    8   12      0.65      0.00
    6    8   13      2.04      0.00
   -6    9   17      0.19      0.00
   -6    9   16      0.32      0.00
   -6    9   15     -0.80      0.00
   -6    9   14     -2.22      0.00
   -6    9   13      1.47      0.00
   -6    9   12      0.05      0.00
   -6    9   11      0.90      0.00
   -6    9   10     -4.71      0.00
   -6    9    9     -1.72      0.00
   -6    9    8     -1.37      0.00
   -6    9    7      2.60      0.00
   -6    9    6      3.58      0.00
   -6    9    5     -1.02      0.00
   -6    9    4      2.00      0.00
   -6    9    3     -2.73      0.00
   -6    9    2      1.40      0.00
   -6    9    1      2.48      0.00
    6    9    0      2.98      0.00
    6    9    1      3.08      0.00
    6    9    2     -1.77      0.00
    6    9    3     -3.42      0.00
    6    9    4     -0.51      0.00
    6    9    5     -2.81      0.00
    6    9    6      0.21      0.00
    6    9    7      0.31      0.00
    6    9    8      0.93      0.00
    6    9    9      0.84      0.00
    6    9   10      0.53      0.00
    6    9   11     -1.16      0.00
    6    9   12      0.09      0.00
   -6   10   16     -2.29      0.00
   -6   10   15      0.35      0.00
   -6   10   14     -0.12      0.00
   -6   10   13      2.10      0.00
   -6   10   12     -0.58      0.00
   -6   10   11     -0.87      0.00
   -6   10   10     -0.10      0.00
   -6   10    9      0.68      0.00
   -6   10    8      2.63      0.00
   -6   10    7      0.18      0.00
   -6   10    6     -0.65      0.00
   -6   10    5     -1.68      0.00
   -6   10    4      0.93      0.00
   -6   10    3      1.43      0.00
   -6   10    2     -0.92      0.00
   -6   10    1      1.26      0.00
    6   10    0     -1.68      0.00
    6   10    1      1.73      0.00
    6   10    2      0.44      0.00
    6   10    3      2.18      0.00
    6   10    4      1.52      0.00
    6   10    5     -0.33      0.00
    6   10    6      0.58      0.00
    6   10    7     -0.81      0.00
    6   10    8     -0.54      0.00
    6   10    9     -1.01      0.00
    6   10   10     -0.63      0.00
    6   10   11     -0.17      0.00
   -6   11   15      1.27      0.00
   -6   11   14      1.01      0.00
   -6   11   13     -0.01      0.00
   -6   11   12     -0.60      0.00
   -6   11   11     -2.38      0.00
   -6   11   10      1.35      0.00
   -6   11    9      0.35      0.00
   -6   11    8     -0.49      0.00
   -6   11    7     -0.53      0.00
   -6   11    6     -0.39      0.00
   -6   11    5      0.29      0.00
   -6   11    4      0.42      0.00
   -6   11    3     -0.97      0.00
   -6   11    2     -1.78      0.00
   -6   11    1     -1.27      0.00
    6   11    0     -0.62      0.00
    6   11    1     -0.01      0.00
    6   11    2     -1.28      0.00
    6   11    3     -0.53      0.00
    6   11    4     -0.80      0.00
    6   11    5      0.16      0.00
    6   11    6      0.47      0.00
    6   11    7      0.48      0.00
    6   11    8      0.96      0.00
    6   11    9      0.64      0.00
    6   11   10     -0.14      0.00
   -6   12   14     -0.83      0.00
   -6   12   13     -3.47      0.00
   -6   12   12      1.05      0.00
   -6   12   11     -0.41      0.00
   -6   12   10      0.01      0.00
   -6   12    9      0.93      0.00
   -6   12    8     -0.40      0.00
   -6   12    7     -0.32      0.00
   -6   12    6      0.53      0.00
   -6   12    5     -0.68      0.00
   -6   12    4     -0.12      0.00
   -6   12    3     -0.61      0.00
   -6   12    2      0.94      0.00
   -6   12    1      0.54      0.00
    6   12    0      0.60      0.00
    6   12    1     -0.45      0.00
    6   12    2      0.40      0.00
    6   12    3      0.11      0.00
    6   12    4      0.00      0.00
    6   12    5     -0.49      0.00
    6   12    6     -0.60      0.00
    6   12    7     -0.45      0.00
    6   12    8     -0.63      0.00
    6   12    9     -0.10      0.00
   -6   13   12      2.41      0.00
   -6   13   11      4.23      0.00
   -6   13   10     -1.49      0.00
   -6   13    9     -0.03      0.00
   -6   13    8     -0.85      0.00
   -6   13    7      0.93      0.00
   -6   13    6      0.15      0.00
   -6   13    5     -0.23      0.00
   -6   13    4     -0.60      0.00
   -6   13    3     -0.30      0.00
   -6   13    2      0.48      0.00
   -6   13    1      0.35      0.00
    6   13    0     -0.33      0.00
    6   13    1      0.31      0.00
    6   13    2     -0.32      0.00
    6   13    3     -0.51      0.00
    6   13    4      0.28      0.00
    6   13    5     -0.47      0.00
    6   13    6     -0.23      0.00
    6   13    7      0.90      0.00
   -6   14   10     -1.69      0.00
   -6   14    9      0.14      0.00
   -6   14    8      0.48      0.00
   -6   14    7      0.20      0.00
   -6   14    6      0.48      0.00
   -6   14    5     -0.88      0.00
   -6   14    4      0.48      0.00
   -6   14    3     -0.29      0.00
   -6   14    2      1.95      0.00
   -6   14    1      0.47      0.00
    6   14    0      0.03      0.00
    6   14    1      1.64      0.00
    6   14    2     -0.47      0.00
    6   14    3      0.76      0.00
    6   14    4      0.34      0.00
    6   14    5     -0.33      0.00
   -6   15    6      0.47      0.00
   -6   15    5      0.23      0.00
   -6   15    4      1.91      0.00
   -6   15    3     -0.13      0.00
   -6   15    2      0.14      0.00
   -6   15    1     -0.22      0.00
    6   15    0      0.70      0.00
    6   15    1     -0.09      0.00
   -7    0   20      0.39      0.00
   -7    0   18      0.58      0.00
   -7    0   16      1.94      0.00
   -7    0   14     -4.10      0.00
   -7    0   12     -8.94      0.00
   -7    0   10     -1.95      0.00
   -7    0    8    -11.91      0.00
   -7    0    6     47.28      0.00
   -7    0    4     15.87      0.00
   -7    0    2    -37.08      0.00
    7    0    0    -14.51      0.00
    7    0    2      1.19      0.00
    7    0    4      4.15      0.00
    7    0    6     -5.73      0.00
    7    0    8      1.46      0.00
    7    0   10      1.43      0.00
    7    0   12     -0.85      0.00
    7    0   14     -1.08      0.00
   -7    1   21     -0.41      0.00
   -7    1   20      0.48      0.00
   -7    1   19      0.22      0.00
   -7    1   18     -1.18      0.00
   -7    1   17      0.19      0.00
   -7    1   16     -2.17      0.00
   -7    1   15      0.22      0.00
   -7    1   14     -7.45      0.00
   -7    1   13      0.49      0.00
   -7    1   12      4.59      0.00
   -7    1   11      2.89      0.00
   -7    1   10      1.84      0.00
   -7    1    9      2.61      0.00
   -7    1    8     15.92      0.00
   -7    1    7    -10.33      0.00
   -7    1    6     18.00      0.00
   -7    1    5    -16.15      0.00
   -7    1    4    -39.25      0.00
   -7    1    3     12.54      0.00
   -7    1    2    -10.24      0.00
   -7    1    1     20.67      0.00
    7    1    0     -0.98      0.00
    7    1    1     -3.35      0.00
    7    1    2     -7.73      0.00
    7    1    3     -7.97      0.00
    7    1    4     -1.43      0.00
    7    1    5      3.37      0.00
    7    1    6     -0.46      0.00
    7    1    7      1.48      0.00
    7    1    8     -2.42      0.00
    7    1    9     -1.73      0.00
    7    1   10      0.73      0.00
    7    1   11      0.23      0.00
    7    1   12      0.29      0.00
    7    1   13      1.41      0.00
    7    1   14      0.42      0.00
    7    1   15      0.84      0.00
   -7    2   21      0.75      0.00
   -7    2   20     -0.20      0.00
   -7    2   19      0.45      0.00
   -7    2   18     -0.84      0.00
   -7    2   17      0.88      0.00
   -7    2   16     -1.69      0.00
   -7    2   15      1.16      0.00
   -7    2   14      3.69      0.00
   -7    2   13      1.23      0.00
   -7    2   12      9.46      0.00
   -7    2   11     -3.33      0.00
   -7    2   10     -4.21      0.00
   -7    2    9     -7.96      0.00
   -7    2    8     11.68      0.00
   -7    2    7     -7.74      0.00
   -7    2    6    -15.92      0.00
   -7    2    5     12.79      0.00
   -7    2    4    -11.57      0.00
   -7    2    3     21.91      0.00
   -7    2    2     -5.25      0.00
   -7    2    1     -2.24      0.00
    7    2    0      0.12      0.00
    7    2    1     11.65      0.00
    7    2    2     17.43      0.00
    7    2    3     -0.25      0.00
    7    2    4     -0.65      0.00
    7    2    5     -2.30      0.00
    7    2    6     -1.41      0.00
    7    2    7      1.92      0.00
    7    2    8      0.31      0.00
    7    2    9     -0.08      0.00
    7    2   10      0.80      0.00
    7    2   11     -0.83      0.00
    7    2   12     -1.16      0.00
    7    2   13     -0.49      0.00
    7    2   14     -0.20      0.00
    7    2   15      0.74      0.00
   -7    3   21     -0.08      0.00
   -7    3   20     -0.02      0.00
   -7    3   19      0.36      0.00
   -7    3   18      1.40      0.00
   -7    3   17      0.36      0.00
   -7    3   16      1.11      0.00
   -7    3   15      0.13      0.00
   -7    3   14      6.81      0.00
   -7    3   13     -4.85      0.00
   -7    3   12     -2.51      0.00
   -7    3   11     -5.90      0.00
   -7    3   10      0.13      0.00
   -7    3    9      5.03      0.00
   -7    3    8     -0.53      0.00
   -7    3    7      5.04      0.00
   -7    3    6    -16.57      0.00
   -7    3    5      6.32      0.00
   -7    3    4     -1.74      0.00
   -7    3    3      5.36      0.00
   -7    3    2     -3.21      0.00
   -7    3    1     -2.06      0.00
    7    3    0    -22.15      0.00
    7    3    1    -10.12      0.00
    7    3    2     -3.26      0.00
    7    3    3     -3.62      0.00
    7    3    4      6.65      0.00
    7    3    5      1.87      0.00
    7    3    6      0.27      0.00
    7    3    7     -0.16      0.00
    7    3    8      0.75      0.00
    7    3    9     -1.12      0.00
    7    3   10      1.09      0.00
    7    3   11     -0.21      0.00
    7    3   12      0.68      0.00
    7    3   13     -0.38      0.00
    7    3   14     -0.53      0.00
    7    3   15     -1.43      0.00
   -7    4   20      0.12      0.00
   -7    4   19     -0.47      0.00
   -7    4   18     -0.41      0.00
   -7    4   17     -1.32      0.00
   -7    4   16      0.76      0.00
   -7    4   15     -3.13      0.00
   -7    4   14     -0.55      0.00
   -7    4   13     -4.86      0.00
   -7    4   12     -3.63      0.00
   -7    4   11      5.88      0.00
   -7    4   10      1.14      0.00
   -7    4    9      5.01      0.00
   -7    4    8    -11.82      0.00
   -7    4    7     -1.88      0.00
   -7    4    6      6.88      0.00
   -7    4    5      7.42      0.00
   -7    4    4      4.75      0.00
   -7    4    3      5.20      0.00
   -7    4    2      3.85      0.00
   -7    4    1    -16.14      0.00
    7    4    0      8.39      0.00
    7    4    1     12.18      0.00
    7    4    2     -3.58      0.00
    7    4    3     -4.88      0.00
    7    4    4     -1.25      0.00
    7    4    5     -2.81      0.00
    7    4    6     -2.86      0.00
    7    4    7      0.25      0.00
    7    4    8      0.37      0.00
    7    4    9     -0.69      0.00
    7    4   10      0.87      0.00
    7    4   11     -1.27      0.00
    7    4   12      0.71      0.00
    7    4   13      0.38      0.00
    7    4   14      0.24      0.00
   -7    5   20      0.00      0.00
   -7    5   19     -0.43      0.00
   -7    5   18     -0.30      0.00
   -7    5   17      0.00      0.00
   -7    5   16      0.83      0.00
   -7    5   15     -0.45      0.00
   -7    5   14     -2.59      0.00
   -7    5   13      2.99      0.00
   -7    5   12      0.71      0.00
   -7    5   11      7.73      0.00
   -7    5   10     -3.25      0.00
   -7    5    9     -1.79      0.00
   -7    5    8      3.92      0.00
   -7    5    7     -0.09      0.00
   -7    5    6      8.93      0.00
   -7    5    5     -1.71      0.00
   -7    5    4    -12.83      0.00
   -7    5    3     -9.42      0.00
   -7    5    2      5.14      0.00
   -7    5    1     -8.97      0.00
    7    5    0     -5.56      0.00
    7    5    1      3.16      0.00
    7    5    2      0.63      0.00
    7    5    3      4.78      0.00
    7    5    4      5.20      0.00
    7    5    5      2.45      0.00
    7    5    6      0.33      0.00
    7    5    7      1.12      0.00
    7    5    8     -2.54      0.00
    7    5    9     -0.09      0.00
    7    5   10      0.36      0.00
    7    5   11      0.31      0.00
    7    5   12      0.13      0.00
    7    5   13     -0.64      0.00
    7    5   14     -0.01      0.00
   -7    6   19     -0.52      0.00
   -7    6   18      0.97      0.00
   -7    6   17      1.30      0.00
   -7    6   16     -1.88      0.00
   -7    6   15      1.92      0.00
   -7    6   14     -0.41      0.00
   -7    6   13      4.72      0.00
   -7    6   12      0.69      0.00
   -7    6   11     -1.06      0.00
   -7    6   10     -3.26      0.00
   -7    6    9     -6.43      0.00
   -7    6    8      5.64      0.00
   -7    6    7     -6.12      0.00
   -7    6    6     -5.55      0.00
   -7    6    5      0.30      0.00
   -7    6    4      0.93      0.00
   -7    6    3      3.97      0.00
   -7    6    2      9.42      0.00
   -7    6    1     -0.07      0.00
    7    6    0      0.10      0.00
    7    6    1     -1.30      0.00
    7    6    2     -3.10      0.00
    7    6    3     -3.76      0.00
    7    6    4     -3.05      0.00
    7    6    5     -2.12      0.00
    7    6    6      1.40      0.00
    7    6    7      2.81      0.00
    7    6    8      0.01      0.00
    7    6    9      0.07      0.00
    7    6   10     -0.48      0.00
    7    6   11      0.57      0.00
    7    6   12     -0.74      0.00
    7    6   13      0.42      0.00
   -7    7   19      1.34      0.00
   -7    7   18     -0.68      0.00
   -7    7   17     -0.05      0.00
   -7    7   16     -2.28      0.00
   -7    7   15      0.65      0.00
   -7    7   14      1.40      0.00
   -7    7   13     -1.93      0.00
   -7    7   12     -2.90      0.00
   -7    7   11     -6.04      0.00
   -7    7   10      1.65      0.00
   -7    7    9     -0.75      0.00
   -7    7    8      5.85      0.00
   -7    7    7      2.44      0.00
   -7    7    6     -0.25      0.00
   -7    7    5      6.17      0.00
   -7    7    4      1.61      0.00
   -7    7    3     -2.46      0.00
   -7    7    2     -2.49      0.00
   -7    7    1     -4.00      0.00
    7    7    0     -1.06      0.00
    7    7    1     -0.23      0.00
    7    7    2      3.11      0.00
    7    7    3      3.40      0.00
    7    7    4      2.28      0.00
    7    7    5     -1.26      0.00
    7    7    6     -1.55      0.00
    7    7    7     -0.42      0.00
    7    7    8     -0.61      0.00
    7    7    9      0.18      0.00
    7    7   10      0.66      0.00
    7    7   11     -0.30      0.00
    7    7   12      0.52      0.00
    7    7   13      2.24      0.00
   -7    8   18     -1.55      0.00
   -7    8   17     -1.21      0.00
   -7    8   16      2.19      0.00
   -7    8   15     -0.23      0.00
   -7    8   14      1.50      0.00
   -7    8   13     -2.55      0.00
   -7    8   12      0.47      0.00
   -7    8   11      2.22      0.00
   -7    8   10      5.54      0.00
   -7    8    9      3.01      0.00
   -7    8    8     -1.65      0.00
   -7    8    7      0.37      0.00
   -7    8    6     -4.53      0.00
   -7    8    5     -0.84      0.00
   -7    8    4     -2.37      0.00
   -7    8    3     -2.22      0.00
   -7    8    2      2.66      0.00
   -7    8    1     -1.62      0.00
    7    8    0      1.51      0.00
    7    8    1     -1.67      0.00
    7    8    2     -4.16      0.00
    7    8    3     -3.71      0.00
    7    8    4      0.97      0.00
    7    8    5      0.85      0.00
    7    8    6      1.84      0.00
    7    8    7      1.07      0.00
    7    8    8     -0.24      0.00
    7    8    9      0.73      0.00
    7    8   10     -0.44      0.00
    7    8   11     -2.06      0.00
    7    8   12      0.49      0.00
   -7    9   17     -0.16      0.00
   -7    9   16      2.61      0.00
   -7    9   15     -0.89      0.00
   -7    9   14     -0.91      0.00
   -7    9   13      0.24      0.00
   -7    9   12      1.12      0.00
   -7    9   11      2.30      0.00
   -7    9   10     -1.67      0.00
   -7    9    9     -2.21      0.00
   -7    9    8     -4.11      0.00
   -7    9    7     -0.08      0.00
   -7    9    6      0.46      0.00
   -7    9    5      1.33      0.00
   -7    9    4      1.54      0.00
   -7    9    3     -1.07      0.00
   -7    9    2      2.97      0.00
   -7    9    1     -0.14      0.00
    7    9    0      1.90      0.00
    7    9    1      4.27      0.00
    7    9    2      0.62      0.00
    7    9    3      0.48      0.00
    7    9    4     -0.67      0.00
    7    9    5     -3.06      0.00
    7    9    6     -0.89      0.00
    7    9    7     -1.16      0.00
    7    9    8      0.27      0.00
    7    9    9      0.90      0.00
    7    9   10      0.07      0.00
    7    9   11     -0.13      0.00
   -7   10   16     -1.19      0.00
   -7   10   15     -1.03      0.00
   -7   10   14     -1.09      0.00
   -7   10   13      1.52      0.00
   -7   10   12     -0.13      0.00
   -7   10   11     -0.49      0.00
   -7   10   10     -1.41      0.00
   -7   10    9     -0.88      0.00
   -7   10    8      1.79      0.00
   -7   10    7      1.54      0.00
   -7   10    6      0.37      0.00
   -7   10    5     -0.09      0.00
   -7   10    4      0.24      0.00
   -7   10    3      0.24      0.00
   -7   10    2      0.53      0.00
   -7   10    1      1.37      0.00
    7   10    0     -1.89      0.00
    7   10    1     -0.01      0.00
    7   10    2     -0.88      0.00
    7   10    3      2.00      0.00
    7   10    4      0.21      0.00
    7   10    5      0.89      0.00
    7   10    6      0.94      0.00
    7   10    7      0.13      0.00
    7   10    8      0.35      0.00
    7   10    9     -0.87      0.00
    7   10   10     -0.15      0.00
   -7   11   15      0.79      0.00
   -7   11   14      0.92      0.00
   -7   11   13      1.96      0.00
   -7   11   12     -0.66      0.00
   -7   11   11     -1.43      0.00
   -7   11   10      1.42      0.00
   -7   11    9      0.53      0.00
   -7   11    8      0.32      0.00
   -7   11    7      0.49      0.00
   -7   11    6     -1.29      0.00
   -7   11    5      0.76      0.00
   -7   11    4      0.17      0.00
   -7   11    3      0.13      0.00
   -7   11    2     -1.77      0.00
   -7   11    1     -1.50      0.00
    7   11    0      0.85      0.00
    7   11    1     -0.10      0.00
    7   11    2      0.00      0.00
    7   11    3     -0.39      0.00
    7   11    4     -1.41      0.00
    7   11    5     -0.62      0.00
    7   11    6     -0.82      0.00
    7   11    7     -0.66      0.00
    7   11    8     -0.76      0.00
    7   11    9      0.32      0.00
   -7   12   14     -0.79      0.00
   -7   12   13     -1.29      0.00
   -7   12   12      0.03      0.00
   -7   12   11     -2.79      0.00
   -7   12   10      0.35      0.00
   -7   12    9      0.02      0.00
   -7   12    8     -0.67      0.00
   -7   12    7     -0.35      0.00
   -7   12    6     -0.52      0.00
   -7   12    5     -0.23      0.00
   -7   12    4      0.15      0.00
   -7   12    3     -0.79      0.00
   -7   12    2     -0.05      0.00
   -7   12    1     -0.22      0.00
    7   12    0      0.59      0.00
    7   12    1     -0.64      0.00
    7   12    2      1.06      0.00
    7   12    3      0.70      0.00
    7   12    4      1.08      0.00
    7   12    5      0.46      0.00
    7   12    6      0.96      0.00
    7   12    7      0.29      0.00
    7   12    8     -0.12      0.00
   -7   13   12      2.36      0.00
   -7   13   11      1.32      0.00
   -7   13   10      0.21      0.00
   -7   13    9      0.40      0.00
   -7   13    8     -0.62      0.00
   -7   13    7      0.61      0.00
   -7   13    6      0.17      0.00
   -7   13    5      0.05      0.00
   -7   13    4     -0.06      0.00
   -7   13    3     -0.36      0.00
   -7   13    2      0.19      0.00
   -7   13    1     -0.44      0.00
    7   13    0     -0.38      0.00
    7   13    1      0.86      0.00
    7   13    2     -0.40      0.00
    7   13    3      0.06      0.00
    7   13    4      0.20      0.00
    7   13    5     -0.79      0.00
    7   13    6     -0.40      0.00
   -7   14   10     -1.64      0.00
   -7   14    9      0.39      0.00
   -7   14    8     -1.28      0.00
   -7   14    7      1.54      0.00
   -7   14    6      0.20      0.00
   -7   14    5     -0.07      0.00
   -7   14    4     -1.13      0.00
   -7   14    3     -1.26      0.00
   -7   14    2      1.06      0.00
   -7   14    1      0.93      0.00
    7   14    0      0.02      0.00
    7   14    1     -0.29      0.00
    7   14    2     -0.44      0.00
    7   14    3      1.00      0.00
    7   14    4      0.11      0.00
   -7   15    5     -0.22      0.00
   -7   15    4      0.92      0.00
   -7   15    3     -0.07      0.00
   -7   15    2      1.43      0.00
   -7   15    1      0.86      0.00
    7   15    0      0.35      0.00
   -8    0   20     -0.25      0.00
   -8    0   18      0.83      0.00
   -8    0   16      2.84      0.00
   -8    0   14      1.04      0.00
   -8    0   12    -10.59      0.00
   -8    0   10     -2.82      0.00
   -8    0    8    -20.10      0.00
   -8    0    6     13.52      0.00
   -8    0    4     45.56      0.00
   -8    0    2     -0.28      0.00
    8    0    0    -18.05      0.00
    8    0    2     -8.59      0.00
    8    0    4      4.64      0.00
    8    0    6     -2.70      0.00
    8    0    8     -1.68      0.00
    8    0   10      1.17      0.00
    8    0   12      0.58      0.00
    8    0   14      0.43      0.00
   -8    1   21     -0.48      0.00
   -8    1   20     -0.03      0.00
   -8    1   19     -0.25      0.00
   -8    1   18      0.16      0.00
   -8    1   17      0.47      0.00
   -8    1   16     -0.88      0.00
   -8    1   15      0.64      0.00
   -8    1   14     -9.05      0.00
   -8    1   13      1.14      0.00
   -8    1   12     -3.47      0.00
   -8    1   11      1.77      0.00
   -8    1   10      4.27      0.00
   -8    1    9      5.60      0.00
   -8    1    8      4.25      0.00
   -8    1    7      1.77      0.00
   -8    1    6     32.96      0.00
   -8    1    5    -18.67      0.00
   -8    1    4     -7.31      0.00
   -8    1    3    -12.51      0.00
   -8    1    2    -20.57      0.00
   -8    1    1     13.52      0.00
    8    1    0      9.80      0.00
    8    1    1     10.46      0.00
    8    1    2     -1.65      0.00
    8    1    3     -4.70      0.00
    8    1    4     -1.71      0.00
    8    1    5     -1.49      0.00
    8    1    6      1.69      0.00
    8    1    7      2.48      0.00
    8    1    8     -1.15      0.00
    8    1    9     -0.67      0.00
    8    1   10      0.58      0.00
    8    1   11     -1.37      0.00
    8    1   12     -0.61      0.00
    8    1   13      0.54      0.00
    8    1   14      1.00      0.00
   -8    2   21      0.39      0.00
   -8    2   20      0.25      0.00
   -8    2   19      0.67      0.00
   -8    2   18     -1.89      0.00
   -8    2   17      0.94      0.00
   -8    2   16     -3.12      0.00
   -8    2   15      1.70      0.00
   -8    2   14     -3.11      0.00
   -8    2   13      2.98      0.00
   -8    2   12     10.58      0.00
   -8    2   11      0.21      0.00
   -8    2   10      0.33      0.00
   -8    2    9     -5.19      0.00
   -8    2    8      6.12      0.00
   -8    2    7    -13.94      0.00
   -8    2    6     -0.73      0.00
   -8    2    5     -7.43      0.00
   -8    2    4    -10.09      0.00
   -8    2    3     17.24      0.00
   -8    2    2     -4.65      0.00
   -8    2    1     14.76      0.00
    8    2    0    -10.28      0.00
    8    2    1      3.78      0.00
    8    2    2      7.43      0.00
    8    2    3      4.71      0.00
    8    2    4      3.77      0.00
    8    2    5     -1.58      0.00
    8    2    6     -0.66      0.00
    8    2    7     -0.26      0.00
    8    2    8     -0.54      0.00
    8    2    9      0.21      0.00
    8    2   10      1.60      0.00
    8    2   11     -1.09      0.00
    8    2   12      0.37      0.00
    8    2   13     -1.56      0.00
    8    2   14     -1.09      0.00
   -8    3   21      0.64      0.00
   -8    3   20     -0.95      0.00
   -8    3   19      0.76      0.00
   -8    3   18      0.62      0.00
   -8    3   17      0.72      0.00
   -8    3   16     -0.10      0.00
   -8    3   15      1.59      0.00
   -8    3   14      5.86      0.00
   -8    3   13     -1.56      0.00
   -8    3   12      2.88      0.00
   -8    3   11     -8.40      0.00
   -8    3   10     -5.18      0.00
   -8    3    9     -1.05      0.00
   -8    3    8      4.97      0.00
   -8    3    7      4.43      0.00
   -8    3    6     -6.49      0.00
   -8    3    5      6.59      0.00
   -8    3    4     -1.78      0.00
   -8    3    3      5.79      0.00
   -8    3    2    -12.09      0.00
   -8    3    1      5.14      0.00
    8    3    0     -4.20      0.00
    8    3    1     -3.41      0.00
    8    3    2     -9.09      0.00
    8    3    3     -5.51      0.00
    8    3    4      1.22      0.00
    8    3    5      0.83      0.00
    8    3    6      0.53      0.00
    8    3    7      1.36      0.00
    8    3    8     -0.25      0.00
    8    3    9     -0.19      0.00
    8    3   10     -0.36      0.00
    8    3   11     -0.86      0.00
    8    3   12      1.51      0.00
    8    3   13      0.18      0.00
    8    3   14      0.51      0.00
   -8    4   20      0.73      0.00
   -8    4   19     -0.14      0.00
   -8    4   18      1.12      0.00
   -8    4   17     -1.31      0.00
   -8    4   16      0.50      0.00
   -8    4   15     -1.40      0.00
   -8    4   14      1.88      0.00
   -8    4   13     -5.29      0.00
   -8    4   12     -4.06      0.00
   -8    4   11      0.49      0.00
   -8    4   10      2.18      0.00
   -8    4    9      9.07      0.00
   -8    4    8     -5.69      0.00
   -8    4    7     -0.44      0.00
   -8    4    6     -2.24      0.00
   -8    4    5     -2.04      0.00
   -8    4    4      3.72      0.00
   -8    4    3      8.46      0.00
   -8    4    2     -3.89      0.00
   -8    4    1      1.48      0.00
    8    4    0      5.71      0.00
    8    4    1     11.00      0.00
    8    4    2      1.97      0.00
    8    4    3      1.96      0.00
    8    4    4      2.25      0.00
    8    4    5     -3.00      0.00
    8    4    6     -1.48      0.00
    8    4    7      0.78      0.00
    8    4    8     -1.08      0.00
    8    4    9      1.69      0.00
    8    4   10     -0.11      0.00
    8    4   11      0.09      0.00
    8    4   12     -0.01      0.00
    8    4   13      0.01      0.00
    8    4   14     -0.50      0.00
   -8    5   20      0.68      0.00
   -8    5   19     -1.01      0.00
   -8    5   18     -0.79      0.00
   -8    5   17     -0.64      0.00
   -8    5   16      1.46      0.00
   -8    5   15     -0.59      0.00
   -8    5   14     -1.79      0.00
   -8    5   13     -0.57      0.00
   -8    5   12     -0.13      0.00
   -8    5   11      6.54      0.00
   -8    5   10     -1.01      0.00
   -8    5    9      1.38      0.00
   -8    5    8     -3.71      0.00
   -8    5    7     -2.40      0.00
   -8    5    6     11.15      0.00
   -8    5    5     -0.27      0.00
   -8    5    4     -6.13      0.00
   -8    5    3      0.90      0.00
   -8    5    2     -5.92      0.00
   -8    5    1     -6.15      0.00
    8    5    0     -5.20      0.00
    8    5    1     -3.73      0.00
    8    5    2     -6.12      0.00
    8    5    3      0.22      0.00
    8    5    4      1.70      0.00
    8    5    5     -0.42      0.00
    8    5    6      3.10      0.00
    8    5    7      0.20      0.00
    8    5    8     -1.60      0.00
    8    5    9      0.14      0.00
    8    5   10     -0.40      0.00
    8    5   11      0.99      0.00
    8    5   12     -0.11      0.00
    8    5   13      0.10      0.00
   -8    6   20     -0.72      0.00
   -8    6   19     -0.73      0.00
   -8    6   18      0.74      0.00
   -8    6   17      1.05      0.00
   -8    6   16     -0.40      0.00
   -8    6   15      0.26      0.00
   -8    6   14     -1.75      0.00
   -8    6   13      2.66      0.00
   -8    6   12      2.51      0.00
   -8    6   11      3.15      0.00
   -8    6   10     -2.95      0.00
   -8    6    9     -2.97      0.00
   -8    6    8      2.92      0.00
   -8    6    7     -4.96      0.00
   -8    6    6     -0.78      0.00
   -8    6    5     -2.31      0.00
   -8    6    4     -7.17      0.00
   -8    6    3      5.14      0.00
   -8    6    2      5.15      0.00
   -8    6    1      0.65      0.00
    8    6    0      5.38      0.00
    8    6    1      3.01      0.00
    8    6    2      0.96      0.00
    8    6    3      1.42      0.00
    8    6    4     -3.39      0.00
    8    6    5     -3.02      0.00
    8    6    6      0.20      0.00
    8    6    7     -0.11      0.00
    8    6    8      0.63      0.00
    8    6    9      0.07      0.00
    8    6   10      0.11      0.00
    8    6   11     -0.38      0.00
    8    6   12     -0.17      0.00
    8    6   13      1.50      0.00
   -8    7   19      0.97      0.00
   -8    7   18      0.71      0.00
   -8    7   17      1.21      0.00
   -8    7   16     -2.46      0.00
   -8    7   15      0.52      0.00
   -8    7   14      1.19      0.00
   -8    7   13      0.83      0.00
   -8    7   12     -0.67      0.00
   -8    7   11     -4.34      0.00
   -8    7   10     -3.50      0.00
   -8    7    9     -3.37      0.00
   -8    7    8      3.22      0.00
   -8    7    7     -1.02      0.00
   -8    7    6      0.44      0.00
   -8    7    5      6.29      0.00
   -8    7    4      1.83      0.00
   -8    7    3      2.56      0.00
   -8    7    2      0.08      0.00
   -8    7    1     -4.30      0.00
    8    7    0     -1.09      0.00
    8    7    1     -4.27      0.00
    8    7    2      0.13      0.00
    8    7    3      2.42      0.00
    8    7    4      2.45      0.00
    8    7    5      2.01      0.00
    8    7    6      0.26      0.00
    8    7    7     -0.26      0.00
    8    7    8     -0.64      0.00
    8    7    9      0.09      0.00
    8    7   10     -0.28      0.00
    8    7   11     -1.52      0.00
    8    7   12      0.72      0.00
   -8    8   18     -2.71      0.00
   -8    8   17     -1.61      0.00
   -8    8   16     -0.54      0.00
   -8    8   15     -0.26      0.00
   -8    8   14      1.67      0.00
   -8    8   13     -2.28      0.00
   -8    8   12     -1.57      0.00
   -8    8   11     -1.00      0.00
   -8    8   10      3.14      0.00
   -8    8    9      3.22      0.00
   -8    8    8      3.55      0.00
   -8    8    7      1.87      0.00
   -8    8    6     -1.06      0.00
   -8    8    5      0.06      0.00
   -8    8    4     -2.89      0.00
   -8    8    3     -3.00      0.00
   -8    8    2     -0.30      0.00
   -8    8    1     -2.88      0.00
    8    8    0      3.27      0.00
    8    8    1      1.67      0.00
    8    8    2     -1.55      0.00
    8    8    3     -3.42      0.00
    8    8    4     -2.00      0.00
    8    8    5     -1.56      0.00
    8    8    6      0.46      0.00
    8    8    7      0.46      0.00
    8    8    8      0.27      0.00
    8    8    9      1.30      0.00
    8    8   10     -0.51      0.00
    8    8   11     -1.21      0.00
   -8    9   17     -0.55      0.00
   -8    9   16      2.78      0.00
   -8    9   15      0.54      0.00
   -8    9   14      0.26      0.00
   -8    9   13     -0.59      0.00
   -8    9   12      0.31      0.00
   -8    9   11      2.62      0.00
   -8    9   10      1.46      0.00
   -8    9    9     -0.22      0.00
   -8    9    8     -2.78      0.00
   -8    9    7     -1.97      0.00
   -8    9    6     -1.41      0.00
   -8    9    5     -0.20      0.00
   -8    9    4      0.46      0.00
   -8    9    3      0.13      0.00
   -8    9    2      2.78      0.00
   -8    9    1     -1.77      0.00
    8    9    0     -1.48      0.00
    8    9    1      1.91      0.00
    8    9    2      1.10      0.00
    8    9    3      3.48      0.00
    8    9    4      0.79      0.00
    8    9    5     -0.46      0.00
    8    9    6     -0.51      0.00
    8    9    7     -0.94      0.00
    8    9    8      0.16      0.00
    8    9    9      0.28      0.00
    8    9   10     -0.05      0.00
    8    9   11      1.38      0.00
   -8   10   16      0.40      0.00
   -8   10   15     -0.37      0.00
   -8   10   14     -1.35      0.00
   -8   10   13      0.46      0.00
   -8   10   12      0.29      0.00
   -8   10   11      0.69      0.00
   -8   10   10     -1.43      0.00
   -8   10    9     -1.97      0.00
   -8   10    8      0.58      0.00
   -8   10    7      0.04      0.00
   -8   10    6      1.51      0.00
   -8   10    5      0.15      0.00
   -8   10    4     -0.11      0.00
   -8   10    3     -0.37      0.00
   -8   10    2      1.76      0.00
   -8   10    1      0.53      0.00
    8   10    0     -0.55      0.00
    8   10    1     -1.66      0.00
    8   10    2     -1.26      0.00
    8   10    3     -0.15      0.00
    8   10    4     -1.27      0.00
    8   10    5      0.37      0.00
    8   10    6      0.11      0.00
    8   10    7      0.58      0.00
    8   10    8      0.14      0.00
    8   10    9     -0.25      0.00
    8   10   10      0.43      0.00
   -8   11   15     -0.58      0.00
   -8   11   14      0.26      0.00
   -8   11   13      1.76      0.00
   -8   11   12     -1.07      0.00
   -8   11   11     -0.14      0.00
   -8   11   10      0.59      0.00
   -8   11    9     -0.14      0.00
   -8   11    8      1.75      0.00
   -8   11    7      0.30      0.00
   -8   11    6     -0.86      0.00
   -8   11    5      0.94      0.00
   -8   11    4     -0.14      0.00
   -8   11    3      1.16      0.00
   -8   11    2     -0.71      0.00
   -8   11    1     -0.25      0.00
    8   11    0      1.10      0.00
    8   11    1     -0.24      0.00
    8   11    2      1.31      0.00
    8   11    3     -0.01      0.00
    8   11    4      0.07      0.00
    8   11    5      0.47      0.00
    8   11    6     -0.32      0.00
    8   11    7     -1.10      0.00
    8   11    8     -1.47      0.00
   -8   12   14     -0.39      0.00
   -8   12   13      1.78      0.00
   -8   12   12     -0.82      0.00
   -8   12   11     -1.25      0.00
   -8   12   10      0.69      0.00
   -8   12    9     -0.17      0.00
   -8   12    8     -0.50      0.00
   -8   12    7      0.22      0.00
   -8   12    6     -1.72      0.00
   -8   12    5      0.85      0.00
   -8   12    4     -0.03      0.00
   -8   12    3     -0.04      0.00
   -8   12    2     -0.64      0.00
   -8   12    1     -1.05      0.00
    8   12    0      0.49      0.00
    8   12    1     -0.04      0.00
    8   12    2      0.12      0.00
    8   12    3      0.00      0.00
    8   12    4      0.76      0.00
    8   12    5      0.58      0.00
    8   12    6      0.38      0.00
    8   12    7      0.86      0.00
   -8   13   12      0.76      0.00
   -8   13   11     -1.13      0.00
   -8   13   10      0.41      0.00
   -8   13    9     -0.34      0.00
   -8   13    8      0.30      0.00
   -8   13    7      0.09      0.00
   -8   13    6      0.29      0.00
   -8   13    5     -0.17      0.00
   -8   13    4      0.49      0.00
   -8   13    3     -0.32      0.00
   -8   13    2      0.62      0.00
   -8   13    1     -1.25      0.00
    8   13    0     -0.35      0.00
    8   13    1      0.58      0.00
    8   13    2     -0.04      0.00
    8   13    3      0.63      0.00
    8   13    4      0.26      0.00
    8   13    5     -0.11      0.00
   -8   14    9     -0.98      0.00
   -8   14    8     -0.33      0.00
   -8   14    7      0.08      0.00
   -8   14    6     -0.06      0.00
   -8   14    5      0.25      0.00
   -8   14    4     -1.14      0.00
   -8   14    3     -0.90      0.00
   -8   14    2      0.34      0.00
   -8   14    1     -0.24      0.00
    8   14    0     -0.62      0.00
    8   14    1     -1.43      0.00
    8   14    2     -0.76      0.00
    8   14    3     -0.29      0.00
   -9    0   20     -0.30      0.00
   -9    0   18      1.35      0.00
   -9    0   16      3.08      0.00
   -9    0   14      6.42      0.00
   -9    0   12     -6.04      0.00
   -9    0   10     -4.30      0.00
   -9    0    8    -13.11      0.00
   -9    0    6    -19.57      0.00
   -9    0    4     25.89      0.00
   -9    0    2     23.20      0.00
    9    0    0     -1.85      0.00
    9    0    2    -10.19      0.00
    9    0    4      2.35      0.00
    9    0    6      2.01      0.00
    9    0    8     -1.68      0.00
    9    0   10     -0.50      0.00
    9    0   12      0.18      0.00
    9    0   14      1.63      0.00
   -9    1   21     -0.37      0.00
   -9    1   20     -0.53      0.00
   -9    1   19     -0.99      0.00
   -9    1   18      1.33      0.00
   -9    1   17     -0.51      0.00
   -9    1   16      0.75      0.00
   -9    1   15     -0.93      0.00
   -9    1   14     -4.80      0.00
   -9    1   13      0.19      0.00
   -9    1   12     -9.87      0.00
   -9    1   11      0.09      0.00
   -9    1   10      3.09      0.00
   -9    1    9      3.14      0.00
   -9    1    8     -4.63      0.00
   -9    1    7     10.95      0.00
   -9    1    6     20.36      0.00
   -9    1    5     -1.30      0.00
   -9    1    4     15.86      0.00
   -9    1    3    -18.28      0.00
   -9    1    2     -7.40      0.00
   -9    1    1     -5.96      0.00
    9    1    0      9.70      0.00
    9    1    1      9.63      0.00
    9    1    2      1.90      0.00
    9    1    3      1.78      0.00
    9    1    4     -2.83      0.00
    9    1    5     -2.96      0.00
    9    1    6      1.24      0.00
    9    1    7      0.91      0.00
    9    1    8      0.39      0.00
    9    1    9      1.19      0.00
    9    1   10      1.13      0.00
    9    1   11     -1.40      0.00
    9    1   12     -1.64      0.00
    9    1   13     -0.74      0.00
    9    1   14      0.35      0.00
   -9    2   21     -0.31      0.00
   -9    2   20      1.06      0.00
   -9    2   19      0.71      0.00
   -9    2   18     -1.08      0.00
   -9    2   17      0.61      0.00
   -9    2   16     -1.78      0.00
   -9    2   15      1.06      0.00
   -9    2   14     -6.60      0.00
   -9    2   13      3.53      0.00
   -9    2   12      5.04      0.00
   -9    2   11      3.49      0.00
   -9    2   10      7.15      0.00
   -9    2    9      1.16      0.00
   -9    2    8      1.26      0.00
   -9    2    7     -6.91      0.00
   -9    2    6      3.25      0.00
   -9    2    5    -17.02      0.00
   -9    2    4     -4.99      0.00
   -9    2    3     -3.23      0.00
   -9    2    2      2.23      0.00
   -9    2    1     12.40      0.00
    9    2    0     -7.19      0.00
    9    2    1     -5.70      0.00
    9    2    2     -1.34      0.00
    9    2    3      3.58      0.00
    9    2    4      1.98      0.00
    9    2    5      0.75      0.00
    9    2    6     -0.18      0.00
    9    2    7     -1.39      0.00
    9    2    8     -1.62      0.00
    9    2    9      0.23      0.00
    9    2   10      0.60      0.00
    9    2   11      0.21      0.00
    9    2   12      1.85      0.00
    9    2   13     -0.51      0.00
   -9    3   21      0.80      0.00
   -9    3   20     -1.29      0.00
   -9    3   19      0.60      0.00
   -9    3   18     -1.41      0.00
   -9    3   17      0.58      0.00
   -9    3   16     -0.99      0.00
   -9    3   15      1.92      0.00
   -9    3   14      1.56      0.00
   -9    3   13      2.32      0.00
   -9    3   12      6.95      0.00
   -9    3   11     -6.00      0.00
   -9    3   10     -4.88      0.00
   -9    3    9     -7.31      0.00
   -9    3    8     -0.20      0.00
   -9    3    7     -1.02      0.00
   -9    3    6     -0.87      0.00
   -9    3    5      4.39      0.00
   -9    3    4      5.36      0.00
   -9    3    3      2.78      0.00
   -9    3    2     -4.56      0.00
   -9    3    1      5.36      0.00
    9    3    0      7.66      0.00
    9    3    1      2.70      0.00
    9    3    2     -3.01      0.00
    9    3    3     -3.17      0.00
    9    3    4     -0.92      0.00
    9    3    5     -1.21      0.00
    9    3    6      0.78      0.00
    9    3    7      1.38      0.00
    9    3    8     -0.27      0.00
    9    3    9      1.14      0.00
    9    3   10     -1.76      0.00
    9    3   11     -0.40      0.00
    9    3   12      0.71      0.00
    9    3   13     -0.50      0.00
   -9    4   21      0.85      0.00
   -9    4   20     -0.27      0.00
   -9    4   19      0.88      0.00
   -9    4   18      1.86      0.00
   -9    4   17     -0.51      0.00
   -9    4   16      0.43      0.00
   -9    4   15     -0.01      0.00
   -9    4   14      3.17      0.00
   -9    4   13     -3.75      0.00
   -9    4   12     -2.18      0.00
   -9    4   11     -5.16      0.00
   -9    4   10     -0.67      0.00
   -9    4    9      7.14      0.00
   -9    4    8      0.60      0.00
   -9    4    7      6.82      0.00
   -9    4    6     -3.49      0.00
   -9    4    5     -3.62      0.00
   -9    4    4      4.19      0.00
   -9    4    3     -1.00      0.00
   -9    4    2     -5.11      0.00
   -9    4    1      8.47      0.00
    9    4    0     -2.38      0.00
    9    4    1      1.30      0.00
    9    4    2     -0.25      0.00
    9    4    3      3.89      0.00
    9    4    4      3.52      0.00
    9    4    5     -2.11      0.00
    9    4    6      1.05      0.00
    9    4    7     -0.94      0.00
    9    4    8     -0.30      0.00
    9    4    9      1.13      0.00
    9    4   10     -0.88      0.00
    9    4   11      1.22      0.00
    9    4   12      0.76      0.00
    9    4   13     -0.45      0.00
   -9    5   20      0.81      0.00
   -9    5   19     -1.17      0.00
   -9    5   18     -0.66      0.00
   -9    5   17     -2.11      0.00
   -9    5   16      0.90      0.00
   -9    5   15     -0.52      0.00
   -9    5   14     -0.54      0.00
   -9    5   13     -1.73      0.00
   -9    5   12     -1.78      0.00
   -9    5   11      4.15      0.00
   -9    5   10      1.03      0.00
   -9    5    9      5.25      0.00
   -9    5    8     -6.09      0.00
   -9    5    7     -1.28      0.00
   -9    5    6      6.03      0.00
   -9    5    5     -4.56      0.00
   -9    5    4      3.76      0.00
   -9    5    3      2.92      0.00
   -9    5    2     -8.44      0.00
   -9    5    1      2.70      0.00
    9    5    0      2.66      0.00
    9    5    1     -1.69      0.00
    9    5    2     -5.62      0.00
    9    5    3     -0.60      0.00
    9    5    4     -3.22      0.00
    9    5    5     -1.54      0.00
    9    5    6      2.78      0.00
    9    5    7     -1.07      0.00
    9    5    8      0.65      0.00
    9    5    9     -0.88      0.00
    9    5   10     -0.19      0.00
    9    5   11     -0.32      0.00
    9    5   12     -0.27      0.00
   -9    6   20     -0.54      0.00
   -9    6   19     -1.30      0.00
   -9    6   18      0.32      0.00
   -9    6   17      0.95      0.00
   -9    6   16      0.78      0.00
   -9    6   15      0.77      0.00
   -9    6   14     -2.72      0.00
   -9    6   13      1.13      0.00
   -9    6   12      1.39      0.00
   -9    6   11      3.45      0.00
   -9    6   10     -0.60      0.00
   -9    6    9     -0.32      0.00
   -9    6    8      0.13      0.00
   -9    6    7     -3.13      0.00
   -9    6    6      3.95      0.00
   -9    6    5     -4.83      0.00
   -9    6    4     -6.64      0.00
   -9    6    3      4.57      0.00
   -9    6    2     -3.12      0.00
   -9    6    1      4.24      0.00
    9    6    0      3.26      0.00
    9    6    1      0.66      0.00
    9    6    2      4.14      0.00
    9    6    3      4.99      0.00
    9    6    4     -1.27      0.00
    9    6    5      0.63      0.00
    9    6    6     -0.74      0.00
    9    6    7     -0.92      0.00
    9    6    8      0.84      0.00
    9    6    9      0.51      0.00
    9    6   10      0.69      0.00
    9    6   11     -1.46      0.00
    9    6   12     -0.04      0.00
   -9    7   19      0.46      0.00
   -9    7   18      1.38      0.00
   -9    7   17      2.51      0.00
   -9    7   16     -1.64      0.00
   -9    7   15      0.37      0.00
   -9    7   14      0.26      0.00
   -9    7   13      1.63      0.00
   -9    7   12      2.51      0.00
   -9    7   11     -1.76      0.00
   -9    7   10     -2.87      0.00
   -9    7    9     -2.76      0.00
   -9    7    8     -0.22      0.00
   -9    7    7     -2.83      0.00
   -9    7    6     -0.88      0.00
   -9    7    5      3.64      0.00
   -9    7    4     -0.16      0.00
   -9    7    3      6.36      0.00
   -9    7    2     -0.23      0.00
   -9    7    1     -0.16      0.00
    9    7    0      0.39      0.00
    9    7    1     -5.29      0.00
    9    7    2     -1.72      0.00
    9    7    3     -2.38      0.00
    9    7    4      0.03      0.00
    9    7    5      1.71      0.00
    9    7    6     -0.11      0.00
    9    7    7      0.21      0.00
    9    7    8     -0.51      0.00
    9    7    9      0.55      0.00
    9    7   10     -0.54      0.00
    9    7   11     -0.70      0.00
   -9    8   18     -1.19      0.00
   -9    8   17     -0.81      0.00
   -9    8   16     -1.59      0.00
   -9    8   15     -0.67      0.00
   -9    8   14      1.35      0.00
   -9    8   13     -1.50      0.00
   -9    8   12     -1.43      0.00
   -9    8   11     -2.74      0.00
   -9    8   10     -1.22      0.00
   -9    8    9      1.50      0.00
   -9    8    8      2.18      0.00
   -9    8    7      2.57      0.00
   -9    8    6      1.42      0.00
   -9    8    5      2.38      0.00
   -9    8    4     -1.75      0.00
   -9    8    3     -1.90      0.00
   -9    8    2     -2.90      0.00
   -9    8    1     -1.79      0.00
    9    8    0      2.26      0.00
    9    8    1      3.47      0.00
    9    8    2      2.31      0.00
    9    8    3     -0.39      0.00
    9    8    4     -0.87      0.00
    9    8    5     -1.85      0.00
    9    8    6     -0.52      0.00
    9    8    7     -0.46      0.00
    9    8    8     -0.05      0.00
    9    8    9      0.94      0.00
    9    8   10     -0.22      0.00
    9    8   11      1.29      0.00
   -9    9   17     -2.12      0.00
   -9    9   16      1.07      0.00
   -9    9   15      0.74      0.00
   -9    9   14      0.51      0.00
   -9    9   13     -1.11      0.00
   -9    9   12     -0.72      0.00
   -9    9   11      1.90      0.00
   -9    9   10      1.72      0.00
   -9    9    9      2.20      0.00
   -9    9    8     -0.41      0.00
   -9    9    7     -1.04      0.00
   -9    9    6     -1.29      0.00
   -9    9    5     -1.92      0.00
   -9    9    4     -1.24      0.00
   -9    9    3     -0.02      0.00
   -9    9    2      0.53      0.00
   -9    9    1     -1.43      0.00
    9    9    0     -2.76      0.00
    9    9    1     -1.35      0.00
    9    9    2     -0.11      0.00
    9    9    3      1.99      0.00
    9    9    4      1.23      0.00
    9    9    5      1.21      0.00
    9    9    6      0.37      0.00
    9    9    7      0.11      0.00
    9    9    8     -0.09      0.00
    9    9    9     -0.62      0.00
    9    9   10     -0.23      0.00
   -9   10   16      1.26      0.00
   -9   10   15      0.73      0.00
   -9   10   14     -0.84      0.00
   -9   10   13     -0.59      0.00
   -9   10   12      0.33      0.00
   -9   10   11      1.46      0.00
   -9   10   10     -0.88      0.00
   -9   10    9     -1.59      0.00
   -9   10    8     -0.54      0.00
   -9   10    7     -1.08      0.00
   -9   10    6      1.30      0.00
   -9   10    5      0.15      0.00
   -9   10    4     -0.24      0.00
   -9   10    3      0.53      0.00
   -9   10    2      1.81      0.00
   -9   10    1     -0.02      0.00
    9   10    0      0.93      0.00
    9   10    1     -0.86      0.00
    9   10    2      0.01      0.00
    9   10    3     -1.11      0.00
    9   10    4     -1.06      0.00
    9   10    5     -0.46      0.00
    9   10    6     -0.39      0.00
    9   10    7      0.22      0.00
    9   10    8     -0.95      0.00
    9   10    9     -0.14      0.00
   -9   11   15     -0.69      0.00
   -9   11   14      0.34      0.00
   -9   11   13      0.49      0.00
   -9   11   12     -0.31      0.00
   -9   11   11      0.15      0.00
   -9   11   10     -0.02      0.00
   -9   11    9     -0.39      0.00
   -9   11    8      1.69      0.00
   -9   11    7     -0.36      0.00
   -9   11    6      0.08      0.00
   -9   11    5      0.22      0.00
   -9   11    4     -0.31      0.00
   -9   11    3      0.93      0.00
   -9   11    2      0.22      0.00
   -9   11    1      0.68      0.00
    9   11    0      0.04      0.00
    9   11    1      0.02      0.00
    9   11    2      0.63      0.00
    9   11    3      0.05      0.00
    9   11    4      1.43      0.00
    9   11    5      1.58      0.00
    9   11    6      0.90      0.00
    9   11    7     -0.21      0.00
    9   11    8     -0.28      0.00
   -9   12   14     -0.14      0.00
   -9   12   13      1.54      0.00
   -9   12   12     -0.99      0.00
   -9   12   11      0.78      0.00
   -9   12   10      0.16      0.00
   -9   12    9      0.61      0.00
   -9   12    8      0.06      0.00
   -9   12    7     -0.15      0.00
   -9   12    6     -1.15      0.00
   -9   12    5      1.08      0.00
   -9   12    4     -0.37      0.00
   -9   12    3      1.16      0.00
   -9   12    2     -1.34      0.00
   -9   12    1     -0.67      0.00
    9   12    0     -0.04      0.00
    9   12    1      0.78      0.00
    9   12    2     -1.31      0.00
    9   12    3     -0.45      0.00
    9   12    4     -0.14      0.00
    9   12    5     -0.27      0.00
    9   12    6     -0.74      0.00
   -9   13   12     -0.33      0.00
   -9   13   11      0.15      0.00
   -9   13   10     -1.40      0.00
   -9   13    9     -0.67      0.00
   -9   13    8      0.34      0.00
   -9   13    7      0.41      0.00
   -9   13    6      0.00      0.00
   -9   13    5      1.06      0.00
   -9   13    4     -0.09      0.00
   -9   13    3      0.93      0.00
   -9   13    2      0.57      0.00
   -9   13    1     -1.08      0.00
    9   13    0     -1.17      0.00
    9   13    1     -0.18      0.00
    9   13    2     -0.41      0.00
    9   13    3      0.21      0.00
    9   13    4     -0.49      0.00
   -9   14    9     -0.57      0.00
   -9   14    8      1.18      0.00
   -9   14    7     -0.62      0.00
   -9   14    6     -0.52      0.00
   -9   14    5     -0.50      0.00
   -9   14    4     -0.75      0.00
   -9   14    3     -0.62      0.00
   -9   14    2      0.67      0.00
   -9   14    1     -2.14      0.00
    9   14    0      0.07      0.00
    9   14    1     -0.12      0.00
  -10    0   20     -0.04      0.00
  -10    0   18      0.43      0.00
  -10    0   16      1.59      0.00
  -10    0   14      7.08      0.00
  -10    0   12      1.33      0.00
  -10    0   10     -4.86      0.00
  -10    0    8     -0.10      0.00
  -10    0    6    -21.69      0.00
  -10    0    4     -5.40      0.00
  -10    0    2     15.65      0.00
   10    0    0      7.80      0.00
   10    0    2     -7.20      0.00
   10    0    4     -1.53      0.00
   10    0    6      3.81      0.00
   10    0    8      0.40      0.00
   10    0   10     -0.19      0.00
   10    0   12     -2.01      0.00
  -10    1   21     -0.24      0.00
  -10    1   20     -0.38      0.00
  -10    1   19     -1.01      0.00
  -10    1   18      1.66      0.00
  -10    1   17     -0.74      0.00
  -10    1   16      1.71      0.00
  -10    1   15     -1.56      0.00
  -10    1   14      1.16      0.00
  -10    1   13     -0.72      0.00
  -10    1   12    -10.29      0.00
  -10    1   11      0.23      0.00
  -10    1   10     -2.27      0.00
  -10    1    9     -1.91      0.00
  -10    1    8     -5.44      0.00
  -10    1    7      6.56      0.00
  -10    1    6      1.20      0.00
  -10    1    5     11.69      0.00
  -10    1    4     14.03      0.00
  -10    1    3     -3.38      0.00
  -10    1    2      3.75      0.00
  -10    1    1    -11.89      0.00
   10    1    0      4.18      0.00
   10    1    1      0.91      0.00
   10    1    2      2.71      0.00
   10    1    3      4.68      0.00
   10    1    4     -3.07      0.00
   10    1    5     -1.35      0.00
   10    1    6     -0.47      0.00
   10    1    7     -1.66      0.00
   10    1    8      0.59      0.00
   10    1    9      1.34      0.00
   10    1   10      1.54      0.00
   10    1   11      0.19      0.00
   10    1   12      0.10      0.00
   10    1   13     -0.59      0.00
  -10    2   21     -1.10      0.00
  -10    2   20      0.86      0.00
  -10    2   19     -0.18      0.00
  -10    2   18      0.16      0.00
  -10    2   17     -0.11      0.00
  -10    2   16      0.07      0.00
  -10    2   15     -0.61      0.00
  -10    2   14     -5.56      0.00
  -10    2   13      2.29      0.00
  -10    2   12     -3.26      0.00
  -10    2   11      3.89      0.00
  -10    2   10      8.56      0.00
  -10    2    9      4.01      0.00
  -10    2    8      3.12      0.00
  -10    2    7      4.10      0.00
  -10    2    6      1.79      0.00
  -10    2    5     -7.86      0.00
  -10    2    4     -6.04      0.00
  -10    2    3    -11.11      0.00
  -10    2    2      3.53      0.00
  -10    2    1      0.09      0.00
   10    2    0      1.58      0.00
   10    2    1     -7.56      0.00
   10    2    2     -1.57      0.00
   10    2    3     -0.92      0.00
   10    2    4     -0.10      0.00
   10    2    5      2.09      0.00
   10    2    6      0.38      0.00
   10    2    7     -0.65      0.00
   10    2    8     -0.77      0.00
   10    2    9     -0.05      0.00
   10    2   10     -1.98      0.00
   10    2   11      0.92      0.00
   10    2   12      1.22      0.00
   10    2   13     -0.12      0.00
  -10    3   21      0.38      0.00
  -10    3   20     -0.11      0.00
  -10    3   19      0.90      0.00
  -10    3   18     -1.84      0.00
  -10    3   17      0.84      0.00
  -10    3   16     -0.84      0.00
  -10    3   15      1.31      0.00
  -10    3   14     -2.57      0.00
  -10    3   13      3.88      0.00
  -10    3   12      6.96      0.00
  -10    3   11     -1.18      0.00
  -10    3   10      1.10      0.00
  -10    3    9     -7.51      0.00
  -10    3    8     -4.70      0.00
  -10    3    7     -5.90      0.00
  -10    3    6     -5.41      0.00
  -10    3    5      1.63      0.00
  -10    3    4      4.63      0.00
  -10    3    3      0.48      0.00
  -10    3    2      7.26      0.00
  -10    3    1      0.04      0.00
   10    3    0      5.08      0.00
   10    3    1      3.29      0.00
   10    3    2      2.59      0.00
   10    3    3     -0.21      0.00
   10    3    4      0.36      0.00
   10    3    5     -2.11      0.00
   10    3    6      0.42      0.00
   10    3    7      0.26      0.00
   10    3    8      0.74      0.00
   10    3    9      1.26      0.00
   10    3   10     -1.29      0.00
   10    3   11      1.37      0.00
   10    3   12     -0.79      0.00
  -10    4   21      0.69      0.00
  -10    4   20     -1.72      0.00
  -10    4   19      1.10      0.00
  -10    4   18      0.67      0.00
  -10    4   17      0.53      0.00
  -10    4   16     -0.17      0.00
  -10    4   15      0.26      0.00
  -10    4   14      3.00      0.00
  -10    4   13     -1.43      0.00
  -10    4   12      1.11      0.00
  -10    4   11     -7.35      0.00
  -10    4   10     -3.60      0.00
  -10    4    9     -0.06      0.00
  -10    4    8      1.45      0.00
  -10    4    7      8.75      0.00
  -10    4    6     -1.46      0.00
  -10    4    5      2.72      0.00
  -10    4    4      6.02      0.00
  -10    4    3     -8.27      0.00
  -10    4    2      0.97      0.00
  -10    4    1      1.99      0.00
   10    4    0     -3.78      0.00
   10    4    1     -3.80      0.00
   10    4    2     -4.01      0.00
   10    4    3      2.10      0.00
   10    4    4      0.92      0.00
   10    4    5     -0.49      0.00
   10    4    6      1.41      0.00
   10    4    7     -1.98      0.00
   10    4    8      0.24      0.00
   10    4    9     -0.80      0.00
   10    4   10     -0.72      0.00
   10    4   11      1.16      0.00
   10    4   12      0.89      0.00
  -10    5   20      1.06      0.00
  -10    5   19      0.31      0.00
  -10    5   18      0.33      0.00
  -10    5   17     -2.51      0.00
  -10    5   16      0.59      0.00
  -10    5   15     -1.35      0.00
  -10    5   14      1.34      0.00
  -10    5   13     -1.64      0.00
  -10    5   12     -2.55      0.00
  -10    5   11      1.10      0.00
  -10    5   10      1.86      0.00
  -10    5    9      6.14      0.00
  -10    5    8     -2.63      0.00
  -10    5    7      2.40      0.00
  -10    5    6     -0.21      0.00
  -10    5    5     -6.23      0.00
  -10    5    4      7.82      0.00
  -10    5    3     -3.95      0.00
  -10    5    2     -2.29      0.00
  -10    5    1      3.88      0.00
   10    5    0      6.35      0.00
   10    5    1      2.03      0.00
   10    5    2      0.86      0.00
   10    5    3      1.73      0.00
   10    5    4     -4.36      0.00
   10    5    5      0.61      0.00
   10    5    6      0.66      0.00
   10    5    7     -0.44      0.00
   10    5    8      0.97      0.00
   10    5    9     -0.48      0.00
   10    5   10     -0.20      0.00
   10    5   11     -0.88      0.00
   10    5   12     -0.49      0.00
  -10    6   20     -0.10      0.00
  -10    6   19     -1.96      0.00
  -10    6   18     -0.51      0.00
  -10    6   17     -0.88      0.00
  -10    6   16      1.53      0.00
  -10    6   15      1.24      0.00
  -10    6   14     -2.30      0.00
  -10    6   13      0.99      0.00
  -10    6   12     -1.21      0.00
  -10    6   11      2.14      0.00
  -10    6   10      1.38      0.00
  -10    6    9      0.58      0.00
  -10    6    8     -1.38      0.00
  -10    6    7     -1.51      0.00
  -10    6    6      5.24      0.00
  -10    6    5     -5.54      0.00
  -10    6    4      0.28      0.00
  -10    6    3     -0.01      0.00
  -10    6    2     -4.85      0.00
  -10    6    1      4.96      0.00
   10    6    0     -1.69      0.00
   10    6    1     -4.67      0.00
   10    6    2      2.55      0.00
   10    6    3      1.96      0.00
   10    6    4      0.28      0.00
   10    6    5      2.85      0.00
   10    6    6     -1.43      0.00
   10    6    7     -0.07      0.00
   10    6    8      0.33      0.00
   10    6    9      0.59      0.00
   10    6   10      0.21      0.00
   10    6   11     -1.00      0.00
  -10    7   19     -0.85      0.00
  -10    7   18      1.03      0.00
  -10    7   17      2.16      0.00
  -10    7   16     -0.67      0.00
  -10    7   15      0.72      0.00
  -10    7   14     -1.72      0.00
  -10    7   13      1.32      0.00
  -10    7   12      2.73      0.00
  -10    7   11     -0.06      0.00
  -10    7   10      0.77      0.00
  -10    7    9     -1.54      0.00
  -10    7    8     -0.32      0.00
  -10    7    7     -2.66      0.00
  -10    7    6     -0.72      0.00
  -10    7    5     -0.89      0.00
  -10    7    4     -0.72      0.00
  -10    7    3      5.29      0.00
  -10    7    2     -0.28      0.00
  -10    7    1      4.29      0.00
   10    7    0      1.86      0.00
   10    7    1     -1.19      0.00
   10    7    2     -0.52      0.00
   10    7    3     -3.87      0.00
   10    7    4     -0.85      0.00
   10    7    5     -0.48      0.00
   10    7    6     -0.50      0.00
   10    7    7      0.61      0.00
   10    7    8      0.05      0.00
   10    7    9      0.29      0.00
   10    7   10      0.12      0.00
   10    7   11      0.64      0.00
  -10    8   18      1.03      0.00
  -10    8   17      1.25      0.00
  -10    8   16     -0.82      0.00
  -10    8   15     -0.56      0.00
  -10    8   14      0.99      0.00
  -10    8   13     -0.17      0.00
  -10    8   12      0.90      0.00
  -10    8   11     -2.63      0.00
  -10    8   10     -1.89      0.00
  -10    8    9     -0.57      0.00
  -10    8    8     -0.91      0.00
  -10    8    7      1.52      0.00
  -10    8    6      1.13      0.00
  -10    8    5      2.92      0.00
  -10    8    4     -0.11      0.00
  -10    8    3      0.09      0.00
  -10    8    2     -3.15      0.00
  -10    8    1      0.09      0.00
   10    8    0     -1.40      0.00
   10    8    1      2.16      0.00
   10    8    2      2.37      0.00
   10    8    3      1.54      0.00
   10    8    4      1.38      0.00
   10    8    5     -0.61      0.00
   10    8    6      0.06      0.00
   10    8    7     -0.82      0.00
   10    8    8     -0.08      0.00
   10    8    9     -0.06      0.00
   10    8   10      0.17      0.00
  -10    9   17     -2.82      0.00
  -10    9   16     -0.09      0.00
  -10    9   15     -0.43      0.00
  -10    9   14      0.54      0.00
  -10    9   13     -0.96      0.00
  -10    9   12     -0.86      0.00
  -10    9   11      0.11      0.00
  -10    9   10     -0.25      0.00
  -10    9    9      2.61      0.00
  -10    9    8      0.18      0.00
  -10    9    7      0.49      0.00
  -10    9    6     -0.33      0.00
  -10    9    5     -1.57      0.00
  -10    9    4     -0.99      0.00
  -10    9    3     -0.25      0.00
  -10    9    2     -1.44      0.00
  -10    9    1      0.74      0.00
   10    9    0     -1.02      0.00
   10    9    1     -1.57      0.00
   10    9    2     -1.66      0.00
   10    9    3     -0.96      0.00
   10    9    4      0.16      0.00
   10    9    5      0.14      0.00
   10    9    6      0.88      0.00
   10    9    7     -0.14      0.00
   10    9    8     -0.18      0.00
   10    9    9     -1.35      0.00
  -10   10   16      1.18      0.00
  -10   10   15      1.17      0.00
  -10   10   14     -0.52      0.00
  -10   10   13     -0.47      0.00
  -10   10   12     -0.24      0.00
  -10   10   11      1.91      0.00
  -10   10   10     -0.31      0.00
  -10   10    9     -0.33      0.00
  -10   10    8     -0.96      0.00
  -10   10    7     -0.84      0.00
  -10   10    6      0.78      0.00
  -10   10    5     -0.26      0.00
  -10   10    4     -0.28      0.00
  -10   10    3      0.90      0.00
  -10   10    2     -0.10      0.00
  -10   10    1     -0.23      0.00
   10   10    0      0.96      0.00
   10   10    1      1.28      0.00
   10   10    2      1.08      0.00
   10   10    3     -0.36      0.00
   10   10    4      0.12      0.00
   10   10    5     -0.25      0.00
   10   10    6      0.44      0.00
   10   10    7     -0.52      0.00
   10   10    8     -0.35      0.00
  -10   11   15      0.49      0.00
  -10   11   14      0.20      0.00
  -10   11   13     -0.24      0.00
  -10   11   12      0.16      0.00
  -10   11   11     -0.69      0.00
  -10   11   10     -0.35      0.00
  -10   11    9     -0.39      0.00
  -10   11    8      0.52      0.00
  -10   11    7     -0.21      0.00
  -10   11    6      0.89      0.00
  -10   11    5     -0.61      0.00
  -10   11    4     -0.37      0.00
  -10   11    3     -0.12      0.00
  -10   11    2      0.65      0.00
  -10   11    1      0.12      0.00
   10   11    0     -0.58      0.00
   10   11    1      0.61      0.00
   10   11    2     -0.99      0.00
   10   11    3     -0.24      0.00
   10   11    4      1.31      0.00
   10   11    5      1.03      0.00
   10   11    6      0.95      0.00
   10   11    7      0.39      0.00
  -10   12   13     -0.52      0.00
  -10   12   12      0.02      0.00
  -10   12   11     -0.02      0.00
  -10   12   10      0.42      0.00
  -10   12    9      1.52      0.00
  -10   12    8      0.60      0.00
  -10   12    7     -1.20      0.00
  -10   12    6     -0.17      0.00
  -10   12    5     -0.43      0.00
  -10   12    4      0.15      0.00
  -10   12    3      1.08      0.00
  -10   12    2     -1.49      0.00
  -10   12    1      1.05      0.00
   10   12    0     -0.29      0.00
   10   12    1      0.46      0.00
   10   12    2     -1.42      0.00
   10   12    3      0.15      0.00
   10   12    4     -1.03      0.00
   10   12    5     -1.48      0.00
  -10   13   11      1.39      0.00
  -10   13   10     -1.65      0.00
  -10   13    9     -0.36      0.00
  -10   13    8     -0.58      0.00
  -10   13    7     -0.18      0.00
  -10   13    6      0.18      0.00
  -10   13    5      1.86      0.00
  -10   13    4     -0.49      0.00
  -10   13    3      2.07      0.00
  -10   13    2     -1.27      0.00
  -10   13    1     -0.07      0.00
   10   13    0     -1.18      0.00
   10   13    1     -0.65      0.00
   10   13    2     -0.06      0.00
   10   13    3      0.18      0.00
  -10   14    8      1.26      0.00
  -10   14    7      0.64      0.00
  -10   14    6      0.07      0.00
  -10   14    5     -0.20      0.00
  -10   14    4     -0.69      0.00
  -10   14    3      0.02      0.00
  -10   14    2      1.12      0.00
  -10   14    1     -1.73      0.00
  -11    0   20     -0.47      0.00
  -11    0   18     -1.23      0.00
  -11    0   16      0.61      0.00
  -11    0   14      4.14      0.00
  -11    0   12      6.23      0.00
  -11    0   10     -4.43      0.00
  -11    0    8      4.76      0.00
  -11    0    6     -4.20      0.00
  -11    0    4    -12.41      0.00
  -11    0    2      1.70      0.00
   11    0    0      8.41      0.00
   11    0    2     -1.41      0.00
   11    0    4     -4.36      0.00
   11    0    6      1.33      0.00
   11    0    8      1.51      0.00
   11    0   10      2.51      0.00
   11    0   12     -1.89      0.00
  -11    1   21      0.37      0.00
  -11    1   20     -0.20      0.00
  -11    1   19     -0.13      0.00
  -11    1   18      1.85      0.00
  -11    1   17      0.16      0.00
  -11    1   16      1.53      0.00
  -11    1   15     -0.70      0.00
  -11    1   14      4.27      0.00
  -11    1   13     -1.37      0.00
  -11    1   12     -4.67      0.00
  -11    1   11      1.30      0.00
  -11    1   10     -5.59      0.00
  -11    1    9     -2.73      0.00
  -11    1    8     -0.67      0.00
  -11    1    7     -3.32      0.00
  -11    1    6     -4.77      0.00
  -11    1    5      6.85      0.00
  -11    1    4      3.88      0.00
  -11    1    3      7.88      0.00
  -11    1    2      3.61      0.00
  -11    1    1     -4.95      0.00
   11    1    0      1.10      0.00
   11    1    1     -5.41      0.00
   11    1    2      3.98      0.00
   11    1    3      2.57      0.00
   11    1    4     -0.85      0.00
   11    1    5      1.45      0.00
   11    1    6     -1.32      0.00
   11    1    7     -1.93      0.00
   11    1    8     -0.20      0.00
   11    1    9     -0.30      0.00
   11    1   10      0.71      0.00
   11    1   11      0.84      0.00
   11    1   12      2.09      0.00
  -11    2   21     -1.71      0.00
  -11    2   20      0.17      0.00
  -11    2   19     -1.37      0.00
  -11    2   18      0.58      0.00
  -11    2   17     -0.73      0.00
  -11    2   16      0.05      0.00
  -11    2   15     -1.93      0.00
  -11    2   14     -1.60      0.00
  -11    2   13     -0.31      0.00
  -11    2   12     -7.43      0.00
  -11    2   11      1.74      0.00
  -11    2   10      3.28      0.00
  -11    2    9      1.19      0.00
  -11    2    8      5.69      0.00
  -11    2    7      6.01      0.00
  -11    2    6      3.84      0.00
  -11    2    5      3.62      0.00
  -11    2    4     -7.38      0.00
  -11    2    3     -3.36      0.00
  -11    2    2     -3.08      0.00
  -11    2    1     -5.87      0.00
   11    2    0      4.35      0.00
   11    2    1     -3.11      0.00
   11    2    2      1.65      0.00
   11    2    3     -3.28      0.00
   11    2    4     -0.19      0.00
   11    2    5      1.42      0.00
   11    2    6      0.40      0.00
   11    2    7      0.74      0.00
   11    2    8      0.74      0.00
   11    2    9     -0.96      0.00
   11    2   10     -2.82      0.00
   11    2   11      0.35      0.00
   11    2   12     -0.61      0.00
  -11    3   21     -0.72      0.00
  -11    3   20      1.30      0.00
  -11    3   19      0.80      0.00
  -11    3   18     -0.80      0.00
  -11    3   17      0.60      0.00
  -11    3   16      0.33      0.00
  -11    3   15      0.04      0.00
  -11    3   14     -3.25      0.00
  -11    3   13      2.59      0.00
  -11    3   12      3.25      0.00
  -11    3   11      2.97      0.00
  -11    3   10      6.50      0.00
  -11    3    9     -1.97      0.00
  -11    3    8     -1.42      0.00
  -11    3    7     -5.33      0.00
  -11    3    6     -8.85      0.00
  -11    3    5      0.47      0.00
  -11    3    4     -5.25      0.00
  -11    3    3      2.81      0.00
  -11    3    2      8.50      0.00
  -11    3    1     -2.16      0.00
   11    3    0     -2.51      0.00
   11    3    1      0.50      0.00
   11    3    2      1.72      0.00
   11    3    3      1.05      0.00
   11    3    4      1.37      0.00
   11    3    5     -1.42      0.00
   11    3    6     -0.34      0.00
   11    3    7     -0.53      0.00
   11    3    8      1.73      0.00
   11    3    9     -0.31      0.00
   11    3   10      0.62      0.00
   11    3   11      2.14      0.00
   11    3   12     -0.44      0.00
  -11    4   21      0.41      0.00
  -11    4   20     -1.38      0.00
  -11    4   19      0.67      0.00
  -11    4   18     -0.68      0.00
  -11    4   17      1.21      0.00
  -11    4   16     -0.38      0.00
  -11    4   15      0.37      0.00
  -11    4   14      1.22      0.00
  -11    4   13      0.88      0.00
  -11    4   12      3.32      0.00
  -11    4   11     -4.92      0.00
  -11    4   10     -3.63      0.00
  -11    4    9     -5.81      0.00
  -11    4    8     -2.11      0.00
  -11    4    7      3.32      0.00
  -11    4    6     -2.53      0.00
  -11    4    5      9.14      0.00
  -11    4    4      3.28      0.00
  -11    4    3     -4.11      0.00
  -11    4    2      5.15      0.00
  -11    4    1     -5.53      0.00
   11    4    0      0.41      0.00
   11    4    1     -1.67      0.00
   11    4    2     -3.83      0.00
   11    4    3      0.16      0.00
   11    4    4     -1.87      0.00
   11    4    5      0.84      0.00
   11    4    6      0.45      0.00
   11    4    7     -0.89      0.00
   11    4    8      0.74      0.00
   11    4    9     -1.50      0.00
   11    4   10      0.23      0.00
   11    4   11     -0.17      0.00
  -11    5   20      0.38      0.00
  -11    5   19      1.55      0.00
  -11    5   18      0.46      0.00
  -11    5   17     -1.14      0.00
  -11    5   16      0.04      0.00
  -11    5   15     -1.96      0.00
  -11    5   14      2.09      0.00
  -11    5   13     -1.94      0.00
  -11    5   12     -1.78      0.00
  -11    5   11     -1.59      0.00
  -11    5   10     -0.03      0.00
  -11    5    9      3.77      0.00
  -11    5    8      0.90      0.00
  -11    5    7      6.00      0.00
  -11    5    6     -3.55      0.00
  -11    5    5     -1.06      0.00
  -11    5    4      3.85      0.00
  -11    5    3     -8.28      0.00
  -11    5    2      3.80      0.00
  -11    5    1     -1.16      0.00
   11    5    0      2.29      0.00
   11    5    1      1.64      0.00
   11    5    2      4.56      0.00
   11    5    3      2.46      0.00
   11    5    4     -2.51      0.00
   11    5    5      1.97      0.00
   11    5    6     -1.28      0.00
   11    5    7     -0.15      0.00
   11    5    8     -0.07      0.00
   11    5    9     -0.08      0.00
   11    5   10     -0.01      0.00
   11    5   11     -1.06      0.00
  -11    6   20      0.81      0.00
  -11    6   19     -0.93      0.00
  -11    6   18     -0.60      0.00
  -11    6   17     -2.04      0.00
  -11    6   16      1.94      0.00
  -11    6   15      0.26      0.00
  -11    6   14      0.05      0.00
  -11    6   13      1.00      0.00
  -11    6   12     -2.38      0.00
  -11    6   11      2.19      0.00
  -11    6   10      1.08      0.00
  -11    6    9      1.25      0.00
  -11    6    8     -2.12      0.00
  -11    6    7      0.59      0.00
  -11    6    6      1.58      0.00
  -11    6    5     -3.68      0.00
  -11    6    4      4.13      0.00
  -11    6    3     -4.15      0.00
  -11    6    2     -0.94      0.00
  -11    6    1      1.08      0.00
   11    6    0     -2.62      0.00
   11    6    1     -4.84      0.00
   11    6    2     -0.18      0.00
   11    6    3     -2.64      0.00
   11    6    4      1.04      0.00
   11    6    5      1.83      0.00
   11    6    6     -0.89      0.00
   11    6    7      0.55      0.00
   11    6    8      0.11      0.00
   11    6    9      0.20      0.00
   11    6   10      0.42      0.00
  -11    7   19     -2.07      0.00
  -11    7   18     -0.11      0.00
  -11    7   17      0.98      0.00
  -11    7   16     -0.23      0.00
  -11    7   15      0.51      0.00
  -11    7   14     -2.87      0.00
  -11    7   13      1.20      0.00
  -11    7   12     -0.31      0.00
  -11    7   11      0.54      0.00
  -11    7   10      1.90      0.00
  -11    7    9     -0.89      0.00
  -11    7    8      1.01      0.00
  -11    7    7     -1.43      0.00
  -11    7    6      0.44      0.00
  -11    7    5     -3.44      0.00
  -11    7    4     -0.14      0.00
  -11    7    3      1.55      0.00
  -11    7    2      1.46      0.00
  -11    7    1      3.83      0.00
   11    7    0      1.31      0.00
   11    7    1      2.81      0.00
   11    7    2      1.64      0.00
   11    7    3     -1.52      0.00
   11    7    4      0.62      0.00
   11    7    5     -1.64      0.00
   11    7    6      0.18      0.00
   11    7    7      0.68      0.00
   11    7    8      0.21      0.00
   11    7    9     -0.33      0.00
   11    7   10     -0.08      0.00
  -11    8   18      0.56      0.00
  -11    8   17      2.35      0.00
  -11    8   16     -0.73      0.00
  -11    8   15     -0.43      0.00
  -11    8   14      0.29      0.00
  -11    8   13      1.28      0.00
  -11    8   12      2.14      0.00
  -11    8   11     -1.39      0.00
  -11    8   10      0.81      0.00
  -11    8    9     -1.57      0.00
  -11    8    8     -0.82      0.00
  -11    8    7     -0.26      0.00
  -11    8    6     -0.30      0.00
  -11    8    5      2.06      0.00
  -11    8    4      1.71      0.00
  -11    8    3      0.94      0.00
  -11    8    2     -0.40      0.00
  -11    8    1      0.82      0.00
   11    8    0     -3.53      0.00
   11    8    1     -0.17      0.00
   11    8    2     -0.20      0.00
   11    8    3      0.66      0.00
   11    8    4      1.32      0.00
   11    8    5     -0.06      0.00
   11    8    6      0.66      0.00
   11    8    7     -0.74      0.00
   11    8    8     -0.42      0.00
   11    8    9     -0.80      0.00
  -11    9   17     -1.49      0.00
  -11    9   16      0.54      0.00
  -11    9   15     -1.04      0.00
  -11    9   14      1.33      0.00
  -11    9   13     -0.26      0.00
  -11    9   12      0.05      0.00
  -11    9   11     -1.58      0.00
  -11    9   10     -0.81      0.00
  -11    9    9      1.20      0.00
  -11    9    8     -0.46      0.00
  -11    9    7      1.52      0.00
  -11    9    6      0.11      0.00
  -11    9    5     -0.28      0.00
  -11    9    4      0.62      0.00
  -11    9    3     -1.28      0.00
  -11    9    2     -1.85      0.00
  -11    9    1      1.04      0.00
   11    9    0      1.24      0.00
   11    9    1      0.10      0.00
   11    9    2     -1.36      0.00
   11    9    3     -1.33      0.00
   11    9    4     -0.92      0.00
   11    9    5     -0.61      0.00
   11    9    6      1.06      0.00
   11    9    7      0.13      0.00
   11    9    8      0.59      0.00
  -11   10   16      1.21      0.00
  -11   10   15      0.34      0.00
  -11   10   14     -0.36      0.00
  -11   10   13     -0.86      0.00
  -11   10   12     -0.80      0.00
  -11   10   11      1.31      0.00
  -11   10   10     -0.44      0.00
  -11   10    9      0.23      0.00
  -11   10    8     -1.13      0.00
  -11   10    7     -0.26      0.00
  -11   10    6      0.78      0.00
  -11   10    5     -0.79      0.00
  -11   10    4      0.41      0.00
  -11   10    3      0.31      0.00
  -11   10    2     -1.03      0.00
  -11   10    1      0.60      0.00
   11   10    0      0.23      0.00
   11   10    1      1.31      0.00
   11   10    2      0.81      0.00
   11   10    3      0.83      0.00
   11   10    4      0.29      0.00
   11   10    5      0.48      0.00
   11   10    6     -0.02      0.00
   11   10    7     -1.03      0.00
  -11   11   15      1.08      0.00
  -11   11   14     -0.01      0.00
  -11   11   13      0.36      0.00
  -11   11   12      0.19      0.00
  -11   11   11     -0.07      0.00
  -11   11   10      0.18      0.00
  -11   11    9     -0.44      0.00
  -11   11    8      0.35      0.00
  -11   11    7      0.65      0.00
  -11   11    6      1.06      0.00
  -11   11    5     -0.65      0.00
  -11   11    4     -1.00      0.00
  -11   11    3     -0.71      0.00
  -11   11    2      0.15      0.00
  -11   11    1     -0.47      0.00
   11   11    0     -0.08      0.00
   11   11    1      0.19      0.00
   11   11    2     -2.22      0.00
   11   11    3     -0.18      0.00
   11   11    4     -0.44      0.00
   11   11    5      0.23      0.00
   11   11    6     -0.16      0.00
  -11   12   13     -0.92      0.00
  -11   12   12      0.07      0.00
  -11   12   11     -2.44      0.00
  -11   12   10      0.85      0.00
  -11   12    9      1.46      0.00
  -11   12    8      0.29      0.00
  -11   12    7     -0.73      0.00
  -11   12    6     -0.83      0.00
  -11   12    5     -1.44      0.00
  -11   12    4      0.50      0.00
  -11   12    3     -0.12      0.00
  -11   12    2     -0.19      0.00
  -11   12    1      1.51      0.00
   11   12    0      0.34      0.00
   11   12    1      0.06      0.00
   11   12    2      0.21      0.00
   11   12    3      1.61      0.00
   11   12    4     -1.19      0.00
  -11   13   11      0.94      0.00
  -11   13   10      0.21      0.00
  -11   13    8     -1.81      0.00
  -11   13    7     -1.38      0.00
  -11   13    6     -0.14      0.00
  -11   13    5      0.67      0.00
  -11   13    4      0.35      0.00
  -11   13    3      1.63      0.00
  -11   13    2     -2.33      0.00
  -11   13    1      0.88      0.00
   11   13    0      0.22      0.00
   11   13    1     -0.79      0.00
  -11   14    6      0.81      0.00
  -11   14    5      1.55      0.00
  -11   14    4     -0.74      0.00
  -11   14    3      1.46      0.00
  -12    0   20     -0.71      0.00
  -12    0   18     -1.88      0.00
  -12    0   16      0.22      0.00
  -12    0   14      0.69      0.00
  -12    0   12      6.09      0.00
  -12    0   10     -2.00      0.00
  -12    0    8     -0.17      0.00
  -12    0    6      5.90      0.00
  -12    0    4     -2.08      0.00
  -12    0    2     -3.28      0.00
   12    0    0      4.68      0.00
   12    0    2      3.35      0.00
   12    0    4     -3.19      0.00
   12    0    6     -1.39      0.00
   12    0    8      0.72      0.00
   12    0   10      3.34      0.00
  -12    1   21      0.69      0.00
  -12    1   20     -0.68      0.00
  -12    1   19      0.44      0.00
  -12    1   18      1.29      0.00
  -12    1   17      0.50      0.00
  -12    1   16      0.45      0.00
  -12    1   15      0.40      0.00
  -12    1   14      2.79      0.00
  -12    1   13     -1.97      0.00
  -12    1   12      0.86      0.00
  -12    1   11      0.91      0.00
  -12    1   10     -5.57      0.00
  -12    1    9      0.91      0.00
  -12    1    8      1.27      0.00
  -12    1    7     -5.92      0.00
  -12    1    6     -0.45      0.00
  -12    1    5     -3.72      0.00
  -12    1    4      0.73      0.00
  -12    1    3      5.39      0.00
  -12    1    2      1.55      0.00
  -12    1    1      3.26      0.00
   12    1    0     -0.36      0.00
   12    1    1     -4.44      0.00
   12    1    2      3.50      0.00
   12    1    3     -1.09      0.00
   12    1    4      1.10      0.00
   12    1    5      2.27      0.00
   12    1    6     -1.55      0.00
   12    1    7     -0.16      0.00
   12    1    8     -1.01      0.00
   12    1    9     -1.46      0.00
   12    1   10     -1.91      0.00
   12    1   11     -0.30      0.00
  -12    2   21     -0.47      0.00
  -12    2   20      0.46      0.00
  -12    2   19     -0.86      0.00
  -12    2   18      0.82      0.00
  -12    2   17      0.03      0.00
  -12    2   16     -1.13      0.00
  -12    2   15     -0.65      0.00
  -12    2   14      1.65      0.00
  -12    2   13     -1.06      0.00
  -12    2   12     -5.16      0.00
  -12    2   11      1.36      0.00
  -12    2   10     -2.54      0.00
  -12    2    9     -1.40      0.00
  -12    2    8      3.99      0.00
  -12    2    7      0.10      0.00
  -12    2    6      7.85      0.00
  -12    2    5      3.40      0.00
  -12    2    4     -1.74      0.00
  -12    2    3      3.34      0.00
  -12    2    2     -8.24      0.00
  -12    2    1     -3.42      0.00
   12    2    0     -0.06      0.00
   12    2    1      2.08      0.00
   12    2    2      2.47      0.00
   12    2    3     -2.26      0.00
   12    2    4      0.42      0.00
   12    2    5     -0.45      0.00
   12    2    6     -0.34      0.00
   12    2    7      1.50      0.00
   12    2    8      1.21      0.00
   12    2    9     -0.57      0.00
   12    2   10     -0.10      0.00
   12    2   11      0.91      0.00
  -12    3   21     -1.82      0.00
  -12    3   20      0.96      0.00
  -12    3   19     -0.32      0.00
  -12    3   18     -1.00      0.00
  -12    3   17      0.38      0.00
  -12    3   16      0.31      0.00
  -12    3   15     -0.14      0.00
  -12    3   14     -2.00      0.00
  -12    3   13      0.77      0.00
  -12    3   12     -1.43      0.00
  -12    3   11      3.23      0.00
  -12    3   10      5.94      0.00
  -12    3    9      1.58      0.00
  -12    3    8      4.57      0.00
  -12    3    7     -2.85      0.00
  -12    3    6     -2.77      0.00
  -12    3    5     -1.81      0.00
  -12    3    4    -10.70      0.00
  -12    3    3      4.91      0.00
  -12    3    2      0.66      0.00
  -12    3    1      0.10      0.00
   12    3    0     -5.58      0.00
   12    3    1     -1.21      0.00
   12    3    2     -1.65      0.00
   12    3    3      0.91      0.00
   12    3    4      1.30      0.00
   12    3    5     -0.03      0.00
   12    3    6     -0.51      0.00
   12    3    7     -0.01      0.00
   12    3    8      0.36      0.00
   12    3    9     -1.43      0.00
   12    3   10      1.42      0.00
   12    3   11      1.11      0.00
  -12    4   21      0.43      0.00
  -12    4   20     -0.18      0.00
  -12    4   19      0.58      0.00
  -12    4   18     -1.15      0.00
  -12    4   17      1.20      0.00
  -12    4   16     -0.32      0.00
  -12    4   15      0.54      0.00
  -12    4   14     -1.17      0.00
  -12    4   13      1.61      0.00
  -12    4   12      3.69      0.00
  -12    4   11     -0.70      0.00
  -12    4   10      0.07      0.00
  -12    4    9     -5.55      0.00
  -12    4    8     -2.54      0.00
  -12    4    7     -3.58      0.00
  -12    4    6     -3.81      0.00
  -12    4    5      8.08      0.00
  -12    4    4     -1.75      0.00
  -12    4    3      4.46      0.00
  -12    4    2      3.56      0.00
  -12    4    1     -5.37      0.00
   12    4    0      2.90      0.00
   12    4    1      1.83      0.00
   12    4    2     -0.45      0.00
   12    4    3     -0.32      0.00
   12    4    4     -2.41      0.00
   12    4    5      0.82      0.00
   12    4    6     -0.51      0.00
   12    4    7      0.60      0.00
   12    4    8     -0.09      0.00
   12    4    9     -0.75      0.00
   12    4   10     -0.63      0.00
  -12    5   20     -0.81      0.00
  -12    5   19      1.26      0.00
  -12    5   18      0.36      0.00
  -12    5   17      0.81      0.00
  -12    5   16     -0.34      0.00
  -12    5   15     -0.82      0.00
  -12    5   14      1.63      0.00
  -12    5   13     -1.64      0.00
  -12    5   12      0.00      0.00
  -12    5   11     -3.00      0.00
  -12    5   10     -2.33      0.00
  -12    5    9     -0.65      0.00
  -12    5    8      1.89      0.00
  -12    5    7      5.09      0.00
  -12    5    6     -2.10      0.00
  -12    5    5      4.64      0.00
  -12    5    4     -1.12      0.00
  -12    5    3     -4.88      0.00
  -12    5    2      3.75      0.00
  -12    5    1     -4.29      0.00
   12    5    0     -2.78      0.00
   12    5    1     -1.45      0.00
   12    5    2      3.24      0.00
   12    5    3      0.28      0.00
   12    5    4      0.38      0.00
   12    5    5      1.21      0.00
   12    5    6     -1.27      0.00
   12    5    7      0.30      0.00
   12    5    8      0.08      0.00
   12    5    9      0.56      0.00
   12    5   10      0.75      0.00
  -12    6   20      1.49      0.00
  -12    6   19     -0.20      0.00
  -12    6   18     -0.22      0.00
  -12    6   17     -1.89      0.00
  -12    6   16      0.82      0.00
  -12    6   15     -1.31      0.00
  -12    6   14      1.93      0.00
  -12    6   13      0.04      0.00
  -12    6   12     -1.25      0.00
  -12    6   11      2.13      0.00
  -12    6   10      0.26      0.00
  -12    6    9      1.61      0.00
  -12    6    8     -1.07      0.00
  -12    6    7      1.26      0.00
  -12    6    6     -2.17      0.00
  -12    6    5     -1.19      0.00
  -12    6    4      2.32      0.00
  -12    6    3     -4.12      0.00
  -12    6    2      2.15      0.00
  -12    6    1     -2.68      0.00
   12    6    0      0.29      0.00
   12    6    1     -0.67      0.00
   12    6    2     -0.65      0.00
   12    6    3     -3.55      0.00
   12    6    4      1.51      0.00
   12    6    5     -0.36      0.00
   12    6    6     -0.07      0.00
   12    6    7      0.70      0.00
   12    6    8     -0.19      0.00
   12    6    9     -0.12      0.00
  -12    7   19     -1.97      0.00
  -12    7   18     -0.12      0.00
  -12    7   17      0.45      0.00
  -12    7   16      0.83      0.00
  -12    7   15     -0.14      0.00
  -12    7   14     -0.94      0.00
  -12    7   13      0.30      0.00
  -12    7   12     -2.63      0.00
  -12    7   11      0.43      0.00
  -12    7   10     -0.26      0.00
  -12    7    9     -0.48      0.00
  -12    7    8      0.75      0.00
  -12    7    7     -0.20      0.00
  -12    7    6      1.05      0.00
  -12    7    5     -1.94      0.00
  -12    7    4     -0.10      0.00
  -12    7    3     -0.80      0.00
  -12    7    2      2.11      0.00
  -12    7    1      0.34      0.00
   12    7    0     -0.72      0.00
   12    7    1      2.79      0.00
   12    7    2      1.21      0.00
   12    7    3      0.77      0.00
   12    7    4      1.28      0.00
   12    7    5     -1.34      0.00
   12    7    6      0.16      0.00
   12    7    7      0.10      0.00
   12    7    8     -0.33      0.00
   12    7    9     -0.12      0.00
  -12    8   18     -0.71      0.00
  -12    8   17      1.93      0.00
  -12    8   16     -0.79      0.00
  -12    8   15     -0.72      0.00
  -12    8   14     -0.33      0.00
  -12    8   13      1.02      0.00
  -12    8   12      0.63      0.00
  -12    8   11      0.34      0.00
  -12    8   10      2.17      0.00
  -12    8    9     -1.20      0.00
  -12    8    8      0.90      0.00
  -12    8    7     -1.26      0.00
  -12    8    6     -1.44      0.00
  -12    8    5      0.99      0.00
  -12    8    4      0.84      0.00
  -12    8    3      0.61      0.00
  -12    8    2      1.70      0.00
  -12    8    1      0.22      0.00
   12    8    0     -2.34      0.00
   12    8    1     -0.81      0.00
   12    8    2     -2.12      0.00
   12    8    3     -0.35      0.00
   12    8    4     -0.41      0.00
   12    8    5      0.41      0.00
   12    8    6      1.00      0.00
   12    8    7     -0.20      0.00
   12    8    8     -0.44      0.00
  -12    9   17      0.41      0.00
  -12    9   16      0.20      0.00
  -12    9   15     -0.95      0.00
  -12    9   14      1.28      0.00
  -12    9   13      0.56      0.00
  -12    9   12      1.03      0.00
  -12    9   11     -1.53      0.00
  -12    9   10      0.65      0.00
  -12    9    9     -0.33      0.00
  -12    9    8     -0.15      0.00
  -12    9    7      1.72      0.00
  -12    9    6     -0.27      0.00
  -12    9    5      1.06      0.00
  -12    9    4      1.14      0.00
  -12    9    3     -1.45      0.00
  -12    9    2     -0.56      0.00
  -12    9    1      0.32      0.00
   12    9    0      1.72      0.00
   12    9    1      1.83      0.00
   12    9    2      0.37      0.00
   12    9    3      0.43      0.00
   12    9    4     -1.64      0.00
   12    9    5      0.21      0.00
   12    9    6     -0.20      0.00
   12    9    7      0.24      0.00
  -12   10   16      0.95      0.00
  -12   10   15     -0.38      0.00
  -12   10   14      0.03      0.00
  -12   10   13     -1.40      0.00
  -12   10   12     -0.39      0.00
  -12   10   11      0.19      0.00
  -12   10   10     -0.56      0.00
  -12   10    9     -0.01      0.00
  -12   10    8     -0.92      0.00
  -12   10    7     -0.33      0.00
  -12   10    6      0.28      0.00
  -12   10    5     -1.04      0.00
  -12   10    4      0.99      0.00
  -12   10    3     -0.62      0.00
  -12   10    2     -0.51      0.00
  -12   10    1      1.36      0.00
   12   10    0     -1.09      0.00
   12   10    1     -0.46      0.00
   12   10    2     -0.58      0.00
   12   10    3      1.12      0.00
   12   10    4      0.03      0.00
   12   10    5      1.33      0.00
   12   10    6     -1.16      0.00
  -12   11   15      0.58      0.00
  -12   11   14     -0.36      0.00
  -12   11   13      0.53      0.00
  -12   11   12     -0.27      0.00
  -12   11   11      1.54      0.00
  -12   11   10      0.48      0.00
  -12   11    9     -1.33      0.00
  -12   11    8      0.76      0.00
  -12   11    7      0.37      0.00
  -12   11    6      1.73      0.00
  -12   11    5     -0.14      0.00
  -12   11    4     -0.37      0.00
  -12   11    3     -0.16      0.00
  -12   11    2     -0.19      0.00
  -12   11    1      0.32      0.00
   12   11    0      1.07      0.00
   12   11    1     -0.41      0.00
   12   11    2     -1.28      0.00
   12   11    3      0.38      0.00
   12   11    4     -1.50      0.00
  -12   12   13      1.37      0.00
  -12   12   12     -0.32      0.00
  -12   12   11     -2.43      0.00
  -12   12   10      0.85      0.00
  -12   12    9     -0.01      0.00
  -12   12    8      0.94      0.00
  -12   12    7      0.37      0.00
  -12   12    6     -0.61      0.00
  -12   12    5     -1.42      0.00
  -12   12    4     -0.22      0.00
  -12   12    3     -1.16      0.00
  -12   12    2      1.06      0.00
  -12   12    1      0.27      0.00
   12   12    0      0.45      0.00
   12   12    1     -0.77      0.00
   12   12    2      1.72      0.00
  -12   13   10      1.58      0.00
  -12   13    9      1.01      0.00
  -12   13    8     -0.94      0.00
  -12   13    7     -1.74      0.00
  -12   13    6     -0.56      0.00
  -12   13    5     -1.05      0.00
  -12   13    4      1.53      0.00
  -12   13    3     -0.19      0.00
  -12   13    2     -0.75      0.00
  -12   13    1      0.84      0.00
   12   13    0      1.22      0.00
  -13    0   20     -0.39      0.00
  -13    0   18     -1.89      0.00
  -13    0   16     -0.14      0.00
  -13    0   14     -0.60      0.00
  -13    0   12      3.85      0.00
  -13    0   10      1.39      0.00
  -13    0    8     -5.59      0.00
  -13    0    6      1.20      0.00
  -13    0    4      3.97      0.00
  -13    0    2     -1.15      0.00
   13    0    0     -0.53      0.00
   13    0    2      3.77      0.00
   13    0    4      0.27      0.00
   13    0    6     -1.79      0.00
   13    0    8     -1.55      0.00
   13    0   10      0.19      0.00
  -13    1   21      0.46      0.00
  -13    1   20     -1.09      0.00
  -13    1   19      0.20      0.00
  -13    1   18      0.48      0.00
  -13    1   17     -0.08      0.00
  -13    1   16      0.86      0.00
  -13    1   15      0.66      0.00
  -13    1   14      0.54      0.00
  -13    1   13     -1.82      0.00
  -13    1   12      2.73      0.00
  -13    1   11     -0.80      0.00
  -13    1   10     -3.87      0.00
  -13    1    9      3.76      0.00
  -13    1    8     -0.94      0.00
  -13    1    7      0.27      0.00
  -13    1    6      1.87      0.00
  -13    1    5     -5.62      0.00
  -13    1    4      2.73      0.00
  -13    1    3     -1.96      0.00
  -13    1    2      1.64      0.00
  -13    1    1      4.73      0.00
   13    1    0     -0.94      0.00
   13    1    1     -0.34      0.00
   13    1    2      0.90      0.00
   13    1    3     -2.70      0.00
   13    1    4      1.77      0.00
   13    1    5      0.39      0.00
   13    1    6     -0.33      0.00
   13    1    7      1.30      0.00
   13    1    8      0.20      0.00
   13    1    9     -0.37      0.00
   13    1   10     -2.77      0.00
  -13    2   21      0.91      0.00
  -13    2   20      0.80      0.00
  -13    2   19     -0.08      0.00
  -13    2   18      1.84      0.00
  -13    2   17     -0.17      0.00
  -13    2   16     -1.20      0.00
  -13    2   15      0.12      0.00
  -13    2   14      1.66      0.00
  -13    2   13     -0.90      0.00
  -13    2   12     -1.02      0.00
  -13    2   11      1.37      0.00
  -13    2   10     -4.59      0.00
  -13    2    9     -0.12      0.00
  -13    2    8     -0.99      0.00
  -13    2    7     -3.35      0.00
  -13    2    6      6.13      0.00
  -13    2    5     -2.69      0.00
  -13    2    4      5.49      0.00
  -13    2    3      2.46      0.00
  -13    2    2     -5.50      0.00
  -13    2    1      1.15      0.00
   13    2    0     -3.78      0.00
   13    2    1      2.61      0.00
   13    2    2      1.11      0.00
   13    2    3     -0.61      0.00
   13    2    4      1.16      0.00
   13    2    5     -1.98      0.00
   13    2    6     -0.79      0.00
   13    2    7      0.39      0.00
   13    2    8      0.56      0.00
   13    2    9     -0.14      0.00
   13    2   10      2.71      0.00
  -13    3   21     -1.41      0.00
  -13    3   20      0.58      0.00
  -13    3   19     -1.26      0.00
  -13    3   18     -0.54      0.00
  -13    3   17     -0.13      0.00
  -13    3   16     -0.35      0.00
  -13    3   15      0.37      0.00
  -13    3   14     -0.22      0.00
  -13    3   13     -0.16      0.00
  -13    3   12     -2.81      0.00
  -13    3   11      1.01      0.00
  -13    3   10      1.58      0.00
  -13    3    9      1.74      0.00
  -13    3    8      5.32      0.00
  -13    3    7     -0.76      0.00
  -13    3    6      5.34      0.00
  -13    3    5     -3.65      0.00
  -13    3    4     -6.02      0.00
  -13    3    3      2.90      0.00
  -13    3    2     -6.03      0.00
  -13    3    1      2.64      0.00
   13    3    0     -2.47      0.00
   13    3    1     -0.20      0.00
   13    3    2     -2.78      0.00
   13    3    3      0.19      0.00
   13    3    4      0.87      0.00
   13    3    5      0.76      0.00
   13    3    6      0.13      0.00
   13    3    7      0.71      0.00
   13    3    8     -1.81      0.00
   13    3    9     -1.42      0.00
   13    3   10      0.53      0.00
  -13    4   20      0.50      0.00
  -13    4   19      0.17      0.00
  -13    4   18     -0.53      0.00
  -13    4   17      0.58      0.00
  -13    4   16      0.18      0.00
  -13    4   15      0.54      0.00
  -13    4   14     -1.51      0.00
  -13    4   13      0.36      0.00
  -13    4   12      2.16      0.00
  -13    4   11      1.51      0.00
  -13    4   10      2.78      0.00
  -13    4    9     -1.25      0.00
  -13    4    8     -0.24      0.00
  -13    4    7     -5.68      0.00
  -13    4    6     -2.94      0.00
  -13    4    5      1.49      0.00
  -13    4    4     -3.88      0.00
  -13    4    3      7.79      0.00
  -13    4    2     -0.29      0.00
  -13    4    1      0.16      0.00
   13    4    0      1.45      0.00
   13    4    1      2.21      0.00
   13    4    2      1.68      0.00
   13    4    3      0.18      0.00
   13    4    4     -1.32      0.00
   13    4    5     -0.15      0.00
   13    4    6     -0.28      0.00
   13    4    7      1.13      0.00
   13    4    8     -0.37      0.00
   13    4    9      0.79      0.00
  -13    5   20     -1.27      0.00
  -13    5   19      0.27      0.00
  -13    5   18     -0.05      0.00
  -13    5   17      0.91      0.00
  -13    5   16     -0.41      0.00
  -13    5   15      0.00      0.00
  -13    5   14      0.82      0.00
  -13    5   13     -0.36      0.00
  -13    5   12      1.38      0.00
  -13    5   11     -1.87      0.00
  -13    5   10     -2.29      0.00
  -13    5    9     -2.37      0.00
  -13    5    8      0.29      0.00
  -13    5    7      1.17      0.00
  -13    5    6      0.52      0.00
  -13    5    5      5.71      0.00
  -13    5    4     -2.55      0.00
  -13    5    3      1.18      0.00
  -13    5    2     -0.69      0.00
  -13    5    1     -2.57      0.00
   13    5    0     -2.83      0.00
   13    5    1     -2.25      0.00
   13    5    2      0.32      0.00
   13    5    3     -1.27      0.00
   13    5    4      1.80      0.00
   13    5    5      0.12      0.00
   13    5    6     -0.15      0.00
   13    5    7      0.30      0.00
   13    5    8      0.31      0.00
   13    5    9      0.38      0.00
  -13    6   19      0.44      0.00
  -13    6   18      0.19      0.00
  -13    6   17     -0.99      0.00
  -13    6   16     -0.45      0.00
  -13    6   15     -1.07      0.00
  -13    6   14      1.38      0.00
  -13    6   13     -0.99      0.00
  -13    6   12      0.11      0.00
  -13    6   11      0.77      0.00
  -13    6   10     -0.16      0.00
  -13    6    9      1.36      0.00
  -13    6    8      0.93      0.00
  -13    6    7      0.94      0.00
  -13    6    6     -1.83      0.00
  -13    6    5      0.89      0.00
  -13    6    4     -0.68      0.00
  -13    6    3     -1.18      0.00
  -13    6    2      1.22      0.00
  -13    6    1     -2.27      0.00
   13    6    0      1.87      0.00
   13    6    1      2.58      0.00
   13    6    2     -0.53      0.00
   13    6    3     -0.97      0.00
   13    6    4      0.68      0.00
   13    6    5     -1.29      0.00
   13    6    6     -0.06      0.00
   13    6    7      0.59      0.00
   13    6    8     -0.26      0.00
  -13    7   19     -1.58      0.00
  -13    7   18      0.22      0.00
  -13    7   17      0.33      0.00
  -13    7   16      0.91      0.00
  -13    7   15      0.54      0.00
  -13    7   14      1.44      0.00
  -13    7   13     -0.39      0.00
  -13    7   12     -1.35      0.00
  -13    7   11      0.68      0.00
  -13    7   10     -1.66      0.00
  -13    7    9     -0.50      0.00
  -13    7    8     -0.83      0.00
  -13    7    7     -0.03      0.00
  -13    7    6      0.65      0.00
  -13    7    5     -0.32      0.00
  -13    7    4     -0.79      0.00
  -13    7    3     -0.93      0.00
  -13    7    2      0.64      0.00
  -13    7    1     -2.04      0.00
   13    7    0     -2.38      0.00
   13    7    1      0.12      0.00
   13    7    2     -1.19      0.00
   13    7    3      1.33      0.00
   13    7    4      0.34      0.00
   13    7    5     -0.34      0.00
   13    7    6     -0.12      0.00
   13    7    7     -0.38      0.00
   13    7    8     -0.55      0.00
  -13    8   18     -0.60      0.00
  -13    8   17      1.74      0.00
  -13    8   16     -0.65      0.00
  -13    8   15     -0.65      0.00
  -13    8   14     -0.92      0.00
  -13    8   13     -0.84      0.00
  -13    8   12     -1.63      0.00
  -13    8   11      0.84      0.00
  -13    8   10      0.16      0.00
  -13    8    9      0.21      0.00
  -13    8    8      1.36      0.00
  -13    8    7     -0.72      0.00
  -13    8    6     -0.48      0.00
  -13    8    5      0.13      0.00
  -13    8    4     -0.96      0.00
  -13    8    3      0.22      0.00
  -13    8    2      2.86      0.00
  -13    8    1     -1.28      0.00
   13    8    0      0.86      0.00
   13    8    1      0.38      0.00
   13    8    2     -1.17      0.00
   13    8    3     -0.10      0.00
   13    8    4     -1.30      0.00
   13    8    5      0.71      0.00
   13    8    6      0.78      0.00
   13    8    7     -0.13      0.00
  -13    9   17      1.61      0.00
  -13    9   16     -0.82      0.00
  -13    9   15     -0.64      0.00
  -13    9   14      0.57      0.00
  -13    9   13      1.36      0.00
  -13    9   12      1.11      0.00
  -13    9   11      0.35      0.00
  -13    9   10      0.91      0.00
  -13    9    9     -0.19      0.00
  -13    9    8      0.60      0.00
  -13    9    7      0.28      0.00
  -13    9    6     -1.19      0.00
  -13    9    5      1.05      0.00
  -13    9    4      0.55      0.00
  -13    9    3     -1.25      0.00
  -13    9    2      1.12      0.00
  -13    9    1     -0.79      0.00
   13    9    0      0.37      0.00
   13    9    1      1.31      0.00
   13    9    2      1.13      0.00
   13    9    3      0.84      0.00
   13    9    4     -0.89      0.00
   13    9    5      0.68      0.00
   13    9    6     -1.30      0.00
  -13   10   16      0.05      0.00
  -13   10   15     -0.72      0.00
  -13   10   14      0.28      0.00
  -13   10   13     -1.18      0.00
  -13   10   12     -0.09      0.00
  -13   10   11     -0.42      0.00
  -13   10   10     -0.72      0.00
  -13   10    9      0.21      0.00
  -13   10    8     -0.71      0.00
  -13   10    7      0.08      0.00
  -13   10    6     -0.82      0.00
  -13   10    5     -0.18      0.00
  -13   10    4      0.85      0.00
  -13   10    3     -0.77      0.00
  -13   10    2      0.34      0.00
  -13   10    1      0.25      0.00
   13   10    0     -0.77      0.00
   13   10    1     -1.26      0.00
   13   10    2     -0.95      0.00
   13   10    3     -0.08      0.00
   13   10    4      0.83      0.00
   13   10    5      0.83      0.00
  -13   11   14      0.08      0.00
  -13   11   13     -0.82      0.00
  -13   11   12     -0.46      0.00
  -13   11   11      2.29      0.00
  -13   11   10     -0.37      0.00
  -13   11    9     -1.07      0.00
  -13   11    8     -0.70      0.00
  -13   11    7     -0.15      0.00
  -13   11    6      1.34      0.00
  -13   11    5      0.57      0.00
  -13   11    4      0.81      0.00
  -13   11    3      0.21      0.00
  -13   11    2      0.41      0.00
  -13   11    1      0.51      0.00
   13   11    0      1.22      0.00
   13   11    1     -0.28      0.00
   13   11    2      1.01      0.00
   13   11    3      0.09      0.00
  -13   12   12      0.04      0.00
  -13   12   11      0.22      0.00
  -13   12   10     -0.03      0.00
  -13   12    9     -0.74      0.00
  -13   12    8      1.50      0.00
  -13   12    7      1.23      0.00
  -13   12    6      1.04      0.00
  -13   12    5     -0.44      0.00
  -13   12    4     -1.26      0.00
  -13   12    3     -0.79      0.00
  -13   12    2      0.47      0.00
  -13   12    1     -0.39      0.00
   13   12    0     -0.36      0.00
   13   12    1     -1.62      0.00
  -13   13    8      0.61      0.00
  -13   13    7     -0.67      0.00
  -13   13    6     -0.82      0.00
  -13   13    5     -0.60      0.00
  -13   13    4      0.40      0.00
  -13   13    3     -0.86      0.00
  -14    0   20      0.27      0.00
  -14    0   18     -1.60      0.00
  -14    0   16     -0.67      0.00
  -14    0   14     -0.22      0.00
  -14    0   12      2.47      0.00
  -14    0   10      4.38      0.00
  -14    0    8     -3.61      0.00
  -14    0    6     -5.48      0.00
  -14    0    4      1.17      0.00
  -14    0    2      1.68      0.00
   14    0    0     -2.68      0.00
   14    0    2      1.64      0.00
   14    0    4      2.91      0.00
   14    0    6      0.18      0.00
   14    0    8     -2.28      0.00
  -14    1   21     -0.12      0.00
  -14    1   20     -1.26      0.00
  -14    1   19     -0.19      0.00
  -14    1   18     -0.33      0.00
  -14    1   17      0.05      0.00
  -14    1   16      1.85      0.00
  -14    1   15      0.81      0.00
  -14    1   14     -0.14      0.00
  -14    1   13     -0.58      0.00
  -14    1   12      1.52      0.00
  -14    1   11     -2.62      0.00
  -14    1   10     -1.56      0.00
  -14    1    9      1.40      0.00
  -14    1    8     -2.84      0.00
  -14    1    7      4.81      0.00
  -14    1    6     -0.60      0.00
  -14    1    5     -0.53      0.00
  -14    1    4      3.01      0.00
  -14    1    3     -4.73      0.00
  -14    1    2      1.42      0.00
  -14    1    1      0.65      0.00
   14    1    0     -0.62      0.00
   14    1    1      1.80      0.00
   14    1    2     -1.09      0.00
   14    1    3     -1.77      0.00
   14    1    4      0.73      0.00
   14    1    5     -1.63      0.00
   14    1    6      0.64      0.00
   14    1    7      0.85      0.00
   14    1    8      1.61      0.00
   14    1    9      1.39      0.00
  -14    2   21      0.55      0.00
  -14    2   20     -0.28      0.00
  -14    2   19      0.49      0.00
  -14    2   18      1.96      0.00
  -14    2   17     -0.98      0.00
  -14    2   16     -0.56      0.00
  -14    2   15     -0.23      0.00
  -14    2   14     -0.77      0.00
  -14    2   13     -0.38      0.00
  -14    2   12      0.83      0.00
  -14    2   11      0.67      0.00
  -14    2   10     -2.41      0.00
  -14    2    9      2.83      0.00
  -14    2    8     -2.99      0.00
  -14    2    7     -0.63      0.00
  -14    2    6      0.63      0.00
  -14    2    5     -4.29      0.00
  -14    2    4      6.44      0.00
  -14    2    3     -1.46      0.00
  -14    2    2      1.12      0.00
  -14    2    1      2.66      0.00
   14    2    0     -3.51      0.00
   14    2    1      0.60      0.00
   14    2    2     -0.79      0.00
   14    2    3      1.34      0.00
   14    2    4      1.15      0.00
   14    2    5     -0.45      0.00
   14    2    6     -0.63      0.00
   14    2    7     -0.11      0.00
   14    2    8     -1.47      0.00
   14    2    9     -0.66      0.00
  -14    3   21      0.58      0.00
  -14    3   20      0.69      0.00
  -14    3   19     -0.30      0.00
  -14    3   18      0.79      0.00
  -14    3   17     -0.42      0.00
  -14    3   16     -0.95      0.00
  -14    3   15      0.98      0.00
  -14    3   14      0.19      0.00
  -14    3   13      0.52      0.00
  -14    3   12     -1.51      0.00
  -14    3   11     -0.37      0.00
  -14    3   10     -1.80      0.00
  -14    3    9      0.48      0.00
  -14    3    8      0.61      0.00
  -14    3    7      0.08      0.00
  -14    3    6      5.71      0.00
  -14    3    5     -3.31      0.00
  -14    3    4      1.58      0.00
  -14    3    3     -0.92      0.00
  -14    3    2     -5.72      0.00
  -14    3    1      2.70      0.00
   14    3    0      1.32      0.00
   14    3    1      1.27      0.00
   14    3    2     -2.47      0.00
   14    3    3     -0.21      0.00
   14    3    4     -0.59      0.00
   14    3    5      0.34      0.00
   14    3    6      0.71      0.00
   14    3    7      1.58      0.00
   14    3    8     -1.84      0.00
   14    3    9      0.40      0.00
  -14    4   20      0.19      0.00
  -14    4   19     -0.31      0.00
  -14    4   18     -0.80      0.00
  -14    4   17      0.39      0.00
  -14    4   16     -0.39      0.00
  -14    4   15      1.05      0.00
  -14    4   14     -1.09      0.00
  -14    4   13     -0.59      0.00
  -14    4   12      0.01      0.00
  -14    4   11      0.56      0.00
  -14    4   10      2.58      0.00
  -14    4    9      1.82      0.00
  -14    4    8      1.59      0.00
  -14    4    7     -2.69      0.00
  -14    4    6      0.19      0.00
  -14    4    5     -3.45      0.00
  -14    4    4     -1.51      0.00
  -14    4    3      4.53      0.00
  -14    4    2     -1.59      0.00
  -14    4    1      3.64      0.00
   14    4    0     -0.23      0.00
   14    4    1      0.36      0.00
   14    4    2      1.13      0.00
   14    4    3      0.95      0.00
   14    4    4      0.04      0.00
   14    4    5     -1.09      0.00
   14    4    6      0.29      0.00
   14    4    7      0.17      0.00
   14    4    8      0.54      0.00
  -14    5   20     -1.05      0.00
  -14    5   19      0.64      0.00
  -14    5   18     -0.94      0.00
  -14    5   17      0.83      0.00
  -14    5   16     -0.38      0.00
  -14    5   15      0.25      0.00
  -14    5   14     -0.18      0.00
  -14    5   13      0.15      0.00
  -14    5   12      1.44      0.00
  -14    5   11     -0.44      0.00
  -14    5   10     -0.59      0.00
  -14    5    9     -1.38      0.00
  -14    5    8     -1.42      0.00
  -14    5    7     -2.36      0.00
  -14    5    6      1.27      0.00
  -14    5    5      2.39      0.00
  -14    5    4     -0.60      0.00
  -14    5    3      3.17      0.00
  -14    5    2     -3.01      0.00
  -14    5    1      0.71      0.00
   14    5    0      0.51      0.00
   14    5    1     -0.47      0.00
   14    5    2     -1.23      0.00
   14    5    3     -1.00      0.00
   14    5    4      0.84      0.00
   14    5    5     -0.32      0.00
   14    5    6      0.39      0.00
   14    5    7     -0.65      0.00
   14    5    8      0.07      0.00
  -14    6   19      1.38      0.00
  -14    6   18      0.46      0.00
  -14    6   17     -0.43      0.00
  -14    6   16     -0.25      0.00
  -14    6   15     -0.04      0.00
  -14    6   14      0.12      0.00
  -14    6   13     -0.64      0.00
  -14    6   12      0.73      0.00
  -14    6   11     -0.17      0.00
  -14    6   10     -0.06      0.00
  -14    6    9      0.65      0.00
  -14    6    8      1.90      0.00
  -14    6    7      0.60      0.00
  -14    6    6      0.62      0.00
  -14    6    5      0.76      0.00
  -14    6    4     -1.65      0.00
  -14    6    3      0.55      0.00
  -14    6    2     -1.85      0.00
  -14    6    1      0.83      0.00
   14    6    0      0.65      0.00
   14    6    1      2.07      0.00
   14    6    2     -0.51      0.00
   14    6    3      1.00      0.00
   14    6    4      0.00      0.00
   14    6    5     -0.83      0.00
   14    6    6     -0.02      0.00
   14    6    7     -0.25      0.00
  -14    7   18      0.38      0.00
  -14    7   17     -0.93      0.00
  -14    7   16     -0.58      0.00
  -14    7   15      0.62      0.00
  -14    7   14      1.09      0.00
  -14    7   13     -0.26      0.00
  -14    7   12      1.14      0.00
  -14    7   11      0.46      0.00
  -14    7   10     -0.18      0.00
  -14    7    9     -0.76      0.00
  -14    7    8     -0.76      0.00
  -14    7    7     -0.42      0.00
  -14    7    6      0.57      0.00
  -14    7    5     -0.24      0.00
  -14    7    4     -0.58      0.00
  -14    7    3      1.15      0.00
  -14    7    2     -1.21      0.00
  -14    7    1     -0.85      0.00
   14    7    0     -1.16      0.00
   14    7    1     -1.20      0.00
   14    7    2     -1.37      0.00
   14    7    3      0.78      0.00
   14    7    4     -0.11      0.00
   14    7    5      0.32      0.00
   14    7    6      0.62      0.00
   14    7    7     -0.92      0.00
  -14    8   18      0.39      0.00
  -14    8   17      1.71      0.00
  -14    8   16     -0.03      0.00
  -14    8   15      0.68      0.00
  -14    8   14      0.19      0.00
  -14    8   13     -1.51      0.00
  -14    8   12     -0.90      0.00
  -14    8   11     -0.74      0.00
  -14    8   10     -1.33      0.00
  -14    8    9      0.28      0.00
  -14    8    8     -0.03      0.00
  -14    8    7     -0.42      0.00
  -14    8    6      0.53      0.00
  -14    8    5     -0.36      0.00
  -14    8    4     -2.20      0.00
  -14    8    3      0.82      0.00
  -14    8    2      1.48      0.00
  -14    8    1     -1.22      0.00
   14    8    0      1.60      0.00
   14    8    1      0.80      0.00
   14    8    2      0.63      0.00
   14    8    3     -0.38      0.00
   14    8    4     -1.18      0.00
   14    8    5      0.40      0.00
   14    8    6      0.24      0.00
  -14    9   17      1.34      0.00
  -14    9   16     -0.87      0.00
  -14    9   15     -0.54      0.00
  -14    9   14      0.02      0.00
  -14    9   13      0.44      0.00
  -14    9   12      0.48      0.00
  -14    9   11      0.76      0.00
  -14    9   10     -0.03      0.00
  -14    9    9      0.96      0.00
  -14    9    8      1.08      0.00
  -14    9    7     -0.34      0.00
  -14    9    6     -0.86      0.00
  -14    9    5      1.09      0.00
  -14    9    4      0.07      0.00
  -14    9    3     -0.14      0.00
  -14    9    2      0.90      0.00
  -14    9    1     -1.24      0.00
   14    9    0     -0.47      0.00
   14    9    1     -0.08      0.00
   14    9    2      0.67      0.00
   14    9    3      0.09      0.00
   14    9    4      1.04      0.00
   14    9    5      0.00      0.00
  -14   10   15      0.04      0.00
  -14   10   14      0.26      0.00
  -14   10   13      0.11      0.00
  -14   10   12      0.20      0.00
  -14   10   11     -0.55      0.00
  -14   10   10     -0.39      0.00
  -14   10    9      0.39      0.00
  -14   10    8     -0.16      0.00
  -14   10    7      0.30      0.00
  -14   10    6     -1.09      0.00
  -14   10    5      0.44      0.00
  -14   10    4     -0.11      0.00
  -14   10    3     -0.10      0.00
  -14   10    2      0.00      0.00
  -14   10    1     -0.88      0.00
   14   10    0      0.65      0.00
   14   10    1     -0.88      0.00
   14   10    2     -0.73      0.00
   14   10    3     -0.77      0.00
  -14   11   13     -2.30      0.00
  -14   11   12     -0.56      0.00
  -14   11   11      0.79      0.00
  -14   11   10     -0.51      0.00
  -14   11    9      0.19      0.00
  -14   11    8     -1.53      0.00
  -14   11    7     -0.63      0.00
  -14   11    6     -0.24      0.00
  -14   11    5      0.28      0.00
  -14   11    4      0.60      0.00
  -14   11    3     -0.28      0.00
  -14   11    2      0.65      0.00
  -14   11    1     -0.28      0.00
   14   11    0     -0.05      0.00
   14   11    1      0.40      0.00
   14   11    2      1.58      0.00
  -14   12   11      2.05      0.00
  -14   12   10     -0.44      0.00
  -14   12    9     -0.59      0.00
  -14   12    8      0.33      0.00
  -14   12    7      0.57      0.00
  -14   12    6      2.05      0.00
  -14   12    5     -0.08      0.00
  -14   12    4     -0.41      0.00
  -14   12    3      0.11      0.00
  -14   12    2     -0.17      0.00
  -14   12    1     -0.04      0.00
  -15    0   20      0.23      0.00
  -15    0   18     -1.03      0.00
  -15    0   16     -1.36      0.00
  -15    0   14     -0.77      0.00
  -15    0   12      0.43      0.00
  -15    0   10      4.15      0.00
  -15    0    8      0.71      0.00
  -15    0    6     -4.75      0.00
  -15    0    4     -2.70      0.00
  -15    0    2      2.43      0.00
   15    0    0     -0.79      0.00
   15    0    2     -1.51      0.00
   15    0    4      2.29      0.00
   15    0    6      2.77      0.00
   15    0    8      1.20      0.00
  -15    1   21      0.13      0.00
  -15    1   20     -1.12      0.00
  -15    1   19     -0.17      0.00
  -15    1   18     -1.18      0.00
  -15    1   17      0.33      0.00
  -15    1   16      1.69      0.00
  -15    1   15      0.91      0.00
  -15    1   14      0.73      0.00
  -15    1   13      0.82      0.00
  -15    1   12      0.85      0.00
  -15    1   11     -1.73      0.00
  -15    1   10      0.47      0.00
  -15    1    9     -2.21      0.00
  -15    1    8     -2.08      0.00
  -15    1    7      2.90      0.00
  -15    1    6     -2.52      0.00
  -15    1    5      3.42      0.00
  -15    1    4      1.13      0.00
  -15    1    3     -2.22      0.00
  -15    1    2      1.48      0.00
  -15    1    1     -2.36      0.00
   15    1    0      0.12      0.00
   15    1    1      1.97      0.00
   15    1    2     -0.95      0.00
   15    1    3      0.49      0.00
   15    1    4     -0.65      0.00
   15    1    5     -1.50      0.00
   15    1    6      0.09      0.00
   15    1    7     -1.33      0.00
   15    1    8      1.59      0.00
  -15    2   21     -0.53      0.00
  -15    2   20     -0.88      0.00
  -15    2   19      0.66      0.00
  -15    2   18      1.25      0.00
  -15    2   17     -0.79      0.00
  -15    2   16      0.98      0.00
  -15    2   15     -0.81      0.00
  -15    2   14     -1.49      0.00
  -15    2   13     -0.49      0.00
  -15    2   12     -0.05      0.00
  -15    2   11     -0.64      0.00
  -15    2   10      0.02      0.00
  -15    2    9      2.17      0.00
  -15    2    8     -0.89      0.00
  -15    2    7      2.78      0.00
  -15    2    6     -2.28      0.00
  -15    2    5     -1.45      0.00
  -15    2    4      2.15      0.00
  -15    2    3     -4.23      0.00
  -15    2    2      4.11      0.00
  -15    2    1      0.59      0.00
   15    2    0     -1.53      0.00
   15    2    1     -0.39      0.00
   15    2    2     -2.03      0.00
   15    2    3      1.30      0.00
   15    2    4      0.01      0.00
   15    2    5      0.84      0.00
   15    2    6      0.30      0.00
   15    2    7      0.17      0.00
   15    2    8     -2.34      0.00
  -15    3   20      0.65      0.00
  -15    3   19     -0.07      0.00
  -15    3   18      1.33      0.00
  -15    3   17     -1.39      0.00
  -15    3   16     -0.27      0.00
  -15    3   15     -0.14      0.00
  -15    3   14     -0.36      0.00
  -15    3   13      1.63      0.00
  -15    3   12      0.15      0.00
  -15    3   11      0.24      0.00
  -15    3   10     -1.27      0.00
  -15    3    9      0.13      0.00
  -15    3    8     -2.43      0.00
  -15    3    7      0.58      0.00
  -15    3    6      0.84      0.00
  -15    3    5     -1.72      0.00
  -15    3    4      4.45      0.00
  -15    3    3     -2.94      0.00
  -15    3    2     -0.94      0.00
  -15    3    1      0.36      0.00
   15    3    0      2.42      0.00
   15    3    1      1.11      0.00
   15    3    2     -0.69      0.00
   15    3    3      0.39      0.00
   15    3    4     -0.92      0.00
   15    3    5     -1.06      0.00
   15    3    6      2.02      0.00
   15    3    7      1.32      0.00
   15    3    8      0.72      0.00
  -15    4   20      0.91      0.00
  -15    4   19     -0.38      0.00
  -15    4   18      0.28      0.00
  -15    4   17      0.07      0.00
  -15    4   16      0.12      0.00
  -15    4   15      1.30      0.00
  -15    4   14     -0.62      0.00
  -15    4   13      0.07      0.00
  -15    4   12     -0.87      0.00
  -15    4   11     -1.17      0.00
  -15    4   10      0.55      0.00
  -15    4    9      1.35      0.00
  -15    4    8      0.73      0.00
  -15    4    7      0.79      0.00
  -15    4    6      1.54      0.00
  -15    4    5     -3.60      0.00
  -15    4    4      1.11      0.00
  -15    4    3     -0.51      0.00
  -15    4    2     -0.22      0.00
  -15    4    1      2.22      0.00
   15    4    0     -0.06      0.00
   15    4    1     -1.53      0.00
   15    4    2     -0.15      0.00
   15    4    3      1.03      0.00
   15    4    4      0.29      0.00
   15    4    5     -1.38      0.00
   15    4    6      0.14      0.00
   15    4    7     -1.95      0.00
  -15    5   19      0.10      0.00
  -15    5   18     -1.19      0.00
  -15    5   17      0.46      0.00
  -15    5   16     -0.53      0.00
  -15    5   15      0.10      0.00
  -15    5   14     -0.92      0.00
  -15    5   13     -0.43      0.00
  -15    5   12      0.68      0.00
  -15    5   11     -0.08      0.00
  -15    5   10      0.77      0.00
  -15    5    9      0.55      0.00
  -15    5    8     -1.37      0.00
  -15    5    7     -2.02      0.00
  -15    5    6      0.23      0.00
  -15    5    5     -0.52      0.00
  -15    5    4      1.98      0.00
  -15    5    3      1.15      0.00
  -15    5    2     -0.59      0.00
  -15    5    1      1.56      0.00
   15    5    0      2.22      0.00
   15    5    1      0.77      0.00
   15    5    2     -0.63      0.00
   15    5    3     -0.22      0.00
   15    5    4     -0.59      0.00
   15    5    5      0.34      0.00
   15    5    6     -0.20      0.00
   15    5    7     -0.98      0.00
  -15    6   19      1.85      0.00
  -15    6   18      0.13      0.00
  -15    6   17      0.18      0.00
  -15    6   16      0.14      0.00
  -15    6   15     -0.07      0.00
  -15    6   14     -0.42      0.00
  -15    6   13      0.29      0.00
  -15    6   12     -0.10      0.00
  -15    6   11     -0.24      0.00
  -15    6   10     -0.93      0.00
  -15    6    9      0.58      0.00
  -15    6    8      0.00      0.00
  -15    6    7      0.77      0.00
  -15    6    6      1.15      0.00
  -15    6    5     -0.27      0.00
  -15    6    4     -0.14      0.00
  -15    6    3     -0.46      0.00
  -15    6    2     -2.33      0.00
  -15    6    1      2.13      0.00
   15    6    0     -0.32      0.00
   15    6    1     -0.29      0.00
   15    6    2      0.12      0.00
   15    6    3      1.01      0.00
   15    6    4      0.53      0.00
   15    6    5      0.41      0.00
   15    6    6     -0.08      0.00
  -15    7   18      0.60      0.00
  -15    7   17     -1.33      0.00
  -15    7   16     -1.12      0.00
  -15    7   15      0.11      0.00
  -15    7   14     -0.29      0.00
  -15    7   13      0.93      0.00
  -15    7   12      1.10      0.00
  -15    7   11      0.95      0.00
  -15    7   10      0.84      0.00
  -15    7    9      0.31      0.00
  -15    7    8      0.28      0.00
  -15    7    7     -0.34      0.00
  -15    7    6      0.43      0.00
  -15    7    5     -1.20      0.00
  -15    7    4      0.50      0.00
  -15    7    3      1.39      0.00
  -15    7    2     -1.46      0.00
  -15    7    1      0.85      0.00
   15    7    0      0.80      0.00
   15    7    1     -1.07      0.00
   15    7    2     -0.32      0.00
   15    7    3     -0.36      0.00
   15    7    4     -0.59      0.00
   15    7    5      0.69      0.00
  -15    8   17      0.10      0.00
  -15    8   16     -0.67      0.00
  -15    8   15      1.24      0.00
  -15    8   14      0.58      0.00
  -15    8   13     -0.45      0.00
  -15    8   12      0.07      0.00
  -15    8   11     -1.47      0.00
  -15    8   10     -0.33      0.00
  -15    8    9     -1.19      0.00
  -15    8    8     -1.06      0.00
  -15    8    7     -0.74      0.00
  -15    8    6      0.87      0.00
  -15    8    5     -0.51      0.00
  -15    8    4     -1.09      0.00
  -15    8    3      1.51      0.00
  -15    8    2     -0.31      0.00
  -15    8    1      0.27      0.00
   15    8    0      0.70      0.00
   15    8    1      0.79      0.00
   15    8    2      1.33      0.00
   15    8    3     -0.64      0.00
   15    8    4     -0.79      0.00
  -15    9   16      0.42      0.00
  -15    9   15      0.56      0.00
  -15    9   14      0.08      0.00
  -15    9   13     -0.06      0.00
  -15    9   12      0.25      0.00
  -15    9   11     -0.28      0.00
  -15    9   10     -0.26      0.00
  -15    9    9      0.92      0.00
  -15    9    8      0.42      0.00
  -15    9    7      0.38      0.00
  -15    9    6      0.29      0.00
  -15    9    5      0.68      0.00
  -15    9    4     -0.18      0.00
  -15    9    3      0.49      0.00
  -15    9    2      0.15      0.00
  -15    9    1     -1.51      0.00
   15    9    0     -0.48      0.00
   15    9    1     -0.73      0.00
   15    9    2     -0.33      0.00
   15    9    3      0.12      0.00
  -15   10   15      0.24      0.00
  -15   10   14     -0.46      0.00
  -15   10   13      1.19      0.00
  -15   10   12      0.26      0.00
  -15   10   11     -0.38      0.00
  -15   10   10     -0.33      0.00
  -15   10    9      0.82      0.00
  -15   10    8      0.60      0.00
  -15   10    7      0.53      0.00
  -15   10    6      0.04      0.00
  -15   10    5      0.23      0.00
  -15   10    4     -0.16      0.00
  -15   10    3     -0.14      0.00
  -15   10    2     -0.41      0.00
  -15   10    1     -0.80      0.00
   15   10    0      0.97      0.00
   15   10    1      0.10      0.00
   15   10    2     -0.71      0.00
  -15   11   13     -1.42      0.00
  -15   11   12     -0.76      0.00
  -15   11   11     -0.97      0.00
  -15   11   10     -0.10      0.00
  -15   11    9      0.86      0.00
  -15   11    8     -0.53      0.00
  -15   11    7     -0.64      0.00
  -15   11    6     -1.52      0.00
  -15   11    5     -0.55      0.00
  -15   11    4     -0.55      0.00
  -15   11    3     -0.27      0.00
  -15   11    2     -0.11      0.00
  -15   11    1     -0.65      0.00
   15   11    0     -1.13      0.00
  -15   12    9      0.16      0.00
  -15   12    8     -1.39      0.00
  -15   12    7     -0.05      0.00
  -15   12    6      0.61      0.00
  -15   12    5     -0.34      0.00
  -15   12    4      1.00      0.00
  -16    0   20      0.47      0.00
  -16    0   18     -0.02      0.00
  -16    0   16     -0.78      0.00
  -16    0   14     -0.61      0.00
  -16    0   12     -0.27      0.00
  -16    0   10      2.23      0.00
  -16    0    8      2.02      0.00
  -16    0    6     -0.34      0.00
  -16    0    4     -4.07      0.00
  -16    0    2      1.11      0.00
   16    0    0      1.68      0.00
   16    0    2     -2.66      0.00
   16    0    4     -0.92      0.00
   16    0    6      1.80      0.00
  -16    1   20     -0.80      0.00
  -16    1   19     -0.19      0.00
  -16    1   18     -1.70      0.00
  -16    1   17     -0.26      0.00
  -16    1   16      0.30      0.00
  -16    1   15      0.07      0.00
  -16    1   14      1.02      0.00
  -16    1   13      0.38      0.00
  -16    1   12      1.01      0.00
  -16    1   11      0.24      0.00
  -16    1   10      0.74      0.00
  -16    1    9     -2.94      0.00
  -16    1    8     -0.36      0.00
  -16    1    7     -0.66      0.00
  -16    1    6     -2.23      0.00
  -16    1    5      3.43      0.00
  -16    1    4     -0.61      0.00
  -16    1    3      1.84      0.00
  -16    1    2      1.57      0.00
  -16    1    1     -2.06      0.00
   16    1    0      0.52      0.00
   16    1    1      0.57      0.00
   16    1    2     -0.33      0.00
   16    1    3      1.49      0.00
   16    1    4     -1.54      0.00
   16    1    5      0.25      0.00
   16    1    6     -2.20      0.00
   16    1    7     -1.27      0.00
  -16    2   20     -0.83      0.00
  -16    2   19      0.31      0.00
  -16    2   18     -0.06      0.00
  -16    2   17      0.41      0.00
  -16    2   16      1.69      0.00
  -16    2   15     -0.73      0.00
  -16    2   14      0.25      0.00
  -16    2   13     -0.88      0.00
  -16    2   12     -1.33      0.00
  -16    2   11     -1.26      0.00
  -16    2   10      0.29      0.00
  -16    2    9     -0.78      0.00
  -16    2    8      1.27      0.00
  -16    2    7      3.12      0.00
  -16    2    6     -1.31      0.00
  -16    2    5      2.17      0.00
  -16    2    4     -1.25      0.00
  -16    2    3     -2.49      0.00
  -16    2    2      2.38      0.00
  -16    2    1     -1.22      0.00
   16    2    0      0.83      0.00
   16    2    1     -0.45      0.00
   16    2    2     -0.95      0.00
   16    2    3      0.40      0.00
   16    2    4     -0.57      0.00
   16    2    5      1.03      0.00
   16    2    6      1.14      0.00
   16    2    7      1.77      0.00
  -16    3   20      0.07      0.00
  -16    3   19      0.61      0.00
  -16    3   18      0.38      0.00
  -16    3   17     -0.87      0.00
  -16    3   16      0.88      0.00
  -16    3   15     -1.27      0.00
  -16    3   14     -0.65      0.00
  -16    3   13      1.36      0.00
  -16    3   12      0.39      0.00
  -16    3   11      0.96      0.00
  -16    3   10      0.75      0.00
  -16    3    9      0.34      0.00
  -16    3    8     -0.81      0.00
  -16    3    7      0.36      0.00
  -16    3    6     -2.27      0.00
  -16    3    5     -0.10      0.00
  -16    3    4      1.27      0.00
  -16    3    3     -2.42      0.00
  -16    3    2      1.60      0.00
  -16    3    1     -1.62      0.00
   16    3    0      1.76      0.00
   16    3    1     -0.43      0.00
   16    3    2      1.04      0.00
   16    3    3      1.14      0.00
   16    3    4     -0.77      0.00
   16    3    5     -1.61      0.00
   16    3    6      1.12      0.00
  -16    4   20      0.52      0.00
  -16    4   19     -0.05      0.00
  -16    4   18      0.73      0.00
  -16    4   17     -0.58      0.00
  -16    4   16      0.38      0.00
  -16    4   15      0.68      0.00
  -16    4   14     -0.47      0.00
  -16    4   13      1.46      0.00
  -16    4   12     -0.23      0.00
  -16    4   11     -0.76      0.00
  -16    4   10     -0.22      0.00
  -16    4    9     -0.91      0.00
  -16    4    8     -0.51      0.00
  -16    4    7      1.59      0.00
  -16    4    6     -0.33      0.00
  -16    4    5     -0.80      0.00
  -16    4    4      0.53      0.00
  -16    4    3     -2.08      0.00
  -16    4    2      0.45      0.00
  -16    4    1     -0.53      0.00
   16    4    0      0.82      0.00
   16    4    1     -1.71      0.00
   16    4    2     -0.36      0.00
   16    4    3      0.48      0.00
   16    4    4     -0.68      0.00
   16    4    5      0.48      0.00
   16    4    6     -0.77      0.00
  -16    5   19     -0.68      0.00
  -16    5   18     -0.25      0.00
  -16    5   17      0.55      0.00
  -16    5   16     -0.38      0.00
  -16    5   15      0.54      0.00
  -16    5   14     -0.96      0.00
  -16    5   13     -0.63      0.00
  -16    5   12     -0.17      0.00
  -16    5   11     -1.25      0.00
  -16    5   10      1.38      0.00
  -16    5    9      0.73      0.00
  -16    5    8     -0.33      0.00
  -16    5    7      0.22      0.00
  -16    5    6     -0.88      0.00
  -16    5    5     -0.48      0.00
  -16    5    4      2.09      0.00
  -16    5    3     -0.65      0.00
  -16    5    2      2.52      0.00
  -16    5    1      0.04      0.00
   16    5    0      0.89      0.00
   16    5    1      0.60      0.00
   16    5    2      0.87      0.00
   16    5    3      0.03      0.00
   16    5    4     -0.71      0.00
   16    5    5      1.52      0.00
   16    5    6     -0.85      0.00
  -16    6   18     -0.81      0.00
  -16    6   17      0.78      0.00
  -16    6   16      0.01      0.00
  -16    6   15     -0.01      0.00
  -16    6   14      0.03      0.00
  -16    6   13      0.37      0.00
  -16    6   12      0.11      0.00
  -16    6   11     -0.45      0.00
  -16    6   10     -0.57      0.00
  -16    6    9      0.51      0.00
  -16    6    8     -1.40      0.00
  -16    6    7      0.36      0.00
  -16    6    6      0.19      0.00
  -16    6    5      0.02      0.00
  -16    6    4      1.46      0.00
  -16    6    3     -2.16      0.00
  -16    6    2     -0.74      0.00
  -16    6    1      0.78      0.00
   16    6    0     -0.75      0.00
   16    6    1     -1.44      0.00
   16    6    2      0.19      0.00
   16    6    3      0.30      0.00
   16    6    4      0.81      0.00
   16    6    5      0.77      0.00
  -16    7   18      0.73      0.00
  -16    7   17     -0.53      0.00
  -16    7   16     -0.36      0.00
  -16    7   15     -0.75      0.00
  -16    7   14     -0.67      0.00
  -16    7   13      0.24      0.00
  -16    7   12     -0.58      0.00
  -16    7   11      1.18      0.00
  -16    7   10     -0.25      0.00
  -16    7    9      1.23      0.00
  -16    7    8      0.63      0.00
  -16    7    7      0.83      0.00
  -16    7    6      0.21      0.00
  -16    7    5     -1.07      0.00
  -16    7    4      0.94      0.00
  -16    7    3     -0.03      0.00
  -16    7    2     -0.47      0.00
  -16    7    1      1.59      0.00
   16    7    0      0.49      0.00
   16    7    1     -0.12      0.00
   16    7    2     -0.09      0.00
   16    7    3     -1.13      0.00
   16    7    4     -1.12      0.00
  -16    8   17     -1.23      0.00
  -16    8   16     -0.78      0.00
  -16    8   15     -0.21      0.00
  -16    8   14      0.60      0.00
  -16    8   13      0.43      0.00
  -16    8   12     -0.07      0.00
  -16    8   11      0.33      0.00
  -16    8   10      0.94      0.00
  -16    8    9     -1.36      0.00
  -16    8    8     -0.64      0.00
  -16    8    7     -1.01      0.00
  -16    8    6      0.00      0.00
  -16    8    5     -1.05      0.00
  -16    8    4     -0.12      0.00
  -16    8    3      0.65      0.00
  -16    8    2     -0.99      0.00
  -16    8    1      1.02      0.00
   16    8    0     -0.13      0.00
   16    8    1      0.98      0.00
   16    8    2      0.79      0.00
   16    8    3      0.00      0.00
  -16    9   15      0.06      0.00
  -16    9   14      0.49      0.00
  -16    9   13     -0.24      0.00
  -16    9   12      0.30      0.00
  -16    9   11     -1.23      0.00
  -16    9   10      0.29      0.00
  -16    9    9     -1.11      0.00
  -16    9    8     -0.64      0.00
  -16    9    7      0.36      0.00
  -16    9    6      0.53      0.00
  -16    9    5      0.44      0.00
  -16    9    4     -0.17      0.00
  -16    9    3      1.44      0.00
  -16    9    2      0.25      0.00
  -16    9    1     -0.05      0.00
   16    9    0     -0.02      0.00
   16    9    1     -0.53      0.00
   16    9    2     -1.08      0.00
  -16   10   14      0.21      0.00
  -16   10   13      1.31      0.00
  -16   10   12      0.99      0.00
  -16   10   11     -0.34      0.00
  -16   10   10      0.00      0.00
  -16   10    9      0.61      0.00
  -16   10    8      0.76      0.00
  -16   10    7      0.91      0.00
  -16   10    6      0.66      0.00
  -16   10    5      0.49      0.00
  -16   10    4     -0.03      0.00
  -16   10    3     -0.09      0.00
  -16   10    2     -0.79      0.00
  -16   10    1      0.09      0.00
   16   10    0     -0.11      0.00
  -16   11   11     -1.65      0.00
  -16   11   10     -0.03      0.00
  -16   11    9      0.28      0.00
  -16   11    8      1.05      0.00
  -16   11    7      0.26      0.00
  -16   11    6     -0.81      0.00
  -16   11    5     -0.28      0.00
  -16   11    4     -1.01      0.00
  -16   11    3      0.51      0.00
  -16   11    2     -1.28      0.00
  -17    0   20      0.67      0.00
  -17    0   18      0.39      0.00
  -17    0   16     -0.34      0.00
  -17    0   14      0.20      0.00
  -17    0   12     -0.22      0.00
  -17    0   10      0.51      0.00
  -17    0    8      1.44      0.00
  -17    0    6      1.89      0.00
  -17    0    4     -2.49      0.00
  -17    0    2     -1.08      0.00
   17    0    0      2.05      0.00
   17    0    2     -0.66      0.00
   17    0    4     -2.47      0.00
   17    0    6     -1.03      0.00
  -17    1   20     -0.46      0.00
  -17    1   19      0.04      0.00
  -17    1   18     -1.24      0.00
  -17    1   17     -0.16      0.00
  -17    1   16     -0.45      0.00
  -17    1   15     -0.08      0.00
  -17    1   14      0.41      0.00
  -17    1   13     -0.03      0.00
  -17    1   12      0.94      0.00
  -17    1   11      1.27      0.00
  -17    1   10      0.57      0.00
  -17    1    9     -0.88      0.00
  -17    1    8      0.28      0.00
  -17    1    7     -1.94      0.00
  -17    1    6     -0.81      0.00
  -17    1    5      0.10      0.00
  -17    1    4     -0.72      0.00
  -17    1    3      2.92      0.00
  -17    1    2      1.16      0.00
  -17    1    1     -0.70      0.00
   17    1    0     -0.10      0.00
   17    1    1     -0.94      0.00
   17    1    2      0.45      0.00
   17    1    3      0.68      0.00
   17    1    4     -0.35      0.00
   17    1    5      0.88      0.00
   17    1    6     -2.37      0.00
  -17    2   20     -0.61      0.00
  -17    2   19      0.15      0.00
  -17    2   18     -0.73      0.00
  -17    2   17      1.00      0.00
  -17    2   16      0.50      0.00
  -17    2   15      0.01      0.00
  -17    2   14      1.04      0.00
  -17    2   13     -0.70      0.00
  -17    2   12     -1.49      0.00
  -17    2   11     -0.36      0.00
  -17    2   10     -1.25      0.00
  -17    2    9     -1.58      0.00
  -17    2    8      0.78      0.00
  -17    2    7      0.49      0.00
  -17    2    6      1.11      0.00
  -17    2    5      2.47      0.00
  -17    2    4     -0.86      0.00
  -17    2    3      0.60      0.00
  -17    2    2      0.17      0.00
  -17    2    1     -1.55      0.00
   17    2    0      1.68      0.00
   17    2    1     -0.58      0.00
   17    2    2      0.87      0.00
   17    2    3      0.12      0.00
   17    2    4     -0.18      0.00
   17    2    5     -0.20      0.00
   17    2    6      1.34      0.00
  -17    3   20     -0.25      0.00
  -17    3   19      0.70      0.00
  -17    3   18     -0.74      0.00
  -17    3   17     -0.25      0.00
  -17    3   16      0.66      0.00
  -17    3   15     -1.22      0.00
  -17    3   14     -0.23      0.00
  -17    3   13     -0.09      0.00
  -17    3   12     -0.95      0.00
  -17    3   11      1.14      0.00
  -17    3   10      0.55      0.00
  -17    3    9      0.51      0.00
  -17    3    8      2.24      0.00
  -17    3    7     -0.49      0.00
  -17    3    6     -0.61      0.00
  -17    3    5      0.99      0.00
  -17    3    4     -1.22      0.00
  -17    3    3     -0.54      0.00
  -17    3    2      1.59      0.00
  -17    3    1     -0.74      0.00
   17    3    0     -0.10      0.00
   17    3    1     -1.35      0.00
   17    3    2      0.70      0.00
   17    3    3      1.09      0.00
   17    3    4     -0.41      0.00
   17    3    5     -0.23      0.00
  -17    4   19      0.28      0.00
  -17    4   18      0.41      0.00
  -17    4   17     -0.74      0.00
  -17    4   16      0.44      0.00
  -17    4   15     -0.26      0.00
  -17    4   14     -0.32      0.00
  -17    4   13      1.75      0.00
  -17    4   12      0.06      0.00
  -17    4   11      1.15      0.00
  -17    4   10      0.31      0.00
  -17    4    9     -1.95      0.00
  -17    4    8     -0.18      0.00
  -17    4    7      0.25      0.00
  -17    4    6     -1.81      0.00
  -17    4    5      0.93      0.00
  -17    4    4     -1.45      0.00
  -17    4    3     -0.63      0.00
  -17    4    2     -0.65      0.00
  -17    4    1     -1.66      0.00
   17    4    0      0.43      0.00
   17    4    1     -0.37      0.00
   17    4    2     -0.14      0.00
   17    4    3     -0.89      0.00
   17    4    4     -1.15      0.00
   17    4    5      2.19      0.00
  -17    5   19     -1.06      0.00
  -17    5   18      0.46      0.00
  -17    5   17      0.22      0.00
  -17    5   16      0.47      0.00
  -17    5   15      1.05      0.00
  -17    5   14     -0.43      0.00
  -17    5   13      0.33      0.00
  -17    5   12     -0.79      0.00
  -17    5   11     -1.50      0.00
  -17    5   10      0.68      0.00
  -17    5    9     -0.23      0.00
  -17    5    8     -0.41      0.00
  -17    5    7      1.05      0.00
  -17    5    6     -1.52      0.00
  -17    5    5      0.71      0.00
  -17    5    4     -0.49      0.00
  -17    5    3     -0.17      0.00
  -17    5    2      2.37      0.00
  -17    5    1     -0.73      0.00
   17    5    0     -0.49      0.00
   17    5    1      0.43      0.00
   17    5    2      1.79      0.00
   17    5    3     -0.45      0.00
   17    5    4      0.51      0.00
  -17    6   18     -0.82      0.00
  -17    6   17      0.32      0.00
  -17    6   16     -0.12      0.00
  -17    6   15      0.23      0.00
  -17    6   14     -0.50      0.00
  -17    6   13     -0.46      0.00
  -17    6   12      0.65      0.00
  -17    6   11     -0.67      0.00
  -17    6   10      0.77      0.00
  -17    6    9      0.26      0.00
  -17    6    8     -0.54      0.00
  -17    6    7     -0.06      0.00
  -17    6    6     -0.37      0.00
  -17    6    5      1.57      0.00
  -17    6    4      1.57      0.00
  -17    6    3     -1.39      0.00
  -17    6    2      0.38      0.00
  -17    6    1     -0.41      0.00
   17    6    0     -1.14      0.00
   17    6    1     -1.25      0.00
   17    6    2     -0.43      0.00
   17    6    3     -0.65      0.00
   17    6    4      0.71      0.00
  -17    7   17      1.05      0.00
  -17    7   16      0.27      0.00
  -17    7   15      0.20      0.00
  -17    7   14      0.10      0.00
  -17    7   13     -0.36      0.00
  -17    7   12     -0.05      0.00
  -17    7   11      0.54      0.00
  -17    7   10     -0.94      0.00
  -17    7    9      0.64      0.00
  -17    7    8     -0.18      0.00
  -17    7    7      1.53      0.00
  -17    7    6     -0.14      0.00
  -17    7    5     -0.06      0.00
  -17    7    4     -0.29      0.00
  -17    7    3     -1.08      0.00
  -17    7    2     -0.56      0.00
  -17    7    1      0.71      0.00
   17    7    0      0.14      0.00
   17    7    1      0.91      0.00
   17    7    2      0.59      0.00
   17    7    3     -1.03      0.00
  -17    8   16     -1.49      0.00
  -17    8   15     -1.25      0.00
  -17    8   14     -0.11      0.00
  -17    8   13     -0.01      0.00
  -17    8   12     -0.78      0.00
  -17    8   11      1.74      0.00
  -17    8   10     -0.22      0.00
  -17    8    9      1.13      0.00
  -17    8    8      0.52      0.00
  -17    8    7     -0.08      0.00
  -17    8    6     -0.42      0.00
  -17    8    5     -0.93      0.00
  -17    8    4      0.34      0.00
  -17    8    3     -0.94      0.00
  -17    8    2     -0.08      0.00
  -17    8    1      0.71      0.00
   17    8    0     -0.32      0.00
   17    8    1      0.33      0.00
   17    8    2      0.21      0.00
  -17    9   14      0.90      0.00
  -17    9   13      0.06      0.00
  -17    9   12     -0.47      0.00
  -17    9   11      0.29      0.00
  -17    9   10      0.13      0.00
  -17    9    9     -2.04      0.00
  -17    9    8     -1.05      0.00
  -17    9    7     -1.58      0.00
  -17    9    6     -0.17      0.00
  -17    9    5     -1.13      0.00
  -17    9    4      0.61      0.00
  -17    9    3      0.77      0.00
  -17    9    2      0.76      0.00
  -17    9    1      1.16      0.00
   17    9    0      0.09      0.00
  -17   10   12      0.39      0.00
  -17   10   11     -0.17      0.00
  -17   10   10      0.16      0.00
  -17   10    9     -0.50      0.00
  -17   10    8      0.29      0.00
  -17   10    7      0.49      0.00
  -17   10    6      1.39      0.00
  -17   10    5      0.70      0.00
  -17   10    4      0.76      0.00
  -17   10    3      0.23      0.00
  -17   10    2      0.01      0.00
  -17   11    8      1.14      0.00
  -17   11    7      0.58      0.00
  -17   11    6      0.86      0.00
  -18    0   20      0.72      0.00
  -18    0   18      0.35      0.00
  -18    0   16     -1.14      0.00
  -18    0   14      0.50      0.00
  -18    0   12     -0.22      0.00
  -18    0   10      0.09      0.00
  -18    0    8     -0.03      0.00
  -18    0    6      0.48      0.00
  -18    0    4     -0.46      0.00
  -18    0    2     -2.68      0.00
   18    0    0      0.81      0.00
   18    0    2      0.89      0.00
   18    0    4     -1.26      0.00
  -18    1   20      0.41      0.00
  -18    1   19      0.21      0.00
  -18    1   18     -0.18      0.00
  -18    1   17      0.25      0.00
  -18    1   16      0.26      0.00
  -18    1   15      0.03      0.00
  -18    1   14      0.53      0.00
  -18    1   13     -0.30      0.00
  -18    1   12      0.95      0.00
  -18    1   11      0.41      0.00
  -18    1   10      0.70      0.00
  -18    1    9      0.86      0.00
  -18    1    8     -0.73      0.00
  -18    1    7     -0.53      0.00
  -18    1    6     -0.29      0.00
  -18    1    5     -1.92      0.00
  -18    1    4     -1.20      0.00
  -18    1    3      1.16      0.00
  -18    1    2      0.06      0.00
  -18    1    1      0.45      0.00
   18    1    0     -0.67      0.00
   18    1    1     -1.00      0.00
   18    1    2      0.37      0.00
   18    1    3      0.07      0.00
   18    1    4      0.94      0.00
  -18    2   19     -0.24      0.00
  -18    2   18     -0.01      0.00
  -18    2   17      0.11      0.00
  -18    2   16      0.02      0.00
  -18    2   15      0.14      0.00
  -18    2   14      0.82      0.00
  -18    2   13     -0.42      0.00
  -18    2   12      0.37      0.00
  -18    2   11      0.83      0.00
  -18    2   10     -1.67      0.00
  -18    2    9     -0.14      0.00
  -18    2    8     -0.91      0.00
  -18    2    7     -0.74      0.00
  -18    2    6      1.43      0.00
  -18    2    5      0.52      0.00
  -18    2    4      0.50      0.00
  -18    2    3      2.02      0.00
  -18    2    2     -0.57      0.00
  -18    2    1     -0.76      0.00
   18    2    0      0.41      0.00
   18    2    1     -0.19      0.00
   18    2    2      1.32      0.00
   18    2    3      0.56      0.00
   18    2    4     -0.06      0.00
  -18    3   19     -0.14      0.00
  -18    3   18     -0.34      0.00
  -18    3   17     -0.43      0.00
  -18    3   16     -0.02      0.00
  -18    3   15     -0.77      0.00
  -18    3   14      0.76      0.00
  -18    3   13     -1.04      0.00
  -18    3   12     -1.73      0.00
  -18    3   11      0.34      0.00
  -18    3   10     -1.67      0.00
  -18    3    9      0.86      0.00
  -18    3    8      2.01      0.00
  -18    3    7     -0.62      0.00
  -18    3    6      1.50      0.00
  -18    3    5      0.53      0.00
  -18    3    4     -0.64      0.00
  -18    3    3      0.51      0.00
  -18    3    2      0.55      0.00
  -18    3    1      0.50      0.00
   18    3    0     -1.76      0.00
   18    3    1     -1.20      0.00
   18    3    2     -0.84      0.00
   18    3    3     -0.40      0.00
   18    3    4     -0.16      0.00
  -18    4   19      0.43      0.00
  -18    4   18     -0.23      0.00
  -18    4   17     -0.47      0.00
  -18    4   16      0.86      0.00
  -18    4   15     -0.76      0.00
  -18    4   14      0.12      0.00
  -18    4   13      0.54      0.00
  -18    4   12     -0.05      0.00
  -18    4   11      2.21      0.00
  -18    4   10      0.54      0.00
  -18    4    9     -0.61      0.00
  -18    4    8      1.30      0.00
  -18    4    7     -1.16      0.00
  -18    4    6     -0.13      0.00
  -18    4    5      0.26      0.00
  -18    4    4     -1.01      0.00
  -18    4    3      0.63      0.00
  -18    4    2     -0.40      0.00
  -18    4    1     -0.99      0.00
   18    4    0      0.30      0.00
   18    4    1      1.03      0.00
   18    4    2      0.75      0.00
   18    4    3     -1.69      0.00
  -18    5   18     -0.04      0.00
  -18    5   17     -0.42      0.00
  -18    5   16      0.38      0.00
  -18    5   15      0.45      0.00
  -18    5   14     -0.30      0.00
  -18    5   13      0.92      0.00
  -18    5   12     -0.86      0.00
  -18    5   11     -0.32      0.00
  -18    5   10     -0.03      0.00
  -18    5    9     -1.04      0.00
  -18    5    8     -0.34      0.00
  -18    5    7      0.24      0.00
  -18    5    6     -0.90      0.00
  -18    5    5      0.64      0.00
  -18    5    4     -1.97      0.00
  -18    5    3      0.80      0.00
  -18    5    2      0.63      0.00
  -18    5    1     -0.46      0.00
   18    5    0     -0.93      0.00
   18    5    1     -0.17      0.00
   18    5    2      1.19      0.00
   18    5    3     -0.77      0.00
  -18    6   17      0.10      0.00
  -18    6   16      0.32      0.00
  -18    6   15      0.60      0.00
  -18    6   14     -1.26      0.00
  -18    6   13     -0.47      0.00
  -18    6   12     -0.07      0.00
  -18    6   11     -1.10      0.00
  -18    6   10      0.81      0.00
  -18    6    9     -0.29      0.00
  -18    6    8     -0.04      0.00
  -18    6    7     -0.68      0.00
  -18    6    6     -0.76      0.00
  -18    6    5      1.40      0.00
  -18    6    4      0.71      0.00
  -18    6    3      0.25      0.00
  -18    6    2      1.06      0.00
  -18    6    1     -1.30      0.00
   18    6    0     -0.58      0.00
   18    6    1     -0.03      0.00
   18    6    2     -0.78      0.00
  -18    7   16     -0.05      0.00
  -18    7   15      1.01      0.00
  -18    7   14      0.10      0.00
  -18    7   13     -0.06      0.00
  -18    7   12      1.72      0.00
  -18    7   11     -0.66      0.00
  -18    7   10      0.69      0.00
  -18    7    9     -0.49      0.00
  -18    7    8     -0.13      0.00
  -18    7    7      0.74      0.00
  -18    7    6      0.58      0.00
  -18    7    5      1.07      0.00
  -18    7    4     -0.38      0.00
  -18    7    3     -0.76      0.00
  -18    7    2     -0.59      0.00
  -18    7    1     -0.49      0.00
   18    7    0      0.36      0.00
   18    7    1      1.43      0.00
  -18    8   15      0.06      0.00
  -18    8   14     -0.05      0.00
  -18    8   13     -0.96      0.00
  -18    8   12      0.34      0.00
  -18    8   11     -0.05      0.00
  -18    8   10     -1.25      0.00
  -18    8    9      2.12      0.00
  -18    8    8      0.64      0.00
  -18    8    7      1.29      0.00
  -18    8    6     -0.64      0.00
  -18    8    5      0.39      0.00
  -18    8    4     -0.47      0.00
  -18    8    3     -1.19      0.00
  -18    8    2     -0.36      0.00
  -18    8    1     -0.05      0.00
   18    8    0     -0.50      0.00
  -18    9   13     -0.69      0.00
  -18    9   12     -0.59      0.00
  -18    9   11      2.00      0.00
  -18    9   10     -0.32      0.00
  -18    9    9      0.65      0.00
  -18    9    8     -0.94      0.00
  -18    9    7     -1.10      0.00
  -18    9    6     -1.49      0.00
  -18    9    5     -1.68      0.00
  -18    9    4      0.31      0.00
  -18    9    3     -0.65      0.00
  -18    9    2      0.41      0.00
  -18   10   10     -0.36      0.00
  -18   10    9     -0.80      0.00
  -18   10    8     -1.27      0.00
  -18   10    7     -0.29      0.00
  -18   10    6      0.82      0.00
  -18   10    5      0.52      0.00
  -19    0   18      0.06      0.00
  -19    0   16     -2.35      0.00
  -19    0   14     -0.82      0.00
  -19    0   12     -0.14      0.00
  -19    0   10      0.56      0.00
  -19    0    8     -0.38      0.00
  -19    0    6     -0.29      0.00
  -19    0    4      0.63      0.00
  -19    0    2     -2.16      0.00
   19    0    0     -0.75      0.00
   19    0    2      0.30      0.00
  -19    1   19      0.18      0.00
  -19    1   18     -0.78      0.00
  -19    1   17      0.49      0.00
  -19    1   16     -0.57      0.00
  -19    1   15      0.32      0.00
  -19    1   14      0.74      0.00
  -19    1   13     -0.18      0.00
  -19    1   12      0.77      0.00
  -19    1   11     -0.63      0.00
  -19    1   10      0.40      0.00
  -19    1    9      0.12      0.00
  -19    1    8     -0.80      0.00
  -19    1    7      0.86      0.00
  -19    1    6     -0.43      0.00
  -19    1    5     -0.66      0.00
  -19    1    4     -1.56      0.00
  -19    1    3     -0.43      0.00
  -19    1    2     -0.78      0.00
  -19    1    1      1.30      0.00
   19    1    0      0.18      0.00
   19    1    1     -0.28      0.00
   19    1    2     -0.27      0.00
   19    1    3     -0.27      0.00
  -19    2   19      0.06      0.00
  -19    2   18      0.27      0.00
  -19    2   17      0.40      0.00
  -19    2   16      0.59      0.00
  -19    2   15      0.08      0.00
  -19    2   14      0.33      0.00
  -19    2   13     -0.69      0.00
  -19    2   12      1.38      0.00
  -19    2   11      0.17      0.00
  -19    2   10      0.02      0.00
  -19    2    9      0.07      0.00
  -19    2    8     -1.57      0.00
  -19    2    7      0.44      0.00
  -19    2    6     -0.52      0.00
  -19    2    5     -1.14      0.00
  -19    2    4      0.54      0.00
  -19    2    3      1.31      0.00
  -19    2    2     -0.80      0.00
  -19    2    1      0.33      0.00
   19    2    0     -1.21      0.00
   19    2    1     -0.06      0.00
   19    2    2      0.41      0.00
   19    2    3      0.06      0.00
  -19    3   18      0.40      0.00
  -19    3   17     -0.16      0.00
  -19    3   16     -0.27      0.00
  -19    3   15     -0.43      0.00
  -19    3   14      1.19      0.00
  -19    3   13     -0.41      0.00
  -19    3   12     -0.10      0.00
  -19    3   11     -0.53      0.00
  -19    3   10     -2.23      0.00
  -19    3    9      1.40      0.00
  -19    3    8     -0.42      0.00
  -19    3    7      0.28      0.00
  -19    3    6      1.24      0.00
  -19    3    5     -0.63      0.00
  -19    3    4      0.47      0.00
  -19    3    3      0.36      0.00
  -19    3    2     -1.16      0.00
  -19    3    1      0.56      0.00
   19    3    0     -0.90      0.00
   19    3    1      0.39      0.00
   19    3    2     -0.87      0.00
  -19    4   18     -0.08      0.00
  -19    4   17     -0.73      0.00
  -19    4   16      1.11      0.00
  -19    4   15     -1.02      0.00
  -19    4   14      0.40      0.00
  -19    4   13     -0.91      0.00
  -19    4   12     -0.46      0.00
  -19    4   11      1.59      0.00
  -19    4   10     -0.58      0.00
  -19    4    9      1.01      0.00
  -19    4    8      1.79      0.00
  -19    4    7     -1.36      0.00
  -19    4    6      1.71      0.00
  -19    4    5     -0.85      0.00
  -19    4    4      0.34      0.00
  -19    4    3      0.56      0.00
  -19    4    2      0.48      0.00
  -19    4    1      0.50      0.00
   19    4    0      0.49      0.00
   19    4    1      1.22      0.00
   19    4    2      1.30      0.00
  -19    5   17     -0.93      0.00
  -19    5   16      0.57      0.00
  -19    5   15     -0.55      0.00
  -19    5   14      0.57      0.00
  -19    5   13      1.26      0.00
  -19    5   12      0.09      0.00
  -19    5   11      1.02      0.00
  -19    5   10      0.47      0.00
  -19    5    9     -1.16      0.00
  -19    5    8      0.40      0.00
  -19    5    7     -0.63      0.00
  -19    5    6     -0.02      0.00
  -19    5    5     -0.40      0.00
  -19    5    4     -1.50      0.00
  -19    5    3      0.66      0.00
  -19    5    2     -0.39      0.00
  -19    5    1      0.16      0.00
   19    5    0     -0.86      0.00
   19    5    1     -0.58      0.00
  -19    6   16      0.52      0.00
  -19    6   15      0.17      0.00
  -19    6   14     -1.18      0.00
  -19    6   13      0.12      0.00
  -19    6   12     -1.49      0.00
  -19    6   11     -1.20      0.00
  -19    6   10     -0.37      0.00
  -19    6    9      0.11      0.00
  -19    6    8     -0.46      0.00
  -19    6    7     -0.20      0.00
  -19    6    6     -0.77      0.00
  -19    6    5      0.39      0.00
  -19    6    4      0.18      0.00
  -19    6    3      1.35      0.00
  -19    6    2      1.35      0.00
  -19    6    1     -0.83      0.00
   19    6    0      0.06      0.00
  -19    7   15      0.92      0.00
  -19    7   14     -0.99      0.00
  -19    7   13      0.41      0.00
  -19    7   12      0.56      0.00
  -19    7   11     -0.56      0.00
  -19    7   10      1.38      0.00
  -19    7    9     -1.09      0.00
  -19    7    8      0.04      0.00
  -19    7    7     -1.11      0.00
  -19    7    6      1.04      0.00
  -19    7    5      0.63      0.00
  -19    7    4      0.71      0.00
  -19    7    3     -0.12      0.00
  -19    7    2     -0.03      0.00
  -19    7    1     -0.78      0.00
  -19    8   14     -0.54      0.00
  -19    8   13     -0.48      0.00
  -19    8   12      1.81      0.00
  -19    8   11     -2.02      0.00
  -19    8   10      0.47      0.00
  -19    8    9     -0.24      0.00
  -19    8    8      0.84      0.00
  -19    8    7      1.11      0.00
  -19    8    6      0.34      0.00
  -19    8    5      1.30      0.00
  -19    8    4     -0.64      0.00
  -19    8    3      0.05      0.00
  -19    8    2     -0.96      0.00
  -19    9   11      0.42      0.00
  -19    9   10     -0.12      0.00
  -19    9    9      2.16      0.00
  -19    9    8     -0.09      0.00
  -19    9    7      0.89      0.00
  -19    9    6     -1.69      0.00
  -19    9    5     -0.62      0.00
  -20    0   18      0.93      0.00
  -20    0   16     -0.92      0.00
  -20    0   14     -1.32      0.00
  -20    0   12     -0.11      0.00
  -20    0   10      0.60      0.00
  -20    0    8      1.01      0.00
  -20    0    6      0.70      0.00
  -20    0    4      1.89      0.00
  -20    0    2      0.61      0.00
   20    0    0     -0.41      0.00
  -20    1   18     -0.98      0.00
  -20    1   17      0.26      0.00
  -20    1   16     -2.35      0.00
  -20    1   15      0.42      0.00
  -20    1   14      0.38      0.00
  -20    1   13      0.30      0.00
  -20    1   12      0.40      0.00
  -20    1   11     -0.44      0.00
  -20    1   10      0.28      0.00
  -20    1    9     -0.98      0.00
  -20    1    8      0.16      0.00
  -20    1    7      0.39      0.00
  -20    1    6     -0.72      0.00
  -20    1    5      0.62      0.00
  -20    1    4     -0.86      0.00
  -20    1    3     -1.26      0.00
  -20    1    2     -0.73      0.00
  -20    1    1      0.44      0.00
   20    1    0      0.88      0.00
   20    1    1      0.21      0.00
  -20    2   18     -0.79      0.00
  -20    2   17      1.14      0.00
  -20    2   16      0.38      0.00
  -20    2   15      0.27      0.00
  -20    2   14      0.15      0.00
  -20    2   13     -1.35      0.00
  -20    2   12      0.37      0.00
  -20    2   11     -1.01      0.00
  -20    2   10      1.47      0.00
  -20    2    9     -0.38      0.00
  -20    2    8     -0.91      0.00
  -20    2    7      1.73      0.00
  -20    2    6     -1.46      0.00
  -20    2    5     -0.29      0.00
  -20    2    4      0.30      0.00
  -20    2    3      0.13      0.00
  -20    2    2      0.06      0.00
  -20    2    1      0.67      0.00
   20    2    0     -1.30      0.00
   20    2    1      0.07      0.00
  -20    3   18      0.43      0.00
  -20    3   17      0.55      0.00
  -20    3   16     -0.36      0.00
  -20    3   15     -0.73      0.00
  -20    3   14      0.46      0.00
  -20    3   13     -0.34      0.00
  -20    3   12      1.71      0.00
  -20    3   11     -0.75      0.00
  -20    3   10     -0.69      0.00
  -20    3    9      0.71      0.00
  -20    3    8     -1.60      0.00
  -20    3    7      0.94      0.00
  -20    3    6     -0.35      0.00
  -20    3    5     -0.38      0.00
  -20    3    4      0.71      0.00
  -20    3    3      0.02      0.00
  -20    3    2     -2.19      0.00
  -20    3    1      0.02      0.00
   20    3    0      0.82      0.00
   20    3    1      1.44      0.00
  -20    4   17     -0.27      0.00
  -20    4   16      0.52      0.00
  -20    4   15     -0.51      0.00
  -20    4   14      0.95      0.00
  -20    4   13     -0.95      0.00
  -20    4   12     -0.25      0.00
  -20    4   11      0.25      0.00
  -20    4   10     -1.48      0.00
  -20    4    9      0.92      0.00
  -20    4    8      0.43      0.00
  -20    4    7     -0.29      0.00
  -20    4    6      0.82      0.00
  -20    4    5     -0.79      0.00
  -20    4    4     -0.32      0.00
  -20    4    3     -0.30      0.00
  -20    4    2     -0.23      0.00
  -20    4    1      0.78      0.00
   20    4    0      0.28      0.00
  -20    5   16      0.61      0.00
  -20    5   15     -1.31      0.00
  -20    5   14      0.82      0.00
  -20    5   13      0.58      0.00
  -20    5   12      0.59      0.00
  -20    5   11      1.22      0.00
  -20    5   10      0.95      0.00
  -20    5    9     -0.27      0.00
  -20    5    8      1.11      0.00
  -20    5    7     -0.33      0.00
  -20    5    6      0.71      0.00
  -20    5    5     -0.67      0.00
  -20    5    4     -0.28      0.00
  -20    5    3     -0.29      0.00
  -20    5    2      0.30      0.00
  -20    5    1      0.60      0.00
  -20    6   15      0.23      0.00
  -20    6   14      0.46      0.00
  -20    6   13      0.84      0.00
  -20    6   12     -0.81      0.00
  -20    6   11     -0.43      0.00
  -20    6   10     -0.77      0.00
  -20    6    9      0.13      0.00
  -20    6    8     -0.71      0.00
  -20    6    7      0.20      0.00
  -20    6    6     -1.11      0.00
  -20    6    5     -0.92      0.00
  -20    6    4     -0.47      0.00
  -20    6    3      0.85      0.00
  -20    6    2      0.60      0.00
  -20    7   14     -1.63      0.00
  -20    7   13      0.10      0.00
  -20    7   12     -2.00      0.00
  -20    7   11      0.70      0.00
  -20    7   10      0.15      0.00
  -20    7    9      0.15      0.00
  -20    7    8     -0.28      0.00
  -20    7    7     -0.85      0.00
  -20    7    6      0.69      0.00
  -20    7    5      0.23      0.00
  -20    7    4      1.30      0.00
  -20    7    3      0.66      0.00
  -20    8   11     -1.06      0.00
  -20    8   10      1.26      0.00
  -20    8    9     -2.19      0.00
  -20    8    8      0.58      0.00
  -20    8    7     -0.90      0.00
  -20    8    6      1.08      0.00
  -21    0   16      1.78      0.00
  -21    0   14     -0.37      0.00
  -21    0   12     -0.76      0.00
  -21    0   10      0.39      0.00
  -21    0    8      1.32      0.00
  -21    0    6      0.21      0.00
  -21    0    4      1.23      0.00
  -21    0    2      1.01      0.00
  -21    1   17     -0.44      0.00
  -21    1   16     -1.94      0.00
  -21    1   15      0.21      0.00
  -21    1   14     -0.19      0.00
  -21    1   13      0.68      0.00
  -21    1   12      0.73      0.00
  -21    1   11      0.18      0.00
  -21    1   10      0.95      0.00
  -21    1    9     -0.61      0.00
  -21    1    8      0.81      0.00
  -21    1    7     -0.75      0.00
  -21    1    6      0.39      0.00
  -21    1    5      0.84      0.00
  -21    1    4      0.70      0.00
  -21    1    3     -0.31      0.00
  -21    1    2      0.43      0.00
  -21    1    1     -0.21      0.00
  -21    2   17      0.93      0.00
  -21    2   16     -0.94      0.00
  -21    2   15      1.30      0.00
  -21    2   14      0.19      0.00
  -21    2   13     -1.06      0.00
  -21    2   12     -0.54      0.00
  -21    2   11     -1.01      0.00
  -21    2   10      0.75      0.00
  -21    2    9     -0.93      0.00
  -21    2    8      0.27      0.00
  -21    2    7      0.14      0.00
  -21    2    6     -0.61      0.00
  -21    2    5      0.35      0.00
  -21    2    4     -0.36      0.00
  -21    2    3     -1.12      0.00
  -21    2    2      0.95      0.00
  -21    2    1      0.30      0.00
  -21    3   16     -0.77      0.00
  -21    3   15     -0.22      0.00
  -21    3   14     -0.55      0.00
  -21    3   13     -0.79      0.00
  -21    3   12      1.17      0.00
  -21    3   11     -0.26      0.00
  -21    3   10      1.04      0.00
  -21    3    9     -0.58      0.00
  -21    3    8      0.08      0.00
  -21    3    7      0.60      0.00
  -21    3    6     -0.36      0.00
  -21    3    5      0.57      0.00
  -21    3    4      1.72      0.00
  -21    3    3      0.02      0.00
  -21    3    2     -0.92      0.00
  -21    3    1     -0.58      0.00
  -21    4   16     -0.91      0.00
  -21    4   15      0.10      0.00
  -21    4   14      0.55      0.00
  -21    4   13     -0.39      0.00
  -21    4   12      0.31      0.00
  -21    4   11     -0.53      0.00
  -21    4   10     -0.85      0.00
  -21    4    9     -0.10      0.00
  -21    4    8     -0.54      0.00
  -21    4    7      0.40      0.00
  -21    4    6      0.02      0.00
  -21    4    5     -0.12      0.00
  -21    4    4     -0.68      0.00
  -21    4    3     -0.65      0.00
  -21    4    2     -0.93      0.00
  -21    5   15     -0.72      0.00
  -21    5   14      0.04      0.00
  -21    5   13     -0.51      0.00
  -21    5   12     -0.02      0.00
  -21    5   11      0.60      0.00
  -21    5   10      0.02      0.00
  -21    5    9      0.25      0.00
  -21    5    8      0.84      0.00
  -21    5    7     -0.18      0.00
  -21    5    6      0.64      0.00
  -21    5    5     -0.56      0.00
  -21    5    4     -0.43      0.00
  -21    5    3     -1.19      0.00
  -21    6   13      0.98      0.00
  -21    6   12      1.14      0.00
  -21    6   11      0.45      0.00
  -21    6   10      0.25      0.00
  -21    6    9     -0.32      0.00
  -21    6    8      0.30      0.00
  -21    6    7      0.37      0.00
  -21    6    6     -0.83      0.00
  -21    6    5     -0.93      0.00
  -21    6    4     -0.55      0.00
  -21    7   11      0.50      0.00
  -21    7   10     -1.18      0.00
  -21    7    9      1.11      0.00
  -21    7    8     -1.40      0.00
  -21    7    7      0.30      0.00
  -22    0   16      1.58      0.00
  -22    0   14     -0.21      0.00
  -22    0   12     -1.38      0.00
  -22    0   10     -0.03      0.00
  -22    0    8      0.02      0.00
  -22    0    6     -0.14      0.00
  -22    0    4      0.09      0.00
  -22    1   16      0.27      0.00
  -22    1   15     -0.11      0.00
  -22    1   14     -0.62      0.00
  -22    1   13      0.85      0.00
  -22    1   12      0.55      0.00
  -22    1   11      0.58      0.00
  -22    1   10      0.28      0.00
  -22    1    9      0.06      0.00
  -22    1    8      0.03      0.00
  -22    1    7     -1.09      0.00
  -22    1    6      0.61      0.00
  -22    1    5     -0.06      0.00
  -22    1    4      0.59      0.00
  -22    1    3      0.19      0.00
  -22    2   15      1.80      0.00
  -22    2   14      0.52      0.00
  -22    2   13      0.50      0.00
  -22    2   12     -0.13      0.00
  -22    2   11     -0.19      0.00
  -22    2   10     -0.65      0.00
  -22    2    9     -0.33      0.00
  -22    2    8      0.54      0.00
  -22    2    7     -0.59      0.00
  -22    2    6      0.05      0.00
  -22    2    5      0.65      0.00
  -22    2    4     -1.03      0.00
  -22    2    3     -0.80      0.00
  -22    3   15      0.50      0.00
  -22    3   14     -0.63      0.00
  -22    3   13     -1.10      0.00
  -22    3   12     -0.58      0.00
  -22    3   11      0.00      0.00
  -22    3   10      0.47      0.00
  -22    3    9      0.13      0.00
  -22    3    8      0.65      0.00
  -22    3    7      0.30      0.00
  -22    3    6     -0.63      0.00
  -22    3    5      0.78      0.00
  -22    3    4      1.54      0.00
  -22    4   14      0.06      0.00
  -22    4   13     -0.24      0.00
  -22    4   12      0.52      0.00
  -22    4   11      0.13      0.00
  -22    4   10     -0.10      0.00
  -22    4    9     -0.09      0.00
  -22    4    8     -0.59      0.00
  -22    4    7      0.04      0.00
  -22    4    6      0.21      0.00
  -22    4    5      0.39      0.00
  -22    5   12     -0.39      0.00
  -22    5   11      0.07      0.00
  -22    5   10     -0.60      0.00
  -22    5    9      0.26      0.00
  -22    5    8      0.27      0.00
  -22    5    7      0.05      0.00
  -22    5    6      0.78      0.00
  -23    0   14     -0.32      0.00
  -23    0   12     -0.72      0.00
  -23    0   10     -0.35      0.00
  -23    0    8     -0.55      0.00
  -23    0    6      0.04      0.00
  -23    1   13      0.59      0.00
  -23    1   12     -0.34      0.00
  -23    1   11      0.50      0.00
  -23    1   10     -0.07      0.00
  -23    1    9      0.01      0.00
  -23    1    8      0.07      0.00
  -23    1    7     -0.13      0.00
  -23    1    6     -0.01      0.00
  -23    2   13      1.41      0.00
  -23    2   12      0.57      0.00
  -23    2   11     -0.49      0.00
  -23    2   10     -0.31      0.00
  -23    2    9     -0.18      0.00
  -23    2    8     -0.08      0.00
  -23    2    7     -0.35      0.00
  -23    3   12     -0.60      0.00
  -23    3   11     -0.58      0.00
  -23    3   10     -0.65      0.00
  -23    3    9      0.89      0.00
  -23    3    8     -0.11      0.00
   21    0    0      0.91      0.00
   22    0    0      1.23      0.00
   23    0    0      0.24      0.00
   21    1    0      0.26      0.00
   22    1    0     -0.53      0.00
   23    1    0     -0.70      0.00
    0    2    0    -97.55      0.00
    1    2    0    -62.72      0.00
   21    2    0     -0.74      0.00
   22    2    0     -0.06      0.00
    1    3    0     23.03      0.00
   21    3    0      1.05      0.00
   22    3    0      0.46      0.00
    0    4    0     28.25      0.00
    1    4    0     25.15      0.00
    2    4    0     10.55      0.00
   21    4    0      0.09      0.00
   22    4    0     -0.21      0.00
    1    5    0    -19.97      0.00
    2    5    0    -27.65      0.00
   20    5    0     -0.92      0.00
   21    5    0     -0.11      0.00
   22    5    0      0.20      0.00
    0    6    0    -17.42      0.00
    1    6    0    -11.10      0.00
   20    6    0      0.32      0.00
   21    6    0      0.68      0.00
    1    7    0      1.98      0.00
   19    7    0      0.36      0.00
   20    7    0     -0.14      0.00
   21    7    0      0.09      0.00
    0    8    0     -2.86      0.00
    1    8    0     -0.82      0.00
   19    8    0     -0.34      0.00
   20    8    0      0.18      0.00
    1    9    0      1.70      0.00
   18    9    0     -0.32      0.00
   19    9    0     -0.22      0.00
    0   10    0      0.02      0.00
    1   10    0     -0.64      0.00
   17   10    0     -0.35      0.00
   18   10    0     -0.03      0.00
    1   11    0      0.00      0.00
   16   11    0     -0.44      0.00
   17   11    0      0.45      0.00
    0   12    0     -1.38      0.00
    1   12    0     -0.32      0.00
   14   12    0     -0.68      0.00
   15   12    0      0.27      0.00
   16   12    0      0.74      0.00
    1   13    0      0.50      0.00
    2   13    0      1.24      0.00
   13   13    0      0.47      0.00
   14   13    0     -0.41      0.00
   15   13    0     -0.48      0.00
    0   14    0      0.35      0.00
    1   14    0      0.73      0.00
    2   14    0      0.55      0.00
   10   14    0      1.47      0.00
   11   14    0      1.16      0.00
   12   14    0     -0.19      0.00
   13   14    0     -0.54      0.00
    1   15    0     -0.02      0.00
    2   15    0     -0.51      0.00
    8   15    0      0.52      0.00
    9   15    0      0.43      0.00
   10   15    0     -0.17      0.00
   11   15    0     -0.72      0.00
  -23    1    1     -0.25      0.00
  -22    1    1     -0.37      0.00
   21    1    1      0.34      0.00
   22    1    1      0.00      0.00
  -23    2    1      0.09      0.00
  -22    2    1      0.24      0.00
   -1    2    1    -63.24      0.00
    0    2    1    -31.35      0.00
   21    2    1      0.23      0.00
   22    2    1      0.05      0.00
  -23    3    1      0.22      0.00
  -22    3    1     -0.48      0.00
   -1    3    1     15.27      0.00
    0    3    1     30.93      0.00
   21    3    1      0.45      0.00
   22    3    1     -0.46      0.00
  -22    4    1     -0.58      0.00
  -21    4    1      0.06      0.00
   -2    4    1     21.97      0.00
   -1    4    1      1.07      0.00
    0    4    1     -7.35      0.00
    1    4    1      0.06      0.00
   20    4    1      0.45      0.00
   21    4    1     -0.83      0.00
  -22    5    1      0.05      0.00
  -21    5    1      0.31      0.00
   -2    5    1    -18.13      0.00
   -1    5    1    -15.82      0.00
    0    5    1     -2.39      0.00
    1    5    1     -2.27      0.00
   20    5    1     -0.27      0.00
   21    5    1     -0.16      0.00
  -22    6    1      0.11      0.00
  -21    6    1      0.95      0.00
  -20    6    1      0.15      0.00
   -1    6    1     -6.51      0.00
    0    6    1     -3.26      0.00
   19    6    1      0.69      0.00
   20    6    1      0.75      0.00
   21    6    1      0.24      0.00
  -21    7    1     -0.32      0.00
  -20    7    1     -0.64      0.00
   -1    7    1      5.49      0.00
    0    7    1      7.85      0.00
   19    7    1      0.96      0.00
   20    7    1     -0.23      0.00
  -20    8    1     -0.15      0.00
  -19    8    1     -0.31      0.00
   -1    8    1      1.64      0.00
    0    8    1     -1.00      0.00
   18    8    1     -0.31      0.00
   19    8    1     -0.32      0.00
  -20    9    1     -0.52      0.00
  -19    9    1     -0.32      0.00
  -18    9    1      0.72      0.00
   -1    9    1     -3.27      0.00
    0    9    1     -0.64      0.00
   17    9    1     -0.44      0.00
   18    9    1     -0.12      0.00
   19    9    1      0.02      0.00
  -19   10    1     -0.03      0.00
  -18   10    1      0.00      0.00
  -17   10    1      0.15      0.00
   -1   10    1      0.65      0.00
    0   10    1      1.19      0.00
   16   10    1      0.55      0.00
   17   10    1     -0.13      0.00
   18   10    1     -0.62      0.00
  -18   11    1      0.65      0.00
  -17   11    1      0.31      0.00
  -16   11    1     -0.10      0.00
   -1   11    1      0.41      0.00
    0   11    1      0.39      0.00
   15   11    1      0.15      0.00
   16   11    1     -0.70      0.00
   17   11    1     -0.79      0.00
  -17   12    1      0.09      0.00
  -16   12    1     -0.51      0.00
  -15   12    1     -0.36      0.00
   -1   12    1      0.02      0.00
    0   12    1      0.20      0.00
    1   12    1      0.36      0.00
   14   12    1     -0.96      0.00
   15   12    1      0.23      0.00
   16   12    1      0.22      0.00
  -15   13    1      0.14      0.00
  -14   13    1      0.35      0.00
  -13   13    1      0.35      0.00
   -2   13    1     -0.15      0.00
   -1   13    1      0.15      0.00
    0   13    1      0.51      0.00
    1   13    1      0.41      0.00
   12   13    1     -0.78      0.00
   13   13    1     -0.55      0.00
   14   13    1      0.35      0.00
  -14   14    1     -0.63      0.00
  -13   14    1     -0.01      0.00
  -12   14    1      1.06      0.00
  -11   14    1      0.29      0.00
   -2   14    1      1.39      0.00
   -1   14    1      0.80      0.00
    0   14    1      0.22      0.00
    1   14    1      0.51      0.00
   10   14    1      0.92      0.00
   11   14    1      0.37      0.00
   12   14    1     -0.52      0.00
   13   14    1      0.05      0.00
  -12   15    1     -0.06      0.00
  -11   15    1     -1.00      0.00
  -10   15    1     -0.98      0.00
   -9   15    1      0.03      0.00
   -8   15    1      0.96      0.00
   -3   15    1      1.66      0.00
   -2   15    1     -0.03      0.00
   -1   15    1     -0.62      0.00
    0   15    1     -0.25      0.00
    1   15    1     -0.59      0.00
    2   15    1     -1.38      0.00
    7   15    1     -1.07      0.00
    8   15    1     -0.09      0.00
    9   15    1      0.84      0.00
   10   15    1      0.11      0.00
   11   15    1     -0.75      0.00
  -23    0    2     -0.87      0.00
  -22    0    2     -0.03      0.00
   20    0    2     -1.10      0.00
   21    0    2     -0.87      0.00
  -23    1    2      0.16      0.00
  -22    1    2      0.87      0.00
   20    1    2     -0.20      0.00
   21    1    2      0.57      0.00
  -23    2    2      0.52      0.00
  -22    2    2      1.10      0.00
   20    2    2     -0.47      0.00
   21    2    2     -0.37      0.00
  -23    3    2      0.88      0.00
  -22    3    2      0.69      0.00
   20    3    2     -0.28      0.00
   21    3    2      0.12      0.00
  -23    4    2     -0.30      0.00
  -22    4    2     -0.86      0.00
   -2    4    2    -10.35      0.00
   -1    4    2    -22.48      0.00
    0    4    2    -22.20      0.00
   20    4    2      0.81      0.00
   21    4    2      0.25      0.00
  -23    5    2     -0.21      0.00
  -22    5    2     -0.11      0.00
  -21    5    2      0.22      0.00
   -2    5    2    -18.78      0.00
   -1    5    2     -0.39      0.00
    0    5    2     22.88      0.00
   19    5    2      0.00      0.00
   20    5    2     -0.84      0.00
   21    5    2     -0.64      0.00
  -22    6    2     -0.03      0.00
  -21    6    2     -0.05      0.00
   19    6    2     -0.98      0.00
   20    6    2     -0.85      0.00
  -22    7    2     -0.09      0.00
  -21    7    2      0.34      0.00
  -20    7    2      0.89      0.00
   18    7    2      0.68      0.00
   19    7    2     -0.20      0.00
   20    7    2     -0.38      0.00
  -21    8    2      0.54      0.00
  -20    8    2     -0.01      0.00
   18    8    2     -0.39      0.00
   19    8    2     -0.74      0.00
  -20    9    2     -0.91      0.00
  -19    9    2     -0.37      0.00
   17    9    2     -0.90      0.00
   18    9    2     -0.25      0.00
  -19   10    2      0.85      0.00
  -18   10    2      0.80      0.00
   16   10    2      0.03      0.00
   17   10    2      1.04      0.00
  -18   11    2      0.06      0.00
  -17   11    2     -0.87      0.00
   -1   11    2      1.46      0.00
   15   11    2      0.60      0.00
   16   11    2      0.06      0.00
  -17   12    2     -0.59      0.00
  -16   12    2      0.19      0.00
  -15   12    2      0.41      0.00
   -2   12    2      0.06      0.00
   -1   12    2     -0.20      0.00
    0   12    2     -0.90      0.00
   13   12    2      1.54      0.00
   14   12    2     -0.11      0.00
   15   12    2     -0.66      0.00
  -16   13    2     -0.03      0.00
  -15   13    2      0.17      0.00
  -14   13    2      0.91      0.00
  -13   13    2      1.03      0.00
   -2   13    2     -0.59      0.00
   -1   13    2     -0.62      0.00
    0   13    2     -1.12      0.00
   11   13    2      0.53      0.00
   12   13    2      0.67      0.00
   13   13    2      0.15      0.00
   14   13    2     -0.13      0.00
  -14   14    2      0.48      0.00
  -13   14    2     -0.74      0.00
  -12   14    2     -1.72      0.00
  -11   14    2     -0.24      0.00
   -2   14    2      0.01      0.00
   -1   14    2      0.07      0.00
    0   14    2     -0.72      0.00
    9   14    2     -0.34      0.00
   10   14    2      0.39      0.00
   11   14    2      0.45      0.00
   12   14    2      0.05      0.00
  -12   15    2     -0.02      0.00
  -11   15    2      0.37      0.00
  -10   15    2      0.50      0.00
   -9   15    2      0.48      0.00
   -8   15    2      1.02      0.00
   -3   15    2      0.05      0.00
   -2   15    2      0.54      0.00
   -1   15    2     -0.01      0.00
    0   15    2     -0.15      0.00
    1   15    2      0.15      0.00
    3   15    2     -0.07      0.00
    6   15    2     -0.08      0.00
    7   15    2     -0.13      0.00
    8   15    2      0.30      0.00
    9   15    2      0.88      0.00
   10   15    2      0.63      0.00
  -23    1    3      0.26      0.00
   20    1    3      0.25      0.00
   21    1    3      0.44      0.00
  -23    2    3     -0.17      0.00
   20    2    3     -0.13      0.00
   21    2    3      0.01      0.00
  -23    3    3      0.33      0.00
  -22    3    3      0.41      0.00
   19    3    3     -1.49      0.00
   20    3    3     -0.95      0.00
   21    3    3      0.00      0.00
  -23    4    3      0.55      0.00
  -22    4    3     -0.13      0.00
   19    4    3     -0.81      0.00
   20    4    3      0.55      0.00
  -23    5    3      0.15      0.00
  -22    5    3     -0.61      0.00
   -1    5    3    -10.37      0.00
   19    5    3      0.13      0.00
   20    5    3      0.73      0.00
  -22    6    3     -0.40      0.00
  -21    6    3      0.57      0.00
   18    6    3     -0.97      0.00
   19    6    3     -0.20      0.00
  -22    7    3      0.50      0.00
  -21    7    3      0.98      0.00
   18    7    3      0.06      0.00
   19    7    3      0.87      0.00
  -21    8    3     -0.07      0.00
  -20    8    3      0.33      0.00
   17    8    3      0.50      0.00
   18    8    3      0.61      0.00
  -21    9    3      0.42      0.00
  -20    9    3     -0.65      0.00
  -19    9    3     -1.33      0.00
   16    9    3      0.63      0.00
   17    9    3      0.44      0.00
   18    9    3     -0.07      0.00
  -20   10    3     -0.16      0.00
  -19   10    3      0.28      0.00
  -18   10    3      0.77      0.00
   15   10    3     -0.17      0.00
   16   10    3      0.39      0.00
   17   10    3      0.02      0.00
  -19   11    3     -0.22      0.00
  -18   11    3     -0.86      0.00
  -17   11    3     -0.37      0.00
   14   11    3     -0.10      0.00
   15   11    3      0.55      0.00
   16   11    3      0.40      0.00
  -18   12    3      0.02      0.00
  -17   12    3      0.16      0.00
  -16   12    3      0.26      0.00
  -15   12    3      0.31      0.00
   12   12    3      1.45      0.00
   13   12    3     -0.15      0.00
   14   12    3     -0.72      0.00
   15   12    3     -0.31      0.00
  -16   13    3      0.02      0.00
  -15   13    3      0.57      0.00
  -14   13    3      0.15      0.00
   11   13    3      0.34      0.00
   12   13    3     -0.41      0.00
   13   13    3     -1.29      0.00
  -15   14    3     -0.01      0.00
  -14   14    3     -0.80      0.00
  -13   14    3     -0.21      0.00
  -12   14    3      1.38      0.00
   -2   14    3     -0.26      0.00
   -1   14    3      0.43      0.00
    9   14    3     -0.90      0.00
   10   14    3     -0.37      0.00
   11   14    3      0.22      0.00
   12   14    3     -0.34      0.00
  -13   15    3      0.50      0.00
  -12   15    3      0.55      0.00
  -11   15    3     -0.24      0.00
  -10   15    3     -0.86      0.00
   -9   15    3     -0.86      0.00
   -8   15    3     -0.64      0.00
   -2   15    3      0.88      0.00
   -1   15    3      0.54      0.00
    0   15    3      0.02      0.00
    5   15    3      1.12      0.00
    6   15    3      1.04      0.00
    7   15    3     -0.26      0.00
    8   15    3     -0.36      0.00
    9   15    3      0.52      0.00
   10   15    3      0.62      0.00
  -23    0    4     -0.79      0.00
   19    0    4      1.41      0.00
   20    0    4      0.94      0.00
  -23    1    4     -0.12      0.00
   19    1    4      0.79      0.00
   20    1    4     -0.09      0.00
  -23    2    4     -0.92      0.00
   19    2    4     -0.03      0.00
   20    2    4     -0.10      0.00
  -23    3    4      0.02      0.00
   19    3    4      0.07      0.00
   20    3    4     -0.16      0.00
  -23    4    4      1.09      0.00
  -22    4    4      0.32      0.00
   18    4    4     -0.14      0.00
   19    4    4      0.51      0.00
   20    4    4      0.32      0.00
  -23    5    4     -0.55      0.00
  -22    5    4     -0.62      0.00
   18    5    4      1.70      0.00
   19    5    4      1.30      0.00
  -23    6    4     -0.03      0.00
  -22    6    4     -0.25      0.00
   18    6    4      0.42      0.00
   19    6    4     -0.14      0.00
  -22    7    4     -0.53      0.00
  -21    7    4     -0.24      0.00
   17    7    4     -0.72      0.00
   18    7    4     -0.11      0.00
  -22    8    4      0.02      0.00
  -21    8    4      0.69      0.00
  -20    8    4      0.33      0.00
   16    8    4      0.11      0.00
   17    8    4      0.96      0.00
   18    8    4      0.51      0.00
  -21    9    4      0.29      0.00
  -20    9    4     -0.63      0.00
  -19    9    4     -0.67      0.00
   15    9    4      1.68      0.00
   16    9    4      0.37      0.00
   17    9    4     -0.50      0.00
  -20   10    4     -0.02      0.00
  -19   10    4      0.58      0.00
  -18   10    4      0.83      0.00
   14   10    4      1.05      0.00
   15   10    4     -0.45      0.00
   16   10    4     -1.24      0.00
  -19   11    4      0.08      0.00
  -18   11    4      0.27      0.00
  -17   11    4     -0.04      0.00
   13   11    4     -0.39      0.00
   14   11    4      0.10      0.00
   15   11    4     -0.16      0.00
  -18   12    4     -0.50      0.00
  -17   12    4     -0.46      0.00
  -16   12    4      0.44      0.00
   12   12    4     -0.42      0.00
   13   12    4      0.62      0.00
   14   12    4      0.65      0.00
  -16   13    4      0.90      0.00
  -15   13    4     -0.57      0.00
  -14   13    4     -1.26      0.00
   10   13    4     -0.70      0.00
   11   13    4     -0.17      0.00
   12   13    4      0.80      0.00
  -15   14    4     -0.37      0.00
  -14   14    4      0.20      0.00
  -13   14    4      0.62      0.00
  -12   14    4     -0.04      0.00
    8   14    4     -1.04      0.00
    9   14    4     -1.08      0.00
   10   14    4      0.00      0.00
   11   14    4      0.56      0.00
  -13   15    4     -0.21      0.00
  -12   15    4     -0.50      0.00
  -11   15    4     -0.25      0.00
  -10   15    4      0.13      0.00
   -9   15    4     -0.45      0.00
   -8   15    4     -0.56      0.00
    4   15    4     -0.07      0.00
    5   15    4     -0.67      0.00
    6   15    4     -0.72      0.00
    7   15    4     -1.23      0.00
    8   15    4     -0.96      0.00
    9   15    4      0.15      0.00
  -23    1    5     -0.30      0.00
   18    1    5      0.76      0.00
   19    1    5     -0.34      0.00
   20    1    5     -0.30      0.00
  -23    2    5      0.24      0.00
   18    2    5     -0.77      0.00
   19    2    5     -0.31      0.00
  -23    3    5      0.01      0.00
   18    3    5      1.02      0.00
   19    3    5      0.85      0.00
  -23    4    5      0.48      0.00
   18    4    5      1.25      0.00
   19    4    5     -0.71      0.00
  -23    5    5      0.54      0.00
  -22    5    5      0.25      0.00
   17    5    5      0.83      0.00
   18    5    5     -0.85      0.00
   19    5    5     -0.92      0.00
  -23    6    5     -0.18      0.00
  -22    6    5     -0.79      0.00
   17    6    5     -0.04      0.00
   18    6    5     -0.93      0.00
  -23    7    5     -0.77      0.00
  -22    7    5     -0.14      0.00
  -21    7    5      0.30      0.00
   16    7    5      0.62      0.00
   17    7    5     -0.16      0.00
   18    7    5     -0.37      0.00
  -22    8    5      0.39      0.00
  -21    8    5      0.28      0.00
  -20    8    5      0.55      0.00
   15    8    5      0.31      0.00
   16    8    5     -0.10      0.00
   17    8    5     -0.46      0.00
  -21    9    5      0.74      0.00
  -20    9    5      0.83      0.00
   15    9    5     -0.40      0.00
   16    9    5     -0.26      0.00
  -20   10    5     -1.01      0.00
  -19   10    5     -0.78      0.00
   14   10    5     -0.19      0.00
   15   10    5     -0.74      0.00
  -19   11    5      0.89      0.00
  -18   11    5      0.87      0.00
  -17   11    5      0.06      0.00
   12   11    5     -0.20      0.00
   13   11    5     -0.68      0.00
   14   11    5     -0.66      0.00
  -18   12    5     -0.48      0.00
  -17   12    5     -0.57      0.00
  -16   12    5     -0.54      0.00
   11   12    5     -0.94      0.00
   12   12    5      0.24      0.00
   13   12    5      0.15      0.00
  -17   13    5     -0.67      0.00
  -16   13    5     -1.04      0.00
  -15   13    5     -0.20      0.00
  -14   13    5      0.39      0.00
    9   13    5      0.17      0.00
   10   13    5      0.33      0.00
   11   13    5      0.48      0.00
   12   13    5      0.39      0.00
  -15   14    5      0.77      0.00
  -14   14    5     -0.15      0.00
  -13   14    5      0.00      0.00
  -12   14    5      1.37      0.00
    7   14    5      0.87      0.00
    8   14    5      0.97      0.00
    9   14    5      0.01      0.00
   10   14    5     -0.39      0.00
  -13   15    5      0.58      0.00
  -12   15    5      0.24      0.00
  -11   15    5     -1.14      0.00
  -10   15    5     -0.97      0.00
   -9   15    5      0.55      0.00
   -8   15    5      0.50      0.00
    3   15    5     -0.97      0.00
    4   15    5     -0.45      0.00
    5   15    5      0.50      0.00
    6   15    5      0.56      0.00
    7   15    5     -0.22      0.00
    8   15    5     -0.56      0.00
   18    0    6     -2.94      0.00
   19    0    6     -1.36      0.00
   18    1    6     -0.42      0.00
   19    1    6      0.92      0.00
  -23    2    6      0.12      0.00
   18    2    6      0.65      0.00
   19    2    6      0.30      0.00
  -23    3    6     -0.87      0.00
   17    3    6     -0.65      0.00
   18    3    6     -0.91      0.00
  -23    4    6      0.49      0.00
   17    4    6     -1.12      0.00
   18    4    6     -0.48      0.00
  -23    5    6      0.56      0.00
   17    5    6     -0.85      0.00
   18    5    6      0.07      0.00
  -23    6    6      0.49      0.00
  -22    6    6     -0.07      0.00
   16    6    6     -0.45      0.00
   17    6    6      0.19      0.00
  -23    7    6     -0.38      0.00
  -22    7    6     -1.06      0.00
  -21    7    6     -0.94      0.00
   15    7    6      0.64      0.00
   16    7    6      0.34      0.00
   17    7    6      0.00      0.00
  -22    8    6     -0.04      0.00
  -21    8    6      0.79      0.00
   15    8    6     -0.30      0.00
   16    8    6     -0.42      0.00
  -21    9    6      0.53      0.00
  -20    9    6     -0.46      0.00
   14    9    6     -0.94      0.00
   15    9    6      0.09      0.00
  -21   10    6     -0.62      0.00
  -20   10    6     -1.11      0.00
  -19   10    6     -0.24      0.00
   13   10    6     -0.70      0.00
   14   10    6      0.60      0.00
   15   10    6      0.67      0.00
  -19   11    6      0.61      0.00
  -18   11    6      1.05      0.00
   12   11    6     -0.87      0.00
   13   11    6     -0.05      0.00
  -18   12    6     -0.07      0.00
  -17   12    6     -1.17      0.00
  -16   12    6     -1.41      0.00
   10   12    6     -0.91      0.00
   11   12    6     -0.74      0.00
   12   12    6     -0.52      0.00
  -17   13    6     -0.58      0.00
  -16   13    6      0.99      0.00
  -15   13    6      1.39      0.00
  -14   13    6      0.32      0.00
    8   13    6     -0.27      0.00
    9   13    6     -0.26      0.00
   10   13    6      0.20      0.00
   11   13    6      0.47      0.00
  -15   14    6      0.33      0.00
  -14   14    6     -0.69      0.00
  -13   14    6     -0.65      0.00
  -12   14    6      0.47      0.00
    6   14    6     -0.13      0.00
    7   14    6      1.28      0.00
    8   14    6      1.40      0.00
    9   14    6      0.62      0.00
  -13   15    6     -0.14      0.00
  -12   15    6     -0.76      0.00
  -11   15    6     -0.70      0.00
  -10   15    6      0.32      0.00
   -9   15    6      0.13      0.00
   -8   15    6     -0.61      0.00
   -7   15    6     -0.18      0.00
    2   15    6      0.49      0.00
    3   15    6     -0.59      0.00
    4   15    6     -0.58      0.00
    5   15    6      0.48      0.00
    6   15    6      1.36      0.00
    7   15    6      0.42      0.00
   17    1    7      0.22      0.00
   18    1    7      1.27      0.00
   17    2    7      1.70      0.00
   18    2    7      0.24      0.00
  -23    3    7     -0.18      0.00
   16    3    7     -0.45      0.00
   17    3    7     -1.88      0.00
   18    3    7     -1.42      0.00
  -23    4    7     -0.29      0.00
   16    4    7     -2.18      0.00
   17    4    7     -0.32      0.00
  -23    5    7     -0.10      0.00
   16    5    7      0.41      0.00
   17    5    7      1.19      0.00
  -23    6    7      0.41      0.00
  -22    6    7     -0.03      0.00
   15    6    7     -0.19      0.00
   16    6    7      0.04      0.00
   17    6    7      0.25      0.00
  -23    7    7     -0.22      0.00
  -22    7    7      0.38      0.00
   15    7    7     -0.70      0.00
   16    7    7      0.13      0.00
  -22    8    7     -0.05      0.00
  -21    8    7     -1.12      0.00
   14    8    7     -0.33      0.00
   15    8    7      0.21      0.00
  -22    9    7     -1.05      0.00
  -21    9    7     -0.02      0.00
  -20    9    7      1.57      0.00
   13    9    7     -0.13      0.00
   14    9    7      0.04      0.00
   15    9    7      0.44      0.00
  -21   10    7      0.70      0.00
  -20   10    7      0.18      0.00
  -19   10    7     -0.74      0.00
   12   10    7     -0.02      0.00
   13   10    7      0.64      0.00
   14   10    7      0.69      0.00
  -20   11    7     -0.15      0.00
  -19   11    7     -0.06      0.00
  -18   11    7      0.50      0.00
   11   11    7      0.56      0.00
   12   11    7      0.55      0.00
   13   11    7      0.47      0.00
  -18   12    7      0.22      0.00
  -17   12    7      0.13      0.00
  -16   12    7     -0.16      0.00
    9   12    7      0.74      0.00
   10   12    7      0.07      0.00
   11   12    7     -0.37      0.00
  -17   13    7      0.27      0.00
  -16   13    7     -0.16      0.00
  -15   13    7     -0.20      0.00
  -14   13    7     -0.03      0.00
    7   13    7     -0.20      0.00
    8   13    7     -0.60      0.00
    9   13    7     -0.53      0.00
   10   13    7     -0.31      0.00
  -15   14    7      0.08      0.00
  -14   14    7     -0.79      0.00
  -13   14    7     -1.19      0.00
  -12   14    7      0.12      0.00
  -11   14    7      1.69      0.00
    4   14    7      0.37      0.00
    5   14    7     -0.06      0.00
    6   14    7     -0.58      0.00
    7   14    7     -0.31      0.00
    8   14    7     -0.01      0.00
  -13   15    7      0.91      0.00
  -12   15    7      1.62      0.00
  -11   15    7      0.14      0.00
  -10   15    7     -1.34      0.00
   -9   15    7     -0.19      0.00
   -8   15    7      1.14      0.00
   -7   15    7     -0.14      0.00
   -6   15    7     -2.04      0.00
   -1   15    7     -1.15      0.00
    0   15    7     -0.21      0.00
    1   15    7      0.93      0.00
    2   15    7      0.48      0.00
    3   15    7     -0.48      0.00
    4   15    7     -0.34      0.00
    5   15    7      0.13      0.00
    6   15    7      0.22      0.00
   16    0    8      2.83      0.00
   17    0    8      1.44      0.00
   16    1    8     -0.33      0.00
   17    1    8     -1.45      0.00
   16    2    8     -1.22      0.00
   17    2    8      0.43      0.00
   16    3    8      1.42      0.00
   17    3    8      0.68      0.00
  -23    4    8      0.08      0.00
   15    4    8      1.33      0.00
   16    4    8      0.68      0.00
   17    4    8     -0.14      0.00
  -23    5    8     -0.53      0.00
   15    5    8     -0.12      0.00
   16    5    8      0.14      0.00
  -23    6    8      0.95      0.00
  -22    6    8      0.98      0.00
   14    6    8      0.17      0.00
   15    6    8      0.15      0.00
   16    6    8     -0.34      0.00
  -23    7    8      0.22      0.00
  -22    7    8     -0.85      0.00
   14    7    8     -0.22      0.00
   15    7    8     -0.59      0.00
  -22    8    8     -0.46      0.00
  -21    8    8      0.16      0.00
   13    8    8     -0.50      0.00
   14    8    8     -0.27      0.00
   15    8    8      0.19      0.00
  -22    9    8      0.35      0.00
  -21    9    8      1.20      0.00
  -20    9    8      1.13      0.00
   12    9    8      0.42      0.00
   13    9    8     -0.15      0.00
   14    9    8     -0.14      0.00
  -21   10    8      0.25      0.00
  -20   10    8     -0.91      0.00
  -19   10    8     -1.62      0.00
   11   10    8      0.16      0.00
   12   10    8     -0.08      0.00
   13   10    8     -0.17      0.00
  -20   11    8     -0.49      0.00
  -19   11    8     -0.49      0.00
  -18   11    8      0.06      0.00
   10   11    8      0.76      0.00
   11   11    8      0.96      0.00
   12   11    8      0.36      0.00
  -18   12    8      0.96      0.00
  -17   12    8      0.74      0.00
  -16   12    8     -0.97      0.00
    8   12    8      1.00      0.00
    9   12    8      1.45      0.00
   10   12    8      0.70      0.00
  -17   13    8     -0.46      0.00
  -16   13    8     -0.72      0.00
  -15   13    8     -0.27      0.00
  -14   13    8      1.05      0.00
    6   13    8      0.08      0.00
    7   13    8      0.45      0.00
    8   13    8     -0.35      0.00
    9   13    8     -1.08      0.00
  -15   14    8      0.24      0.00
  -14   14    8     -0.01      0.00
  -13   14    8     -0.55      0.00
  -12   14    8     -0.60      0.00
  -11   14    8      0.11      0.00
    3   14    8      1.19      0.00
    4   14    8      1.47      0.00
    5   14    8     -0.16      0.00
    6   14    8     -1.16      0.00
    7   14    8     -0.66      0.00
  -13   15    8      0.44      0.00
  -12   15    8      0.22      0.00
  -11   15    8      0.08      0.00
  -10   15    8      0.36      0.00
   -9   15    8     -0.07      0.00
   -8   15    8     -0.50      0.00
   -7   15    8      0.19      0.00
   -6   15    8      1.12      0.00
   -5   15    8      0.27      0.00
   -4   15    8     -0.95      0.00
   -3   15    8     -0.03      0.00
   -2   15    8      0.50      0.00
   -1   15    8     -0.82      0.00
    0   15    8     -0.93      0.00
    1   15    8      0.49      0.00
    2   15    8      1.62      0.00
    3   15    8      1.03      0.00
    4   15    8     -0.26      0.00
    5   15    8     -0.57      0.00
   15    1    9      0.35      0.00
   16    1    9     -0.77      0.00
   15    2    9     -1.51      0.00
   16    2    9     -0.29      0.00
   15    3    9      1.76      0.00
   16    3    9      1.26      0.00
  -23    4    9      0.46      0.00
   14    4    9      1.49      0.00
   15    4    9      0.30      0.00
   16    4    9     -0.82      0.00
  -23    5    9     -0.31      0.00
   14    5    9     -0.08      0.00
   15    5    9     -0.22      0.00
  -23    6    9      0.26      0.00
  -22    6    9     -0.57      0.00
   13    6    9      0.33      0.00
   14    6    9      0.43      0.00
   15    6    9      0.73      0.00
  -23    7    9     -0.92      0.00
  -22    7    9      0.30      0.00
   13    7    9      0.68      0.00
   14    7    9      0.20      0.00
  -23    8    9      0.91      0.00
  -22    8    9      1.50      0.00
  -21    8    9     -0.28      0.00
   12    8    9     -0.29      0.00
   13    8    9      0.31      0.00
   14    8    9      0.07      0.00
  -22    9    9     -0.87      0.00
  -21    9    9     -1.80      0.00
  -20    9    9      0.35      0.00
   11    9    9     -0.15      0.00
   12    9    9      0.78      0.00
   13    9    9      0.47      0.00
  -21   10    9      0.30      0.00
  -20   10    9      0.67      0.00
  -19   10    9      0.05      0.00
   10   10    9      0.16      0.00
   11   10    9      0.14      0.00
   12   10    9     -0.10      0.00
  -20   11    9      0.06      0.00
  -19   11    9     -0.10      0.00
  -18   11    9     -0.07      0.00
  -17   11    9     -0.30      0.00
    8   11    9     -0.07      0.00
    9   11    9      0.29      0.00
   10   11    9      0.19      0.00
   11   11    9     -0.11      0.00
  -18   12    9     -0.04      0.00
  -17   12    9      0.31      0.00
  -16   12    9      0.27      0.00
    7   12    9     -0.15      0.00
    8   12    9      0.12      0.00
    9   12    9      0.25      0.00
  -17   13    9      0.38      0.00
  -16   13    9      0.23      0.00
  -15   13    9      0.01      0.00
  -14   13    9      0.15      0.00
  -13   13    9      0.67      0.00
  -11   13    9      0.65      0.00
    4   13    9     -0.92      0.00
    5   13    9     -0.80      0.00
    6   13    9      0.03      0.00
    7   13    9      0.11      0.00
    8   13    9      0.10      0.00
  -15   14    9      0.03      0.00
  -14   14    9     -0.10      0.00
  -13   14    9     -0.46      0.00
  -12   14    9     -0.91      0.00
  -11   14    9      0.21      0.00
  -10   14    9      0.57      0.00
    1   14    9      0.57      0.00
    2   14    9     -0.49      0.00
    3   14    9     -0.82      0.00
    4   14    9     -0.46      0.00
    5   14    9      0.14      0.00
    6   14    9      0.39      0.00
  -12   15    9      0.79      0.00
  -11   15    9      0.72      0.00
  -10   15    9     -0.54      0.00
   -9   15    9     -1.10      0.00
   -8   15    9      0.20      0.00
   -7   15    9      1.13      0.00
   -6   15    9      0.02      0.00
   -5   15    9     -1.45      0.00
   -4   15    9     -0.41      0.00
   -3   15    9      1.14      0.00
   -2   15    9      1.31      0.00
   -1   15    9      0.17      0.00
    0   15    9     -0.27      0.00
    1   15    9     -0.31      0.00
    2   15    9     -0.35      0.00
    3   15    9     -0.13      0.00
   14    0   10     -2.89      0.00
   15    0   10     -1.66      0.00
   14    1   10     -0.52      0.00
   15    1   10      1.65      0.00
   14    2   10      1.61      0.00
   15    2   10     -0.24      0.00
   14    3   10     -1.01      0.00
   15    3   10     -1.01      0.00
  -23    4   10      0.22      0.00
   13    4   10     -0.66      0.00
   14    4   10     -0.07      0.00
   15    4   10     -0.08      0.00
  -23    5   10     -0.27      0.00
   13    5   10      0.62      0.00
   14    5   10      0.49      0.00
  -23    6   10      0.20      0.00
  -22    6   10      0.58      0.00
   12    6   10      0.46      0.00
   13    6   10     -0.06      0.00
   14    6   10     -0.24      0.00
  -23    7   10      0.57      0.00
  -22    7   10     -0.35      0.00
   12    7   10     -0.36      0.00
   13    7   10     -0.16      0.00
  -23    8   10      0.06      0.00
  -22    8   10     -0.73      0.00
  -21    8   10      0.01      0.00
   11    8   10     -0.10      0.00
   12    8   10      0.35      0.00
   13    8   10      0.36      0.00
  -22    9   10     -0.14      0.00
  -21    9   10      0.32      0.00
  -20    9   10      0.50      0.00
   10    9   10     -0.25      0.00
   11    9   10      0.45      0.00
   12    9   10      0.51      0.00
  -21   10   10      0.75      0.00
  -20   10   10      0.32      0.00
  -19   10   10     -0.19      0.00
    9   10   10      0.00      0.00
   10   10   10      0.19      0.00
   11   10   10      0.19      0.00
  -20   11   10     -0.01      0.00
  -19   11   10     -0.42      0.00
  -18   11   10     -0.75      0.00
  -17   11   10     -0.65      0.00
    7   11   10      0.70      0.00
    8   11   10      0.09      0.00
    9   11   10     -0.68      0.00
   10   11   10     -0.78      0.00
  -18   12   10     -0.26      0.00
  -17   12   10      0.70      0.00
  -16   12   10      1.07      0.00
  -15   12   10      0.23      0.00
    5   12   10      1.14      0.00
    6   12   10      0.51      0.00
    7   12   10     -0.52      0.00
    8   12   10     -0.54      0.00
  -17   13   10      0.53      0.00
  -16   13   10      0.07      0.00
  -15   13   10     -0.68      0.00
  -14   13   10     -0.11      0.00
  -13   13   10      0.82      0.00
    3   13   10      0.85      0.00
    4   13   10      0.49      0.00
    5   13   10     -0.13      0.00
    6   13   10     -0.04      0.00
    7   13   10      0.15      0.00
  -14   14   10      0.50      0.00
  -13   14   10      0.57      0.00
  -12   14   10     -0.85      0.00
  -11   14   10     -2.07      0.00
  -10   14   10     -1.14      0.00
   -9   14   10      0.73      0.00
   -8   14   10      0.59      0.00
   -2   14   10     -1.07      0.00
   -1   14   10     -0.10      0.00
    0   14   10      0.49      0.00
    1   14   10     -0.39      0.00
    2   14   10     -0.90      0.00
    3   14   10     -0.54      0.00
    4   14   10     -0.05      0.00
  -11   15   10     -0.21      0.00
  -10   15   10      0.34      0.00
   -9   15   10      0.47      0.00
   -8   15   10      0.00      0.00
   -7   15   10     -0.06      0.00
   -6   15   10      1.30      0.00
   -5   15   10      1.58      0.00
   -4   15   10     -0.33      0.00
   -3   15   10     -0.91      0.00
   -2   15   10      0.18      0.00
   -1   15   10      0.23      0.00
    0   15   10     -0.48      0.00
    1   15   10     -0.78      0.00
   13    1   11     -0.96      0.00
   14    1   11      0.04      0.00
   13    2   11      1.31      0.00
   14    2   11      0.65      0.00
   13    3   11     -1.29      0.00
   14    3   11     -1.46      0.00
  -23    4   11      0.79      0.00
   12    4   11     -1.45      0.00
   13    4   11     -0.98      0.00
   14    4   11      0.09      0.00
  -23    5   11     -0.27      0.00
   12    5   11     -0.25      0.00
   13    5   11      0.07      0.00
  -23    6   11     -0.03      0.00
  -22    6   11      0.12      0.00
   11    6   11      0.42      0.00
   12    6   11      0.19      0.00
   13    6   11     -0.24      0.00
  -23    7   11     -0.85      0.00
  -22    7   11     -0.69      0.00
   11    7   11      0.83      0.00
   12    7   11      0.08      0.00
  -23    8   11     -0.50      0.00
  -22    8   11      1.12      0.00
  -21    8   11      1.37      0.00
   10    8   11      1.69      0.00
   11    8   11      0.17      0.00
   12    8   11     -0.60      0.00
  -22    9   11      0.68      0.00
  -21    9   11     -1.37      0.00
  -20    9   11     -1.86      0.00
    9    9   11      1.74      0.00
   10    9   11      0.06      0.00
   11    9   11     -0.71      0.00
  -21   10   11     -0.36      0.00
  -20   10   11      0.39      0.00
  -19   10   11      1.06      0.00
  -18   10   11      0.44      0.00
    7   10   11      0.47      0.00
    8   10   11      0.82      0.00
    9   10   11     -0.01      0.00
   10   10   11     -0.49      0.00
  -19   11   11     -0.10      0.00
  -18   11   11      0.09      0.00
  -17   11   11     -0.76      0.00
    6   11   11     -0.54      0.00
    7   11   11     -0.14      0.00
    8   11   11     -0.23      0.00
  -18   12   11     -0.54      0.00
  -17   12   11     -0.62      0.00
  -16   12   11      0.06      0.00
  -15   12   11      1.77      0.00
    4   12   11     -0.53      0.00
    5   12   11      0.14      0.00
    6   12   11      0.35      0.00
    7   12   11      0.21      0.00
  -16   13   11      0.75      0.00
  -15   13   11      0.51      0.00
  -14   13   11     -0.95      0.00
  -13   13   11     -1.90      0.00
  -12   13   11     -0.80      0.00
    1   13   11     -0.61      0.00
    2   13   11      0.41      0.00
    3   13   11      1.23      0.00
    4   13   11      0.54      0.00
    5   13   11     -0.04      0.00
  -14   14   11     -0.14      0.00
  -13   14   11      0.27      0.00
  -12   14   11      0.12      0.00
  -11   14   11      0.44      0.00
  -10   14   11      0.41      0.00
   -9   14   11      0.16      0.00
   -8   14   11      0.73      0.00
   -7   14   11      1.38      0.00
   -6   14   11     -0.32      0.00
   -5   14   11     -1.93      0.00
   -4   14   11     -1.26      0.00
   -3   14   11     -0.69      0.00
   -2   14   11     -0.70      0.00
   -1   14   11     -0.30      0.00
    0   14   11      0.44      0.00
    1   14   11      1.09      0.00
    2   14   11      0.98      0.00
    3   14   11     -0.32      0.00
  -10   15   11      0.58      0.00
   -9   15   11     -0.56      0.00
   -8   15   11     -0.40      0.00
   -7   15   11      0.01      0.00
   -6   15   11     -0.47      0.00
   -5   15   11     -0.95      0.00
   -4   15   11     -0.33      0.00
   -3   15   11     -0.06      0.00
   -2   15   11      0.30      0.00
   -1   15   11      0.71      0.00
   12    0   12      0.94      0.00
   13    0   12      1.95      0.00
   12    1   12      0.83      0.00
   13    1   12     -0.93      0.00
   12    2   12     -1.50      0.00
   13    2   12     -0.35      0.00
   12    3   12      0.48      0.00
   13    3   12      0.31      0.00
  -23    4   12      0.04      0.00
   11    4   12      0.01      0.00
   12    4   12     -0.98      0.00
   13    4   12     -0.15      0.00
  -23    5   12     -0.23      0.00
   11    5   12     -0.97      0.00
   12    5   12     -0.42      0.00
  -23    6   12      0.49      0.00
  -22    6   12      1.49      0.00
   10    6   12     -0.34      0.00
   11    6   12      0.32      0.00
   12    6   12      0.64      0.00
  -23    7   12      0.94      0.00
  -22    7   12      0.33      0.00
  -21    7   12     -1.88      0.00
    9    7   12      0.47      0.00
   10    7   12      0.63      0.00
   11    7   12      0.34      0.00
  -22    8   12     -1.22      0.00
  -21    8   12     -1.27      0.00
  -20    8   12      0.77      0.00
    8    8   12     -0.12      0.00
    9    8   12     -0.30      0.00
   10    8   12     -0.09      0.00
  -22    9   12     -0.35      0.00
  -21    9   12      0.24      0.00
  -20    9   12      1.50      0.00
  -19    9   12      0.74      0.00
    7    9   12     -0.01      0.00
    8    9   12      0.03      0.00
    9    9   12     -0.22      0.00
   10    9   12     -0.57      0.00
  -20   10   12      0.39      0.00
  -19   10   12     -0.38      0.00
  -18   10   12     -0.67      0.00
    6   10   12      0.92      0.00
    7   10   12      0.28      0.00
    8   10   12      0.09      0.00
  -19   11   12     -0.06      0.00
  -18   11   12      0.40      0.00
  -17   11   12     -0.15      0.00
  -16   11   12     -0.65      0.00
    4   11   12      1.25      0.00
    5   11   12      0.01      0.00
    6   11   12     -0.37      0.00
    7   11   12      0.04      0.00
  -18   12   12     -0.50      0.00
  -17   12   12     -0.84      0.00
  -16   12   12     -0.25      0.00
  -15   12   12      0.59      0.00
  -14   12   12      0.80      0.00
    2   12   12      0.31      0.00
    3   12   12     -0.78      0.00
    4   12   12     -0.62      0.00
    5   12   12     -0.35      0.00
    6   12   12     -0.20      0.00
  -16   13   12      0.80      0.00
  -15   13   12      0.59      0.00
  -14   13   12     -0.47      0.00
  -13   13   12     -1.18      0.00
  -12   13   12      0.25      0.00
  -11   13   12      1.28      0.00
  -10   13   12      0.33      0.00
   -2   13   12      0.61      0.00
   -1   13   12      1.01      0.00
    0   13   12      0.02      0.00
    1   13   12     -0.67      0.00
    2   13   12     -0.79      0.00
    3   13   12     -0.15      0.00
    4   13   12      0.24      0.00
  -13   14   12      0.42      0.00
  -12   14   12      0.98      0.00
  -11   14   12      0.31      0.00
  -10   14   12     -0.64      0.00
   -9   14   12      0.12      0.00
   -8   14   12      1.40      0.00
   -7   14   12     -0.01      0.00
   -6   14   12     -2.67      0.00
   -5   14   12     -2.71      0.00
   -4   14   12     -0.63      0.00
   -3   14   12      0.78      0.00
   -2   14   12      0.99      0.00
   -1   14   12      0.36      0.00
    0   14   12     -0.26      0.00
    1   14   12     -0.31      0.00
   -8   15   12     -0.54      0.00
   -7   15   12     -1.65      0.00
   -6   15   12     -0.72      0.00
   -5   15   12      0.99      0.00
   -4   15   12      0.77      0.00
   11    1   13      0.13      0.00
   12    1   13      0.23      0.00
   11    2   13     -0.80      0.00
   12    2   13     -0.33      0.00
  -23    3   13     -0.74      0.00
   10    3   13     -1.00      0.00
   11    3   13     -0.04      0.00
   12    3   13      1.15      0.00
  -23    4   13     -0.31      0.00
   10    4   13      0.14      0.00
   11    4   13      0.85      0.00
   12    4   13      0.36      0.00
  -23    5   13     -0.03      0.00
  -22    5   13     -0.81      0.00
    9    5   13      0.27      0.00
   10    5   13      0.34      0.00
   11    5   13     -0.08      0.00
  -23    6   13     -0.33      0.00
  -22    6   13      0.24      0.00
    9    6   13      0.78      0.00
   10    6   13     -0.42      0.00
   11    6   13     -0.23      0.00
  -23    7   13      0.04      0.00
  -22    7   13     -0.29      0.00
  -21    7   13     -0.23      0.00
    8    7   13      0.74      0.00
    9    7   13     -1.07      0.00
   10    7   13     -0.98      0.00
  -22    8   13     -0.22      0.00
  -21    8   13      1.47      0.00
  -20    8   13      1.19      0.00
    7    8   13      0.06      0.00
    8    8   13     -1.99      0.00
    9    8   13     -1.24      0.00
  -21    9   13      0.40      0.00
  -20    9   13     -0.63      0.00
  -19    9   13     -1.25      0.00
    6    9   13     -0.39      0.00
    7    9   13     -1.72      0.00
    8    9   13     -1.10      0.00
  -20   10   13     -0.34      0.00
  -19   10   13      0.07      0.00
  -18   10   13     -0.05      0.00
  -17   10   13      0.62      0.00
    4   10   13      0.27      0.00
    5   10   13      0.09      0.00
    6   10   13     -0.46      0.00
    7   10   13     -0.25      0.00
  -19   11   13      0.25      0.00
  -18   11   13      0.85      0.00
  -17   11   13      1.13      0.00
  -16   11   13      0.15      0.00
    3   11   13      0.37      0.00
    4   11   13      0.66      0.00
    5   11   13      0.31      0.00
    6   11   13     -0.29      0.00
  -17   12   13     -0.50      0.00
  -16   12   13     -1.39      0.00
  -15   12   13     -1.37      0.00
  -14   12   13      0.39      0.00
  -13   12   13      2.19      0.00
    0   12   13     -0.38      0.00
    1   12   13      0.42      0.00
    2   12   13      0.49      0.00
    3   12   13      0.07      0.00
    4   12   13     -0.26      0.00
  -15   13   13      0.80      0.00
  -14   13   13      1.06      0.00
  -13   13   13      0.25      0.00
  -12   13   13     -1.13      0.00
  -11   13   13     -1.25      0.00
  -10   13   13      0.64      0.00
   -9   13   13      1.22      0.00
   -8   13   13     -1.58      0.00
   -7   13   13     -2.52      0.00
   -6   13   13      0.09      0.00
   -5   13   13      2.59      0.00
   -4   13   13      2.09      0.00
   -3   13   13      0.26      0.00
   -2   13   13     -1.06      0.00
   -1   13   13     -0.33      0.00
    0   13   13      0.07      0.00
    1   13   13     -0.36      0.00
    2   13   13     -0.47      0.00
  -12   14   13     -0.14      0.00
  -11   14   13      0.08      0.00
  -10   14   13      0.23      0.00
   -9   14   13     -0.47      0.00
   -8   14   13     -0.66      0.00
   -7   14   13      0.79      0.00
   -6   14   13      1.29      0.00
   -5   14   13      0.12      0.00
   -4   14   13     -0.57      0.00
   -3   14   13     -0.48      0.00
   -2   14   13     -0.07      0.00
   -1   14   13     -0.20      0.00
   10    0   14      0.84      0.00
   11    0   14      0.05      0.00
  -23    1   14     -0.60      0.00
   10    1   14     -0.41      0.00
   11    1   14     -0.39      0.00
  -23    2   14      0.20      0.00
    9    2   14     -0.53      0.00
   10    2   14      0.47      0.00
   11    2   14      0.20      0.00
  -23    3   14     -0.18      0.00
    9    3   14      0.06      0.00
   10    3   14     -0.32      0.00
   11    3   14      0.17      0.00
  -23    4   14     -0.18      0.00
    9    4   14     -0.12      0.00
   10    4   14      0.50      0.00
  -23    5   14      0.06      0.00
  -22    5   14     -0.39      0.00
    8    5   14     -0.32      0.00
    9    5   14      0.54      0.00
   10    5   14      0.64      0.00
  -23    6   14     -1.02      0.00
  -22    6   14      0.19      0.00
  -21    6   14      1.19      0.00
    7    6   14     -0.41      0.00
    8    6   14     -0.11      0.00
    9    6   14     -0.04      0.00
  -23    7   14      0.69      0.00
  -22    7   14      1.52      0.00
  -21    7   14      0.05      0.00
    7    7   14     -0.43      0.00
    8    7   14     -0.12      0.00
    9    7   14     -0.27      0.00
  -22    8   14     -0.01      0.00
  -21    8   14     -0.96      0.00
  -20    8   14     -1.14      0.00
    6    8   14     -0.12      0.00
    7    8   14      0.22      0.00
    8    8   14      0.41      0.00
  -21    9   14     -1.21      0.00
  -20    9   14     -0.52      0.00
  -19    9   14      0.37      0.00
  -18    9   14      1.00      0.00
    4    9   14     -0.64      0.00
    5    9   14     -0.57      0.00
    6    9   14     -0.07      0.00
    7    9   14      0.25      0.00
  -20   10   14      1.27      0.00
  -19   10   14      0.93      0.00
  -18   10   14      0.65      0.00
  -17   10   14      0.57      0.00
    3   10   14     -1.02      0.00
    4   10   14     -0.87      0.00
    5   10   14     -0.35      0.00
    6   10   14      0.13      0.00
  -18   11   14     -0.08      0.00
  -17   11   14     -0.05      0.00
  -16   11   14     -0.56      0.00
  -15   11   14     -0.81      0.00
  -14   11   14     -0.31      0.00
    0   11   14      0.95      0.00
    1   11   14      0.05      0.00
    2   11   14     -0.43      0.00
    3   11   14     -0.22      0.00
    4   11   14      0.40      0.00
  -16   12   14     -0.41      0.00
  -15   12   14     -0.14      0.00
  -14   12   14      0.30      0.00
  -13   12   14      0.15      0.00
  -12   12   14      0.09      0.00
  -11   12   14      0.54      0.00
  -10   12   14      0.59      0.00
   -4   12   14     -0.46      0.00
   -3   12   14     -0.29      0.00
   -2   12   14      0.59      0.00
   -1   12   14      0.32      0.00
    0   12   14      0.15      0.00
    1   12   14      0.25      0.00
    2   12   14      0.63      0.00
  -14   13   14      0.43      0.00
  -13   13   14     -0.16      0.00
  -12   13   14     -0.51      0.00
  -11   13   14     -0.13      0.00
  -10   13   14     -0.17      0.00
   -9   13   14     -0.72      0.00
   -8   13   14     -1.37      0.00
   -7   13   14     -0.80      0.00
   -6   13   14      0.68      0.00
   -5   13   14      1.22      0.00
   -4   13   14      0.49      0.00
   -3   13   14     -0.19      0.00
   -2   13   14     -0.27      0.00
   -1   13   14      0.36      0.00
    0   13   14      0.80      0.00
   -9   14   14     -0.43      0.00
   -8   14   14      0.41      0.00
   -7   14   14      1.39      0.00
   -6   14   14      1.34      0.00
   -5   14   14      0.24      0.00
  -23    1   15     -0.48      0.00
    8    1   15      0.59      0.00
    9    1   15     -0.15      0.00
   10    1   15     -0.33      0.00
  -23    2   15      1.01      0.00
    8    2   15     -0.86      0.00
    9    2   15     -0.35      0.00
   10    2   15      0.14      0.00
  -23    3   15      1.12      0.00
    8    3   15     -0.36      0.00
    9    3   15      0.50      0.00
   10    3   15      0.06      0.00
  -23    4   15     -0.04      0.00
  -22    4   15      0.08      0.00
    7    4   15     -0.01      0.00
    8    4   15      0.70      0.00
    9    4   15      0.24      0.00
  -23    5   15      0.46      0.00
  -22    5   15     -0.05      0.00
    7    5   15      0.96      0.00
    8    5   15      0.39      0.00
    9    5   15     -0.21      0.00
  -23    6   15     -0.67      0.00
  -22    6   15     -0.94      0.00
  -21    6   15     -0.33      0.00
    6    6   15     -0.58      0.00
    7    6   15     -1.16      0.00
    8    6   15     -0.61      0.00
  -22    7   15      0.36      0.00
  -21    7   15     -0.11      0.00
  -20    7   15     -0.11      0.00
    5    7   15     -0.92      0.00
    6    7   15     -1.31      0.00
    7    7   15     -0.16      0.00
  -22    8   15     -0.11      0.00
  -21    8   15     -0.24      0.00
  -20    8   15      0.40      0.00
  -19    8   15      1.05      0.00
    4    8   15     -0.56      0.00
    5    8   15     -0.90      0.00
    6    8   15      0.38      0.00
    7    8   15      0.93      0.00
  -20    9   15      0.15      0.00
  -19    9   15      0.32      0.00
  -18    9   15     -0.23      0.00
  -17    9   15     -0.30      0.00
    3    9   15     -0.81      0.00
    4    9   15     -0.60      0.00
    5    9   15      0.29      0.00
  -19   10   15      0.22      0.00
  -18   10   15     -0.57      0.00
  -17   10   15     -0.76      0.00
  -16   10   15     -0.32      0.00
    1   10   15     -1.10      0.00
    2   10   15     -0.50      0.00
    3   10   15      0.15      0.00
    4   10   15      0.24      0.00
  -18   11   15     -0.68      0.00
  -17   11   15     -0.28      0.00
  -16   11   15      0.27      0.00
  -15   11   15      0.66      0.00
  -14   11   15      0.10      0.00
  -13   11   15      0.02      0.00
   -2   11   15     -0.46      0.00
   -1   11   15     -0.26      0.00
    0   11   15     -0.10      0.00
    1   11   15      0.43      0.00
    2   11   15      0.19      0.00
    3   11   15      0.13      0.00
  -15   12   15      0.22      0.00
  -14   12   15     -0.13      0.00
  -13   12   15      0.24      0.00
  -12   12   15      0.72      0.00
  -11   12   15     -0.12      0.00
  -10   12   15     -0.79      0.00
   -9   12   15     -0.89      0.00
   -8   12   15      0.28      0.00
   -7   12   15      0.88      0.00
   -6   12   15     -0.10      0.00
   -5   12   15     -1.26      0.00
   -4   12   15     -0.73      0.00
   -3   12   15      0.71      0.00
   -2   12   15      0.85      0.00
   -1   12   15      0.00      0.00
    0   12   15     -0.22      0.00
    1   12   15     -0.23      0.00
  -12   13   15      0.14      0.00
  -11   13   15     -0.87      0.00
  -10   13   15     -0.66      0.00
   -9   13   15      0.58      0.00
   -8   13   15      0.66      0.00
   -7   13   15      0.10      0.00
   -6   13   15     -0.78      0.00
   -5   13   15     -0.55      0.00
   -4   13   15      0.48      0.00
   -3   13   15      0.77      0.00
  -23    0   16     -0.20      0.00
    7    0   16     -1.09      0.00
    8    0   16     -0.79      0.00
    9    0   16     -0.76      0.00
  -23    1   16      0.78      0.00
    7    1   16     -0.78      0.00
    8    1   16      0.40      0.00
    9    1   16      0.39      0.00
  -23    2   16     -0.24      0.00
  -22    2   16     -1.01      0.00
    6    2   16      0.69      0.00
    7    2   16      0.43      0.00
    8    2   16      0.18      0.00
  -23    3   16     -0.14      0.00
  -22    3   16     -0.45      0.00
    6    3   16      0.02      0.00
    7    3   16     -0.14      0.00
    8    3   16      0.14      0.00
  -23    4   16     -0.21      0.00
  -22    4   16     -0.69      0.00
    6    4   16     -0.34      0.00
    7    4   16      0.35      0.00
    8    4   16     -0.11      0.00
  -23    5   16     -0.02      0.00
  -22    5   16     -0.08      0.00
  -21    5   16      0.48      0.00
    5    5   16      0.06      0.00
    6    5   16      0.81      0.00
    7    5   16      0.40      0.00
  -23    6   16     -0.25      0.00
  -22    6   16     -0.27      0.00
  -21    6   16      0.47      0.00
  -20    6   16      1.02      0.00
    4    6   16      0.27      0.00
    5    6   16      0.75      0.00
    6    6   16      0.28      0.00
    7    6   16     -0.20      0.00
  -22    7   16      0.61      0.00
  -21    7   16      0.65      0.00
  -20    7   16      0.34      0.00
  -19    7   16      0.31      0.00
    3    7   16     -0.82      0.00
    4    7   16     -0.50      0.00
    5    7   16      0.06      0.00
    6    7   16      0.10      0.00
  -21    8   16      0.32      0.00
  -20    8   16      0.46      0.00
  -19    8   16     -0.43      0.00
  -18    8   16     -1.17      0.00
    2    8   16     -0.72      0.00
    3    8   16      0.25      0.00
    4    8   16      0.63      0.00
    5    8   16      0.31      0.00
  -20    9   16     -0.63      0.00
  -19    9   16     -1.44      0.00
  -18    9   16     -1.45      0.00
  -17    9   16     -0.30      0.00
  -16    9   16      0.81      0.00
    0    9   16     -0.44      0.00
    1    9   16      0.27      0.00
    2    9   16      0.98      0.00
    3    9   16      0.55      0.00
    4    9   16     -0.03      0.00
  -18   10   16      0.41      0.00
  -17   10   16      0.95      0.00
  -16   10   16      1.03      0.00
  -15   10   16     -0.06      0.00
  -14   10   16     -0.31      0.00
   -2   10   16      0.66      0.00
   -1   10   16     -0.32      0.00
    0   10   16     -0.27      0.00
    1   10   16      0.02      0.00
    2   10   16      0.18      0.00
  -17   11   16      0.79      0.00
  -16   11   16      0.06      0.00
  -15   11   16     -0.32      0.00
  -14   11   16     -0.05      0.00
  -13   11   16      0.60      0.00
  -12   11   16      0.55      0.00
  -11   11   16      0.60      0.00
  -10   11   16     -0.39      0.00
   -9   11   16     -1.17      0.00
   -8   11   16     -1.43      0.00
   -7   11   16     -0.93      0.00
   -6   11   16     -0.34      0.00
   -5   11   16      0.83      0.00
   -4   11   16      1.08      0.00
   -3   11   16     -0.23      0.00
   -2   11   16     -1.17      0.00
   -1   11   16     -0.57      0.00
    0   11   16      0.16      0.00
    1   11   16      0.35      0.00
  -14   12   16      0.38      0.00
  -13   12   16     -0.07      0.00
  -12   12   16     -0.59      0.00
  -11   12   16     -0.58      0.00
  -10   12   16     -0.51      0.00
   -9   12   16     -0.35      0.00
   -8   12   16      0.04      0.00
   -7   12   16      0.17      0.00
   -6   12   16      0.63      0.00
   -5   12   16      0.52      0.00
   -4   12   16     -0.05      0.00
   -3   12   16     -0.26      0.00
   -2   12   16      0.37      0.00
  -23    1   17     -0.16      0.00
  -22    1   17     -0.78      0.00
    5    1   17     -0.39      0.00
    6    1   17     -0.32      0.00
    7    1   17      0.47      0.00
  -23    2   17     -1.05      0.00
  -22    2   17     -0.50      0.00
    5    2   17     -0.07      0.00
    6    2   17      0.73      0.00
    7    2   17      0.99      0.00
  -23    3   17      0.42      0.00
  -22    3   17      0.82      0.00
  -21    3   17      1.26      0.00
    5    3   17      0.64      0.00
    6    3   17      0.50      0.00
    7    3   17     -0.54      0.00
  -23    4   17     -0.15      0.00
  -22    4   17      0.13      0.00
  -21    4   17      0.43      0.00
    4    4   17      0.19      0.00
    5    4   17      0.04      0.00
    6    4   17     -0.76      0.00
  -23    5   17     -0.11      0.00
  -22    5   17      0.54      0.00
  -21    5   17      0.51      0.00
  -20    5   17     -0.77      0.00
    3    5   17      0.13      0.00
    4    5   17     -0.24      0.00
    5    5   17     -0.77      0.00
    6    5   17     -0.42      0.00
  -22    6   17     -0.05      0.00
  -21    6   17     -0.39      0.00
  -20    6   17     -0.30      0.00
  -19    6   17     -0.51      0.00
    2    6   17     -0.24      0.00
    3    6   17     -0.01      0.00
    4    6   17      0.13      0.00
    5    6   17      0.21      0.00
  -21    7   17      0.13      0.00
  -20    7   17     -0.78      0.00
  -19    7   17     -0.58      0.00
  -18    7   17      0.53      0.00
    1    7   17      0.20      0.00
    2    7   17     -0.05      0.00
    3    7   17     -0.35      0.00
    4    7   17     -0.12      0.00
  -20    8   17     -0.23      0.00
  -19    8   17      0.69      0.00
  -18    8   17      1.18      0.00
  -17    8   17     -0.33      0.00
    0    8   17     -0.21      0.00
    1    8   17      0.33      0.00
    2    8   17     -0.10      0.00
    3    8   17     -0.03      0.00
  -19    9   17      0.62      0.00
  -18    9   17     -0.08      0.00
  -17    9   17     -0.29      0.00
  -16    9   17      0.04      0.00
  -15    9   17      1.13      0.00
   -2    9   17     -1.64      0.00
   -1    9   17      0.44      0.00
    0    9   17      1.40      0.00
    1    9   17      0.87      0.00
    2    9   17      0.49      0.00
  -17   10   17      0.10      0.00
  -16   10   17      0.26      0.00
  -15   10   17      0.15      0.00
  -14   10   17      0.01      0.00
  -13   10   17     -0.57      0.00
  -12   10   17     -1.65      0.00
  -11   10   17     -2.73      0.00
  -10   10   17     -1.15      0.00
   -9   10   17      0.86      0.00
   -8   10   17      1.13      0.00
   -7   10   17     -0.04      0.00
   -6   10   17     -0.10      0.00
   -5   10   17     -0.32      0.00
   -4   10   17     -0.55      0.00
   -3   10   17     -0.29      0.00
   -2   10   17      0.91      0.00
   -1   10   17      1.60      0.00
    0   10   17      0.81      0.00
  -15   11   17     -0.47      0.00
  -14   11   17     -0.88      0.00
  -13   11   17     -0.94      0.00
  -12   11   17     -0.51      0.00
  -11   11   17      0.03      0.00
  -10   11   17      0.71      0.00
   -9   11   17      0.73      0.00
   -8   11   17      0.23      0.00
   -7   11   17      0.04      0.00
   -6   11   17      0.24      0.00
   -5   11   17      0.44      0.00
   -4   11   17      0.31      0.00
   -3   11   17      0.41      0.00
   -2   11   17      0.03      0.00
  -12   12   17      0.24      0.00
  -11   12   17      0.23      0.00
  -10   12   17      0.84      0.00
   -9   12   17      0.66      0.00
   -8   12   17      0.07      0.00
   -7   12   17     -0.03      0.00
   -6   12   17      0.29      0.00
   -5   12   17     -0.02      0.00
  -23    0   18     -1.12      0.00
  -22    0   18      0.73      0.00
  -21    0   18      2.19      0.00
    3    0   18      0.22      0.00
    4    0   18     -0.18      0.00
    5    0   18      0.49      0.00
    6    0   18      0.53      0.00
  -23    1   18      0.53      0.00
  -22    1   18      1.53      0.00
  -21    1   18      0.41      0.00
    3    1   18     -0.10      0.00
    4    1   18      0.78      0.00
    5    1   18      0.33      0.00
    6    1   18     -0.31      0.00
  -23    2   18      0.51      0.00
  -22    2   18      0.15      0.00
  -21    2   18     -1.25      0.00
    3    2   18      0.16      0.00
    4    2   18     -0.13      0.00
    5    2   18     -0.16      0.00
  -23    3   18      0.59      0.00
  -22    3   18      0.25      0.00
  -21    3   18     -0.18      0.00
    3    3   18     -0.49      0.00
    4    3   18     -0.20      0.00
    5    3   18     -0.07      0.00
  -23    4   18      0.38      0.00
  -22    4   18     -0.37      0.00
  -21    4   18     -1.08      0.00
  -20    4   18     -0.19      0.00
    2    4   18     -1.00      0.00
    3    4   18     -0.52      0.00
    4    4   18     -0.25      0.00
    5    4   18     -0.31      0.00
  -22    5   18     -0.50      0.00
  -21    5   18     -0.11      0.00
  -20    5   18      0.37      0.00
  -19    5   18      0.45      0.00
    1    5   18     -1.43      0.00
    2    5   18     -0.30      0.00
    3    5   18      0.38      0.00
    4    5   18     -0.01      0.00
  -21    6   18      0.07      0.00
  -20    6   18     -0.08      0.00
  -19    6   18     -0.19      0.00
  -18    6   18     -0.10      0.00
    0    6   18     -0.23      0.00
    1    6   18      0.40      0.00
    2    6   18      0.68      0.00
    3    6   18      0.39      0.00
  -21    7   18      0.05      0.00
  -20    7   18     -0.33      0.00
  -19    7   18     -0.01      0.00
  -18    7   18     -0.02      0.00
  -17    7   18      0.62      0.00
   -1    7   18      1.15      0.00
    0    7   18      1.00      0.00
    1    7   18      0.96      0.00
    2    7   18      0.60      0.00
    3    7   18     -0.02      0.00
  -19    8   18      0.54      0.00
  -18    8   18      0.78      0.00
  -17    8   18      0.48      0.00
  -16    8   18      0.33      0.00
  -15    8   18     -0.01      0.00
   -3    8   18      1.09      0.00
   -2    8   18      1.16      0.00
   -1    8   18      0.86      0.00
    0    8   18      0.07      0.00
    1    8   18     -0.39      0.00
  -18    9   18     -0.37      0.00
  -17    9   18     -0.55      0.00
  -16    9   18     -0.23      0.00
  -15    9   18      0.11      0.00
  -14    9   18     -0.34      0.00
  -13    9   18     -0.53      0.00
  -12    9   18     -0.05      0.00
  -11    9   18      0.04      0.00
  -10    9   18     -1.44      0.00
   -9    9   18     -1.83      0.00
   -8    9   18     -0.32      0.00
   -7    9   18      1.69      0.00
   -6    9   18      1.81      0.00
   -5    9   18      1.08      0.00
   -4    9   18      0.13      0.00
   -3    9   18      0.23      0.00
   -2    9   18      0.32      0.00
   -1    9   18     -0.30      0.00
    0    9   18     -0.68      0.00
  -16   10   18      0.37      0.00
  -15   10   18      0.28      0.00
  -14   10   18     -0.12      0.00
  -13   10   18     -0.61      0.00
  -12   10   18     -0.53      0.00
  -11   10   18     -0.39      0.00
  -10   10   18     -0.04      0.00
   -9   10   18      1.20      0.00
   -8   10   18      2.16      0.00
   -7   10   18      1.69      0.00
   -6   10   18      0.20      0.00
   -5   10   18     -0.87      0.00
   -4   10   18     -0.52      0.00
   -3   10   18      0.03      0.00
   -2   10   18      0.26      0.00
  -13   11   18     -0.30      0.00
  -12   11   18      0.24      0.00
  -11   11   18      1.20      0.00
  -10   11   18      0.99      0.00
   -9   11   18      0.58      0.00
   -8   11   18      0.07      0.00
   -7   11   18     -0.68      0.00
   -6   11   18     -1.27      0.00
   -5   11   18     -0.36      0.00
  -23    1   19      0.33      0.00
  -22    1   19     -0.36      0.00
  -21    1   19     -0.69      0.00
  -20    1   19     -0.19      0.00
    1    1   19     -0.05      0.00
    2    1   19     -0.20      0.00
    3    1   19     -0.21      0.00
    4    1   19     -0.05      0.00
  -23    2   19     -0.49      0.00
  -22    2   19     -0.62      0.00
  -21    2   19      0.11      0.00
  -20    2   19      0.12      0.00
    1    2   19      0.04      0.00
    2    2   19     -0.52      0.00
    3    2   19     -0.08      0.00
    4    2   19     -0.18      0.00
  -22    3   19     -0.27      0.00
  -21    3   19      0.73      0.00
  -20    3   19      0.54      0.00
  -19    3   19     -0.37      0.00
    0    3   19      0.29      0.00
    1    3   19     -0.30      0.00
    2    3   19     -0.03      0.00
    3    3   19      0.32      0.00
  -22    4   19     -0.06      0.00
  -21    4   19      0.14      0.00
  -20    4   19      0.13      0.00
  -19    4   19      0.13      0.00
    0    4   19     -0.42      0.00
    1    4   19      0.14      0.00
    2    4   19      0.58      0.00
    3    4   19      0.36      0.00
  -21    5   19      0.66      0.00
  -20    5   19      0.19      0.00
  -19    5   19      0.20      0.00
  -18    5   19     -0.17      0.00
   -1    5   19     -0.73      0.00
    0    5   19     -0.07      0.00
    1    5   19      0.44      0.00
    2    5   19      0.04      0.00
  -21    6   19     -0.38      0.00
  -20    6   19     -0.19      0.00
  -19    6   19     -0.65      0.00
  -18    6   19     -0.79      0.00
  -17    6   19     -0.88      0.00
  -16    6   19      0.68      0.00
   -2    6   19     -0.48      0.00
   -1    6   19      0.44      0.00
    0    6   19      0.48      0.00
    1    6   19     -0.05      0.00
    2    6   19     -0.23      0.00
  -20    7   19     -0.06      0.00
  -19    7   19     -0.36      0.00
  -18    7   19     -0.18      0.00
  -17    7   19      1.44      0.00
  -16    7   19      1.59      0.00
  -15    7   19     -0.22      0.00
  -14    7   19     -1.76      0.00
   -5    7   19     -0.04      0.00
   -4    7   19     -0.87      0.00
   -3    7   19     -0.29      0.00
   -2    7   19      0.41      0.00
   -1    7   19      0.22      0.00
    0    7   19     -0.34      0.00
    1    7   19     -0.42      0.00
  -18    8   19      0.71      0.00
  -17    8   19      0.16      0.00
  -16    8   19     -0.98      0.00
  -15    8   19     -1.77      0.00
  -14    8   19     -1.63      0.00
  -13    8   19     -1.11      0.00
  -12    8   19     -0.31      0.00
  -11    8   19      0.97      0.00
  -10    8   19      2.09      0.00
   -9    8   19      1.87      0.00
   -8    8   19      0.89      0.00
   -7    8   19      0.16      0.00
   -6    8   19     -0.52      0.00
   -5    8   19     -1.19      0.00
   -4    8   19     -0.16      0.00
   -3    8   19      0.85      0.00
   -2    8   19      0.14      0.00
   -1    8   19     -0.75      0.00
  -16    9   19     -0.93      0.00
  -15    9   19     -0.29      0.00
  -14    9   19      0.06      0.00
  -13    9   19      1.12      0.00
  -12    9   19      2.15      0.00
  -11    9   19      2.10      0.00
  -10    9   19      0.72      0.00
   -9    9   19     -0.28      0.00
   -8    9   19     -0.69      0.00
   -7    9   19     -1.06      0.00
   -6    9   19     -0.86      0.00
   -5    9   19      0.14      0.00
   -4    9   19      0.77      0.00
   -3    9   19      0.42      0.00
  -14   10   19      0.79      0.00
  -13   10   19      1.23      0.00
  -12   10   19      0.66      0.00
  -11   10   19     -0.94      0.00
  -10   10   19     -1.19      0.00
   -9   10   19     -0.62      0.00
   -8   10   19     -0.21      0.00
   -7   10   19     -0.27      0.00
   -6   10   19      0.55      0.00
   -5   10   19      0.69      0.00
  -22    0   20      0.25      0.00
  -21    0   20      0.76      0.00
  -20    0   20      0.35      0.00
  -19    0   20      0.49      0.00
   -1    0   20     -0.54      0.00
    0    0   20     -0.76      0.00
    1    0   20      0.05      0.00
    2    0   20      0.80      0.00
  -22    1   20      0.72      0.00
  -21    1   20      0.38      0.00
  -20    1   20     -0.02      0.00
  -19    1   20      0.18      0.00
   -1    1   20      0.32      0.00
    0    1   20      0.78      0.00
    1    1   20      0.64      0.00
    2    1   20      0.11      0.00
  -22    2   20      0.36      0.00
  -21    2   20     -0.27      0.00
  -20    2   20     -0.70      0.00
  -19    2   20     -0.46      0.00
  -18    2   20     -0.39      0.00
   -2    2   20      0.39      0.00
   -1    2   20      0.47      0.00
    0    2   20      0.07      0.00
    1    2   20     -0.38      0.00
    2    2   20     -0.38      0.00
  -21    3   20     -0.81      0.00
  -20    3   20     -0.25      0.00
  -19    3   20      0.36      0.00
  -18    3   20      0.34      0.00
   -2    3   20      0.06      0.00
   -1    3   20     -0.76      0.00
    0    3   20     -0.70      0.00
    1    3   20      0.05      0.00
    2    3   20      0.28      0.00
  -21    4   20     -0.28      0.00
  -20    4   20      0.11      0.00
  -19    4   20      0.43      0.00
  -18    4   20      0.24      0.00
  -17    4   20      0.28      0.00
   -3    4   20     -0.02      0.00
   -2    4   20     -0.42      0.00
   -1    4   20     -0.06      0.00
    0    4   20      0.74      0.00
    1    4   20      0.79      0.00
  -20    5   20      0.45      0.00
  -19    5   20      0.05      0.00
  -18    5   20     -0.09      0.00
  -17    5   20      1.05      0.00
  -16    5   20      0.61      0.00
  -15    5   20     -0.56      0.00
   -4    5   20      0.73      0.00
   -3    5   20      0.32      0.00
   -2    5   20      0.51      0.00
   -1    5   20      0.83      0.00
    0    5   20      0.39      0.00
  -19    6   20     -0.01      0.00
  -18    6   20      0.37      0.00
  -17    6   20      0.12      0.00
  -16    6   20     -0.87      0.00
  -15    6   20     -1.23      0.00
  -14    6   20     -0.55      0.00
  -13    6   20      0.92      0.00
   -7    6   20     -0.46      0.00
   -6    6   20      0.53      0.00
   -5    6   20      1.02      0.00
   -4    6   20      0.55      0.00
   -3    6   20     -0.24      0.00
   -2    6   20     -0.43      0.00
   -1    6   20     -0.21      0.00
  -18    7   20     -0.11      0.00
  -17    7   20     -0.20      0.00
  -16    7   20     -0.41      0.00
  -15    7   20     -0.11      0.00
  -14    7   20      0.72      0.00
  -13    7   20      1.09      0.00
  -12    7   20      0.29      0.00
  -11    7   20     -0.93      0.00
  -10    7   20     -0.81      0.00
   -9    7   20     -0.18      0.00
   -8    7   20      0.64      0.00
   -7    7   20      1.12      0.00
   -6    7   20      0.65      0.00
   -5    7   20     -0.33      0.00
   -4    7   20     -0.94      0.00
   -3    7   20     -0.83      0.00
   -2    7   20     -0.46      0.00
  -16    8   20     -0.10      0.00
  -15    8   20      0.33      0.00
  -14    8   20      1.15      0.00
  -13    8   20      0.10      0.00
  -12    8   20     -0.85      0.00
  -11    8   20     -0.27      0.00
  -10    8   20      0.89      0.00
   -9    8   20      0.92      0.00
   -8    8   20      0.38      0.00
   -7    8   20     -0.27      0.00
   -6    8   20     -0.77      0.00
   -5    8   20     -0.74      0.00
   -4    8   20     -0.40      0.00
  -14    9   20      0.03      0.00
  -13    9   20     -0.37      0.00
  -12    9   20     -0.40      0.00
  -11    9   20      0.40      0.00
  -10    9   20      0.49      0.00
   -9    9   20     -0.45      0.00
   -8    9   20     -1.36      0.00
   -7    9   20     -0.84      0.00
   -6    9   20     -0.30      0.00
  -21    1   21     -0.25      0.00
  -20    1   21      0.10      0.00
  -19    1   21     -0.32      0.00
  -18    1   21     -0.29      0.00
  -17    1   21      0.48      0.00
  -16    1   21      0.64      0.00
   -5    1   21      0.25      0.00
   -4    1   21     -0.19      0.00
   -3    1   21      0.06      0.00
   -2    1   21      0.56      0.00
   -1    1   21      0.36      0.00
    0    1   21      0.17      0.00
  -21    2   21      0.07      0.00
  -20    2   21      0.05      0.00
  -19    2   21      0.34      0.00
  -18    2   21      0.21      0.00
  -17    2   21      0.34      0.00
  -16    2   21     -0.45      0.00
   -5    2   21     -0.03      0.00
   -4    2   21      0.68      0.00
   -3    2   21      0.74      0.00
   -2    2   21     -0.18      0.00
   -1    2   21     -0.49      0.00
    0    2   21     -0.05      0.00
  -20    3   21      0.32      0.00
  -19    3   21     -0.11      0.00
  -18    3   21     -0.35      0.00
  -17    3   21     -0.89      0.00
  -16    3   21     -0.63      0.00
  -15    3   21      0.36      0.00
   -6    3   21     -0.39      0.00
   -5    3   21     -0.13      0.00
   -4    3   21      0.00      0.00
   -3    3   21     -0.61      0.00
   -2    3   21     -0.73      0.00
   -1    3   21     -0.19      0.00
  -20    4   21     -0.54      0.00
  -19    4   21     -0.96      0.00
  -18    4   21     -0.37      0.00
  -17    4   21      0.08      0.00
  -16    4   21      0.26      0.00
  -15    4   21     -0.18      0.00
  -14    4   21     -0.74      0.00
  -13    4   21     -0.37      0.00
   -8    4   21     -0.17      0.00
   -7    4   21     -0.80      0.00
   -6    4   21      0.16      0.00
   -5    4   21      0.67      0.00
   -4    4   21     -0.12      0.00
   -3    4   21     -0.37      0.00
   -2    4   21      0.26      0.00
   -1    4   21      0.52      0.00
  -19    5   21      0.55      0.00
  -18    5   21      0.78      0.00
  -17    5   21      0.22      0.00
  -16    5   21     -0.08      0.00
  -15    5   21     -0.36      0.00
  -14    5   21      0.15      0.00
  -13    5   21      0.01      0.00
  -12    5   21      0.21      0.00
  -11    5   21      0.65      0.00
  -10    5   21      0.53      0.00
   -9    5   21     -0.30      0.00
   -8    5   21     -0.33      0.00
   -7    5   21      0.58      0.00
   -6    5   21      0.53      0.00
   -5    5   21     -0.36      0.00
   -4    5   21     -0.42      0.00
   -3    5   21      0.20      0.00
   -2    5   21      0.41      0.00
  -18    6   21      0.33      0.00
  -17    6   21     -1.29      0.00
  -16    6   21     -1.03      0.00
  -15    6   21      0.35      0.00
  -14    6   21      0.57      0.00
  -13    6   21      0.66      0.00
  -12    6   21      0.98      0.00
  -11    6   21      0.44      0.00
  -10    6   21     -0.61      0.00
   -9    6   21     -0.20      0.00
   -8    6   21      0.18      0.00
   -7    6   21     -0.34      0.00
   -6    6   21     -0.61      0.00
   -5    6   21     -0.30      0.00
   -4    6   21      0.02      0.00
   -3    6   21     -0.01      0.00
  -16    7   21      0.78      0.00
  -15    7   21      1.30      0.00
  -14    7   21      0.96      0.00
  -13    7   21      0.40      0.00
  -12    7   21     -0.34      0.00
  -11    7   21     -0.69      0.00
  -10    7   21     -0.40      0.00
   -9    7   21      0.07      0.00
   -8    7   21     -0.07      0.00
   -7    7   21     -0.26      0.00
   -6    7   21      0.09      0.00
   -5    7   21      0.43      0.00
  -13    8   21     -0.50      0.00
  -12    8   21     -0.90      0.00
  -11    8   21     -0.57      0.00
  -10    8   21      0.02      0.00
   -9    8   21      0.04      0.00
   -8    8   21     -0.05      0.00
    0    0    0      0.00      0.00
# SQUEEZE RESULTS (Version = 280317)
# Note: Data are Listed for all Voids in the P1 Unit Cell
# i.e. Centre of Gravity, Solvent Accessible Volume,
# Recovered number of Electrons in the Void and
# Details about the Squeezed Material
loop_
  _platon_squeeze_void_nr
  _platon_squeeze_void_average_x
  _platon_squeeze_void_average_y
  _platon_squeeze_void_average_z
  _platon_squeeze_void_volume
  _platon_squeeze_void_count_electrons
  _platon_squeeze_void_content
   1  0.154  0.177  0.381       233        50 ' '
   2  0.846 -0.177  0.619       233        49 ' '
   3  0.530  0.106  0.536        16        -1 ' '
   4  0.154  0.323  0.881       233        49 ' '
   5  0.728  0.189  0.862        22        -1 ' '
   6  0.728  0.311  0.362        21        -1 ' '
   7  0.530  0.393  0.036        16        -1 ' '
   8  0.846  0.677  0.119       233        49 ' '
   9  0.468  0.611  0.962        15        -1 ' '
  10  0.272  0.689  0.638        22        -1 ' '
  11  0.272  0.811  0.138        22        -1 ' '
  12  0.468  0.889  0.462        15        -1 ' '
# Missing Reflections Below sin(th)/lambda = 0.25
loop_
  _platon_missing_refln_index_h
  _platon_missing_refln_index_k
  _platon_missing_refln_index_l
  _platon_missing_refln_theta
    0    2    0     3.044
    1    2    0     3.256
    1    3    0     4.713
    0    4    0     6.097
    1    4    0     6.206
    2    4    0     6.523
    1    5    0     7.717
    2    5    0     7.975
    0    6    0     9.167
    1    6    0     9.241
   -1    2    1     3.293
    0    2    1     3.293
   -1    3    1     4.739
    0    3    1     4.739
   -2    4    1     6.438
   -1    4    1     6.226
    0    4    1     6.226
    1    4    1     6.438
   -2    5    1     7.906
   -1    5    1     7.733
    0    5    1     7.733
    1    5    1     7.905
   -1    6    1     9.254
    0    6    1     9.254
   -2    4    2     6.597
   -1    4    2     6.494
    0    4    2     6.596
   -2    5    2     8.036
   -1    5    2     7.952
    0    5    2     8.036
   -1    5    3     8.357
_platon_squeeze_void_probe_radius                  1.20
_platon_squeeze_details
)
TITL z20181127a_0ma_a.res in P2(1)/c
CELL   19.8610   13.3830   18.2900     90.00    117.36     90.00
SPGR P21/c
# Solvent Accessible Volume =      1075
# Electrons Found in S.A.V. =       197
# Note: Atoms in Void are Labelled as Cxxx and Qxxx for all Others
C101 0.096 0.194 0.439 !       4.92 eA-3
C102 0.822 0.562 0.128 !       4.84 eA-3
C103 0.872 0.750 0.206 !       4.53 eA-3
C104 0.798 0.890 0.582 !       3.64 eA-3
C105 0.178 0.192 0.391 !       1.83 eA-3
C106 0.777 0.709 0.577 !       1.35 eA-3
C107 0.785 0.731 0.044 !       1.14 eA-3
Q108 0.885 0.308 0.278 !       0.66 eA-3
Q109 0.239 0.465 0.464 !       0.63 eA-3
Q110 0.866 0.527 0.859 !       0.61 eA-3
Q111 0.345 0.668 0.014 !       0.59 eA-3
Q112 0.870 0.287 0.808 !       0.58 eA-3
Q113 0.044 0.746 0.919 !       0.56 eA-3
Q114 0.099 0.828 0.059 !       0.56 eA-3
Q115 0.697 0.170 0.229 !       0.55 eA-3
Q116 0.547 0.421 0.937 !       0.54 eA-3
Q117 0.884 0.266 0.437 !       0.53 eA-3
Q118 0.563 0.238 0.342 !       0.53 eA-3
Q119 0.158 0.365 0.653 !       0.53 eA-3
Q120 0.549 0.497 0.392 !       0.53 eA-3
Q121 0.695 0.786 0.327 !       0.52 eA-3
Q122 0.510 0.533 0.609 !       0.51 eA-3
Q123 0.110 0.525 0.013 !       0.50 eA-3
Q124 0.625 0.049 0.379 !       0.50 eA-3
)
;
_shelx_fab_checksum              79645
_olex2_submission_special_instructions 'No special instructions were received'
loop_
_space_group_symop_operation_xyz
'x, y, z'
'-x, y+1/2, -z+1/2'
'-x, -y, -z'
'x, -y-1/2, z-1/2'
loop_
_atom_site_label
_atom_site_type_symbol
_atom_site_fract_x
_atom_site_fract_y
_atom_site_fract_z
_atom_site_U_iso_or_equiv
_atom_site_adp_type
_atom_site_occupancy
_atom_site_site_symmetry_order
_atom_site_calc_flag
_atom_site_refinement_flags_posn
Ni1 Ni 0.23377(3) 0.53277(4) 0.46920(3) 0.0771(2) Uani 1 1 d .
O1 O 0.50098(19) 0.5874(2) 0.81425(19) 0.1059(10) Uani 1 1 d .
O2 O 0.49384(16) 0.28292(18) 0.68468(14) 0.0789(7) Uani 1 1 d .
H2 H 0.504365 0.224157 0.697575 0.118 Uiso 1 1 calc GR
N1 N 0.18894(18) 0.4842(3) 0.5277(2) 0.0822(10) Uani 1 1 d .
N2 N 0.32907(16) 0.5211(2) 0.55152(17) 0.0693(8) Uani 1 1 d .
N3 N 0.27866(16) 0.5765(2) 0.40896(18) 0.0716(8) Uani 1 1 d .
N4 N 0.13917(16) 0.5405(3) 0.38588(19) 0.0776(9) Uani 1 1 d .
C1 C 0.2215(2) 0.4427(3) 0.6061(2) 0.0703(10) Uani 1 1 d .
C2 C 0.1591(2) 0.4044(3) 0.6168(3) 0.0846(12) Uani 1 1 d .
H2A H 0.162474 0.372909 0.663653 0.101 Uiso 1 1 calc R
C3 C 0.0921(2) 0.4226(4) 0.5439(3) 0.0911(13) Uani 1 1 d .
H3 H 0.043181 0.405367 0.533821 0.109 Uiso 1 1 calc R
C4 C 0.1127(2) 0.4720(3) 0.4887(2) 0.0793(11) Uani 1 1 d .
C5 C 0.0819(2) 0.5079(3) 0.4002(3) 0.0803(11) Uani 1 1 d .
C6 C 0.0136(2) 0.5179(4) 0.3251(3) 0.0958(14) Uani 1 1 d .
H6 H -0.035062 0.503222 0.317073 0.115 Uiso 1 1 calc R
C7 C 0.0330(2) 0.5535(4) 0.2662(3) 0.0911(13) Uani 1 1 d .
H7 H -0.000533 0.565601 0.211219 0.109 Uiso 1 1 calc R
C8 C 0.1142(2) 0.5689(3) 0.3043(2) 0.0754(11) Uani 1 1 d .
C9 C 0.1663(2) 0.6009(3) 0.2753(2) 0.0694(10) Uani 1 1 d .
C10 C 0.2472(2) 0.6064(3) 0.3278(2) 0.0668(9) Uani 1 1 d .
C11 C 0.3102(2) 0.6355(3) 0.3148(2) 0.0727(10) Uani 1 1 d .
H11 H 0.307166 0.660305 0.265870 0.087 Uiso 1 1 calc R
C12 C 0.3777(2) 0.6205(3) 0.3885(2) 0.0698(10) Uani 1 1 d .
H12 H 0.426895 0.632922 0.397334 0.084 Uiso 1 1 calc R
C13 C 0.3551(2) 0.5823(3) 0.4465(2) 0.0624(9) Uani 1 1 d .
C14 C 0.38616(19) 0.5449(3) 0.5345(2) 0.0595(9) Uani 1 1 d .
C15 C 0.45590(19) 0.5199(2) 0.6044(2) 0.0590(8) Uani 1 1 d .
H15 H 0.504296 0.530488 0.609865 0.071 Uiso 1 1 calc R
C16 C 0.43821(19) 0.4766(2) 0.6634(2) 0.0575(8) Uani 1 1 d .
C17 C 0.35568(19) 0.4767(3) 0.6291(2) 0.0626(9) Uani 1 1 d .
C18 C 0.3030(2) 0.4383(3) 0.6556(2) 0.0651(9) Uani 1 1 d .
C19 C 0.33151(19) 0.3847(3) 0.7370(2) 0.0639(9) Uani 1 1 d .
C20 C 0.3390(2) 0.2793(3) 0.7396(2) 0.0744(10) Uani 1 1 d .
C21 C 0.3658(3) 0.2315(4) 0.8158(4) 0.1051(15) Uani 1 1 d .
H21 H 0.371453 0.162453 0.817962 0.126 Uiso 1 1 calc R
C22 C 0.3844(3) 0.2832(6) 0.8885(3) 0.120(2) Uani 1 1 d .
C23 C 0.3749(3) 0.3866(5) 0.8839(3) 0.1097(17) Uani 1 1 d .
H23 H 0.386817 0.421674 0.932176 0.132 Uiso 1 1 calc R
C24 C 0.3482(2) 0.4407(3) 0.8096(2) 0.0790(11) Uani 1 1 d .
C25 C 0.3191(3) 0.2189(4) 0.6621(3) 0.1058(15) Uani 1 1 d .
H25A H 0.265274 0.208282 0.633576 0.159 Uiso 1 1 calc GR
H25B H 0.344536 0.155512 0.676692 0.159 Uiso 1 1 calc GR
H25C H 0.334821 0.254534 0.627023 0.159 Uiso 1 1 calc GR
C26 C 0.4133(5) 0.2270(7) 0.9715(4) 0.211(4) Uani 1 1 d .
H26A H 0.375308 0.180534 0.968572 0.316 Uiso 1 1 calc GR
H26B H 0.423493 0.274152 1.014863 0.316 Uiso 1 1 calc GR
H26C H 0.458924 0.191455 0.982373 0.316 Uiso 1 1 calc GR
C27 C 0.3358(3) 0.5523(4) 0.8074(3) 0.1176(17) Uani 1 1 d .
H27A H 0.379323 0.586192 0.809655 0.176 Uiso 1 1 calc GR
H27B H 0.328386 0.571773 0.853674 0.176 Uiso 1 1 calc GR
H27C H 0.291777 0.569813 0.757312 0.176 Uiso 1 1 calc GR
C28 C 0.49536(19) 0.4354(2) 0.7454(2) 0.0560(8) Uani 1 1 d .
C29 C 0.52083(18) 0.3396(2) 0.7530(2) 0.0569(8) Uani 1 1 d .
C30 C 0.5776(2) 0.2927(3) 0.8331(2) 0.0723(10) Uani 1 1 d .
H30A H 0.611820 0.250687 0.822120 0.087 Uiso 1 1 calc R
H30B H 0.550723 0.250013 0.853755 0.087 Uiso 1 1 calc R
C31 C 0.6251(2) 0.3695(3) 0.9006(2) 0.0693(10) Uani 1 1 d .
C32 C 0.5733(3) 0.4535(3) 0.9020(2) 0.0922(13) Uani 1 1 d .
H32A H 0.541660 0.427355 0.925129 0.111 Uiso 1 1 calc R
H32B H 0.604643 0.505869 0.938408 0.111 Uiso 1 1 calc R
C33 C 0.5223(2) 0.4995(3) 0.8184(2) 0.0747(11) Uani 1 1 d .
C34 C 0.6684(3) 0.3200(4) 0.9862(3) 0.1268(19) Uani 1 1 d .
H34A H 0.632773 0.290833 1.001835 0.190 Uiso 1 1 calc GR
H34B H 0.697992 0.369577 1.025977 0.190 Uiso 1 1 calc GR
H34C H 0.701299 0.268964 0.983850 0.190 Uiso 1 1 calc GR
C35 C 0.6865(3) 0.4166(4) 0.8807(3) 0.1023(15) Uani 1 1 d .
H35A H 0.720991 0.365543 0.881943 0.153 Uiso 1 1 calc GR
H35B H 0.713979 0.466800 0.921001 0.153 Uiso 1 1 calc GR
H35C H 0.662538 0.446469 0.827032 0.153 Uiso 1 1 calc GR
C36 C 0.1377(2) 0.6277(3) 0.1855(2) 0.0727(10) Uani 1 1 d .
C37 C 0.1285(2) 0.7298(3) 0.1618(3) 0.0862(12) Uani 1 1 d .
C38 C 0.1069(3) 0.7528(4) 0.0791(3) 0.1083(17) Uani 1 1 d .
H38 H 0.101805 0.819509 0.063223 0.130 Uiso 1 1 calc R
C39 C 0.0928(3) 0.6797(5) 0.0201(3) 0.1099(17) Uani 1 1 d .
C40 C 0.1006(3) 0.5799(5) 0.0439(3) 0.1034(15) Uani 1 1 d .
H40 H 0.090272 0.530491 0.004456 0.124 Uiso 1 1 calc R
C41 C 0.1237(2) 0.5514(4) 0.1266(3) 0.0853(12) Uani 1 1 d .
C42 C 0.1402(3) 0.8120(4) 0.2234(3) 0.1262(18) Uani 1 1 d .
H42A H 0.099961 0.810026 0.238747 0.189 Uiso 1 1 calc GR
H42B H 0.139973 0.875691 0.199144 0.189 Uiso 1 1 calc GR
H42C H 0.187899 0.802530 0.271484 0.189 Uiso 1 1 calc GR
C43 C 0.0717(4) 0.7070(6) -0.0705(3) 0.168(3) Uani 1 1 d .
H43A H 0.018464 0.721616 -0.099880 0.252 Uiso 1 1 calc GR
H43B H 0.083284 0.651756 -0.096264 0.252 Uiso 1 1 calc GR
H43C H 0.100177 0.764534 -0.071363 0.252 Uiso 1 1 calc GR
C44 C 0.1346(3) 0.4405(4) 0.1505(3) 0.1210(18) Uani 1 1 d .
H44A H 0.184738 0.430286 0.194501 0.181 Uiso 1 1 calc GR
H44B H 0.127971 0.401167 0.103754 0.181 Uiso 1 1 calc GR
H44C H 0.097925 0.420700 0.168147 0.181 Uiso 1 1 calc GR
loop_
_atom_site_aniso_label
_atom_site_aniso_U_11
_atom_site_aniso_U_22
_atom_site_aniso_U_33
_atom_site_aniso_U_23
_atom_site_aniso_U_13
_atom_site_aniso_U_12
Ni1 0.0572(3) 0.1115(5) 0.0645(3) 0.0260(3) 0.0296(2) 0.0018(3)
O1 0.146(3) 0.0483(17) 0.111(2) -0.0116(15) 0.049(2) 0.0052(16)
O2 0.104(2) 0.0502(14) 0.0650(15) -0.0089(12) 0.0241(14) 0.0014(14)
N1 0.059(2) 0.120(3) 0.071(2) 0.0248(19) 0.0325(17) -0.0010(17)
N2 0.0528(17) 0.099(2) 0.0581(18) 0.0210(16) 0.0270(14) 0.0022(15)
N3 0.0563(19) 0.098(2) 0.0610(19) 0.0199(16) 0.0275(15) -0.0008(16)
N4 0.0518(18) 0.117(3) 0.068(2) 0.0216(18) 0.0306(16) -0.0012(17)
C1 0.066(2) 0.087(3) 0.065(2) 0.0153(19) 0.037(2) -0.0008(19)
C2 0.085(3) 0.103(3) 0.084(3) 0.021(2) 0.055(3) 0.001(2)
C3 0.065(3) 0.133(4) 0.083(3) 0.021(3) 0.041(2) -0.002(2)
C4 0.062(2) 0.105(3) 0.075(3) 0.016(2) 0.035(2) 0.000(2)
C5 0.057(2) 0.106(3) 0.078(3) 0.015(2) 0.030(2) 0.002(2)
C6 0.058(3) 0.136(4) 0.088(3) 0.018(3) 0.030(2) -0.007(2)
C7 0.060(3) 0.133(4) 0.070(3) 0.017(2) 0.021(2) 0.003(2)
C8 0.060(2) 0.097(3) 0.066(2) 0.017(2) 0.026(2) 0.004(2)
C9 0.064(2) 0.079(3) 0.065(2) 0.0104(19) 0.0289(19) 0.0032(18)
C10 0.062(2) 0.080(3) 0.060(2) 0.0116(18) 0.0299(19) 0.0016(18)
C11 0.078(3) 0.086(3) 0.062(2) 0.0176(19) 0.039(2) 0.005(2)
C12 0.064(2) 0.081(3) 0.071(2) 0.0106(19) 0.036(2) 0.0021(18)
C13 0.060(2) 0.071(2) 0.058(2) 0.0129(17) 0.0284(18) 0.0010(17)
C14 0.058(2) 0.064(2) 0.061(2) 0.0058(16) 0.0313(18) -0.0019(16)
C15 0.058(2) 0.057(2) 0.065(2) 0.0081(16) 0.0304(18) -0.0005(16)
C16 0.067(2) 0.0460(19) 0.058(2) 0.0030(15) 0.0278(17) 0.0006(15)
C17 0.062(2) 0.071(2) 0.060(2) 0.0145(17) 0.0316(18) 0.0015(17)
C18 0.071(2) 0.066(2) 0.063(2) 0.0085(17) 0.0343(19) 0.0038(17)
C19 0.066(2) 0.074(3) 0.061(2) 0.0127(18) 0.0365(18) 0.0055(18)
C20 0.083(3) 0.067(3) 0.083(3) 0.015(2) 0.047(2) 0.006(2)
C21 0.113(4) 0.095(3) 0.119(4) 0.045(3) 0.063(3) 0.029(3)
C22 0.126(4) 0.154(6) 0.089(4) 0.060(4) 0.058(3) 0.043(4)
C23 0.109(4) 0.169(6) 0.059(3) 0.007(3) 0.045(3) 0.022(4)
C24 0.087(3) 0.096(3) 0.068(3) -0.001(2) 0.048(2) 0.008(2)
C25 0.119(4) 0.082(3) 0.123(4) -0.017(3) 0.061(3) -0.005(3)
C26 0.237(8) 0.283(11) 0.126(5) 0.128(6) 0.095(6) 0.095(7)
C27 0.145(5) 0.104(4) 0.120(4) -0.027(3) 0.074(4) 0.008(3)
C28 0.062(2) 0.048(2) 0.0561(19) -0.0006(15) 0.0257(16) -0.0038(15)
C29 0.065(2) 0.046(2) 0.054(2) -0.0027(15) 0.0225(17) -0.0054(15)
C30 0.078(2) 0.054(2) 0.071(2) 0.0063(18) 0.022(2) -0.0017(18)
C31 0.080(3) 0.068(2) 0.052(2) 0.0068(17) 0.0234(19) 0.0037(19)
C32 0.112(3) 0.088(3) 0.069(3) -0.015(2) 0.035(2) -0.009(3)
C33 0.094(3) 0.048(2) 0.070(3) -0.0046(18) 0.028(2) -0.0014(19)
C34 0.141(5) 0.123(4) 0.073(3) 0.018(3) 0.012(3) 0.001(3)
C35 0.104(4) 0.107(4) 0.084(3) -0.009(3) 0.032(3) -0.020(3)
C36 0.063(2) 0.086(3) 0.067(2) 0.013(2) 0.0286(19) 0.000(2)
C37 0.074(3) 0.089(3) 0.086(3) 0.021(3) 0.029(2) -0.002(2)
C38 0.089(3) 0.115(4) 0.100(4) 0.047(3) 0.026(3) 0.002(3)
C39 0.091(3) 0.145(5) 0.078(3) 0.040(3) 0.027(3) -0.002(3)
C40 0.094(3) 0.145(5) 0.069(3) -0.001(3) 0.036(3) -0.010(3)
C41 0.081(3) 0.103(4) 0.069(3) 0.015(2) 0.032(2) 0.001(2)
C42 0.138(5) 0.085(4) 0.136(5) 0.012(3) 0.047(4) 0.000(3)
C43 0.161(6) 0.242(9) 0.084(4) 0.057(4) 0.041(4) -0.008(5)
C44 0.162(5) 0.096(4) 0.109(4) 0.003(3) 0.066(4) 0.005(3)
loop_
_atom_type_symbol
_atom_type_description
_atom_type_scat_dispersion_real
_atom_type_scat_dispersion_imag
_atom_type_scat_source
C C 0.0033 0.0016 'International Tables Vol C Tables 4.2.6.8 and 6.1.1.4'
H H 0.0000 0.0000 'International Tables Vol C Tables 4.2.6.8 and 6.1.1.4'
N N 0.0061 0.0033 'International Tables Vol C Tables 4.2.6.8 and 6.1.1.4'
Ni Ni 0.3393 1.1124 'International Tables Vol C Tables 4.2.6.8 and 6.1.1.4'
O O 0.0106 0.0060 'International Tables Vol C Tables 4.2.6.8 and 6.1.1.4'
loop_
_geom_angle_atom_site_label_1
_geom_angle_atom_site_label_2
_geom_angle_atom_site_label_3
_geom_angle
N1 Ni1 N2 95.07(14)
N1 Ni1 N3 177.71(17)
N2 Ni1 N3 85.09(13)
N4 Ni1 N1 85.13(14)
N4 Ni1 N2 178.12(16)
N4 Ni1 N3 94.64(13)
C29 O2 H2 109.5
C1 N1 Ni1 129.5(3)
C4 N1 Ni1 117.9(3)
C4 N1 C1 112.0(3)
C14 N2 Ni1 117.3(2)
C14 N2 C17 111.7(3)
C17 N2 Ni1 130.2(2)
C10 N3 Ni1 130.2(2)
C13 N3 Ni1 117.6(2)
C13 N3 C10 112.2(3)
C5 N4 Ni1 117.5(3)
C5 N4 C8 112.3(3)
C8 N4 Ni1 130.0(2)
N1 C1 C2 105.2(3)
N1 C1 C18 121.2(3)
C2 C1 C18 133.5(3)
C1 C2 H2A 126.0
C3 C2 C1 108.1(3)
C3 C2 H2A 126.0
C2 C3 H3 126.3
C2 C3 C4 107.3(3)
C4 C3 H3 126.3
N1 C4 C3 107.4(3)
N1 C4 C5 109.2(3)
C3 C4 C5 143.1(4)
N4 C5 C4 110.3(3)
N4 C5 C6 107.2(3)
C6 C5 C4 142.6(4)
C5 C6 H6 126.3
C7 C6 C5 107.5(4)
C7 C6 H6 126.3
C6 C7 H7 125.6
C6 C7 C8 108.7(4)
C8 C7 H7 125.6
N4 C8 C7 104.3(3)
N4 C8 C9 121.2(3)
C9 C8 C7 134.5(4)
C8 C9 C10 122.8(3)
C8 C9 C36 119.9(3)
C10 C9 C36 117.2(3)
N3 C10 C9 121.0(3)
N3 C10 C11 105.1(3)
C11 C10 C9 133.9(3)
C10 C11 H11 125.6
C12 C11 C10 108.7(3)
C12 C11 H11 125.6
C11 C12 H12 126.9
C11 C12 C13 106.1(3)
C13 C12 H12 126.9
N3 C13 C12 107.9(3)
N3 C13 C14 109.5(3)
C12 C13 C14 142.6(3)
N2 C14 C13 110.4(3)
N2 C14 C15 108.1(3)
C15 C14 C13 141.3(3)
C14 C15 H15 126.2
C16 C15 C14 107.6(3)
C16 C15 H15 126.2
C15 C16 C17 107.3(3)
C15 C16 C28 125.1(3)
C17 C16 C28 127.5(3)
N2 C17 C16 105.2(3)
N2 C17 C18 120.0(3)
C18 C17 C16 134.7(3)
C1 C18 C19 116.1(3)
C17 C18 C1 123.6(3)
C17 C18 C19 120.2(3)
C20 C19 C18 119.5(3)
C20 C19 C24 121.1(3)
C24 C19 C18 119.4(3)
C19 C20 C25 121.5(4)
C21 C20 C19 118.3(4)
C21 C20 C25 120.2(4)
C20 C21 H21 118.7
C22 C21 C20 122.6(5)
C22 C21 H21 118.7
C21 C22 C23 117.9(4)
C21 C22 C26 120.8(7)
C23 C22 C26 121.4(7)
C22 C23 H23 118.4
C22 C23 C24 123.3(5)
C24 C23 H23 118.4
C19 C24 C27 121.9(4)
C23 C24 C19 116.8(4)
C23 C24 C27 121.2(4)
C20 C25 H25A 109.5
C20 C25 H25B 109.5
C20 C25 H25C 109.5
H25A C25 H25B 109.5
H25A C25 H25C 109.5
H25B C25 H25C 109.5
C22 C26 H26A 109.5
C22 C26 H26B 109.5
C22 C26 H26C 109.5
H26A C26 H26B 109.5
H26A C26 H26C 109.5
H26B C26 H26C 109.5
C24 C27 H27A 109.5
C24 C27 H27B 109.5
C24 C27 H27C 109.5
H27A C27 H27B 109.5
H27A C27 H27C 109.5
H27B C27 H27C 109.5
C29 C28 C16 121.3(3)
C29 C28 C33 119.7(3)
C33 C28 C16 119.0(3)
O2 C29 C28 117.7(3)
O2 C29 C30 117.8(3)
C28 C29 C30 124.4(3)
C29 C30 H30A 108.8
C29 C30 H30B 108.8
C29 C30 C31 113.9(3)
H30A C30 H30B 107.7
C31 C30 H30A 108.8
C31 C30 H30B 108.8
C30 C31 C35 109.7(3)
C32 C31 C30 109.5(3)
C32 C31 C34 111.3(4)
C32 C31 C35 108.2(4)
C34 C31 C30 111.9(3)
C34 C31 C35 106.2(4)
C31 C32 H32A 108.5
C31 C32 H32B 108.5
H32A C32 H32B 107.5
C33 C32 C31 114.9(3)
C33 C32 H32A 108.5
C33 C32 H32B 108.5
O1 C33 C28 121.9(3)
O1 C33 C32 119.7(3)
C28 C33 C32 118.3(3)
C31 C34 H34A 109.5
C31 C34 H34B 109.5
C31 C34 H34C 109.5
H34A C34 H34B 109.5
H34A C34 H34C 109.5
H34B C34 H34C 109.5
C31 C35 H35A 109.5
C31 C35 H35B 109.5
C31 C35 H35C 109.5
H35A C35 H35B 109.5
H35A C35 H35C 109.5
H35B C35 H35C 109.5
C37 C36 C9 119.3(4)
C41 C36 C9 120.0(4)
C41 C36 C37 120.6(4)
C36 C37 C42 121.2(4)
C38 C37 C36 118.1(5)
C38 C37 C42 120.6(5)
C37 C38 H38 118.8
C39 C38 C37 122.5(5)
C39 C38 H38 118.8
C38 C39 C40 118.6(5)
C38 C39 C43 121.5(6)
C40 C39 C43 119.8(6)
C39 C40 H40 119.0
C39 C40 C41 121.9(5)
C41 C40 H40 119.0
C36 C41 C44 121.9(4)
C40 C41 C36 118.2(4)
C40 C41 C44 119.9(5)
C37 C42 H42A 109.5
C37 C42 H42B 109.5
C37 C42 H42C 109.5
H42A C42 H42B 109.5
H42A C42 H42C 109.5
H42B C42 H42C 109.5
C39 C43 H43A 109.5
C39 C43 H43B 109.5
C39 C43 H43C 109.5
H43A C43 H43B 109.5
H43A C43 H43C 109.5
H43B C43 H43C 109.5
C41 C44 H44A 109.5
C41 C44 H44B 109.5
C41 C44 H44C 109.5
H44A C44 H44B 109.5
H44A C44 H44C 109.5
H44B C44 H44C 109.5
loop_
_geom_bond_atom_site_label_1
_geom_bond_atom_site_label_2
_geom_bond_distance
Ni1 N1 1.800(3)
Ni1 N2 1.804(3)
Ni1 N3 1.804(3)
Ni1 N4 1.797(3)
O1 C33 1.240(4)
O2 H2 0.8200
O2 C29 1.345(4)
N1 C1 1.389(4)
N1 C4 1.355(5)
N2 C14 1.345(4)
N2 C17 1.399(4)
N3 C10 1.379(4)
N3 C13 1.351(4)
N4 C5 1.351(5)
N4 C8 1.392(5)
C1 C2 1.434(5)
C1 C18 1.448(5)
C2 H2A 0.9300
C2 C3 1.407(6)
C3 H3 0.9300
C3 C4 1.416(5)
C4 C5 1.520(5)
C5 C6 1.426(5)
C6 H6 0.9300
C6 C7 1.385(6)
C7 H7 0.9300
C7 C8 1.447(5)
C8 C9 1.428(5)
C9 C10 1.446(5)
C9 C36 1.514(5)
C10 C11 1.431(5)
C11 H11 0.9300
C11 C12 1.412(5)
C12 H12 0.9300
C12 C13 1.423(5)
C13 C14 1.519(5)
C14 C15 1.427(5)
C15 H15 0.9300
C15 C16 1.405(5)
C16 C17 1.461(5)
C16 C28 1.509(5)
C17 C18 1.435(5)
C18 C19 1.509(5)
C19 C20 1.416(5)
C19 C24 1.425(5)
C20 C21 1.398(6)
C20 C25 1.518(6)
C21 H21 0.9300
C21 C22 1.389(7)
C22 C23 1.394(8)
C22 C26 1.549(7)
C23 H23 0.9300
C23 C24 1.409(6)
C24 C27 1.512(6)
C25 H25A 0.9600
C25 H25B 0.9600
C25 H25C 0.9600
C26 H26A 0.9600
C26 H26B 0.9600
C26 H26C 0.9600
C27 H27A 0.9600
C27 H27B 0.9600
C27 H27C 0.9600
C28 C29 1.363(4)
C28 C33 1.465(5)
C29 C30 1.514(5)
C30 H30A 0.9700
C30 H30B 0.9700
C30 C31 1.550(5)
C31 C32 1.531(6)
C31 C34 1.546(5)
C31 C35 1.557(6)
C32 H32A 0.9700
C32 H32B 0.9700
C32 C33 1.524(5)
C34 H34A 0.9600
C34 H34B 0.9600
C34 H34C 0.9600
C35 H35A 0.9600
C35 H35B 0.9600
C35 H35C 0.9600
C36 C37 1.420(6)
C36 C41 1.416(6)
C37 C38 1.405(6)
C37 C42 1.515(7)
C38 H38 0.9300
C38 C39 1.386(7)
C39 C40 1.391(7)
C39 C43 1.554(7)
C40 H40 0.9300
C40 C41 1.415(6)
C41 C44 1.535(6)
C42 H42A 0.9600
C42 H42B 0.9600
C42 H42C 0.9600
C43 H43A 0.9600
C43 H43B 0.9600
C43 H43C 0.9600
C44 H44A 0.9600
C44 H44B 0.9600
C44 H44C 0.9600
