#------------------------------------------------------------------------------
#$Date: 2020-04-05 13:26:44 +0300 (Sun, 05 Apr 2020) $
#$Revision: 250219 $
#$URL: file:///home/coder/svn-repositories/cod/cif/1/55/68/1556869.cif $
#------------------------------------------------------------------------------
#
# This file is available in the Crystallography Open Database (COD),
# http://www.crystallography.net/
#
# All data on this site have been placed in the public domain by the
# contributors.
#
data_1556869
loop_
_publ_author_name
'Wang, Hai-Xu'
'Wan, Qingyun'
'Low, Kam-Hung'
'Zhou, Cong-Ying'
'Huang, Jie-Sheng'
'Zhang, Jun-Long'
'Che, Chi-Ming'
_publ_section_title
;
 Stable group 8 metal porphyrin mono- and bis(dialkylcarbene) complexes:
 synthesis, characterization, and catalytic activity.
;
_journal_issue                   8
_journal_name_full               'Chemical science'
_journal_page_first              2243
_journal_page_last               2259
_journal_paper_doi               10.1039/c9sc05432d
_journal_volume                  11
_journal_year                    2020
_chemical_formula_moiety         'C59 H54 N4 O Ru, C H4 O, C H2 CL2'
_chemical_formula_sum            'C61 H60 Cl2 N4 O2 Ru'
_chemical_formula_weight         1053.10
_space_group_crystal_system      monoclinic
_space_group_IT_number           14
_space_group_name_Hall           '-P 2ybc'
_space_group_name_H-M_alt        'P 1 21/c 1'
_atom_sites_solution_hydrogens   mixed
_audit_creation_method           SHELXL-2014/7
_audit_update_record
;
2019-10-26 deposited with the CCDC.	2019-12-30 downloaded from the CCDC.
;
_cell_angle_alpha                90
_cell_angle_beta                 95.757(2)
_cell_angle_gamma                90
_cell_formula_units_Z            4
_cell_length_a                   11.5545(10)
_cell_length_b                   17.3432(16)
_cell_length_c                   25.028(2)
_cell_measurement_reflns_used    531
_cell_measurement_temperature    150(2)
_cell_measurement_theta_max      22.5
_cell_measurement_theta_min      2.8
_cell_volume                     4990.1(7)
_computing_cell_refinement       'SAINT v8.34A (Bruker-AXS, 2013)'
_computing_data_collection       'APEX3 v2015.5-2 (Bruker-AXS, 2015)'
_computing_data_reduction        'SAINT v8.34A (Bruker-AXS, 2013)'
_computing_molecular_graphics    'Bruker SHELXTL'
_computing_publication_material  'Bruker SHELXTL'
_computing_structure_refinement  'SHELXL-2014/7 (Sheldrick, 2014)'
_computing_structure_solution    'SHELXT-2014/5 (Sheldrick, 2015)'
_diffrn_ambient_temperature      150(2)
_diffrn_detector_area_resol_mean 10.24
_diffrn_measured_fraction_theta_full 0.999
_diffrn_measured_fraction_theta_max 0.996
_diffrn_measurement_device_type  'Bruker D8 VENTURE FIXED-CHI PHOTON 100 CMOS'
_diffrn_measurement_method       '\f and \w scans'
_diffrn_radiation_type           MoK\a
_diffrn_radiation_wavelength     0.71073
_diffrn_reflns_av_R_equivalents  0.1219
_diffrn_reflns_av_unetI/netI     0.0495
_diffrn_reflns_Laue_measured_fraction_full 0.999
_diffrn_reflns_Laue_measured_fraction_max 0.996
_diffrn_reflns_limit_h_max       13
_diffrn_reflns_limit_h_min       -13
_diffrn_reflns_limit_k_max       20
_diffrn_reflns_limit_k_min       -20
_diffrn_reflns_limit_l_max       30
_diffrn_reflns_limit_l_min       -29
_diffrn_reflns_number            148426
_diffrn_reflns_point_group_measured_fraction_full 0.999
_diffrn_reflns_point_group_measured_fraction_max 0.996
_diffrn_reflns_theta_full        25.242
_diffrn_reflns_theta_max         25.488
_diffrn_reflns_theta_min         2.213
_diffrn_source                   'I\mS HB micro-focus sealed tube'
_exptl_absorpt_coefficient_mu    0.471
_exptl_absorpt_correction_T_max  0.4901
_exptl_absorpt_correction_T_min  0.3813
_exptl_absorpt_correction_type   multi-scan
_exptl_absorpt_process_details   'SADABS 2014/5 (Sheldrick, 2014)'
_exptl_crystal_colour            purple
_exptl_crystal_density_diffrn    1.402
_exptl_crystal_description       plate
_exptl_crystal_F_000             2192
_exptl_crystal_size_max          0.341
_exptl_crystal_size_mid          0.217
_exptl_crystal_size_min          0.031
_refine_diff_density_max         0.888
_refine_diff_density_min         -0.531
_refine_diff_density_rms         0.079
_refine_ls_extinction_method     none
_refine_ls_goodness_of_fit_ref   1.061
_refine_ls_hydrogen_treatment    mixed
_refine_ls_matrix_type           full
_refine_ls_number_parameters     615
_refine_ls_number_reflns         9219
_refine_ls_number_restraints     0
_refine_ls_restrained_S_all      1.061
_refine_ls_R_factor_all          0.0710
_refine_ls_R_factor_gt           0.0490
_refine_ls_shift/su_max          0.001
_refine_ls_shift/su_mean         0.000
_refine_ls_structure_factor_coef Fsqd
_refine_ls_weighting_details
'w=1/[\s^2^(Fo^2^)+(0.0207P)^2^+12.8644P] where P=(Fo^2^+2Fc^2^)/3'
_refine_ls_weighting_scheme      calc
_refine_ls_wR_factor_gt          0.0905
_refine_ls_wR_factor_ref         0.0977
_reflns_Friedel_coverage         0.000
_reflns_number_gt                7352
_reflns_number_total             9219
_reflns_threshold_expression     'I > 2\s(I)'
_cod_data_source_file            c9sc05432d2.cif
_cod_data_source_block           mo_CHEM0434_sq
_cod_depositor_comments
;Adding full bibliography for 1556869--1556873.cif.

 Adding full bibliography for 1556869--1556873.cif.
;
_cod_original_cell_volume        4990.1(8)
_cod_original_sg_symbol_H-M      'P 21/c'
_cod_database_code               1556869
_shelx_shelxl_version_number     2014/7
_shelx_space_group_comment
;
The symmetry employed for this shelxl refinement is uniquely defined
by the following loop, which should always be used as a source of
symmetry information in preference to the above space-group names.
They are only intended as comments.
;
_shelx_estimated_absorpt_t_min   0.856
_shelx_estimated_absorpt_t_max   0.986
_shelx_res_file
;

    mo_chem0434_sq.res created by SHELXL-2014/7


TITL mo_CHEM0434_a.res in P2(1)/c
CELL 0.71073 11.5545 17.3432 25.0279 90.000 95.757 90.000
ZERR 4.00 0.0010 0.0016 0.0022 0.000 0.002 0.000
LATT 1
SYMM -x, y+1/2, -z+1/2
SFAC C H N O CL RU
UNIT 244 240 16 8 8 4
LIST 6 ! automatically inserted. Change 6 to 4 for CHECKCIF!!
TEMP -123.150
SIZE 0.031 0.217 0.341
L.S. 5 0   36
OMIT 1 1 0
ACTA
FMAP 2
PLAN -13 0 0.00
BOND $H
ABIN
WGHT    0.020700   12.864400
FVAR       0.06179
RU1   6    0.434303    0.731630    0.374795    11.00000    0.01071    0.01849 =
         0.00984    0.00020   -0.00056   -0.00068
N1    3    0.457270    0.746311    0.295463    11.00000    0.01348    0.01934 =
         0.01366    0.00243   -0.00114    0.00070
N2    3    0.269192    0.691719    0.353500    11.00000    0.01382    0.01897 =
         0.01051   -0.00149    0.00173    0.00269
N3    3    0.402443    0.729532    0.453829    11.00000    0.01552    0.02244 =
         0.01304    0.00099    0.00006   -0.00007
N4    3    0.590284    0.784814    0.396104    11.00000    0.01423    0.01496 =
         0.01187   -0.00025   -0.00031   -0.00068
C1    1    0.501390    0.634314    0.375856    11.00000    0.01608    0.01967 =
         0.01270    0.00153    0.00247   -0.00164
C2    1    0.463000    0.569768    0.337549    11.00000    0.02194    0.02315 =
         0.02052   -0.00333   -0.00336    0.00278
AFIX  13
H2    2    0.392799    0.586176    0.313626    11.00000   -1.20000
AFIX   0
C3    1    0.562843    0.550253    0.303402    11.00000    0.03946    0.02913 =
         0.02160   -0.00266    0.00496    0.00777
AFIX  23
H3A   2    0.538373    0.508391    0.277839    11.00000   -1.20000
H3B   2    0.582244    0.596119    0.282504    11.00000   -1.20000
AFIX   0
C4    1    0.668822    0.524990    0.339916    11.00000    0.02266    0.03915 =
         0.04214   -0.00857    0.00456    0.01266
AFIX  13
H4    2    0.733655    0.512327    0.317767    11.00000   -1.20000
AFIX   0
C5    1    0.706309    0.591144    0.378558    11.00000    0.01865    0.03555 =
         0.06006   -0.00517   -0.00290    0.00638
AFIX  23
H5A   2    0.726181    0.637108    0.357871    11.00000   -1.20000
H5B   2    0.776222    0.575748    0.402279    11.00000   -1.20000
AFIX   0
C6    1    0.606679    0.610730    0.412646    11.00000    0.02727    0.02262 =
         0.02356   -0.00240   -0.00901    0.00294
AFIX  13
H6    2    0.630783    0.653951    0.437779    11.00000   -1.20000
AFIX   0
C7    1    0.576747    0.539421    0.444787    11.00000    0.05169    0.03191 =
         0.02445    0.00257   -0.01007    0.00681
AFIX  23
H7A   2    0.645090    0.524012    0.469521    11.00000   -1.20000
H7B   2    0.512102    0.551631    0.466519    11.00000   -1.20000
AFIX   0
C8    1    0.541335    0.473267    0.406309    11.00000    0.05322    0.02243 =
         0.02797    0.00353   -0.00318   -0.00273
AFIX  13
H8    2    0.522323    0.426630    0.427241    11.00000   -1.20000
AFIX   0
C9    1    0.433648    0.498904    0.370209    11.00000    0.03327    0.02656 =
         0.03449   -0.00155    0.00268   -0.00559
AFIX  23
H9A   2    0.370149    0.511652    0.392485    11.00000   -1.20000
H9B   2    0.406748    0.456428    0.345603    11.00000   -1.20000
AFIX   0
C10   1    0.639003    0.454210    0.371630    11.00000    0.04147    0.03020 =
         0.03662   -0.00922   -0.01751    0.01486
AFIX  23
H10A  2    0.708670    0.436920    0.394783    11.00000   -1.20000
H10B  2    0.614186    0.411766    0.346612    11.00000   -1.20000
AFIX   0
C11   1    0.555467    0.773675    0.275106    11.00000    0.01437    0.02653 =
         0.01529    0.00412    0.00333   -0.00037
C12   1    0.540962    0.767556    0.217594    11.00000    0.02093    0.03687 =
         0.01485    0.00398    0.00516   -0.00341
AFIX  43
H12   2    0.596140    0.782035    0.193735    11.00000   -1.20000
AFIX   0
C13   1    0.434889    0.737556    0.203753    11.00000    0.02062    0.03912 =
         0.01215    0.00152   -0.00122   -0.00198
AFIX  43
H13   2    0.401387    0.727041    0.168277    11.00000   -1.20000
AFIX   0
C14   1    0.381491    0.724308    0.252232    11.00000    0.01724    0.01975 =
         0.01301    0.00008   -0.00145    0.00090
C15   1    0.270112    0.693983    0.255001    11.00000    0.01620    0.01910 =
         0.01462    0.00063   -0.00176    0.00230
C16   1    0.199590    0.676396    0.202753    11.00000    0.01160    0.02694 =
         0.01359    0.00053    0.00031   -0.00038
C17   1    0.157305    0.735514    0.168889    11.00000    0.02174    0.03112 =
         0.02002    0.00211    0.00008    0.00000
AFIX  43
H17   2    0.174945    0.787455    0.178631    11.00000   -1.20000
AFIX   0
C18   1    0.089970    0.720251    0.121227    11.00000    0.02135    0.04285 =
         0.02087    0.01076   -0.00330    0.00115
AFIX  43
H18   2    0.061505    0.761840    0.098950    11.00000   -1.20000
AFIX   0
C19   1    0.063657    0.645901    0.105634    11.00000    0.02302    0.05462 =
         0.01622    0.00187   -0.00139   -0.00201
C20   1    0.106082    0.586215    0.139139    11.00000    0.04049    0.03559 =
         0.02806   -0.01271   -0.00442   -0.00724
AFIX  43
H20   2    0.089127    0.534311    0.129054    11.00000   -1.20000
AFIX   0
C21   1    0.173104    0.601659    0.187281    11.00000    0.03162    0.02775 =
         0.01962   -0.00082   -0.00360    0.00192
AFIX  43
H21   2    0.200972    0.560155    0.209779    11.00000   -1.20000
AFIX   0
C22   1   -0.012561    0.629317    0.054302    11.00000    0.04433    0.08069 =
         0.02390   -0.00651   -0.01231   -0.00565
AFIX 137
H22A  2    0.007213    0.664860    0.026165    11.00000   -1.50000
H22B  2   -0.094380    0.636219    0.060409    11.00000   -1.50000
H22C  2    0.000034    0.576114    0.043031    11.00000   -1.50000
AFIX   0
C23   1    0.218572    0.679183    0.301993    11.00000    0.00988    0.02011 =
         0.01519    0.00037   -0.00406    0.00234
C24   1    0.103888    0.648462    0.304566    11.00000    0.01502    0.02222 =
         0.01327   -0.00053   -0.00460    0.00130
AFIX  43
H24   2    0.050231    0.634889    0.274789    11.00000   -1.20000
AFIX   0
C25   1    0.086020    0.642341    0.356623    11.00000    0.01227    0.02181 =
         0.02202    0.00202    0.00339   -0.00111
AFIX  43
H25   2    0.017985    0.622998    0.370340    11.00000   -1.20000
AFIX   0
C26   1    0.189017    0.670507    0.387861    11.00000    0.01108    0.01911 =
         0.01668    0.00191    0.00129    0.00397
C27   1    0.204008    0.675150    0.443994    11.00000    0.01169    0.01982 =
         0.01746    0.00130    0.00082    0.00230
C28   1    0.107048    0.648794    0.474982    11.00000    0.01649    0.02149 =
         0.01171   -0.00343    0.00144   -0.00426
C29   1   -0.002909    0.682716    0.469124    11.00000    0.02258    0.02115 =
         0.01631    0.00065    0.00238    0.00047
AFIX  43
H29   2   -0.018557    0.723491    0.444094    11.00000   -1.20000
AFIX   0
C30   1   -0.089712    0.657571    0.499451    11.00000    0.01397    0.02722 =
         0.02362   -0.00177    0.00186    0.00119
AFIX  43
H30   2   -0.164394    0.680904    0.494391    11.00000   -1.20000
AFIX   0
C31   1   -0.069560    0.598827    0.537150    11.00000    0.02121    0.02273 =
         0.01715   -0.00360    0.00542   -0.00465
C32   1    0.039984    0.565760    0.542755    11.00000    0.02252    0.02171 =
         0.01799    0.00439    0.00242    0.00053
AFIX  43
H32   2    0.056048    0.525649    0.568273    11.00000   -1.20000
AFIX   0
C33   1    0.126346    0.589449    0.512324    11.00000    0.01513    0.02390 =
         0.01909    0.00081    0.00085    0.00167
AFIX  43
H33   2    0.200209    0.564942    0.516870    11.00000   -1.20000
AFIX   0
C34   1   -0.163354    0.571539    0.570526    11.00000    0.02707    0.03051 =
         0.03069    0.00195    0.01143   -0.00034
AFIX 137
H34A  2   -0.239410    0.576337    0.549634    11.00000   -1.50000
H34B  2   -0.162126    0.603099    0.603058    11.00000   -1.50000
H34C  2   -0.149430    0.517462    0.580557    11.00000   -1.50000
AFIX   0
C35   1    0.303877    0.703786    0.474330    11.00000    0.01656    0.02029 =
         0.01612   -0.00006    0.00686   -0.00079
C36   1    0.315562    0.714280    0.531626    11.00000    0.02227    0.02936 =
         0.01452   -0.00017    0.00630   -0.00298
AFIX  43
H36   2    0.259487    0.701324    0.555425    11.00000   -1.20000
AFIX   0
C37   1    0.420620    0.745833    0.545199    11.00000    0.02356    0.03162 =
         0.01305   -0.00365    0.00147   -0.00326
AFIX  43
H37   2    0.452529    0.759295    0.580425    11.00000   -1.20000
AFIX   0
C38   1    0.475737    0.755469    0.496822    11.00000    0.01764    0.01727 =
         0.01305   -0.00092   -0.00157   -0.00107
C39   1    0.584797    0.789742    0.494122    11.00000    0.01830    0.01804 =
         0.01598   -0.00128   -0.00214    0.00393
C40   1    0.648618    0.813290    0.546474    11.00000    0.01647    0.02906 =
         0.01328   -0.00071    0.00045   -0.00370
C41   1    0.702015    0.759002    0.581296    11.00000    0.02429    0.02815 =
         0.02126   -0.00263    0.00066    0.00214
AFIX  43
H41   2    0.698994    0.706060    0.571513    11.00000   -1.20000
AFIX   0
C42   1    0.759974    0.780797    0.630353    11.00000    0.02232    0.04093 =
         0.01816    0.00417   -0.00193    0.00370
AFIX  43
H42   2    0.796905    0.742599    0.653332    11.00000   -1.20000
AFIX   0
C43   1    0.764644    0.856544    0.646067    11.00000    0.03114    0.04651 =
         0.01909   -0.00393   -0.00455   -0.00525
C44   1    0.711616    0.910367    0.611147    11.00000    0.06576    0.03270 =
         0.03602   -0.01300   -0.01283   -0.00584
AFIX  43
H44   2    0.714432    0.963251    0.621083    11.00000   -1.20000
AFIX   0
C45   1    0.654519    0.889501    0.562120    11.00000    0.05524    0.02901 =
         0.02626   -0.00289   -0.01425   -0.00190
AFIX  43
H45   2    0.619010    0.928035    0.538989    11.00000   -1.20000
AFIX   0
C46   1    0.825942    0.879912    0.700019    11.00000    0.05837    0.06857 =
         0.02851   -0.01110   -0.01908   -0.00872
AFIX 137
H46A  2    0.895635    0.848122    0.708056    11.00000   -1.50000
H46B  2    0.773433    0.872390    0.727990    11.00000   -1.50000
H46C  2    0.848392    0.934335    0.698895    11.00000   -1.50000
AFIX   0
C47   1    0.636142    0.804167    0.447228    11.00000    0.01833    0.01886 =
         0.01644   -0.00127   -0.00144    0.00014
C48   1    0.746478    0.841526    0.444438    11.00000    0.01635    0.02587 =
         0.01920   -0.00117   -0.00466   -0.00442
AFIX  43
H48   2    0.796414    0.860493    0.473988    11.00000   -1.20000
AFIX   0
C49   1    0.766143    0.844750    0.392572    11.00000    0.01586    0.02452 =
         0.02387    0.00120    0.00168   -0.00664
AFIX  43
H49   2    0.832321    0.866629    0.378699    11.00000   -1.20000
AFIX   0
C50   1    0.668394    0.808904    0.361662    11.00000    0.01324    0.01888 =
         0.01883    0.00385    0.00126   -0.00028
C51   1    0.654196    0.802904    0.305575    11.00000    0.01698    0.01863 =
         0.01743    0.00201    0.00253    0.00246
C52   1    0.751582    0.833385    0.276864    11.00000    0.01367    0.02639 =
         0.01461   -0.00049    0.00178   -0.00268
C53   1    0.861348    0.799947    0.282930    11.00000    0.01867    0.02875 =
         0.02371    0.00601    0.00058    0.00103
AFIX  43
H53   2    0.873777    0.754636    0.304057    11.00000   -1.20000
AFIX   0
C54   1    0.952963    0.831545    0.258703    11.00000    0.01461    0.03175 =
         0.02963    0.00505    0.00407    0.00010
AFIX  43
H54   2    1.027006    0.807289    0.263364    11.00000   -1.20000
AFIX   0
C55   1    0.938884    0.897869    0.227773    11.00000    0.02020    0.02686 =
         0.02245   -0.00122    0.00445   -0.00487
C56   1    0.829042    0.930888    0.221118    11.00000    0.02933    0.02124 =
         0.02065    0.00389    0.00384   -0.00162
AFIX  43
H56   2    0.816709    0.975951    0.199724    11.00000   -1.20000
AFIX   0
C57   1    0.736840    0.899276    0.245151    11.00000    0.01867    0.03070 =
         0.01766    0.00317    0.00155    0.00201
AFIX  43
H57   2    0.662455    0.922988    0.239874    11.00000   -1.20000
AFIX   0
C58   1    1.038851    0.933209    0.202228    11.00000    0.02735    0.03689 =
         0.04188    0.00990    0.01082   -0.00517
AFIX 137
H58A  2    1.044765    0.909253    0.167143    11.00000   -1.50000
H58B  2    1.111267    0.924661    0.225372    11.00000   -1.50000
H58C  2    1.025590    0.988717    0.197541    11.00000   -1.50000
AFIX   0
O1    4    0.358415    0.858281    0.369719    11.00000    0.02504    0.02979 =
         0.02963   -0.00314   -0.00828    0.00051
C60   1    0.292876    0.883570    0.321357    11.00000    0.07606    0.04380 =
         0.05727   -0.00440   -0.03401    0.01957
AFIX 137
H60A  2    0.345320    0.891215    0.293374    11.00000   -1.50000
H60B  2    0.253867    0.932295    0.328044    11.00000   -1.50000
H60C  2    0.234552    0.844523    0.309526    11.00000   -1.50000
AFIX   0
H1O   2    0.408340    0.887907    0.380514    11.00000    0.07758
O2    4    0.523523    0.968126    0.396980    11.00000    0.05908    0.04415 =
         0.07033   -0.00425   -0.00560   -0.00936
AFIX 147
H2O   2    0.538512    0.986449    0.427970    11.00000   -1.50000
AFIX   0
C59   1    0.566967    1.018167    0.359047    11.00000    0.06478    0.08585 =
         0.08428    0.01311    0.02034   -0.01453
AFIX 137
H59A  2    0.613274    0.988533    0.335519    11.00000   -1.50000
H59B  2    0.615901    1.057770    0.377892    11.00000   -1.50000
H59C  2    0.501815    1.042856    0.337458    11.00000   -1.50000
AFIX   0
HKLF 4 1 1 0 0 0 1 0 0 0 1

REM  mo_CHEM0434_a.res in P2(1)/c
REM R1 =  0.0490 for    7352 Fo > 4sig(Fo)  and  0.0710 for all    9219 data
REM    615 parameters refined using      0 restraints

END

WGHT      0.0207     12.8629

REM Highest difference peak  0.888,  deepest hole -0.531,  1-sigma level  0.079
Q1    1   0.0781  0.9030  0.4207  11.00000  0.05    0.89
Q2    1   0.2570  0.9400  0.5026  11.00000  0.05    0.67
Q3    1   0.2335  0.9544  0.5107  11.00000  0.05    0.61
Q4    1   0.1984  0.8728  0.4708  11.00000  0.05    0.53
Q5    1   0.3946  0.7367  0.4190  11.00000  0.05    0.47
Q6    1   0.2184  0.8666  0.3451  11.00000  0.05    0.46
Q7    1   0.4848  0.7825  0.3562  11.00000  0.05    0.44
Q8    1   0.3453  0.7229  0.4598  11.00000  0.05    0.41
Q9    1   0.5221  0.7376  0.2888  11.00000  0.05    0.40
Q10   1   0.4699  0.7295  0.3279  11.00000  0.05    0.40
Q11   1   0.4851  0.9592  0.3231  11.00000  0.05    0.37
Q12   1   0.1507  0.6784  0.2969  11.00000  0.05    0.35
Q13   1   0.3944  0.6836  0.3895  11.00000  0.05    0.35
;
_shelx_res_checksum              48247
_shelx_fab_file
;
    2    0    0    -34.88      0.00
    3    0    0     -9.21      0.00
    4    0    0      9.92      0.00
    5    0    0     -4.44      0.00
    6    0    0    -34.01      0.00
    7    0    0    -18.08      0.00
    8    0    0     -0.72      0.00
    9    0    0      2.80      0.00
   10    0    0      6.10      0.00
   11    0    0      4.39      0.00
   12    0    0      5.43      0.00
   13    0    0      4.19      0.00
   13    1    0      0.50      0.00
   12    1    0     -0.18      0.00
   11    1    0     -1.19      0.00
   10    1    0     -4.34      0.00
    9    1    0     -6.96      0.00
    8    1    0     -7.54      0.00
    7    1    0     -7.90      0.00
    6    1    0      2.86      0.00
    5    1    0     11.34      0.00
    4    1    0      5.95      0.00
    3    1    0      5.74      0.00
    2    1    0     22.51      0.00
    1    1    0     45.34      0.00
   13    2    0      1.53      0.00
   12    2    0      2.21      0.00
   11    2    0     -0.42      0.00
   10    2    0      1.30      0.00
    9    2    0      1.68      0.00
    8    2    0      3.02      0.00
    7    2    0     -8.04      0.00
    6    2    0    -19.60      0.00
    5    2    0      0.67      0.00
    4    2    0     11.29      0.00
    3    2    0     -1.48      0.00
    2    2    0    -25.87      0.00
    1    2    0      9.43      0.00
    0    2    0     66.68      0.00
   13    3    0      1.40      0.00
   12    3    0     -0.17      0.00
   11    3    0     -1.10      0.00
   10    3    0     -6.28      0.00
    9    3    0     -9.23      0.00
    8    3    0    -10.55      0.00
    7    3    0    -15.96      0.00
    6    3    0      4.34      0.00
    5    3    0     22.94      0.00
    4    3    0     12.01      0.00
    3    3    0      4.11      0.00
    2    3    0     23.09      0.00
    1    3    0     67.90      0.00
   13    4    0     -0.76      0.00
   12    4    0     -1.72      0.00
   11    4    0     -7.65      0.00
   10    4    0     -5.38      0.00
    9    4    0      2.56      0.00
    8    4    0      7.89      0.00
    7    4    0      6.28      0.00
    6    4    0      7.28      0.00
    5    4    0     13.45      0.00
    4    4    0     11.94      0.00
    3    4    0      1.39      0.00
    2    4    0    -12.49      0.00
    1    4    0    -21.71      0.00
    0    4    0    -24.56      0.00
   13    5    0      0.75      0.00
   12    5    0     -3.01      0.00
   11    5    0     -0.05      0.00
   10    5    0      2.50      0.00
    9    5    0      3.75      0.00
    8    5    0     -0.45      0.00
    7    5    0    -11.35      0.00
    6    5    0      3.40      0.00
    5    5    0     15.03      0.00
    4    5    0      0.86      0.00
    3    5    0    -12.94      0.00
    2    5    0     -8.17      0.00
    1    5    0     28.12      0.00
   13    6    0     -2.71      0.00
   12    6    0     -2.15      0.00
   11    6    0     -5.30      0.00
   10    6    0     -3.80      0.00
    9    6    0      3.43      0.00
    8    6    0      1.61      0.00
    7    6    0      4.19      0.00
    6    6    0     15.97      0.00
    5    6    0     15.03      0.00
    4    6    0      5.17      0.00
    3    6    0     -6.55      0.00
    2    6    0     -4.76      0.00
    1    6    0    -11.16      0.00
    0    6    0    -30.03      0.00
   13    7    0      0.58      0.00
   12    7    0     -3.67      0.00
   11    7    0      0.29      0.00
   10    7    0      8.92      0.00
    9    7    0     10.43      0.00
    8    7    0      4.03      0.00
    7    7    0     -2.25      0.00
    6    7    0      5.42      0.00
    5    7    0      2.71      0.00
    4    7    0    -16.28      0.00
    3    7    0    -26.32      0.00
    2    7    0    -17.56      0.00
    1    7    0      5.38      0.00
   12    8    0     -0.53      0.00
   11    8    0      2.85      0.00
   10    8    0      3.17      0.00
    9    8    0      2.38      0.00
    8    8    0     -7.86      0.00
    7    8    0     -5.59      0.00
    6    8    0      5.72      0.00
    5    8    0      0.32      0.00
    4    8    0     -7.20      0.00
    3    8    0     -7.62      0.00
    2    8    0      8.20      0.00
    1    8    0      9.13      0.00
    0    8    0     -8.47      0.00
   12    9    0     -0.36      0.00
   11    9    0      0.88      0.00
   10    9    0      5.66      0.00
    9    9    0      2.10      0.00
    8    9    0     -2.41      0.00
    7    9    0      2.66      0.00
    6    9    0      8.50      0.00
    5    9    0     -0.24      0.00
    4    9    0    -16.27      0.00
    3    9    0    -16.48      0.00
    2    9    0     -3.17      0.00
    1    9    0      3.64      0.00
   12   10    0     -0.54      0.00
   11   10    0      3.48      0.00
   10   10    0      3.79      0.00
    9   10    0      0.47      0.00
    8   10    0     -7.17      0.00
    7   10    0     -5.40      0.00
    6   10    0     -1.74      0.00
    5   10    0    -11.60      0.00
    4   10    0    -12.55      0.00
    3   10    0     -0.82      0.00
    2   10    0     16.29      0.00
    1   10    0     13.70      0.00
    0   10    0     -1.65      0.00
   11   11    0      1.81      0.00
   10   11    0      2.90      0.00
    9   11    0     -4.75      0.00
    8   11    0     -9.30      0.00
    7   11    0      0.83      0.00
    6   11    0      6.59      0.00
    5   11    0      0.85      0.00
    4   11    0     -4.73      0.00
    3   11    0      2.18      0.00
    2   11    0     11.46      0.00
    1   11    0      3.65      0.00
   11   12    0      1.05      0.00
   10   12    0     -0.49      0.00
    9   12    0     -4.94      0.00
    8   12    0     -4.14      0.00
    7   12    0      2.86      0.00
    6   12    0      1.19      0.00
    5   12    0    -11.19      0.00
    4   12    0     -7.40      0.00
    3   12    0      6.45      0.00
    2   12    0     11.70      0.00
    1   12    0      2.27      0.00
    0   12    0     -8.25      0.00
   10   13    0     -0.20      0.00
    9   13    0     -5.32      0.00
    8   13    0     -6.12      0.00
    7   13    0      1.18      0.00
    6   13    0      0.43      0.00
    5   13    0     -0.32      0.00
    4   13    0      4.31      0.00
    3   13    0      7.78      0.00
    2   13    0      8.41      0.00
    1   13    0     -2.30      0.00
   10   14    0     -0.85      0.00
    9   14    0     -4.87      0.00
    8   14    0     -0.71      0.00
    7   14    0      7.39      0.00
    6   14    0      4.82      0.00
    5   14    0     -3.32      0.00
    4   14    0     -1.87      0.00
    3   14    0      4.62      0.00
    2   14    0      2.27      0.00
    1   14    0     -5.17      0.00
    0   14    0     -7.44      0.00
    9   15    0     -3.04      0.00
    8   15    0      0.54      0.00
    7   15    0      3.31      0.00
    6   15    0     -4.44      0.00
    5   15    0     -3.91      0.00
    4   15    0      2.72      0.00
    3   15    0      2.79      0.00
    2   15    0      1.36      0.00
    1   15    0     -3.99      0.00
    9   16    0     -2.35      0.00
    8   16    0      0.47      0.00
    7   16    0      2.31      0.00
    6   16    0      1.30      0.00
    5   16    0      1.59      0.00
    4   16    0      0.23      0.00
    3   16    0      2.03      0.00
    2   16    0     -0.67      0.00
    1   16    0     -4.64      0.00
    0   16    0     -2.40      0.00
    8   17    0      0.99      0.00
    7   17    0      2.66      0.00
    6   17    0     -2.14      0.00
    5   17    0     -2.60      0.00
    4   17    0     -0.17      0.00
    3   17    0     -0.22      0.00
    2   17    0     -1.86      0.00
    1   17    0     -2.53      0.00
    7   18    0      0.61      0.00
    6   18    0      0.42      0.00
    5   18    0      2.42      0.00
    4   18    0      0.25      0.00
    3   18    0      1.37      0.00
    2   18    0      0.11      0.00
    1   18    0     -0.83      0.00
    0   18    0      1.97      0.00
    5   19    0     -1.32      0.00
    4   19    0     -1.27      0.00
    3   19    0      0.00      0.00
    2   19    0     -1.51      0.00
    1   19    0     -0.11      0.00
    4   20    0     -0.26      0.00
    3   20    0      0.63      0.00
    2   20    0     -0.16      0.00
    1   20    0      0.15      0.00
    0   20    0      1.06      0.00
   -4   20    1     -0.29      0.00
   -3   20    1     -0.03      0.00
   -2   20    1     -1.14      0.00
   -1   20    1      0.73      0.00
    0   20    1     -0.11      0.00
    1   20    1     -0.78      0.00
    2   20    1      0.54      0.00
    3   20    1     -0.61      0.00
    4   20    1      1.39      0.00
   -5   19    1     -1.03      0.00
   -4   19    1     -0.03      0.00
   -3   19    1     -1.08      0.00
   -2   19    1      0.41      0.00
   -1   19    1      0.37      0.00
    0   19    1     -2.11      0.00
    1   19    1     -0.34      0.00
    2   19    1     -0.03      0.00
    3   19    1     -0.43      0.00
    4   19    1      0.53      0.00
    5   19    1     -0.58      0.00
   -7   18    1      1.51      0.00
   -6   18    1     -0.66      0.00
   -5   18    1     -1.06      0.00
   -4   18    1     -0.12      0.00
   -3   18    1     -0.45      0.00
   -2   18    1     -2.73      0.00
   -1   18    1     -2.24      0.00
    0   18    1     -0.96      0.00
    1   18    1      0.60      0.00
    2   18    1      1.22      0.00
    3   18    1     -0.47      0.00
    4   18    1      1.29      0.00
    5   18    1      2.45      0.00
    6   18    1     -0.46      0.00
    7   18    1     -3.63      0.00
   -8   17    1     -0.61      0.00
   -7   17    1      0.17      0.00
   -6   17    1      0.81      0.00
   -5   17    1     -1.61      0.00
   -4   17    1     -1.01      0.00
   -3   17    1     -2.90      0.00
   -2   17    1     -0.01      0.00
   -1   17    1      2.57      0.00
    0   17    1     -0.37      0.00
    1   17    1      2.39      0.00
    2   17    1      0.06      0.00
    3   17    1     -0.65      0.00
    4   17    1      0.55      0.00
    5   17    1     -3.02      0.00
    6   17    1     -1.78      0.00
    7   17    1     -1.72      0.00
    8   17    1     -0.87      0.00
   -9   16    1     -3.12      0.00
   -8   16    1      1.58      0.00
   -7   16    1      3.14      0.00
   -6   16    1     -4.25      0.00
   -5   16    1     -3.70      0.00
   -4   16    1      0.79      0.00
   -3   16    1      0.45      0.00
   -2   16    1     -1.33      0.00
   -1   16    1     -4.21      0.00
    0   16    1     -0.65      0.00
    1   16    1      2.44      0.00
    2   16    1      0.09      0.00
    3   16    1     -0.94      0.00
    4   16    1     -1.20      0.00
    5   16    1      3.59      0.00
    6   16    1      3.65      0.00
    7   16    1     -3.04      0.00
    8   16    1     -0.94      0.00
   -9   15    1      4.68      0.00
   -8   15    1      0.81      0.00
   -7   15    1     -4.62      0.00
   -6   15    1     -2.64      0.00
   -5   15    1      0.29      0.00
   -4   15    1     -1.15      0.00
   -3   15    1     -5.10      0.00
   -2   15    1     -1.09      0.00
   -1   15    1      4.99      0.00
    0   15    1      4.44      0.00
    1   15    1      5.43      0.00
    2   15    1      0.88      0.00
    3   15    1     -0.82      0.00
    4   15    1      2.29      0.00
    5   15    1      0.62      0.00
    6   15    1     -3.85      0.00
    7   15    1     -5.77      0.00
    8   15    1     -1.03      0.00
    9   15    1      1.83      0.00
  -10   14    1     -0.61      0.00
   -9   14    1     -4.88      0.00
   -8   14    1     -2.83      0.00
   -7   14    1      1.66      0.00
   -6   14    1     -4.03      0.00
   -5   14    1     -3.74      0.00
   -4   14    1      3.43      0.00
   -3   14    1      6.17      0.00
   -2   14    1      5.47      0.00
   -1   14    1     -2.76      0.00
    0   14    1      1.75      0.00
    1   14    1      5.37      0.00
    2   14    1     -2.87      0.00
    3   14    1     -4.63      0.00
    4   14    1     -5.05      0.00
    5   14    1      1.01      0.00
    6   14    1      1.17      0.00
    7   14    1     -3.52      0.00
    8   14    1      1.15      0.00
    9   14    1      2.56      0.00
   10   14    1     -0.07      0.00
  -10   13    1      0.14      0.00
   -9   13    1      5.88      0.00
   -8   13    1      3.01      0.00
   -7   13    1     -6.24      0.00
   -6   13    1     -3.63      0.00
   -5   13    1      7.59      0.00
   -4   13    1      4.00      0.00
   -3   13    1     -7.09      0.00
   -2   13    1     -7.48      0.00
   -1   13    1      2.26      0.00
    0   13    1      8.65      0.00
    1   13    1      2.50      0.00
    2   13    1     -6.11      0.00
    3   13    1     -5.71      0.00
    4   13    1      4.49      0.00
    5   13    1      7.26      0.00
    6   13    1     -4.13      0.00
    7   13    1     -6.76      0.00
    8   13    1      1.22      0.00
    9   13    1      4.76      0.00
   10   13    1      1.43      0.00
  -11   12    1      1.42      0.00
  -10   12    1      2.58      0.00
   -9   12    1     -4.55      0.00
   -8   12    1     -9.27      0.00
   -7   12    1     -1.48      0.00
   -6   12    1      0.92      0.00
   -5   12    1     -1.88      0.00
   -4   12    1     -1.41      0.00
   -3   12    1      5.90      0.00
   -2   12    1     12.26      0.00
   -1   12    1      3.39      0.00
    0   12    1      4.14      0.00
    1   12    1      2.88      0.00
    2   12    1     -9.07      0.00
    3   12    1     -6.14      0.00
    4   12    1     -2.02      0.00
    5   12    1     -3.00      0.00
    6   12    1     -6.68      0.00
    7   12    1     -2.77      0.00
    8   12    1      7.59      0.00
    9   12    1      5.59      0.00
   10   12    1     -0.41      0.00
   11   12    1     -0.10      0.00
  -11   11    1     -2.69      0.00
  -10   11    1     -2.61      0.00
   -9   11    1      0.61      0.00
   -8   11    1      3.10      0.00
   -7   11    1     -1.02      0.00
   -6   11    1      0.63      0.00
   -5   11    1     14.35      0.00
   -4   11    1     13.49      0.00
   -3   11    1      0.50      0.00
   -2   11    1    -10.69      0.00
   -1   11    1     -4.61      0.00
    0   11    1      6.20      0.00
    1   11    1    -10.22      0.00
    2   11    1    -18.45      0.00
    3   11    1     -7.64      0.00
    4   11    1      6.77      0.00
    5   11    1      9.73      0.00
    6   11    1      0.19      0.00
    7   11    1      2.87      0.00
    8   11    1      7.12      0.00
    9   11    1      3.49      0.00
   10   11    1     -0.56      0.00
   11   11    1     -1.71      0.00
  -12   10    1      0.66      0.00
  -11   10    1      2.19      0.00
  -10   10    1      5.06      0.00
   -9   10    1     -1.64      0.00
   -8   10    1     -6.86      0.00
   -7   10    1      2.70      0.00
   -6   10    1      9.47      0.00
   -5   10    1      1.54      0.00
   -4   10    1    -10.39      0.00
   -3   10    1     -6.62      0.00
   -2   10    1      5.18      0.00
   -1   10    1      3.86      0.00
    0   10    1     -0.08      0.00
    1   10    1     -5.04      0.00
    2   10    1     -7.06      0.00
    3   10    1      5.56      0.00
    4   10    1     10.99      0.00
    5   10    1      0.66      0.00
    6   10    1     -6.97      0.00
    7   10    1     -1.31      0.00
    8   10    1      6.60      0.00
    9   10    1      2.70      0.00
   10   10    1     -3.02      0.00
   11   10    1     -0.76      0.00
   12   10    1     -0.51      0.00
  -12    9    1      0.72      0.00
  -11    9    1     -3.83      0.00
  -10    9    1     -5.53      0.00
   -9    9    1     -4.37      0.00
   -8    9    1      5.77      0.00
   -7    9    1      4.71      0.00
   -6    9    1     -1.17      0.00
   -5    9    1      8.42      0.00
   -4    9    1     13.77      0.00
   -3    9    1      9.28      0.00
   -2    9    1     -7.57      0.00
   -1    9    1     -8.24      0.00
    0    9    1      3.83      0.00
    1    9    1    -17.68      0.00
    2    9    1    -18.99      0.00
    3    9    1      0.21      0.00
    4    9    1      7.79      0.00
    5    9    1      3.81      0.00
    6    9    1     -2.20      0.00
    7    9    1      7.78      0.00
    8    9    1     10.41      0.00
    9    9    1      0.43      0.00
   10    9    1     -3.22      0.00
   11    9    1     -4.02      0.00
   12    9    1      0.18      0.00
  -12    8    1     -2.85      0.00
  -11    8    1     -0.81      0.00
  -10    8    1      6.37      0.00
   -9    8    1      6.24      0.00
   -8    8    1      2.23      0.00
   -7    8    1      4.80      0.00
   -6    8    1     13.27      0.00
   -5    8    1      6.10      0.00
   -4    8    1    -13.71      0.00
   -3    8    1    -21.38      0.00
   -2    8    1    -13.69      0.00
   -1    8    1     -3.60      0.00
    0    8    1     -9.84      0.00
    1    8    1    -11.97      0.00
    2    8    1      7.09      0.00
    3    8    1     22.90      0.00
    4    8    1     20.20      0.00
    5    8    1      3.95      0.00
    6    8    1     -1.37      0.00
    7    8    1      3.78      0.00
    8    8    1      0.45      0.00
    9    8    1     -6.86      0.00
   10    8    1     -8.56      0.00
   11    8    1     -1.46      0.00
   12    8    1      1.44      0.00
  -13    7    1      2.87      0.00
  -12    7    1      1.39      0.00
  -11    7    1      1.27      0.00
  -10    7    1      0.54      0.00
   -9    7    1     -2.35      0.00
   -8    7    1      6.15      0.00
   -7    7    1      3.19      0.00
   -6    7    1    -10.94      0.00
   -5    7    1     -9.22      0.00
   -4    7    1     -1.99      0.00
   -3    7    1      4.19      0.00
   -2    7    1     -4.71      0.00
   -1    7    1     -1.21      0.00
    0    7    1     18.01      0.00
    1    7    1      0.05      0.00
    2    7    1      0.74      0.00
    3    7    1     11.87      0.00
    4    7    1      4.78      0.00
    5    7    1     -6.57      0.00
    6    7    1    -11.46      0.00
    7    7    1      0.25      0.00
    8    7    1      2.65      0.00
    9    7    1     -3.51      0.00
   10    7    1     -0.35      0.00
   11    7    1      0.41      0.00
   12    7    1      1.08      0.00
   13    7    1      3.16      0.00
  -13    6    1      0.35      0.00
  -12    6    1     -4.55      0.00
  -11    6    1     -1.15      0.00
  -10    6    1      5.52      0.00
   -9    6    1      8.93      0.00
   -8    6    1      4.15      0.00
   -7    6    1     -4.69      0.00
   -6    6    1      7.67      0.00
   -5    6    1     11.01      0.00
   -4    6    1     -6.37      0.00
   -3    6    1    -18.68      0.00
   -2    6    1    -15.05      0.00
   -1    6    1      8.82      0.00
    0    6    1     -8.71      0.00
    1    6    1    -19.09      0.00
    2    6    1     15.12      0.00
    3    6    1     22.25      0.00
    4    6    1      9.60      0.00
    5    6    1     -6.21      0.00
    6    6    1     -0.07      0.00
    7    6    1     10.52      0.00
    8    6    1     -1.02      0.00
    9    6    1     -8.44      0.00
   10    6    1     -7.78      0.00
   11    6    1     -1.27      0.00
   12    6    1      3.47      0.00
   13    6    1     -0.75      0.00
  -13    5    1      0.82      0.00
  -12    5    1      1.65      0.00
  -11    5    1      8.48      0.00
  -10    5    1      8.47      0.00
   -9    5    1      1.12      0.00
   -8    5    1     -0.55      0.00
   -7    5    1     -2.77      0.00
   -6    5    1    -13.47      0.00
   -5    5    1    -19.33      0.00
   -4    5    1    -15.73      0.00
   -3    5    1     -6.88      0.00
   -2    5    1     -4.14      0.00
   -1    5    1      8.17      0.00
    0    5    1     31.21      0.00
    1    5    1     25.10      0.00
    2    5    1     18.16      0.00
    3    5    1     11.79      0.00
    4    5    1     -1.34      0.00
    5    5    1    -10.66      0.00
    6    5    1    -12.54      0.00
    7    5    1     -9.19      0.00
    8    5    1    -10.66      0.00
    9    5    1     -8.03      0.00
   10    5    1      2.11      0.00
   11    5    1      6.34      0.00
   12    5    1      2.23      0.00
   13    5    1      1.93      0.00
  -13    4    1      1.70      0.00
  -12    4    1      0.14      0.00
  -11    4    1      1.73      0.00
  -10    4    1     -0.87      0.00
   -9    4    1     -2.69      0.00
   -8    4    1     -7.56      0.00
   -7    4    1    -19.02      0.00
   -6    4    1     -1.34      0.00
   -5    4    1     14.54      0.00
   -4    4    1      3.40      0.00
   -3    4    1     -5.00      0.00
   -2    4    1     10.47      0.00
   -1    4    1     56.39      0.00
    0    4    1      8.82      0.00
    1    4    1    -38.67      0.00
    2    4    1      1.06      0.00
    3    4    1      5.92      0.00
    4    4    1    -10.69      0.00
    5    4    1    -25.45      0.00
    6    4    1     -8.19      0.00
    7    4    1     10.66      0.00
    8    4    1      3.01      0.00
    9    4    1      2.81      0.00
   10    4    1      3.56      0.00
   11    4    1      2.34      0.00
   12    4    1      2.86      0.00
   13    4    1     -0.30      0.00
  -13    3    1     -0.27      0.00
  -12    3    1      0.18      0.00
  -11    3    1      4.80      0.00
  -10    3    1      3.39      0.00
   -9    3    1     -0.25      0.00
   -8    3    1     -4.44      0.00
   -7    3    1      1.45      0.00
   -6    3    1      5.98      0.00
   -5    3    1     -7.88      0.00
   -4    3    1    -12.68      0.00
   -3    3    1     -3.62      0.00
   -2    3    1     12.52      0.00
   -1    3    1      4.06      0.00
    0    3    1    -11.99      0.00
    1    3    1     17.20      0.00
    2    3    1     22.87      0.00
    3    3    1     -0.30      0.00
    4    3    1    -10.78      0.00
    5    3    1     -5.05      0.00
    6    3    1      6.53      0.00
    7    3    1     -1.54      0.00
    8    3    1     -8.29      0.00
    9    3    1     -3.61      0.00
   10    3    1      1.24      0.00
   11    3    1      3.94      0.00
   12    3    1     -0.41      0.00
   13    3    1     -0.40      0.00
  -13    2    1      2.45      0.00
  -12    2    1      2.51      0.00
  -11    2    1      2.32      0.00
  -10    2    1     -2.98      0.00
   -9    2    1     -8.49      0.00
   -8    2    1    -13.30      0.00
   -7    2    1    -18.97      0.00
   -6    2    1     -2.94      0.00
   -5    2    1     11.46      0.00
   -4    2    1      2.81      0.00
   -3    2    1      1.94      0.00
   -2    2    1     33.67      0.00
   -1    2    1     85.65      0.00
    0    2    1     25.50      0.00
    1    2    1    -45.89      0.00
    2    2    1    -19.01      0.00
    3    2    1     -5.65      0.00
    4    2    1    -13.31      0.00
    5    2    1    -25.41      0.00
    6    2    1    -11.62      0.00
    7    2    1      6.37      0.00
    8    2    1      6.82      0.00
    9    2    1      9.70      0.00
   10    2    1      8.58      0.00
   11    2    1      4.33      0.00
   12    2    1      2.38      0.00
   13    2    1      0.85      0.00
  -13    1    1     -2.14      0.00
  -12    1    1     -3.32      0.00
  -11    1    1     -3.42      0.00
  -10    1    1     -7.47      0.00
   -9    1    1     -7.37      0.00
   -8    1    1     -5.98      0.00
   -7    1    1     11.39      0.00
   -6    1    1     28.33      0.00
   -5    1    1      4.83      0.00
   -4    1    1     -3.44      0.00
   -3    1    1     20.32      0.00
   -2    1    1     50.70      0.00
   -1    1    1    -16.94      0.00
    1    1    1    -37.85      0.00
    2    1    1     17.69      0.00
    3    1    1     -6.92      0.00
    4    1    1    -19.39      0.00
    5    1    1     -1.85      0.00
    6    1    1     28.24      0.00
    7    1    1     16.28      0.00
    8    1    1      3.95      0.00
    9    1    1      2.67      0.00
   10    1    1     -0.98      0.00
   11    1    1     -1.17      0.00
   12    1    1     -4.07      0.00
   13    1    1     -3.41      0.00
   -4   20    2     -0.50      0.00
   -3   20    2      0.18      0.00
   -2   20    2     -0.88      0.00
   -1   20    2     -0.71      0.00
    0   20    2      0.83      0.00
    1   20    2      0.39      0.00
    2   20    2     -0.57      0.00
    3   20    2      0.35      0.00
   -5   19    2     -0.24      0.00
   -4   19    2     -1.13      0.00
   -3   19    2     -0.28      0.00
   -2   19    2      2.08      0.00
   -1   19    2      0.57      0.00
    0   19    2      0.66      0.00
    1   19    2      0.20      0.00
    2   19    2     -0.56      0.00
    3   19    2      1.62      0.00
    4   19    2     -1.77      0.00
    5   19    2     -3.63      0.00
   -7   18    2     -1.47      0.00
   -6   18    2     -1.61      0.00
   -5   18    2      0.54      0.00
   -4   18    2      0.32      0.00
   -3   18    2      2.28      0.00
   -2   18    2     -0.52      0.00
   -1   18    2     -1.39      0.00
    0   18    2      1.89      0.00
    1   18    2     -0.33      0.00
    2   18    2      0.50      0.00
    3   18    2     -0.07      0.00
    4   18    2     -1.67      0.00
    5   18    2      1.48      0.00
    6   18    2      1.05      0.00
    7   18    2      2.33      0.00
   -8   17    2     -1.56      0.00
   -7   17    2     -1.80      0.00
   -6   17    2      3.13      0.00
   -5   17    2      1.92      0.00
   -4   17    2     -0.70      0.00
   -3   17    2      0.35      0.00
   -2   17    2      3.15      0.00
   -1   17    2      4.26      0.00
    0   17    2      1.79      0.00
    1   17    2     -0.57      0.00
    2   17    2     -0.25      0.00
    3   17    2      0.91      0.00
    4   17    2     -0.50      0.00
    5   17    2     -3.50      0.00
    6   17    2     -1.23      0.00
    7   17    2      3.82      0.00
    8   17    2      0.90      0.00
   -9   16    2     -3.81      0.00
   -8   16    2     -0.25      0.00
   -7   16    2      1.54      0.00
   -6   16    2     -0.34      0.00
   -5   16    2      0.22      0.00
   -4   16    2      2.16      0.00
   -3   16    2      5.59      0.00
   -2   16    2      1.18      0.00
   -1   16    2     -3.12      0.00
    0   16    2     -0.81      0.00
    1   16    2     -3.32      0.00
    2   16    2     -0.45      0.00
    3   16    2     -0.67      0.00
    4   16    2     -2.58      0.00
    5   16    2      1.88      0.00
    6   16    2      3.64      0.00
    7   16    2      3.71      0.00
    8   16    2      0.68      0.00
   -9   15    2      4.08      0.00
   -8   15    2     -0.47      0.00
   -7   15    2     -3.13      0.00
   -6   15    2      4.57      0.00
   -5   15    2      4.03      0.00
   -4   15    2     -2.08      0.00
   -3   15    2     -3.40      0.00
   -2   15    2     -1.64      0.00
   -1   15    2      4.01      0.00
    0   15    2     -0.70      0.00
    1   15    2     -4.06      0.00
    2   15    2      0.55      0.00
    3   15    2      1.91      0.00
    4   15    2      3.52      0.00
    5   15    2     -2.33      0.00
    6   15    2     -3.09      0.00
    7   15    2      2.92      0.00
    8   15    2      0.54      0.00
    9   15    2     -0.44      0.00
  -10   14    2     -0.39      0.00
   -9   14    2     -6.33      0.00
   -8   14    2     -3.18      0.00
   -7   14    2      5.30      0.00
   -6   14    2      3.10      0.00
   -5   14    2     -3.53      0.00
   -4   14    2      0.30      0.00
   -3   14    2      8.34      0.00
   -2   14    2      5.52      0.00
   -1   14    2     -2.90      0.00
    0   14    2     -5.36      0.00
    1   14    2     -4.00      0.00
    2   14    2      1.14      0.00
    3   14    2      1.30      0.00
    4   14    2     -5.09      0.00
    5   14    2     -4.94      0.00
    6   14    2      4.21      0.00
    7   14    2      7.50      0.00
    8   14    2      1.63      0.00
    9   14    2     -1.33      0.00
   10   14    2      0.92      0.00
  -10   13    2     -2.03      0.00
   -9   13    2      3.69      0.00
   -8   13    2      6.04      0.00
   -7   13    2      1.51      0.00
   -6   13    2      4.40      0.00
   -5   13    2      5.51      0.00
   -4   13    2      0.46      0.00
   -3   13    2     -5.94      0.00
   -2   13    2     -9.07      0.00
   -1   13    2     -0.76      0.00
    0   13    2     -5.50      0.00
    1   13    2     -7.87      0.00
    2   13    2      2.59      0.00
    3   13    2      3.78      0.00
    4   13    2      4.52      0.00
    5   13    2      2.92      0.00
    6   13    2      5.30      0.00
    7   13    2      5.40      0.00
    8   13    2     -2.33      0.00
    9   13    2     -2.31      0.00
   10   13    2      0.56      0.00
  -11   12    2      2.82      0.00
  -10   12    2      2.30      0.00
   -9   12    2     -2.50      0.00
   -8   12    2     -1.44      0.00
   -7   12    2      6.10      0.00
   -6   12    2      2.45      0.00
   -5   12    2    -11.95      0.00
   -4   12    2     -9.73      0.00
   -3   12    2      3.09      0.00
   -2   12    2      8.30      0.00
   -1   12    2     -0.92      0.00
    0   12    2     -9.47      0.00
    1   12    2      2.45      0.00
    2   12    2     12.26      0.00
    3   12    2      8.72      0.00
    4   12    2     -3.54      0.00
    5   12    2     -7.11      0.00
    6   12    2      3.25      0.00
    7   12    2      2.86      0.00
    8   12    2     -3.23      0.00
    9   12    2     -3.90      0.00
   10   12    2     -1.02      0.00
   11   12    2      0.16      0.00
  -11   11    2     -2.34      0.00
  -10   11    2     -5.15      0.00
   -9   11    2      2.08      0.00
   -8   11    2      8.65      0.00
   -7   11    2      0.31      0.00
   -6   11    2     -4.27      0.00
   -5   11    2      1.57      0.00
   -4   11    2      7.85      0.00
   -3   11    2      1.20      0.00
   -2   11    2     -9.52      0.00
   -1   11    2     -5.57      0.00
    0   11    2     -5.73      0.00
    1   11    2     -2.04      0.00
    2   11    2      7.72      0.00
    3   11    2      1.10      0.00
    4   11    2     -3.87      0.00
    5   11    2      2.34      0.00
    6   11    2      8.91      0.00
    7   11    2      3.49      0.00
    8   11    2     -6.80      0.00
    9   11    2     -4.93      0.00
   10   11    2      0.41      0.00
   11   11    2     -0.55      0.00
  -12   10    2     -0.10      0.00
  -11   10    2      3.11      0.00
  -10   10    2      4.82      0.00
   -9   10    2      4.23      0.00
   -8   10    2     -0.64      0.00
   -7   10    2      2.00      0.00
   -6   10    2      1.95      0.00
   -5   10    2    -12.10      0.00
   -4   10    2    -16.16      0.00
   -3   10    2     -9.49      0.00
   -2   10    2      2.94      0.00
   -1   10    2     -0.17      0.00
    0   10    2     -8.41      0.00
    1   10    2     15.68      0.00
    2   10    2     23.44      0.00
    3   10    2      8.78      0.00
    4   10    2     -2.89      0.00
    5   10    2     -2.71      0.00
    6   10    2      3.05      0.00
    7   10    2     -6.17      0.00
    8   10    2    -10.44      0.00
    9   10    2     -3.38      0.00
   10   10    2      1.15      0.00
   11   10    2      2.93      0.00
   12   10    2     -0.24      0.00
  -12    9    2      1.35      0.00
  -11    9    2     -0.41      0.00
  -10    9    2     -4.99      0.00
   -9    9    2     -0.60      0.00
   -8    9    2      3.78      0.00
   -7    9    2     -5.43      0.00
   -6    9    2    -15.15      0.00
   -5    9    2     -7.65      0.00
   -4    9    2      8.68      0.00
   -3    9    2     11.18      0.00
   -2    9    2      3.25      0.00
   -1    9    2      2.12      0.00
    0    9    2      9.04      0.00
    1    9    2     13.60      0.00
    2    9    2      5.14      0.00
    3    9    2    -11.63      0.00
    4    9    2    -15.70      0.00
    5    9    2     -4.17      0.00
    6    9    2      1.28      0.00
    7    9    2     -3.78      0.00
    8    9    2     -4.83      0.00
    9    9    2      1.37      0.00
   10    9    2      5.43      0.00
   11    9    2      1.02      0.00
   12    9    2     -0.29      0.00
  -12    8    2     -1.48      0.00
  -11    8    2      1.55      0.00
  -10    8    2      4.03      0.00
   -9    8    2      5.49      0.00
   -8    8    2     -5.46      0.00
   -7    8    2     -4.08      0.00
   -6    8    2      5.70      0.00
   -5    8    2     -0.42      0.00
   -4    8    2     -6.79      0.00
   -3    8    2     -8.30      0.00
   -2    8    2      3.94      0.00
   -1    8    2      2.17      0.00
    0    8    2    -10.67      0.00
    1    8    2     12.82      0.00
    2    8    2     12.56      0.00
    3    8    2     -5.07      0.00
    4    8    2     -6.05      0.00
    5    8    2      2.63      0.00
    6    8    2      7.74      0.00
    7    8    2     -4.70      0.00
    8    8    2     -8.09      0.00
    9    8    2      0.07      0.00
   10    8    2      1.17      0.00
   11    8    2      2.15      0.00
   12    8    2     -0.38      0.00
  -13    7    2      0.43      0.00
  -12    7    2      5.27      0.00
  -11    7    2      3.46      0.00
  -10    7    2     -3.82      0.00
   -9    7    2     -6.77      0.00
   -8    7    2     -3.94      0.00
   -7    7    2     -3.60      0.00
   -6    7    2    -16.33      0.00
   -5    7    2    -14.25      0.00
   -4    7    2      4.67      0.00
   -3    7    2     15.44      0.00
   -2    7    2     13.47      0.00
   -1    7    2      4.12      0.00
    0    7    2     20.10      0.00
    1    7    2     24.18      0.00
    2    7    2     -6.05      0.00
    3    7    2    -20.96      0.00
    4    7    2    -15.39      0.00
    5    7    2     -1.91      0.00
    6    7    2     -4.86      0.00
    7    7    2    -12.85      0.00
    8    7    2     -2.95      0.00
    9    7    2      7.22      0.00
   10    7    2      9.58      0.00
   11    7    2      2.84      0.00
   12    7    2     -1.69      0.00
   13    7    2      1.72      0.00
  -13    6    2     -0.92      0.00
  -12    6    2     -0.78      0.00
  -11    6    2     -5.35      0.00
  -10    6    2     -6.15      0.00
   -9    6    2     -1.80      0.00
   -8    6    2     -7.34      0.00
   -7    6    2     -4.84      0.00
   -6    6    2     10.22      0.00
   -5    6    2     15.03      0.00
   -4    6    2     12.48      0.00
   -3    6    2      7.83      0.00
   -2    6    2     14.15      0.00
   -1    6    2      5.46      0.00
    0    6    2    -20.13      0.00
    1    6    2    -11.12      0.00
    2    6    2    -13.06      0.00
    3    6    2    -19.18      0.00
    4    6    2     -9.24      0.00
    5    6    2      3.56      0.00
    6    6    2      9.84      0.00
    7    6    2      4.38      0.00
    8    6    2      6.35      0.00
    9    6    2      9.01      0.00
   10    6    2      1.60      0.00
   11    6    2     -2.16      0.00
   12    6    2     -1.11      0.00
   13    6    2     -2.29      0.00
  -13    5    2     -0.94      0.00
  -12    5    2      2.11      0.00
  -11    5    2     -0.53      0.00
  -10    5    2     -2.32      0.00
   -9    5    2     -3.90      0.00
   -8    5    2      0.84      0.00
   -7    5    2     11.98      0.00
   -6    5    2     -2.67      0.00
   -5    5    2    -11.31      0.00
   -4    5    2      2.46      0.00
   -3    5    2     11.32      0.00
   -2    5    2      2.58      0.00
   -1    5    2    -28.68      0.00
    0    5    2      4.22      0.00
    1    5    2     26.70      0.00
    2    5    2    -13.67      0.00
    3    5    2    -16.66      0.00
    4    5    2      1.44      0.00
    5    5    2     17.33      0.00
    6    5    2      3.46      0.00
    7    5    2    -11.45      0.00
    8    5    2     -0.35      0.00
    9    5    2      3.54      0.00
   10    5    2      2.55      0.00
   11    5    2     -0.65      0.00
   12    5    2     -3.86      0.00
   13    5    2      0.15      0.00
  -13    4    2      0.98      0.00
  -12    4    2      0.12      0.00
  -11    4    2     -7.04      0.00
  -10    4    2     -8.25      0.00
   -9    4    2     -4.29      0.00
   -8    4    2     -1.98      0.00
   -7    4    2     -3.13      0.00
   -6    4    2      2.39      0.00
   -5    4    2     14.14      0.00
   -4    4    2     16.61      0.00
   -3    4    2     12.91      0.00
   -2    4    2     11.27      0.00
   -1    4    2      6.79      0.00
    0    4    2    -10.60      0.00
    1    4    2    -28.16      0.00
    2    4    2    -26.35      0.00
    3    4    2    -11.12      0.00
    4    4    2     -0.38      0.00
    5    4    2      1.78      0.00
    6    4    2      0.27      0.00
    7    4    2      6.73      0.00
    8    4    2     13.78      0.00
    9    4    2     10.22      0.00
   10    4    2      1.34      0.00
   11    4    2     -4.13      0.00
   12    4    2     -0.21      0.00
   13    4    2     -0.10      0.00
  -13    3    2     -2.28      0.00
  -12    3    2     -3.59      0.00
  -11    3    2     -6.04      0.00
  -10    3    2     -1.58      0.00
   -9    3    2      3.67      0.00
   -8    3    2     11.50      0.00
   -7    3    2     23.66      0.00
   -6    3    2      8.74      0.00
   -5    3    2     -4.93      0.00
   -4    3    2      6.54      0.00
   -3    3    2     10.61      0.00
   -2    3    2    -20.79      0.00
   -1    3    2    -83.51      0.00
    0    3    2    -33.96      0.00
    1    3    2     27.21      0.00
    2    3    2     -3.34      0.00
    3    3    2     -5.92      0.00
    4    3    2     12.43      0.00
    5    3    2     31.30      0.00
    6    3    2     16.80      0.00
    7    3    2     -1.68      0.00
    8    3    2      0.49      0.00
    9    3    2     -4.75      0.00
   10    3    2     -7.29      0.00
   11    3    2     -5.27      0.00
   12    3    2     -4.03      0.00
   13    3    2     -1.65      0.00
  -13    2    2      0.47      0.00
  -12    2    2      0.34      0.00
  -11    2    2     -0.89      0.00
  -10    2    2      2.99      0.00
   -9    2    2      5.35      0.00
   -8    2    2      7.35      0.00
   -7    2    2     -4.62      0.00
   -6    2    2    -15.93      0.00
   -5    2    2      1.80      0.00
   -4    2    2      6.12      0.00
   -3    2    2    -12.49      0.00
   -2    2    2    -36.91      0.00
   -1    2    2      0.77      0.00
    0    2    2     55.73      0.00
    1    2    2      4.72      0.00
    2    2    2    -18.50      0.00
    3    2    2      9.13      0.00
    4    2    2     19.56      0.00
    5    2    2      5.32      0.00
    6    2    2    -17.08      0.00
    7    2    2     -6.70      0.00
    8    2    2      1.62      0.00
    9    2    2     -1.12      0.00
   10    2    2     -1.25      0.00
   11    2    2     -1.98      0.00
   12    2    2      2.25      0.00
   13    2    2      1.94      0.00
  -13    1    2     -1.92      0.00
  -12    1    2     -2.84      0.00
  -11    1    2     -3.79      0.00
  -10    1    2     -1.38      0.00
   -9    1    2      2.52      0.00
   -8    1    2      7.39      0.00
   -7    1    2     12.22      0.00
   -6    1    2      4.96      0.00
   -5    1    2     -1.34      0.00
   -4    1    2      5.34      0.00
   -3    1    2      6.25      0.00
   -2    1    2    -17.54      0.00
   -1    1    2    -57.30      0.00
    1    1    2     11.90      0.00
    2    1    2      3.24      0.00
    3    1    2     -0.36      0.00
    4    1    2      5.82      0.00
    5    1    2     15.57      0.00
    6    1    2     10.62      0.00
    7    1    2      1.57      0.00
    8    1    2     -0.32      0.00
    9    1    2     -4.28      0.00
   10    1    2     -5.12      0.00
   11    1    2     -3.41      0.00
   12    1    2     -2.32      0.00
   13    1    2     -1.93      0.00
  -13    0    2      0.55      0.00
  -12    0    2      1.17      0.00
  -11    0    2      3.17      0.00
  -10    0    2     10.41      0.00
   -9    0    2     13.44      0.00
   -8    0    2     13.11      0.00
   -7    0    2     -6.15      0.00
   -6    0    2    -25.47      0.00
   -5    0    2     -3.69      0.00
   -4    0    2     -0.64      0.00
   -3    0    2    -36.17      0.00
   -2    0    2    -78.66      0.00
   -1    0    2     -6.34      0.00
    1    0    2     41.72      0.00
    2    0    2     -7.28      0.00
    3    0    2     19.10      0.00
    4    0    2     30.80      0.00
    5    0    2     10.27      0.00
    6    0    2    -25.31      0.00
    7    0    2    -17.09      0.00
    8    0    2     -8.85      0.00
    9    0    2     -8.66      0.00
   10    0    2     -3.37      0.00
   11    0    2     -1.44      0.00
   12    0    2      2.45      0.00
   13    0    2      2.41      0.00
   -4   20    3      1.76      0.00
   -3   20    3      0.66      0.00
   -2   20    3     -1.20      0.00
   -1   20    3      0.82      0.00
    0   20    3      0.14      0.00
    1   20    3     -0.07      0.00
    2   20    3      0.52      0.00
    3   20    3     -2.08      0.00
   -5   19    3      0.21      0.00
   -4   19    3      0.65      0.00
   -3   19    3     -0.59      0.00
   -2   19    3      1.70      0.00
   -1   19    3      1.42      0.00
    0   19    3     -1.46      0.00
    1   19    3     -0.34      0.00
    2   19    3      0.04      0.00
    3   19    3      0.03      0.00
    4   19    3      0.97      0.00
    5   19    3      0.81      0.00
   -7   18    3      0.30      0.00
   -6   18    3     -2.11      0.00
   -5   18    3     -0.15      0.00
   -4   18    3      2.32      0.00
   -3   18    3      0.73      0.00
   -2   18    3     -2.83      0.00
   -1   18    3     -2.49      0.00
    0   18    3     -1.38      0.00
    1   18    3      0.24      0.00
    2   18    3      0.54      0.00
    3   18    3     -1.92      0.00
    4   18    3      1.76      0.00
    5   18    3      5.13      0.00
    6   18    3      1.07      0.00
   -8   17    3     -0.65      0.00
   -7   17    3      0.29      0.00
   -6   17    3      1.95      0.00
   -5   17    3      0.86      0.00
   -4   17    3     -0.91      0.00
   -3   17    3     -4.44      0.00
   -2   17    3     -0.30      0.00
   -1   17    3      1.89      0.00
    0   17    3     -1.36      0.00
    1   17    3      1.16      0.00
    2   17    3     -0.90      0.00
    3   17    3      0.70      0.00
    4   17    3      3.26      0.00
    5   17    3     -1.72      0.00
    6   17    3     -2.98      0.00
    7   17    3     -3.07      0.00
   -9   16    3     -3.66      0.00
   -8   16    3      1.96      0.00
   -7   16    3      3.10      0.00
   -6   16    3     -3.46      0.00
   -5   16    3     -1.97      0.00
   -4   16    3      2.07      0.00
   -3   16    3      1.76      0.00
   -2   16    3     -1.30      0.00
   -1   16    3     -4.69      0.00
    0   16    3     -0.99      0.00
    1   16    3      1.44      0.00
    2   16    3     -0.42      0.00
    3   16    3     -1.19      0.00
    4   16    3     -1.28      0.00
    5   16    3      3.34      0.00
    6   16    3      2.82      0.00
    7   16    3     -2.56      0.00
    8   16    3     -0.03      0.00
   -9   15    3      5.69      0.00
   -8   15    3      2.73      0.00
   -7   15    3     -2.70      0.00
   -6   15    3     -0.43      0.00
   -5   15    3      1.84      0.00
   -4   15    3     -2.59      0.00
   -3   15    3     -8.87      0.00
   -2   15    3     -4.53      0.00
   -1   15    3      1.65      0.00
    0   15    3      0.80      0.00
    1   15    3      2.30      0.00
    2   15    3     -0.32      0.00
    3   15    3      1.32      0.00
    4   15    3      5.70      0.00
    5   15    3      2.33      0.00
    6   15    3     -3.64      0.00
    7   15    3     -5.20      0.00
    8   15    3     -0.98      0.00
    9   15    3     -0.03      0.00
  -10   14    3      2.17      0.00
   -9   14    3     -2.44      0.00
   -8   14    3     -1.48      0.00
   -7   14    3      0.91      0.00
   -6   14    3     -5.61      0.00
   -5   14    3     -6.09      0.00
   -4   14    3      0.09      0.00
   -3   14    3      4.64      0.00
   -2   14    3      4.80      0.00
   -1   14    3     -2.48      0.00
    0   14    3      3.46      0.00
    1   14    3      7.34      0.00
    2   14    3      0.93      0.00
    3   14    3     -0.72      0.00
    4   14    3     -4.06      0.00
    5   14    3     -0.76      0.00
    6   14    3     -1.29      0.00
    7   14    3     -4.36      0.00
    8   14    3     -0.44      0.00
    9   14    3     -0.87      0.00
   10   14    3     -2.42      0.00
  -10   13    3     -1.59      0.00
   -9   13    3      4.46      0.00
   -8   13    3      2.42      0.00
   -7   13    3     -6.33      0.00
   -6   13    3     -2.83      0.00
   -5   13    3      8.29      0.00
   -4   13    3      4.70      0.00
   -3   13    3     -6.80      0.00
   -2   13    3     -7.92      0.00
   -1   13    3      1.53      0.00
    0   13    3      7.05      0.00
    1   13    3      1.61      0.00
    2   13    3     -5.18      0.00
    3   13    3     -4.33      0.00
    4   13    3      4.84      0.00
    5   13    3      6.90      0.00
    6   13    3     -3.56      0.00
    7   13    3     -6.08      0.00
    8   13    3     -1.01      0.00
    9   13    3      0.78      0.00
   10   13    3     -1.00      0.00
  -11   12    3      2.21      0.00
  -10   12    3      4.84      0.00
   -9   12    3     -0.64      0.00
   -8   12    3     -6.20      0.00
   -7   12    3     -1.47      0.00
   -6   12    3     -1.91      0.00
   -5   12    3     -6.12      0.00
   -4   12    3     -7.07      0.00
   -3   12    3     -0.02      0.00
   -2   12    3      7.75      0.00
   -1   12    3      2.84      0.00
    0   12    3      8.10      0.00
    1   12    3      8.96      0.00
    2   12    3     -1.73      0.00
    3   12    3     -0.22      0.00
    4   12    3      0.41      0.00
    5   12    3     -3.44      0.00
    6   12    3     -9.62      0.00
    7   12    3     -7.01      0.00
    8   12    3      2.44      0.00
    9   12    3      2.29      0.00
   10   12    3     -0.39      0.00
   11   12    3      1.25      0.00
  -11   11    3     -2.73      0.00
  -10   11    3     -3.46      0.00
   -9   11    3     -1.70      0.00
   -8   11    3     -2.09      0.00
   -7   11    3     -8.43      0.00
   -6   11    3     -5.17      0.00
   -5   11    3     11.03      0.00
   -4   11    3     13.03      0.00
   -3   11    3      4.33      0.00
   -2   11    3     -2.65      0.00
   -1   11    3      5.36      0.00
    0   11    3     13.40      0.00
    1   11    3     -6.35      0.00
    2   11    3    -17.53      0.00
    3   11    3    -11.10      0.00
    4   11    3     -0.30      0.00
    5   11    3      1.09      0.00
    6   11    3     -6.10      0.00
    7   11    3      0.48      0.00
    8   11    3      6.26      0.00
    9   11    3      3.63      0.00
   10   11    3      0.31      0.00
   11   11    3     -1.48      0.00
  -12   10    3     -1.01      0.00
  -11   10    3      1.52      0.00
  -10   10    3      5.28      0.00
   -9   10    3     -1.33      0.00
   -8   10    3     -7.69      0.00
   -7   10    3      2.34      0.00
   -6   10    3     10.48      0.00
   -5   10    3      3.76      0.00
   -4   10    3     -7.98      0.00
   -3   10    3     -5.53      0.00
   -2   10    3      4.12      0.00
   -1   10    3      2.68      0.00
    0   10    3      0.16      0.00
    1   10    3     -4.96      0.00
    2   10    3     -8.15      0.00
    3   10    3      3.25      0.00
    4   10    3      8.96      0.00
    5   10    3      0.62      0.00
    6   10    3     -5.28      0.00
    7   10    3      0.14      0.00
    8   10    3      5.70      0.00
    9   10    3      2.14      0.00
   10   10    3     -2.17      0.00
   11   10    3      0.45      0.00
   12   10    3      0.51      0.00
  -12    9    3      1.38      0.00
  -11    9    3     -1.71      0.00
  -10    9    3     -4.79      0.00
   -9    9    3     -6.76      0.00
   -8    9    3      0.31      0.00
   -7    9    3     -2.17      0.00
   -6    9    3     -6.27      0.00
   -5    9    3      5.03      0.00
   -4    9    3     11.49      0.00
   -3    9    3     11.36      0.00
   -2    9    3      2.07      0.00
   -1    9    3      6.61      0.00
    0    9    3     14.51      0.00
    1    9    3    -14.41      0.00
    2    9    3    -20.72      0.00
    3    9    3     -4.67      0.00
    4    9    3      1.35      0.00
    5    9    3     -4.10      0.00
    6    9    3     -8.41      0.00
    7    9    3      4.91      0.00
    8    9    3     10.34      0.00
    9    9    3      3.40      0.00
   10    9    3      0.32      0.00
   11    9    3     -1.85      0.00
   12    9    3      0.52      0.00
  -12    8    3     -4.23      0.00
  -11    8    3     -3.17      0.00
  -10    8    3      1.97      0.00
   -9    8    3      0.48      0.00
   -8    8    3     -2.62      0.00
   -7    8    3      5.04      0.00
   -6    8    3     19.16      0.00
   -5    8    3     15.72      0.00
   -4    8    3     -0.27      0.00
   -3    8    3     -5.89      0.00
   -2    8    3     -3.24      0.00
   -1    8    3     -4.05      0.00
    0    8    3    -20.12      0.00
    1    8    3    -26.44      0.00
    2    8    3     -7.30      0.00
    3    8    3     10.81      0.00
    4    8    3     12.58      0.00
    5    8    3      3.03      0.00
    6    8    3      4.75      0.00
    7    8    3     12.47      0.00
    8    8    3      7.00      0.00
    9    8    3     -2.78      0.00
   10    8    3     -7.45      0.00
   11    8    3     -2.66      0.00
   12    8    3      0.09      0.00
  -13    7    3      1.16      0.00
  -12    7    3      0.95      0.00
  -11    7    3      1.69      0.00
  -10    7    3      0.35      0.00
   -9    7    3     -2.58      0.00
   -8    7    3      7.94      0.00
   -7    7    3      6.91      0.00
   -6    7    3     -5.92      0.00
   -5    7    3     -5.64      0.00
   -4    7    3     -2.48      0.00
   -3    7    3     -1.29      0.00
   -2    7    3    -11.99      0.00
   -1    7    3     -6.38      0.00
    0    7    3     11.78      0.00
    1    7    3     -5.90      0.00
    2    7    3     -1.63      0.00
    3    7    3     14.19      0.00
    4    7    3     10.90      0.00
    5    7    3     -1.00      0.00
    6    7    3     -7.27      0.00
    7    7    3      1.62      0.00
    8    7    3      1.34      0.00
    9    7    3     -4.86      0.00
   10    7    3     -2.14      0.00
   11    7    3     -0.87      0.00
   12    7    3      0.18      0.00
  -13    6    3      0.17      0.00
  -12    6    3     -4.44      0.00
  -11    6    3     -3.28      0.00
  -10    6    3      0.71      0.00
   -9    6    3      3.97      0.00
   -8    6    3      1.33      0.00
   -7    6    3     -3.13      0.00
   -6    6    3     12.16      0.00
   -5    6    3     15.62      0.00
   -4    6    3      0.30      0.00
   -3    6    3     -7.82      0.00
   -2    6    3     -4.12      0.00
   -1    6    3      8.45      0.00
    0    6    3    -20.57      0.00
    1    6    3    -30.74      0.00
    2    6    3      7.43      0.00
    3    6    3     16.75      0.00
    4    6    3      4.65      0.00
    5    6    3     -8.06      0.00
    6    6    3      3.78      0.00
    7    6    3     16.39      0.00
    8    6    3      4.52      0.00
    9    6    3     -4.23      0.00
   10    6    3     -6.36      0.00
   11    6    3     -1.64      0.00
   12    6    3      2.72      0.00
   13    6    3     -1.34      0.00
  -13    5    3     -1.63      0.00
  -12    5    3     -1.75      0.00
  -11    5    3      5.19      0.00
  -10    5    3      8.06      0.00
   -9    5    3      5.91      0.00
   -8    5    3      9.91      0.00
   -7    5    3     10.19      0.00
   -6    5    3     -1.29      0.00
   -5    5    3    -11.13      0.00
   -4    5    3    -13.52      0.00
   -3    5    3    -14.80      0.00
   -2    5    3    -25.38      0.00
   -1    5    3    -20.46      0.00
    0    5    3      7.42      0.00
    1    5    3     16.08      0.00
    2    5    3     20.39      0.00
    3    5    3     20.07      0.00
    4    5    3     12.67      0.00
    5    5    3      5.44      0.00
    6    5    3      0.92      0.00
    7    5    3     -2.75      0.00
    8    5    3    -11.44      0.00
    9    5    3    -13.17      0.00
   10    5    3     -4.90      0.00
   11    5    3      1.23      0.00
   12    5    3     -0.74      0.00
   13    5    3     -0.03      0.00
  -13    4    3      1.03      0.00
  -12    4    3      1.58      0.00
  -11    4    3      5.52      0.00
  -10    4    3      4.14      0.00
   -9    4    3      2.46      0.00
   -8    4    3     -4.70      0.00
   -7    4    3    -18.58      0.00
   -6    4    3     -5.79      0.00
   -5    4    3      2.94      0.00
   -4    4    3    -11.20      0.00
   -3    4    3    -17.56      0.00
   -2    4    3      4.08      0.00
   -1    4    3     53.18      0.00
    0    4    3     14.90      0.00
    1    4    3    -20.24      0.00
    2    4    3     18.31      0.00
    3    4    3     17.66      0.00
    4    4    3     -5.28      0.00
    5    4    3    -26.15      0.00
    6    4    3    -12.08      0.00
    7    4    3      3.50      0.00
    8    4    3     -4.14      0.00
    9    4    3     -1.83      0.00
   10    4    3      1.74      0.00
   11    4    3      3.43      0.00
   12    4    3      4.63      0.00
   13    4    3      1.24      0.00
  -13    3    3     -1.37      0.00
  -12    3    3     -0.68      0.00
  -11    3    3      3.44      0.00
  -10    3    3      2.65      0.00
   -9    3    3      0.70      0.00
   -8    3    3     -1.12      0.00
   -7    3    3      5.27      0.00
   -6    3    3      7.48      0.00
   -5    3    3     -7.13      0.00
   -4    3    3    -10.21      0.00
   -3    3    3     -2.45      0.00
   -2    3    3      3.46      0.00
   -1    3    3    -13.02      0.00
    0    3    3    -21.55      0.00
    1    3    3     17.01      0.00
    2    3    3     24.17      0.00
    3    3    3      0.94      0.00
    4    3    3     -8.13      0.00
    5    3    3     -0.13      0.00
    6    3    3     11.11      0.00
    7    3    3     -0.10      0.00
    8    3    3     -9.44      0.00
    9    3    3     -6.30      0.00
   10    3    3     -1.39      0.00
   11    3    3      2.47      0.00
   12    3    3     -2.05      0.00
   13    3    3     -2.03      0.00
  -13    2    3      1.65      0.00
  -12    2    3      4.56      0.00
  -11    2    3      8.59      0.00
  -10    2    3      6.34      0.00
   -9    2    3      1.41      0.00
   -8    2    3     -7.43      0.00
   -7    2    3    -19.03      0.00
   -6    2    3    -10.37      0.00
   -5    2    3     -3.45      0.00
   -4    2    3    -17.46      0.00
   -3    2    3    -23.95      0.00
   -2    2    3      9.01      0.00
   -1    2    3     75.85      0.00
    0    2    3     46.72      0.00
    1    2    3     -4.20      0.00
    2    2    3     13.01      0.00
    3    2    3     12.28      0.00
    4    2    3     -3.81      0.00
    5    2    3    -24.29      0.00
    6    2    3    -18.72      0.00
    7    2    3     -7.36      0.00
    8    2    3     -6.90      0.00
    9    2    3      1.06      0.00
   10    2    3      5.38      0.00
   11    2    3      4.51      0.00
   12    2    3      3.32      0.00
   13    2    3      2.88      0.00
  -13    1    3      1.07      0.00
  -12    1    3      2.22      0.00
  -11    1    3      0.80      0.00
  -10    1    3     -6.98      0.00
   -9    1    3    -12.32      0.00
   -8    1    3    -15.39      0.00
   -7    1    3     -0.17      0.00
   -6    1    3     15.29      0.00
   -5    1    3     -3.93      0.00
   -4    1    3     -4.45      0.00
   -3    1    3     30.16      0.00
   -2    1    3     73.49      0.00
   -1    1    3     22.40      0.00
    0    1    3    -65.53      0.00
    1    1    3    -14.53      0.00
    2    1    3     11.88      0.00
    3    1    3    -19.68      0.00
    4    1    3    -32.91      0.00
    5    1    3    -15.41      0.00
    6    1    3     16.01      0.00
    7    1    3      9.06      0.00
    8    1    3      4.89      0.00
    9    1    3      8.26      0.00
   10    1    3      5.38      0.00
   11    1    3      3.94      0.00
   12    1    3     -0.65      0.00
   13    1    3     -0.63      0.00
   -3   20    4     -0.32      0.00
   -2   20    4     -1.67      0.00
   -1   20    4     -0.95      0.00
    0   20    4      0.78      0.00
    1   20    4      0.40      0.00
    2   20    4     -1.35      0.00
    3   20    4     -0.31      0.00
   -5   19    4     -0.03      0.00
   -4   19    4     -3.42      0.00
   -3   19    4     -1.66      0.00
   -2   19    4      1.81      0.00
   -1   19    4      0.31      0.00
    0   19    4      0.05      0.00
    1   19    4     -1.01      0.00
    2   19    4     -1.25      0.00
    3   19    4      3.05      0.00
    4   19    4     -0.50      0.00
    5   19    4     -4.77      0.00
   -7   18    4     -1.12      0.00
   -6   18    4     -1.90      0.00
   -5   18    4     -1.72      0.00
   -4   18    4     -0.91      0.00
   -3   18    4      1.89      0.00
   -2   18    4     -1.62      0.00
   -1   18    4     -1.95      0.00
    0   18    4      1.38      0.00
    1   18    4     -0.20      0.00
    2   18    4      1.24      0.00
    3   18    4      0.23      0.00
    4   18    4     -2.49      0.00
    5   18    4     -0.27      0.00
    6   18    4     -0.03      0.00
   -8   17    4     -2.06      0.00
   -7   17    4     -1.66      0.00
   -6   17    4      2.70      0.00
   -5   17    4     -0.23      0.00
   -4   17    4     -3.66      0.00
   -3   17    4     -2.24      0.00
   -2   17    4      1.98      0.00
   -1   17    4      3.37      0.00
    0   17    4      1.11      0.00
    1   17    4     -0.54      0.00
    2   17    4     -0.01      0.00
    3   17    4      1.76      0.00
    4   17    4     -1.01      0.00
    5   17    4     -5.63      0.00
    6   17    4     -2.77      0.00
    7   17    4      2.69      0.00
   -8   16    4     -0.80      0.00
   -7   16    4      1.36      0.00
   -6   16    4     -1.34      0.00
   -5   16    4     -2.19      0.00
   -4   16    4      1.96      0.00
   -3   16    4      7.49      0.00
   -2   16    4      2.78      0.00
   -1   16    4     -0.93      0.00
    0   16    4      1.92      0.00
    1   16    4     -0.48      0.00
    2   16    4      1.54      0.00
    3   16    4     -1.50      0.00
    4   16    4     -5.88      0.00
    5   16    4     -0.62      0.00
    6   16    4      3.49      0.00
    7   16    4      3.44      0.00
    8   16    4     -0.35      0.00
   -9   15    4      2.53      0.00
   -8   15    4     -1.17      0.00
   -7   15    4     -2.44      0.00
   -6   15    4      4.21      0.00
   -5   15    4      3.54      0.00
   -4   15    4     -1.42      0.00
   -3   15    4     -3.73      0.00
   -2   15    4     -1.51      0.00
   -1   15    4      4.18      0.00
    0   15    4     -0.85      0.00
    1   15    4     -3.90      0.00
    2   15    4     -0.72      0.00
    3   15    4      0.13      0.00
    4   15    4      2.80      0.00
    5   15    4     -1.12      0.00
    6   15    4     -1.56      0.00
    7   15    4      2.08      0.00
    8   15    4     -0.35      0.00
    9   15    4      0.41      0.00
  -10   14    4      1.02      0.00
   -9   14    4     -5.27      0.00
   -8   14    4     -3.60      0.00
   -7   14    4      3.52      0.00
   -6   14    4      0.15      0.00
   -5   14    4     -6.20      0.00
   -4   14    4     -1.20      0.00
   -3   14    4      8.56      0.00
   -2   14    4      7.17      0.00
   -1   14    4     -0.29      0.00
    0   14    4     -1.64      0.00
    1   14    4     -0.70      0.00
    2   14    4      2.59      0.00
    3   14    4      0.47      0.00
    4   14    4     -6.90      0.00
    5   14    4     -6.62      0.00
    6   14    4      1.73      0.00
    7   14    4      4.47      0.00
    8   14    4      0.80      0.00
    9   14    4      0.61      0.00
   10   14    4      2.94      0.00
  -10   13    4     -4.91      0.00
   -9   13    4     -1.36      0.00
   -8   13    4      1.26      0.00
   -7   13    4     -0.51      0.00
   -6   13    4      4.64      0.00
   -5   13    4      8.03      0.00
   -4   13    4      5.59      0.00
   -3   13    4     -0.42      0.00
   -2   13    4     -4.07      0.00
   -1   13    4      2.02      0.00
    0   13    4     -5.32      0.00
    1   13    4     -9.70      0.00
    2   13    4     -2.82      0.00
    3   13    4     -2.92      0.00
    4   13    4      0.05      0.00
    5   13    4      1.45      0.00
    6   13    4      5.84      0.00
    7   13    4      6.56      0.00
    8   13    4      0.83      0.00
    9   13    4      1.44      0.00
   10   13    4      2.31      0.00
  -11   12    4      1.22      0.00
  -10   12    4      1.84      0.00
   -9   12    4     -1.71      0.00
   -8   12    4      1.08      0.00
   -7   12    4      9.90      0.00
   -6   12    4      5.87      0.00
   -5   12    4     -9.00      0.00
   -4   12    4     -8.72      0.00
   -3   12    4      1.71      0.00
   -2   12    4      5.46      0.00
   -1   12    4     -4.32      0.00
    0   12    4    -11.74      0.00
    1   12    4     -0.40      0.00
    2   12    4      8.70      0.00
    3   12    4      7.29      0.00
    4   12    4     -1.40      0.00
    5   12    4     -2.98      0.00
    6   12    4      5.93      0.00
    7   12    4      3.96      0.00
    8   12    4     -1.00      0.00
    9   12    4     -0.79      0.00
   10   12    4      1.26      0.00
   11   12    4      1.82      0.00
  -11   11    4     -1.77      0.00
  -10   11    4     -5.39      0.00
   -9   11    4     -0.11      0.00
   -8   11    4      6.38      0.00
   -7   11    4     -0.73      0.00
   -6   11    4     -4.25      0.00
   -5   11    4      1.86      0.00
   -4   11    4      9.37      0.00
   -3   11    4      5.28      0.00
   -2   11    4     -3.76      0.00
   -1   11    4     -1.93      0.00
    0   11    4     -6.14      0.00
    1   11    4     -5.13      0.00
    2   11    4      3.06      0.00
    3   11    4     -2.68      0.00
    4   11    4     -5.76      0.00
    5   11    4      1.09      0.00
    6   11    4      8.52      0.00
    7   11    4      5.07      0.00
    8   11    4     -2.16      0.00
    9   11    4     -0.89      0.00
   10   11    4      1.42      0.00
   11   11    4     -1.52      0.00
  -12   10    4     -0.43      0.00
  -11   10    4      1.25      0.00
  -10   10    4      2.78      0.00
   -9   10    4      3.88      0.00
   -8   10    4      3.01      0.00
   -7   10    4      9.22      0.00
   -6   10    4      9.51      0.00
   -5   10    4     -4.78      0.00
   -4   10    4     -9.50      0.00
   -3   10    4     -7.20      0.00
   -2   10    4     -2.84      0.00
   -1   10    4    -12.58      0.00
    0   10    4    -20.54      0.00
    1   10    4      6.06      0.00
    2   10    4     17.22      0.00
    3   10    4      8.33      0.00
    4   10    4      2.04      0.00
    5   10    4      5.86      0.00
    6   10    4     11.30      0.00
    7   10    4     -0.53      0.00
    8   10    4     -7.55      0.00
    9   10    4     -4.08      0.00
   10   10    4     -1.62      0.00
   11   10    4      0.53      0.00
  -12    9    4      2.86      0.00
  -11    9    4      1.03      0.00
  -10    9    4     -2.70      0.00
   -9    9    4      2.98      0.00
   -8    9    4      8.52      0.00
   -7    9    4     -2.23      0.00
   -6    9    4    -15.04      0.00
   -5    9    4    -10.91      0.00
   -4    9    4      1.33      0.00
   -3    9    4      0.98      0.00
   -2    9    4     -5.06      0.00
   -1    9    4     -1.83      0.00
    0    9    4      8.93      0.00
    1    9    4     17.06      0.00
    2    9    4     12.05      0.00
    3    9    4     -2.31      0.00
    4    9    4     -7.27      0.00
    5    9    4      0.08      0.00
    6    9    4      0.37      0.00
    7    9    4     -7.37      0.00
    8    9    4     -7.33      0.00
    9    9    4     -0.51      0.00
   10    9    4      4.30      0.00
   11    9    4      1.18      0.00
   12    9    4      0.22      0.00
  -12    8    4     -1.82      0.00
  -11    8    4     -0.63      0.00
  -10    8    4      2.47      0.00
   -9    8    4      5.99      0.00
   -8    8    4     -3.17      0.00
   -7    8    4     -1.32      0.00
   -6    8    4      7.13      0.00
   -5    8    4      0.89      0.00
   -4    8    4     -4.03      0.00
   -3    8    4     -5.06      0.00
   -2    8    4      3.01      0.00
   -1    8    4     -4.70      0.00
    0    8    4    -15.85      0.00
    1    8    4     11.30      0.00
    2    8    4     12.65      0.00
    3    8    4     -4.61      0.00
    4    8    4     -5.78      0.00
    5    8    4      4.35      0.00
    6    8    4      9.33      0.00
    7    8    4     -2.94      0.00
    8    8    4     -6.18      0.00
    9    8    4     -0.16      0.00
   10    8    4     -0.01      0.00
   11    8    4      0.80      0.00
   12    8    4     -0.71      0.00
  -13    7    4      0.68      0.00
  -12    7    4      4.69      0.00
  -11    7    4      5.01      0.00
  -10    7    4      1.95      0.00
   -9    7    4      1.72      0.00
   -8    7    4      4.12      0.00
   -7    7    4      0.50      0.00
   -6    7    4    -16.56      0.00
   -5    7    4    -18.25      0.00
   -4    7    4     -5.72      0.00
   -3    7    4     -2.45      0.00
   -2    7    4     -5.41      0.00
   -1    7    4     -4.56      0.00
    0    7    4     24.08      0.00
    1    7    4     34.32      0.00
    2    7    4      6.55      0.00
    3    7    4     -7.22      0.00
    4    7    4     -2.71      0.00
    5    7    4      5.51      0.00
    6    7    4     -5.24      0.00
    7    7    4    -17.92      0.00
    8    7    4     -9.51      0.00
    9    7    4      0.75      0.00
   10    7    4      5.67      0.00
   11    7    4      2.01      0.00
   12    7    4     -1.13      0.00
  -13    6    4      1.56      0.00
  -12    6    4      2.20      0.00
  -11    6    4     -1.60      0.00
  -10    6    4     -2.82      0.00
   -9    6    4     -1.49      0.00
   -8    6    4    -11.56      0.00
   -7    6    4    -12.92      0.00
   -6    6    4     -1.38      0.00
   -5    6    4      2.86      0.00
   -4    6    4      3.45      0.00
   -3    6    4      7.52      0.00
   -2    6    4     23.63      0.00
   -1    6    4     20.61      0.00
    0    6    4     -1.69      0.00
    1    6    4      3.23      0.00
    2    6    4     -5.14      0.00
    3    6    4    -18.10      0.00
    4    6    4    -16.14      0.00
    5    6    4     -7.40      0.00
    6    6    4     -2.05      0.00
    7    6    4     -3.90      0.00
    8    6    4      3.40      0.00
    9    6    4      9.70      0.00
   10    6    4      5.38      0.00
   11    6    4      1.71      0.00
   12    6    4      1.87      0.00
   13    6    4      0.15      0.00
  -13    5    4     -0.45      0.00
  -12    5    4      1.25      0.00
  -11    5    4     -1.19      0.00
  -10    5    4     -1.91      0.00
   -9    5    4     -3.38      0.00
   -8    5    4      0.98      0.00
   -7    5    4     10.38      0.00
   -6    5    4     -3.53      0.00
   -5    5    4     -8.52      0.00
   -4    5    4      6.32      0.00
   -3    5    4     11.96      0.00
   -2    5    4     -1.02      0.00
   -1    5    4    -26.80      0.00
    0    5    4      9.40      0.00
    1    5    4     26.78      0.00
    2    5    4    -15.21      0.00
    3    5    4    -18.70      0.00
    4    5    4      1.04      0.00
    5    5    4     17.99      0.00
    6    5    4      2.81      0.00
    7    5    4    -11.36      0.00
    8    5    4     -0.25      0.00
    9    5    4      3.43      0.00
   10    5    4      2.83      0.00
   11    5    4     -0.90      0.00
   12    5    4     -4.16      0.00
   13    5    4      0.13      0.00
  -13    4    4      2.63      0.00
  -12    4    4      3.31      0.00
  -11    4    4     -1.95      0.00
  -10    4    4     -4.11      0.00
   -9    4    4     -4.33      0.00
   -8    4    4     -7.35      0.00
   -7    4    4    -11.91      0.00
   -6    4    4     -7.80      0.00
   -5    4    4      3.69      0.00
   -4    4    4      6.41      0.00
   -3    4    4      7.85      0.00
   -2    4    4     20.48      0.00
   -1    4    4     30.76      0.00
    0    4    4     15.19      0.00
    1    4    4    -12.45      0.00
    2    4    4    -19.60      0.00
    3    4    4    -10.19      0.00
    4    4    4     -5.95      0.00
    5    4    4     -9.56      0.00
    6    4    4    -12.91      0.00
    7    4    4     -2.82      0.00
    8    4    4      9.93      0.00
    9    4    4     11.34      0.00
   10    4    4      5.14      0.00
   11    4    4     -0.63      0.00
   12    4    4      3.06      0.00
   13    4    4      2.87      0.00
  -13    3    4      0.17      0.00
  -12    3    4     -2.99      0.00
  -11    3    4     -9.28      0.00
  -10    3    4     -9.03      0.00
   -9    3    4     -6.85      0.00
   -8    3    4      1.78      0.00
   -7    3    4     16.36      0.00
   -6    3    4      8.07      0.00
   -5    3    4      4.08      0.00
   -4    3    4     23.09      0.00
   -3    3    4     34.21      0.00
   -2    3    4      6.99      0.00
   -1    3    4    -56.96      0.00
    0    3    4    -30.80      0.00
    1    3    4      4.61      0.00
    2    3    4    -26.39      0.00
    3    3    4    -24.83      0.00
    4    3    4     -2.96      0.00
    5    3    4     22.49      0.00
    6    3    4     16.07      0.00
    7    3    4      6.47      0.00
    8    3    4     11.83      0.00
    9    3    4      4.85      0.00
   10    3    4     -1.33      0.00
   11    3    4     -3.04      0.00
   12    3    4     -3.29      0.00
   13    3    4     -1.98      0.00
  -13    2    4     -0.05      0.00
  -12    2    4     -2.05      0.00
  -11    2    4     -3.05      0.00
  -10    2    4      1.74      0.00
   -9    2    4      5.85      0.00
   -8    2    4      9.58      0.00
   -7    2    4     -0.14      0.00
   -6    2    4     -7.96      0.00
   -5    2    4      8.92      0.00
   -4    2    4      9.42      0.00
   -3    2    4    -12.74      0.00
   -2    2    4    -37.33      0.00
   -1    2    4     -6.45      0.00
    0    2    4     35.40      0.00
    1    2    4     -9.29      0.00
    2    2    4    -20.12      0.00
    3    2    4     10.42      0.00
    4    2    4     22.95      0.00
    5    2    4     10.00      0.00
    6    2    4    -11.56      0.00
    7    2    4     -1.99      0.00
    8    2    4      3.44      0.00
    9    2    4     -1.15      0.00
   10    2    4     -2.61      0.00
   11    2    4     -3.87      0.00
   12    2    4      1.38      0.00
   13    2    4      1.50      0.00
  -13    1    4      0.07      0.00
  -12    1    4     -2.16      0.00
  -11    1    4     -5.64      0.00
  -10    1    4     -5.98      0.00
   -9    1    4     -4.29      0.00
   -8    1    4      0.89      0.00
   -7    1    4      7.88      0.00
   -6    1    4      4.97      0.00
   -5    1    4      3.72      0.00
   -4    1    4     14.79      0.00
   -3    1    4     22.95      0.00
   -2    1    4      6.62      0.00
   -1    1    4    -34.35      0.00
    0    1    4    -27.17      0.00
    1    1    4     -4.71      0.00
    2    1    4    -13.25      0.00
    3    1    4    -12.48      0.00
    4    1    4     -4.04      0.00
    5    1    4      9.38      0.00
    6    1    4     10.14      0.00
    7    1    4      7.40      0.00
    8    1    4      7.89      0.00
    9    1    4      2.46      0.00
   10    1    4     -1.05      0.00
   11    1    4     -1.09      0.00
   12    1    4     -0.48      0.00
   13    1    4     -1.23      0.00
  -13    0    4     -2.84      0.00
  -12    0    4     -6.32      0.00
  -11    0    4     -4.91      0.00
  -10    0    4      4.26      0.00
   -9    0    4     12.63      0.00
   -8    0    4     19.20      0.00
   -7    0    4      6.26      0.00
   -6    0    4     -7.24      0.00
   -5    0    4     13.19      0.00
   -4    0    4     12.66      0.00
   -3    0    4    -28.38      0.00
   -2    0    4    -83.95      0.00
   -1    0    4    -43.26      0.00
    0    0    4     42.64      0.00
    1    0    4     -1.20      0.00
    2    0    4    -17.44      0.00
    3    0    4     19.08      0.00
    4    0    4     37.74      0.00
    5    0    4     24.20      0.00
    6    0    4     -7.10      0.00
    7    0    4     -2.17      0.00
    8    0    4     -3.29      0.00
    9    0    4    -10.04      0.00
   10    0    4     -7.73      0.00
   11    0    4     -5.88      0.00
   12    0    4     -1.35      0.00
   13    0    4     -1.87      0.00
   -9   16    4     -3.40      0.00
   -3   20    5      0.92      0.00
   -2   20    5     -1.54      0.00
   -1   20    5      0.29      0.00
    0   20    5      0.24      0.00
    1   20    5      0.99      0.00
    2   20    5      1.70      0.00
    3   20    5     -2.35      0.00
   -5   19    5      0.54      0.00
   -4   19    5      0.85      0.00
   -3   19    5     -0.11      0.00
   -2   19    5      2.37      0.00
   -1   19    5      1.39      0.00
    0   19    5     -1.06      0.00
    1   19    5     -0.21      0.00
    2   19    5     -0.14      0.00
    3   19    5     -0.72      0.00
    4   19    5     -0.35      0.00
    5   19    5      0.24      0.00
   -6   18    5     -3.09      0.00
   -5   18    5      0.54      0.00
   -4   18    5      4.95      0.00
   -3   18    5      3.02      0.00
   -2   18    5     -1.70      0.00
   -1   18    5     -1.36      0.00
    0   18    5     -0.01      0.00
    1   18    5      1.48      0.00
    2   18    5      1.35      0.00
    3   18    5     -3.06      0.00
    4   18    5      0.73      0.00
    5   18    5      6.44      0.00
    6   18    5      3.22      0.00
   -8   17    5     -0.87      0.00
   -7   17    5     -1.12      0.00
   -6   17    5      1.23      0.00
   -5   17    5      2.85      0.00
   -4   17    5      0.12      0.00
   -3   17    5     -4.49      0.00
   -2   17    5     -0.07      0.00
   -1   17    5      1.51      0.00
    0   17    5     -1.79      0.00
    1   17    5      0.14      0.00
    2   17    5     -2.37      0.00
    3   17    5     -0.07      0.00
    4   17    5      4.66      0.00
    5   17    5      0.66      0.00
    6   17    5     -1.93      0.00
    7   17    5     -1.93      0.00
   -8   16    5      1.50      0.00
   -7   16    5      1.73      0.00
   -6   16    5     -3.05      0.00
   -5   16    5     -0.32      0.00
   -4   16    5      3.65      0.00
   -3   16    5      4.10      0.00
   -2   16    5      0.27      0.00
   -1   16    5     -3.26      0.00
    0   16    5      0.10      0.00
    1   16    5      1.62      0.00
    2   16    5     -0.04      0.00
    3   16    5     -1.26      0.00
    4   16    5     -1.00      0.00
    5   16    5      3.48      0.00
    6   16    5      2.85      0.00
    7   16    5     -1.23      0.00
    8   16    5      1.03      0.00
   -9   15    5      3.43      0.00
   -8   15    5      2.37      0.00
   -7   15    5     -1.85      0.00
   -6   15    5      2.10      0.00
   -5   15    5      5.68      0.00
   -4   15    5      0.23      0.00
   -3   15    5     -7.87      0.00
   -2   15    5     -4.88      0.00
   -1   15    5     -0.07      0.00
    0   15    5     -2.26      0.00
    1   15    5     -1.28      0.00
    2   15    5     -3.25      0.00
    3   15    5      0.66      0.00
    4   15    5      7.63      0.00
    5   15    5      4.93      0.00
    6   15    5     -1.16      0.00
    7   15    5     -2.15      0.00
    8   15    5      1.47      0.00
    9   15    5      0.63      0.00
  -10   14    5      3.14      0.00
   -9   14    5      1.15      0.00
   -8   14    5      1.85      0.00
   -7   14    5      2.32      0.00
   -6   14    5     -4.26      0.00
   -5   14    5     -6.41      0.00
   -4   14    5     -3.02      0.00
   -3   14    5      1.50      0.00
   -2   14    5      1.50      0.00
   -1   14    5     -5.12      0.00
    0   14    5      1.31      0.00
    1   14    5      5.93      0.00
    2   14    5      2.78      0.00
    3   14    5      3.25      0.00
    4   14    5     -0.54      0.00
    5   14    5      0.33      0.00
    6   14    5     -1.24      0.00
    7   14    5     -3.18      0.00
    8   14    5     -0.14      0.00
    9   14    5     -1.37      0.00
  -10   13    5     -0.85      0.00
   -9   13    5      3.98      0.00
   -8   13    5      1.39      0.00
   -7   13    5     -6.94      0.00
   -6   13    5     -2.72      0.00
   -5   13    5      8.24      0.00
   -4   13    5      5.91      0.00
   -3   13    5     -4.80      0.00
   -2   13    5     -6.86      0.00
   -1   13    5      1.36      0.00
    0   13    5      5.44      0.00
    1   13    5      0.87      0.00
    2   13    5     -4.34      0.00
    3   13    5     -3.17      0.00
    4   13    5      4.70      0.00
    5   13    5      6.07      0.00
    6   13    5     -2.19      0.00
    7   13    5     -3.12      0.00
    8   13    5      0.27      0.00
    9   13    5     -0.51      0.00
   10   13    5     -3.18      0.00
  -11   12    5      2.39      0.00
  -10   12    5      5.49      0.00
   -9   12    5      2.96      0.00
   -8   12    5     -1.27      0.00
   -7   12    5      2.40      0.00
   -6   12    5      0.58      0.00
   -5   12    5     -5.20      0.00
   -4   12    5     -8.93      0.00
   -3   12    5     -5.18      0.00
   -2   12    5      0.48      0.00
   -1   12    5     -3.10      0.00
    0   12    5      4.72      0.00
    1   12    5      8.45      0.00
    2   12    5      2.16      0.00
    3   12    5      5.81      0.00
    4   12    5      5.74      0.00
    5   12    5      0.98      0.00
    6   12    5     -6.44      0.00
    7   12    5     -6.28      0.00
    8   12    5     -1.06      0.00
    9   12    5     -2.31      0.00
   10   12    5     -2.89      0.00
  -11   11    5      0.00      0.00
  -10   11    5     -0.18      0.00
   -9   11    5      0.91      0.00
   -8   11    5     -2.44      0.00
   -7   11    5    -12.00      0.00
   -6   11    5    -10.51      0.00
   -5   11    5      4.13      0.00
   -4   11    5      6.31      0.00
   -3   11    5      0.43      0.00
   -2   11    5     -1.85      0.00
   -1   11    5     10.14      0.00
    0   11    5     19.22      0.00
    1   11    5      1.68      0.00
    2   11    5     -8.51      0.00
    3   11    5     -5.74      0.00
    4   11    5     -0.61      0.00
    5   11    5     -3.30      0.00
    6   11    5    -10.97      0.00
    7   11    5     -3.69      0.00
    8   11    5      2.62      0.00
    9   11    5      1.65      0.00
   10   11    5      0.22      0.00
   11   11    5     -0.85      0.00
  -12   10    5     -1.41      0.00
  -11   10    5      0.61      0.00
  -10   10    5      3.98      0.00
   -9   10    5     -2.10      0.00
   -8   10    5     -8.94      0.00
   -7   10    5      0.65      0.00
   -6   10    5      9.28      0.00
   -5   10    5      4.26      0.00
   -4   10    5     -5.67      0.00
   -3   10    5     -3.33      0.00
   -2   10    5      4.29      0.00
   -1   10    5      2.32      0.00
    0   10    5      0.95      0.00
    1   10    5     -3.73      0.00
    2   10    5     -7.69      0.00
    3   10    5      1.30      0.00
    4   10    5      5.65      0.00
    5   10    5     -1.22      0.00
    6   10    5     -5.13      0.00
    7   10    5      0.42      0.00
    8   10    5      3.53      0.00
    9   10    5     -0.36      0.00
   10   10    5     -3.32      0.00
   11   10    5      0.14      0.00
  -12    9    5      1.75      0.00
  -11    9    5      0.95      0.00
  -10    9    5     -0.96      0.00
   -9    9    5     -4.00      0.00
   -8    9    5     -0.34      0.00
   -7    9    5     -5.75      0.00
   -6    9    5    -10.78      0.00
   -5    9    5     -1.22      0.00
   -4    9    5      2.71      0.00
   -3    9    5      3.17      0.00
   -2    9    5      0.92      0.00
   -1    9    5     14.23      0.00
    0    9    5     24.19      0.00
    1    9    5     -4.68      0.00
    2    9    5    -12.02      0.00
    3    9    5      0.10      0.00
    4    9    5      1.70      0.00
    5    9    5     -7.75      0.00
    6    9    5    -13.47      0.00
    7    9    5     -0.74      0.00
    8    9    5      5.40      0.00
    9    9    5      2.19      0.00
   10    9    5      2.16      0.00
   11    9    5      1.06      0.00
   12    9    5      1.91      0.00
  -12    8    5     -3.19      0.00
  -11    8    5     -3.00      0.00
  -10    8    5     -1.11      0.00
   -9    8    5     -5.87      0.00
   -8    8    5    -10.72      0.00
   -7    8    5     -2.31      0.00
   -6    8    5     13.73      0.00
   -5    8    5     13.56      0.00
   -4    8    5      4.62      0.00
   -3    8    5      8.00      0.00
   -2    8    5     14.24      0.00
   -1    8    5      9.42      0.00
    0    8    5    -13.50      0.00
    1    8    5    -26.09      0.00
    2    8    5    -13.53      0.00
    3    8    5     -1.43      0.00
    4    8    5     -1.38      0.00
    5    8    5     -7.43      0.00
    6    8    5      0.43      0.00
    7    8    5     13.04      0.00
    8    8    5     10.12      0.00
    9    8    5      2.19      0.00
   10    8    5     -2.92      0.00
   11    8    5     -0.63      0.00
   12    8    5      0.35      0.00
  -13    7    5     -0.90      0.00
  -12    7    5     -0.72      0.00
  -11    7    5      0.23      0.00
  -10    7    5     -1.25      0.00
   -9    7    5     -3.83      0.00
   -8    7    5      7.33      0.00
   -7    7    5      7.89      0.00
   -6    7    5     -1.48      0.00
   -5    7    5      0.76      0.00
   -4    7    5      3.37      0.00
   -3    7    5      0.38      0.00
   -2    7    5    -12.92      0.00
   -1    7    5     -6.96      0.00
    0    7    5      7.09      0.00
    1    7    5    -12.44      0.00
    2    7    5     -7.63      0.00
    3    7    5     10.53      0.00
    4    7    5     11.59      0.00
    5    7    5      1.90      0.00
    6    7    5     -2.51      0.00
    7    7    5      5.38      0.00
    8    7    5      2.87      0.00
    9    7    5     -3.95      0.00
   10    7    5     -2.74      0.00
   11    7    5     -2.00      0.00
   12    7    5     -1.32      0.00
  -13    6    5      0.31      0.00
  -12    6    5     -2.36      0.00
  -11    6    5     -2.41      0.00
  -10    6    5     -2.19      0.00
   -9    6    5     -1.77      0.00
   -8    6    5     -4.82      0.00
   -7    6    5     -7.30      0.00
   -6    6    5      8.93      0.00
   -5    6    5     12.74      0.00
   -4    6    5      1.41      0.00
   -3    6    5      1.23      0.00
   -2    6    5     11.36      0.00
   -1    6    5     18.43      0.00
    0    6    5    -19.33      0.00
    1    6    5    -32.90      0.00
    2    6    5      2.10      0.00
    3    6    5      9.29      0.00
    4    6    5     -4.44      0.00
    5    6    5    -15.52      0.00
    6    6    5      0.96      0.00
    7    6    5     16.42      0.00
    8    6    5      7.04      0.00
    9    6    5     -0.22      0.00
   10    6    5     -3.07      0.00
   11    6    5      0.36      0.00
   12    6    5      3.44      0.00
  -13    5    5     -2.95      0.00
  -12    5    5     -5.07      0.00
  -11    5    5     -1.69      0.00
  -10    5    5      0.26      0.00
   -9    5    5      1.53      0.00
   -8    5    5     10.53      0.00
   -7    5    5     15.44      0.00
   -6    5    5      9.77      0.00
   -5    5    5      4.59      0.00
   -4    5    5      4.39      0.00
   -3    5    5     -1.65      0.00
   -2    5    5    -24.09      0.00
   -1    5    5    -33.39      0.00
    0    5    5    -15.80      0.00
    1    5    5     -5.04      0.00
    2    5    5      4.87      0.00
    3    5    5     10.46      0.00
    4    5    5     12.22      0.00
    5    5    5     13.46      0.00
    6    5    5     14.32      0.00
    7    5    5      9.89      0.00
    8    5    5     -3.09      0.00
    9    5    5     -9.61      0.00
   10    5    5     -5.95      0.00
   11    5    5     -1.73      0.00
   12    5    5     -4.22      0.00
   13    5    5     -3.17      0.00
  -13    4    5     -0.94      0.00
  -12    4    5      0.26      0.00
  -11    4    5      5.56      0.00
  -10    4    5      6.55      0.00
   -9    4    5      7.76      0.00
   -8    4    5      2.08      0.00
   -7    4    5     -9.97      0.00
   -6    4    5      0.44      0.00
   -5    4    5      2.48      0.00
   -4    4    5    -17.38      0.00
   -3    4    5    -27.92      0.00
   -2    4    5     -8.81      0.00
   -1    4    5     33.68      0.00
    0    4    5      3.45      0.00
    1    4    5    -15.73      0.00
    2    4    5     25.38      0.00
    3    4    5     27.33      0.00
    4    4    5      5.68      0.00
    5    4    5    -17.06      0.00
    6    4    5     -6.59      0.00
    7    4    5      2.73      0.00
    8    4    5     -7.99      0.00
    9    4    5     -6.56      0.00
   10    4    5     -2.66      0.00
   11    4    5      1.06      0.00
   12    4    5      3.44      0.00
   13    4    5      0.61      0.00
  -13    3    5     -1.61      0.00
  -12    3    5     -1.34      0.00
  -11    3    5      1.02      0.00
  -10    3    5     -0.07      0.00
   -9    3    5     -0.83      0.00
   -8    3    5     -0.83      0.00
   -7    3    5      6.51      0.00
   -6    3    5      8.71      0.00
   -5    3    5     -4.24      0.00
   -4    3    5     -4.31      0.00
   -3    3    5      4.64      0.00
   -2    3    5      4.07      0.00
   -1    3    5    -19.86      0.00
    0    3    5    -28.24      0.00
    1    3    5      9.98      0.00
    2    3    5     17.45      0.00
    3    3    5     -2.67      0.00
    4    3    5     -9.23      0.00
    5    3    5      2.07      0.00
    6    3    5     15.58      0.00
    7    3    5      4.51      0.00
    8    3    5     -6.01      0.00
    9    3    5     -5.12      0.00
   10    3    5     -1.34      0.00
   11    3    5      2.45      0.00
   12    3    5     -3.09      0.00
   13    3    5     -3.62      0.00
  -13    2    5     -2.36      0.00
  -12    2    5      0.78      0.00
  -11    2    5      7.42      0.00
  -10    2    5      9.76      0.00
   -9    2    5     10.09      0.00
   -8    2    5      3.83      0.00
   -7    2    5     -6.96      0.00
   -6    2    5     -2.47      0.00
   -5    2    5     -3.06      0.00
   -4    2    5    -23.62      0.00
   -3    2    5    -40.85      0.00
   -2    2    5    -23.49      0.00
   -1    2    5     32.42      0.00
    0    2    5     23.75      0.00
    1    2    5      2.41      0.00
    2    2    5     25.42      0.00
    3    2    5     26.64      0.00
    4    2    5     13.48      0.00
    5    2    5     -8.47      0.00
    6    2    5     -9.80      0.00
    7    2    5     -9.04      0.00
    8    2    5    -14.89      0.00
    9    2    5     -7.97      0.00
   10    2    5     -1.71      0.00
   11    2    5     -0.19      0.00
   12    2    5     -0.46      0.00
   13    2    5      0.27      0.00
  -13    1    5      2.03      0.00
  -12    1    5      6.84      0.00
  -11    1    5      7.36      0.00
  -10    1    5      0.60      0.00
   -9    1    5     -6.81      0.00
   -8    1    5    -14.62      0.00
   -7    1    5     -5.92      0.00
   -6    1    5      1.57      0.00
   -5    1    5    -19.34      0.00
   -4    1    5    -20.12      0.00
   -3    1    5     13.13      0.00
   -2    1    5     58.71      0.00
   -1    1    5     32.07      0.00
    0    1    5    -23.80      0.00
    1    1    5     18.78      0.00
    2    1    5     26.26      0.00
    3    1    5     -9.93      0.00
    4    1    5    -30.29      0.00
    5    1    5    -21.49      0.00
    6    1    5      2.50      0.00
    7    1    5     -5.09      0.00
    8    1    5     -3.79      0.00
    9    1    5      4.78      0.00
   10    1    5      5.47      0.00
   11    1    5      5.22      0.00
   12    1    5      0.31      0.00
   13    1    5      1.09      0.00
   -3   20    6     -0.37      0.00
   -2   20    6     -1.62      0.00
   -1   20    6      0.03      0.00
    0   20    6      1.43      0.00
    1   20    6      1.12      0.00
    2   20    6     -0.88      0.00
   -5   19    6      1.12      0.00
   -4   19    6     -4.07      0.00
   -3   19    6     -2.16      0.00
   -2   19    6      2.00      0.00
   -1   19    6      0.76      0.00
    0   19    6     -0.23      0.00
    1   19    6     -2.06      0.00
    2   19    6     -2.77      0.00
    3   19    6      3.00      0.00
    4   19    6      0.91      0.00
   -6   18    6      0.30      0.00
   -5   18    6     -1.72      0.00
   -4   18    6     -0.85      0.00
   -3   18    6      1.91      0.00
   -2   18    6     -1.55      0.00
   -1   18    6     -1.39      0.00
    0   18    6      1.01      0.00
    1   18    6     -0.26      0.00
    2   18    6      1.81      0.00
    3   18    6      1.68      0.00
    4   18    6     -1.22      0.00
    5   18    6      0.15      0.00
    6   18    6      0.37      0.00
   -7   17    6     -0.28      0.00
   -6   17    6      3.27      0.00
   -5   17    6     -1.09      0.00
   -4   17    6     -5.44      0.00
   -3   17    6     -4.52      0.00
   -2   17    6      0.30      0.00
   -1   17    6      1.45      0.00
    0   17    6     -0.80      0.00
    1   17    6     -1.66      0.00
    2   17    6     -0.61      0.00
    3   17    6      3.04      0.00
    4   17    6      0.55      0.00
    5   17    6     -5.19      0.00
    6   17    6     -3.45      0.00
    7   17    6      1.04      0.00
   -8   16    6     -0.22      0.00
   -7   16    6      2.03      0.00
   -6   16    6     -2.01      0.00
   -5   16    6     -5.44      0.00
   -4   16    6     -0.88      0.00
   -3   16    6      5.58      0.00
   -2   16    6      1.60      0.00
   -1   16    6     -1.12      0.00
    0   16    6      2.49      0.00
    1   16    6      1.29      0.00
    2   16    6      3.94      0.00
    3   16    6      0.33      0.00
    4   16    6     -6.67      0.00
    5   16    6     -3.16      0.00
    6   16    6      1.31      0.00
    7   16    6      1.05      0.00
    8   16    6     -2.29      0.00
   -9   15    6      1.29      0.00
   -8   15    6     -1.51      0.00
   -7   15    6     -1.43      0.00
   -6   15    6      3.62      0.00
   -5   15    6      3.29      0.00
   -4   15    6     -0.01      0.00
   -3   15    6     -3.16      0.00
   -2   15    6     -0.91      0.00
   -1   15    6      4.57      0.00
    0   15    6      0.22      0.00
    1   15    6     -2.50      0.00
    2   15    6     -0.90      0.00
    3   15    6     -0.89      0.00
    4   15    6      1.24      0.00
    5   15    6     -1.23      0.00
    6   15    6     -1.10      0.00
    7   15    6      1.17      0.00
    8   15    6     -0.92      0.00
    9   15    6     -0.31      0.00
  -10   14    6      2.44      0.00
   -9   14    6     -2.73      0.00
   -8   14    6     -1.55      0.00
   -7   14    6      4.13      0.00
   -6   14    6     -0.97      0.00
   -5   14    6     -8.37      0.00
   -4   14    6     -4.77      0.00
   -3   14    6      4.63      0.00
   -2   14    6      5.03      0.00
   -1   14    6     -0.37      0.00
    0   14    6      0.13      0.00
    1   14    6      1.53      0.00
    2   14    6      4.69      0.00
    3   14    6      1.88      0.00
    4   14    6     -6.14      0.00
    5   14    6     -6.48      0.00
    6   14    6     -0.33      0.00
    7   14    6      0.57      0.00
    8   14    6     -2.56      0.00
    9   14    6     -1.06      0.00
  -10   13    6     -3.71      0.00
   -9   13    6     -3.73      0.00
   -8   13    6     -2.82      0.00
   -7   13    6     -4.47      0.00
   -6   13    6      0.29      0.00
   -5   13    6      5.32      0.00
   -4   13    6      6.30      0.00
   -3   13    6      2.93      0.00
   -2   13    6      1.27      0.00
   -1   13    6      7.27      0.00
    0   13    6      0.04      0.00
    1   13    6     -5.41      0.00
    2   13    6     -2.80      0.00
    3   13    6     -6.44      0.00
    4   13    6     -4.77      0.00
    5   13    6     -2.97      0.00
    6   13    6      1.86      0.00
    7   13    6      3.42      0.00
    8   13    6      0.53      0.00
    9   13    6      2.17      0.00
   10   13    6      2.34      0.00
  -11   12    6     -1.07      0.00
  -10   12    6     -1.32      0.00
   -9   12    6     -4.51      0.00
   -8   12    6     -0.14      0.00
   -7   12    6     10.02      0.00
   -6   12    6      7.57      0.00
   -5   12    6     -5.01      0.00
   -4   12    6     -5.36      0.00
   -3   12    6      3.14      0.00
   -2   12    6      5.78      0.00
   -1   12    6     -4.33      0.00
    0   12    6    -11.56      0.00
    1   12    6     -3.06      0.00
    2   12    6      3.36      0.00
    3   12    6      2.56      0.00
    4   12    6     -2.75      0.00
    5   12    6     -1.81      0.00
    6   12    6      6.17      0.00
    7   12    6      3.21      0.00
    8   12    6     -1.38      0.00
    9   12    6     -0.45      0.00
   10   12    6      2.07      0.00
  -11   11    6     -1.82      0.00
  -10   11    6     -4.68      0.00
   -9   11    6     -1.10      0.00
   -8   11    6      4.46      0.00
   -7   11    6     -2.34      0.00
   -6   11    6     -5.71      0.00
   -5   11    6     -0.23      0.00
   -4   11    6      7.45      0.00
   -3   11    6      6.20      0.00
   -2   11    6      0.64      0.00
   -1   11    6      2.95      0.00
    0   11    6     -2.46      0.00
    1   11    6     -3.34      0.00
    2   11    6      1.93      0.00
    3   11    6     -4.71      0.00
    4   11    6     -7.47      0.00
    5   11    6     -1.90      0.00
    6   11    6      4.50      0.00
    7   11    6      2.68      0.00
    8   11    6     -0.02      0.00
    9   11    6      3.37      0.00
   10   11    6      4.82      0.00
   11   11    6      0.25      0.00
  -12   10    6     -1.41      0.00
  -11   10    6     -1.43      0.00
  -10   10    6     -1.88      0.00
   -9   10    6     -1.30      0.00
   -8   10    6      0.22      0.00
   -7   10    6      9.32      0.00
   -6   10    6     12.06      0.00
   -5   10    6      1.45      0.00
   -4   10    6      0.33      0.00
   -3   10    6      3.14      0.00
   -2   10    6      2.67      0.00
   -1   10    6    -13.41      0.00
    0   10    6    -24.79      0.00
    1   10    6     -3.12      0.00
    2   10    6      4.78      0.00
    3   10    6     -1.42      0.00
    4   10    6     -2.30      0.00
    5   10    6      6.13      0.00
    6   10    6     14.11      0.00
    7   10    6      4.63      0.00
    8   10    6     -1.63      0.00
    9   10    6     -0.75      0.00
   10   10    6     -1.63      0.00
   11   10    6     -1.62      0.00
  -12    9    6      1.31      0.00
  -11    9    6      0.16      0.00
  -10    9    6     -1.78      0.00
   -9    9    6      5.29      0.00
   -8    9    6     12.47      0.00
   -7    9    6      3.06      0.00
   -6    9    6     -9.20      0.00
   -5    9    6     -6.51      0.00
   -4    9    6      1.43      0.00
   -3    9    6     -4.14      0.00
   -2    9    6    -12.54      0.00
   -1    9    6     -9.46      0.00
    0    9    6      1.65      0.00
    1    9    6     11.45      0.00
    2    9    6     10.78      0.00
    3    9    6      2.70      0.00
    4    9    6      1.05      0.00
    5    9    6      7.02      0.00
    6    9    6      4.40      0.00
    7    9    6     -5.45      0.00
    8    9    6     -6.16      0.00
    9    9    6     -1.20      0.00
   10    9    6      2.07      0.00
   11    9    6     -0.58      0.00
  -12    8    6     -0.86      0.00
  -11    8    6     -1.12      0.00
  -10    8    6      0.46      0.00
   -9    8    6      3.81      0.00
   -8    8    6     -3.63      0.00
   -7    8    6     -0.89      0.00
   -6    8    6      6.65      0.00
   -5    8    6      1.17      0.00
   -4    8    6     -1.16      0.00
   -3    8    6      0.56      0.00
   -2    8    6      6.25      0.00
   -1    8    6     -7.15      0.00
    0    8    6    -18.61      0.00
    1    8    6      8.02      0.00
    2    8    6      9.05      0.00
    3    8    6     -6.99      0.00
    4    8    6     -7.45      0.00
    5    8    6      4.01      0.00
    6    8    6      9.53      0.00
    7    8    6     -0.99      0.00
    8    8    6     -3.13      0.00
    9    8    6      1.02      0.00
   10    8    6     -0.13      0.00
   11    8    6      0.02      0.00
   12    8    6     -0.66      0.00
  -13    7    6     -0.26      0.00
  -12    7    6      1.06      0.00
  -11    7    6      1.61      0.00
  -10    7    6      2.48      0.00
   -9    7    6      6.48      0.00
   -8    7    6     11.12      0.00
   -7    7    6      8.26      0.00
   -6    7    6     -7.36      0.00
   -5    7    6     -8.95      0.00
   -4    7    6     -2.04      0.00
   -3    7    6     -9.93      0.00
   -2    7    6    -22.49      0.00
   -1    7    6    -21.79      0.00
    0    7    6     11.81      0.00
    1    7    6     27.05      0.00
    2    7    6      6.44      0.00
    3    7    6      0.25      0.00
    4    7    6      9.51      0.00
    5    7    6     17.33      0.00
    6    7    6      2.82      0.00
    7    7    6    -13.54      0.00
    8    7    6     -9.34      0.00
    9    7    6     -3.12      0.00
   10    7    6      0.36      0.00
   11    7    6     -2.08      0.00
   12    7    6     -3.19      0.00
  -13    6    6      2.15      0.00
  -12    6    6      3.99      0.00
  -11    6    6      3.35      0.00
  -10    6    6      3.95      0.00
   -9    6    6      4.14      0.00
   -8    6    6     -7.66      0.00
   -7    6    6    -11.53      0.00
   -6    6    6     -5.84      0.00
   -5    6    6     -7.66      0.00
   -4    6    6    -11.74      0.00
   -3    6    6     -6.31      0.00
   -2    6    6     15.17      0.00
   -1    6    6     19.53      0.00
    0    6    6      8.09      0.00
    1    6    6     16.77      0.00
    2    6    6      9.12      0.00
    3    6    6     -5.27      0.00
    4    6    6     -9.74      0.00
    5    6    6     -7.71      0.00
    6    6    6     -8.25      0.00
    7    6    6    -11.66      0.00
    8    6    6     -3.45      0.00
    9    6    6      4.25      0.00
   10    6    6      3.37      0.00
   11    6    6      2.39      0.00
   12    6    6      3.91      0.00
  -13    5    6      0.55      0.00
  -12    5    6      1.10      0.00
  -11    5    6     -1.22      0.00
  -10    5    6     -1.23      0.00
   -9    5    6     -2.73      0.00
   -8    5    6      0.80      0.00
   -7    5    6      7.87      0.00
   -6    5    6     -5.49      0.00
   -5    5    6     -7.63      0.00
   -4    5    6      8.11      0.00
   -3    5    6     11.99      0.00
   -2    5    6     -4.28      0.00
   -1    5    6    -24.97      0.00
    0    5    6     12.33      0.00
    1    5    6     25.70      0.00
    2    5    6    -14.47      0.00
    3    5    6    -18.80      0.00
    4    5    6      0.34      0.00
    5    5    6     16.96      0.00
    6    5    6      1.45      0.00
    7    5    6    -11.01      0.00
    8    5    6     -0.13      0.00
    9    5    6      3.30      0.00
   10    5    6      3.20      0.00
   11    5    6     -0.82      0.00
   12    5    6     -4.09      0.00
  -13    4    6      2.09      0.00
  -12    4    6      4.35      0.00
  -11    4    6      3.21      0.00
  -10    4    6      3.17      0.00
   -9    4    6      1.66      0.00
   -8    4    6     -3.72      0.00
   -7    4    6    -10.72      0.00
   -6    4    6    -11.16      0.00
   -5    4    6     -5.59      0.00
   -4    4    6     -8.91      0.00
   -3    4    6    -10.09      0.00
   -2    4    6      7.93      0.00
   -1    4    6     30.91      0.00
    0    4    6     27.69      0.00
    1    4    6      4.28      0.00
    2    4    6     -3.72      0.00
    3    4    6      2.95      0.00
    4    4    6      1.83      0.00
    5    4    6     -9.40      0.00
    6    4    6    -19.73      0.00
    7    4    6    -12.53      0.00
    8    4    6      0.88      0.00
    9    4    6      5.29      0.00
   10    4    6      2.55      0.00
   11    4    6     -0.91      0.00
   12    4    6      4.44      0.00
   13    4    6      4.75      0.00
  -13    3    6      3.58      0.00
  -12    3    6      1.89      0.00
  -11    3    6     -4.76      0.00
  -10    3    6     -8.10      0.00
   -9    3    6    -11.46      0.00
   -8    3    6     -7.24      0.00
   -7    3    6      2.39      0.00
   -6    3    6     -5.86      0.00
   -5    3    6     -4.68      0.00
   -4    3    6     19.65      0.00
   -3    3    6     39.56      0.00
   -2    3    6     26.53      0.00
   -1    3    6    -19.67      0.00
    0    3    6     -2.89      0.00
    1    3    6     10.07      0.00
    2    3    6    -26.27      0.00
    3    3    6    -31.73      0.00
    4    3    6    -17.89      0.00
    5    3    6      4.31      0.00
    6    3    6      1.33      0.00
    7    3    6      1.05      0.00
    8    3    6     13.12      0.00
    9    3    6      9.75      0.00
   10    3    6      4.52      0.00
   11    3    6      1.49      0.00
   12    3    6      0.19      0.00
   13    3    6      0.64      0.00
  -13    2    6     -0.12      0.00
  -12    2    6     -3.21      0.00
  -11    2    6     -4.82      0.00
  -10    2    6     -1.68      0.00
   -9    2    6      1.89      0.00
   -8    2    6      6.63      0.00
   -7    2    6     -0.31      0.00
   -6    2    6     -3.49      0.00
   -5    2    6     14.43      0.00
   -4    2    6     15.09      0.00
   -3    2    6     -5.64      0.00
   -2    2    6    -26.78      0.00
   -1    2    6     -3.49      0.00
    0    2    6     22.20      0.00
    1    2    6    -19.14      0.00
    2    2    6    -24.46      0.00
    3    2    6      4.04      0.00
    4    2    6     18.85      0.00
    5    2    6      9.67      0.00
    6    2    6     -7.73      0.00
    7    2    6      2.90      0.00
    8    2    6      6.72      0.00
    9    2    6      0.96      0.00
   10    2    6     -1.94      0.00
   11    2    6     -3.98      0.00
   12    2    6      1.80      0.00
   13    2    6      1.76      0.00
  -13    1    6      2.91      0.00
  -12    1    6      1.68      0.00
  -11    1    6     -2.08      0.00
  -10    1    6     -4.52      0.00
   -9    1    6     -6.41      0.00
   -8    1    6     -4.44      0.00
   -7    1    6     -0.34      0.00
   -6    1    6     -3.00      0.00
   -5    1    6     -1.54      0.00
   -4    1    6     11.47      0.00
   -3    1    6     24.95      0.00
   -2    1    6     20.95      0.00
   -1    1    6     -6.24      0.00
    0    1    6     -5.28      0.00
    1    1    6      1.36      0.00
    2    1    6    -11.95      0.00
    3    1    6    -15.31      0.00
    4    1    6    -12.25      0.00
    5    1    6     -1.84      0.00
    6    1    6      0.50      0.00
    7    1    6      3.51      0.00
    8    1    6      8.82      0.00
    9    1    6      5.70      0.00
   10    1    6      2.28      0.00
   11    1    6      1.50      0.00
   12    1    6      2.01      0.00
   13    1    6      1.23      0.00
  -13    0    6     -1.56      0.00
  -12    0    6     -8.40      0.00
  -11    0    6    -10.58      0.00
  -10    0    6     -5.71      0.00
   -9    0    6      1.68      0.00
   -8    0    6     11.36      0.00
   -7    0    6      5.42      0.00
   -6    0    6      2.62      0.00
   -5    0    6     27.73      0.00
   -4    0    6     31.91      0.00
   -3    0    6     -0.07      0.00
   -2    0    6    -49.33      0.00
   -1    0    6    -32.96      0.00
    0    0    6     12.07      0.00
    1    0    6    -31.12      0.00
    2    0    6    -36.04      0.00
    3    0    6     -0.49      0.00
    4    0    6     24.30      0.00
    5    0    6     22.02      0.00
    6    0    6      3.57      0.00
    7    0    6     13.70      0.00
    8    0    6      9.69      0.00
    9    0    6     -1.84      0.00
   10    0    6     -3.97      0.00
   11    0    6     -3.92      0.00
   12    0    6      0.74      0.00
   13    0    6     -1.15      0.00
   -2   20    7     -1.89      0.00
   -1   20    7     -0.80      0.00
    0   20    7     -0.22      0.00
    1   20    7      1.23      0.00
    2   20    7      2.59      0.00
   -5   19    7     -0.61      0.00
   -4   19    7     -0.25      0.00
   -3   19    7     -0.50      0.00
   -2   19    7      1.63      0.00
   -1   19    7      0.02      0.00
    0   19    7     -1.28      0.00
    1   19    7     -0.59      0.00
    2   19    7     -0.66      0.00
    3   19    7     -1.36      0.00
    4   19    7     -1.45      0.00
   -6   18    7     -4.39      0.00
   -5   18    7     -0.11      0.00
   -4   18    7      5.22      0.00
   -3   18    7      3.52      0.00
   -2   18    7     -1.57      0.00
   -1   18    7     -1.24      0.00
    0   18    7      0.71      0.00
    1   18    7      2.25      0.00
    2   18    7      2.33      0.00
    3   18    7     -3.62      0.00
    4   18    7     -1.35      0.00
    5   18    7      4.76      0.00
   -7   17    7     -2.41      0.00
   -6   17    7      0.11      0.00
   -5   17    7      3.96      0.00
   -4   17    7      1.17      0.00
   -3   17    7     -3.48      0.00
   -2   17    7      0.36      0.00
   -1   17    7      1.59      0.00
    0   17    7     -1.12      0.00
    1   17    7     -0.15      0.00
    2   17    7     -3.31      0.00
    3   17    7     -1.86      0.00
    4   17    7      3.79      0.00
    5   17    7      1.14      0.00
    6   17    7     -1.60      0.00
    7   17    7     -0.70      0.00
   -8   16    7      0.73      0.00
   -7   16    7     -0.49      0.00
   -6   16    7     -3.90      0.00
   -5   16    7     -0.91      0.00
   -4   16    7      2.42      0.00
   -3   16    7      3.96      0.00
   -2   16    7      0.57      0.00
   -1   16    7     -2.28      0.00
    0   16    7      0.61      0.00
    1   16    7      1.68      0.00
    2   16    7      0.36      0.00
    3   16    7     -1.97      0.00
    4   16    7     -1.91      0.00
    5   16    7      1.92      0.00
    6   16    7      1.72      0.00
    7   16    7     -0.91      0.00
    8   16    7      0.74      0.00
   -9   15    7      0.41      0.00
   -8   15    7     -0.04      0.00
   -7   15    7     -3.43      0.00
   -6   15    7      2.32      0.00
   -5   15    7      8.09      0.00
   -4   15    7      4.15      0.00
   -3   15    7     -3.08      0.00
   -2   15    7     -1.26      0.00
   -1   15    7      2.05      0.00
    0   15    7     -1.51      0.00
    1   15    7     -2.16      0.00
    2   15    7     -5.59      0.00
    3   15    7     -2.39      0.00
    4   15    7      5.74      0.00
    5   15    7      4.67      0.00
    6   15    7      0.22      0.00
    7   15    7      0.34      0.00
    8   15    7      3.39      0.00
  -10   14    7      0.15      0.00
   -9   14    7      1.17      0.00
   -8   14    7      2.77      0.00
   -7   14    7      3.51      0.00
   -6   14    7     -0.89      0.00
   -5   14    7     -3.86      0.00
   -4   14    7     -3.18      0.00
   -3   14    7      0.47      0.00
   -2   14    7     -0.43      0.00
   -1   14    7     -7.30      0.00
    0   14    7     -2.67      0.00
    1   14    7      1.49      0.00
    2   14    7      0.72      0.00
    3   14    7      3.50      0.00
    4   14    7      1.83      0.00
    5   14    7      2.43      0.00
    6   14    7      0.54      0.00
    7   14    7     -1.32      0.00
    8   14    7      0.44      0.00
    9   14    7     -0.17      0.00
  -10   13    7     -0.65      0.00
   -9   13    7      3.76      0.00
   -8   13    7      0.76      0.00
   -7   13    7     -7.15      0.00
   -6   13    7     -3.22      0.00
   -5   13    7      6.47      0.00
   -4   13    7      5.96      0.00
   -3   13    7     -2.55      0.00
   -2   13    7     -5.29      0.00
   -1   13    7      1.15      0.00
    0   13    7      3.77      0.00
    1   13    7      0.25      0.00
    2   13    7     -3.90      0.00
    3   13    7     -2.58      0.00
    4   13    7      3.89      0.00
    5   13    7      4.30      0.00
    6   13    7     -1.81      0.00
    7   13    7     -0.73      0.00
    8   13    7      3.31      0.00
    9   13    7      2.17      0.00
   10   13    7     -1.63      0.00
  -11   12    7      1.12      0.00
  -10   12    7      3.35      0.00
   -9   12    7      3.12      0.00
   -8   12    7      0.61      0.00
   -7   12    7      5.11      0.00
   -6   12    7      4.61      0.00
   -5   12    7     -0.62      0.00
   -4   12    7     -5.44      0.00
   -3   12    7     -5.06      0.00
   -2   12    7     -3.22      0.00
   -1   12    7     -8.16      0.00
    0   12    7     -1.54      0.00
    1   12    7      2.50      0.00
    2   12    7     -0.35      0.00
    3   12    7      6.26      0.00
    4   12    7      7.94      0.00
    5   12    7      5.23      0.00
    6   12    7     -0.58      0.00
    7   12    7     -1.30      0.00
    8   12    7      0.17      0.00
    9   12    7     -3.34      0.00
   10   12    7     -4.51      0.00
  -11   11    7      1.65      0.00
  -10   11    7      3.53      0.00
   -9   11    7      5.89      0.00
   -8   11    7      1.88      0.00
   -7   11    7     -8.71      0.00
   -6   11    7     -9.69      0.00
   -5   11    7      0.49      0.00
   -4   11    7     -0.02      0.00
   -3   11    7     -6.40      0.00
   -2   11    7     -7.21      0.00
   -1   11    7      6.48      0.00
    0   11    7     16.91      0.00
    1   11    7      4.99      0.00
    2   11    7      0.09      0.00
    3   11    7      3.11      0.00
    4   11    7      4.74      0.00
    5   11    7     -1.07      0.00
    6   11    7     -9.85      0.00
    7   11    7     -4.35      0.00
    8   11    7      0.75      0.00
    9   11    7      0.09      0.00
   10   11    7     -0.52      0.00
   11   11    7     -0.51      0.00
  -12   10    7      0.70      0.00
  -11   10    7      1.70      0.00
  -10   10    7      3.83      0.00
   -9   10    7     -1.93      0.00
   -8   10    7     -9.15      0.00
   -7   10    7     -0.93      0.00
   -6   10    7      6.66      0.00
   -5   10    7      2.67      0.00
   -4   10    7     -5.03      0.00
   -3   10    7     -2.10      0.00
   -2   10    7      4.37      0.00
   -1   10    7      2.31      0.00
    0   10    7      1.96      0.00
    1   10    7     -1.66      0.00
    2   10    7     -5.59      0.00
    3   10    7      0.73      0.00
    4   10    7      3.12      0.00
    5   10    7     -2.05      0.00
    6   10    7     -3.97      0.00
    7   10    7      1.45      0.00
    8   10    7      2.35      0.00
    9   10    7     -2.31      0.00
   10   10    7     -4.47      0.00
   11   10    7     -0.27      0.00
  -12    9    7      1.27      0.00
  -11    9    7      1.80      0.00
  -10    9    7      2.48      0.00
   -9    9    7      0.74      0.00
   -8    9    7      3.17      0.00
   -7    9    7     -3.16      0.00
   -6    9    7     -8.84      0.00
   -5    9    7     -2.61      0.00
   -4    9    7     -3.93      0.00
   -3    9    7     -7.59      0.00
   -2    9    7     -8.05      0.00
   -1    9    7     10.37      0.00
    0    9    7     23.12      0.00
    1    9    7     -0.18      0.00
    2    9    7     -2.92      0.00
    3    9    7      8.67      0.00
    4    9    7      7.88      0.00
    5    9    7     -4.13      0.00
    6    9    7    -12.37      0.00
    7    9    7     -3.76      0.00
    8    9    7     -0.33      0.00
    9    9    7     -2.15      0.00
   10    9    7      0.34      0.00
   11    9    7      1.55      0.00
  -12    8    7      0.74      0.00
  -11    8    7      1.39      0.00
  -10    8    7      1.06      0.00
   -9    8    7     -6.39      0.00
   -8    8    7    -13.55      0.00
   -7    8    7     -7.91      0.00
   -6    8    7      4.33      0.00
   -5    8    7      2.10      0.00
   -4    8    7     -3.75      0.00
   -3    8    7      7.78      0.00
   -2    8    7     22.17      0.00
   -1    8    7     21.50      0.00
    0    8    7      0.30      0.00
    1    8    7    -12.76      0.00
    2    8    7     -5.67      0.00
    3    8    7     -2.50      0.00
    4    8    7     -8.71      0.00
    5    8    7    -15.91      0.00
    6    8    7     -7.24      0.00
    7    8    7      6.47      0.00
    8    8    7      6.21      0.00
    9    8    7      2.76      0.00
   10    8    7      1.12      0.00
   11    8    7      3.70      0.00
   12    8    7      3.10      0.00
  -13    7    7     -0.73      0.00
  -12    7    7     -1.20      0.00
  -11    7    7     -1.60      0.00
  -10    7    7     -3.39      0.00
   -9    7    7     -5.75      0.00
   -8    7    7      4.47      0.00
   -7    7    7      5.31      0.00
   -6    7    7     -0.80      0.00
   -5    7    7      4.13      0.00
   -4    7    7      8.63      0.00
   -3    7    7      4.99      0.00
   -2    7    7     -8.33      0.00
   -1    7    7     -2.19      0.00
    0    7    7      6.69      0.00
    1    7    7    -15.01      0.00
    2    7    7    -12.27      0.00
    3    7    7      4.04      0.00
    4    7    7      7.19      0.00
    5    7    7      0.11      0.00
    6    7    7     -1.79      0.00
    7    7    7      6.33      0.00
    8    7    7      4.12      0.00
    9    7    7     -1.09      0.00
   10    7    7     -0.47      0.00
   11    7    7     -1.18      0.00
   12    7    7     -1.96      0.00
  -13    6    7      0.39      0.00
  -12    6    7      0.23      0.00
  -11    6    7      0.80      0.00
  -10    6    7     -0.99      0.00
   -9    6    7     -2.91      0.00
   -8    6    7     -6.77      0.00
   -7    6    7     -9.40      0.00
   -6    6    7      3.65      0.00
   -5    6    7      3.95      0.00
   -4    6    7     -6.16      0.00
   -3    6    7      0.36      0.00
   -2    6    7     19.59      0.00
   -1    6    7     28.47      0.00
    0    6    7     -9.50      0.00
    1    6    7    -23.46      0.00
    2    6    7      6.13      0.00
    3    6    7      8.69      0.00
    4    6    7     -8.77      0.00
    5    6    7    -21.36      0.00
    6    6    7     -4.78      0.00
    7    6    7     10.90      0.00
    8    6    7      4.51      0.00
    9    6    7      0.55      0.00
   10    6    7     -0.68      0.00
   11    6    7      3.00      0.00
   12    6    7      5.25      0.00
  -13    5    7     -1.23      0.00
  -12    5    7     -4.33      0.00
  -11    5    7     -5.65      0.00
  -10    5    7     -7.30      0.00
   -9    5    7     -6.32      0.00
   -8    5    7      2.69      0.00
   -7    5    7      8.10      0.00
   -6    5    7      7.29      0.00
   -5    5    7      9.78      0.00
   -4    5    7     18.87      0.00
   -3    5    7     18.78      0.00
   -2    5    7     -3.93      0.00
   -1    5    7    -22.03      0.00
    0    5    7    -19.59      0.00
    1    5    7    -16.80      0.00
    2    5    7    -11.12      0.00
    3    5    7     -7.86      0.00
    4    5    7     -2.66      0.00
    5    5    7      5.87      0.00
    6    5    7     15.10      0.00
    7    5    7     15.79      0.00
    8    5    7      5.26      0.00
    9    5    7     -1.15      0.00
   10    5    7     -0.29      0.00
   11    5    7      0.43      0.00
   12    5    7     -4.47      0.00
  -13    4    7     -2.92      0.00
  -12    4    7     -3.11      0.00
  -11    4    7      0.92      0.00
  -10    4    7      2.96      0.00
   -9    4    7      7.11      0.00
   -8    4    7      4.75      0.00
   -7    4    7     -1.92      0.00
   -6    4    7     10.42      0.00
   -5    4    7     10.80      0.00
   -4    4    7    -10.65      0.00
   -3    4    7    -25.00      0.00
   -2    4    7    -12.59      0.00
   -1    4    7     15.86      0.00
    0    4    7    -13.16      0.00
    1    4    7    -22.32      0.00
    2    4    7     18.56      0.00
    3    4    7     25.80      0.00
    4    4    7     11.35      0.00
    5    4    7     -6.53      0.00
    6    4    7      3.87      0.00
    7    4    7      8.24      0.00
    8    4    7     -5.46      0.00
    9    4    7     -6.56      0.00
   10    4    7     -4.77      0.00
   11    4    7     -1.25      0.00
   12    4    7      1.51      0.00
  -13    3    7     -0.43      0.00
  -12    3    7     -0.63      0.00
  -11    3    7     -0.19      0.00
  -10    3    7     -1.72      0.00
   -9    3    7     -2.04      0.00
   -8    3    7     -2.08      0.00
   -7    3    7      4.63      0.00
   -6    3    7      7.04      0.00
   -5    3    7     -2.95      0.00
   -4    3    7      0.65      0.00
   -3    3    7     12.61      0.00
   -2    3    7     11.26      0.00
   -1    3    7    -14.91      0.00
    0    3    7    -25.19      0.00
    1    3    7      6.49      0.00
    2    3    7     11.41      0.00
    3    3    7     -7.11      0.00
    4    3    7    -13.29      0.00
    5    3    7     -0.45      0.00
    6    3    7     14.97      0.00
    7    3    7      6.33      0.00
    8    3    7     -2.33      0.00
    9    3    7     -1.85      0.00
   10    3    7      0.81      0.00
   11    3    7      3.42      0.00
   12    3    7     -3.07      0.00
   13    3    7     -3.64      0.00
  -13    2    7     -5.02      0.00
  -12    2    7     -4.82      0.00
  -11    2    7     -0.04      0.00
  -10    2    7      3.89      0.00
   -9    2    7      8.70      0.00
   -8    2    7      7.58      0.00
   -7    2    7      4.06      0.00
   -6    2    7     12.23      0.00
   -5    2    7     10.94      0.00
   -4    2    7    -10.16      0.00
   -3    2    7    -32.57      0.00
   -2    2    7    -31.12      0.00
   -1    2    7      0.50      0.00
    0    2    7     -7.48      0.00
    1    2    7    -13.06      0.00
    2    2    7     13.61      0.00
    3    2    7     22.32      0.00
    4    2    7     20.32      0.00
    5    2    7      7.37      0.00
    6    2    7      7.67      0.00
    7    2    7      2.32      0.00
    8    2    7     -9.99      0.00
    9    2    7     -8.16      0.00
   10    2    7     -4.37      0.00
   11    2    7     -2.78      0.00
   12    2    7     -2.73      0.00
   13    2    7     -2.21      0.00
  -13    1    7     -0.46      0.00
  -12    1    7      5.22      0.00
  -11    1    7      8.36      0.00
  -10    1    7      6.67      0.00
   -9    1    7      2.51      0.00
   -8    1    7     -4.72      0.00
   -7    1    7      0.89      0.00
   -6    1    7      0.44      0.00
   -5    1    7    -24.82      0.00
   -4    1    7    -30.78      0.00
   -3    1    7     -7.26      0.00
   -2    1    7     27.35      0.00
   -1    1    7     12.76      0.00
    0    1    7    -13.71      0.00
    1    1    7     30.40      0.00
    2    1    7     35.91      0.00
    3    1    7      7.05      0.00
    4    1    7    -13.99      0.00
    5    1    7    -12.07      0.00
    6    1    7      0.70      0.00
    7    1    7    -13.19      0.00
    8    1    7    -12.38      0.00
    9    1    7     -2.31      0.00
   10    1    7      1.15      0.00
   11    1    7      2.42      0.00
   12    1    7     -2.68      0.00
   13    1    7     -1.06      0.00
    6   18    7      2.68      0.00
   -2   20    8     -1.52      0.00
   -1   20    8      0.68      0.00
    0   20    8      1.38      0.00
    1   20    8      1.60      0.00
   -4   19    8     -3.58      0.00
   -3   19    8     -1.77      0.00
   -2   19    8      2.27      0.00
   -1   19    8      1.78      0.00
    0   19    8      0.10      0.00
    1   19    8     -1.92      0.00
    2   19    8     -3.16      0.00
    3   19    8      2.49      0.00
    4   19    8      1.38      0.00
   -6   18    8      1.67      0.00
   -5   18    8     -1.11      0.00
   -4   18    8     -0.23      0.00
   -3   18    8      1.91      0.00
   -2   18    8     -0.80      0.00
   -1   18    8     -0.49      0.00
    0   18    8      0.61      0.00
    1   18    8      0.04      0.00
    2   18    8      2.03      0.00
    3   18    8      2.03      0.00
    4   18    8     -1.03      0.00
    5   18    8      0.38      0.00
   -7   17    8      1.51      0.00
   -6   17    8      4.91      0.00
   -5   17    8      0.48      0.00
   -4   17    8     -3.50      0.00
   -3   17    8     -3.24      0.00
   -2   17    8      1.08      0.00
   -1   17    8      1.68      0.00
    0   17    8     -0.92      0.00
    1   17    8     -2.00      0.00
    2   17    8     -1.52      0.00
    3   17    8      3.42      0.00
    4   17    8      2.31      0.00
    5   17    8     -2.42      0.00
    6   17    8     -1.36      0.00
   -8   16    8      0.48      0.00
   -7   16    8      3.30      0.00
   -6   16    8     -1.47      0.00
   -5   16    8     -6.77      0.00
   -4   16    8     -3.10      0.00
   -3   16    8      2.32      0.00
   -2   16    8     -0.88      0.00
   -1   16    8     -3.32      0.00
    0   16    8      0.20      0.00
    1   16    8      0.76      0.00
    2   16    8      4.82      0.00
    3   16    8      2.85      0.00
    4   16    8     -4.45      0.00
    5   16    8     -2.44      0.00
    6   16    8      1.04      0.00
    7   16    8     -0.07      0.00
   -9   15    8      0.74      0.00
   -8   15    8     -1.31      0.00
   -7   15    8     -0.82      0.00
   -6   15    8      2.11      0.00
   -5   15    8      2.34      0.00
   -4   15    8      1.14      0.00
   -3   15    8     -2.28      0.00
   -2   15    8     -0.55      0.00
   -1   15    8      4.39      0.00
    0   15    8      1.76      0.00
    1   15    8     -0.41      0.00
    2   15    8      0.10      0.00
    3   15    8     -0.06      0.00
    4   15    8      0.88      0.00
    5   15    8     -0.92      0.00
    6   15    8     -0.62      0.00
    7   15    8      1.09      0.00
    8   15    8      0.00      0.00
  -10   14    8      3.32      0.00
   -9   14    8     -0.55      0.00
   -8   14    8      0.85      0.00
   -7   14    8      5.98      0.00
   -6   14    8      0.58      0.00
   -5   14    8     -6.75      0.00
   -4   14    8     -5.68      0.00
   -3   14    8      0.52      0.00
   -2   14    8      1.24      0.00
   -1   14    8     -2.53      0.00
    0   14    8     -0.69      0.00
    1   14    8      1.37      0.00
    2   14    8      5.71      0.00
    3   14    8      4.15      0.00
    4   14    8     -2.97      0.00
    5   14    8     -3.35      0.00
    6   14    8      0.56      0.00
    7   14    8     -0.17      0.00
    8   14    8     -3.73      0.00
    9   14    8     -2.66      0.00
  -10   13    8      0.23      0.00
   -9   13    8     -1.74      0.00
   -8   13    8     -2.14      0.00
   -7   13    8     -5.21      0.00
   -6   13    8     -3.58      0.00
   -5   13    8      0.35      0.00
   -4   13    8      2.16      0.00
   -3   13    8      0.61      0.00
   -2   13    8      1.49      0.00
   -1   13    8      8.91      0.00
    0   13    8      4.76      0.00
    1   13    8      0.89      0.00
    2   13    8      1.93      0.00
    3   13    8     -3.86      0.00
    4   13    8     -4.94      0.00
    5   13    8     -5.07      0.00
    6   13    8     -1.56      0.00
    7   13    8      0.25      0.00
    8   13    8     -0.72      0.00
    9   13    8      0.95      0.00
  -11   12    8      0.18      0.00
  -10   12    8     -1.61      0.00
   -9   12    8     -6.08      0.00
   -8   12    8     -2.36      0.00
   -7   12    8      6.85      0.00
   -6   12    8      5.74      0.00
   -5   12    8     -3.10      0.00
   -4   12    8     -2.91      0.00
   -3   12    8      4.54      0.00
   -2   12    8      7.48      0.00
   -1   12    8     -1.13      0.00
    0   12    8     -7.30      0.00
    1   12    8     -1.99      0.00
    2   12    8      0.93      0.00
    3   12    8     -1.13      0.00
    4   12    8     -4.73      0.00
    5   12    8     -2.02      0.00
    6   12    8      5.29      0.00
    7   12    8      2.15      0.00
    8   12    8     -2.99      0.00
    9   12    8     -2.65      0.00
   10   12    8      0.49      0.00
  -11   11    8     -1.47      0.00
  -10   11    8     -3.39      0.00
   -9   11    8     -0.95      0.00
   -8   11    8      4.10      0.00
   -7   11    8     -2.47      0.00
   -6   11    8     -6.23      0.00
   -5   11    8     -2.47      0.00
   -4   11    8      3.46      0.00
   -3   11    8      3.72      0.00
   -2   11    8      1.52      0.00
   -1   11    8      5.50      0.00
    0   11    8      1.22      0.00
    1   11    8      0.31      0.00
    2   11    8      3.99      0.00
    3   11    8     -2.93      0.00
    4   11    8     -5.94      0.00
    5   11    8     -3.31      0.00
    6   11    8      0.20      0.00
    7   11    8     -1.93      0.00
    8   11    8     -2.26      0.00
    9   11    8      3.28      0.00
   10   11    8      6.13      0.00
  -12   10    8     -0.95      0.00
  -11   10    8     -1.58      0.00
  -10   10    8     -4.30      0.00
   -9   10    8     -5.61      0.00
   -8   10    8     -4.52      0.00
   -7   10    8      3.73      0.00
   -6   10    8      7.21      0.00
   -5   10    8      0.81      0.00
   -4   10    8      4.74      0.00
   -3   10    8     11.69      0.00
   -2   10    8     11.90      0.00
   -1   10    8     -5.12      0.00
    0   10    8    -17.52      0.00
    1   10    8     -2.66      0.00
    2   10    8     -1.94      0.00
    3   10    8    -10.11      0.00
    4   10    8     -9.71      0.00
    5   10    8      0.16      0.00
    6   10    8      9.75      0.00
    7   10    8      4.27      0.00
    8   10    8      1.47      0.00
    9   10    8      3.11      0.00
   10   10    8      1.51      0.00
   11   10    8     -0.46      0.00
  -12    9    8     -1.83      0.00
  -11    9    8     -3.09      0.00
  -10    9    8     -4.21      0.00
   -9    9    8      3.23      0.00
   -8    9    8     11.48      0.00
   -7    9    8      4.93      0.00
   -6    9    8     -3.48      0.00
   -5    9    8      0.92      0.00
   -4    9    8      7.48      0.00
   -3    9    8     -1.06      0.00
   -2    9    8    -12.40      0.00
   -1    9    8    -12.29      0.00
    0    9    8     -4.88      0.00
    1    9    8      1.87      0.00
    2    9    8      2.31      0.00
    3    9    8      0.18      0.00
    4    9    8      3.20      0.00
    5    9    8      9.25      0.00
    6    9    8      6.40      0.00
    7    9    8     -2.45      0.00
    8    9    8     -2.71      0.00
    9    9    8      0.54      0.00
   10    9    8      1.20      0.00
   11    9    8     -2.69      0.00
  -12    8    8     -0.41      0.00
  -11    8    8     -0.39      0.00
  -10    8    8     -0.21      0.00
   -9    8    8      2.37      0.00
   -8    8    8     -3.99      0.00
   -7    8    8     -1.72      0.00
   -6    8    8      3.88      0.00
   -5    8    8     -0.98      0.00
   -4    8    8     -0.62      0.00
   -3    8    8      4.57      0.00
   -2    8    8     10.37      0.00
   -1    8    8     -4.97      0.00
    0    8    8    -15.80      0.00
    1    8    8      7.79      0.00
    2    8    8      6.93      0.00
    3    8    8     -8.19      0.00
    4    8    8     -9.41      0.00
    5    8    8      1.21      0.00
    6    8    8      7.32      0.00
    7    8    8     -0.14      0.00
    8    8    8     -0.37      0.00
    9    8    8      2.61      0.00
   10    8    8      0.51      0.00
   11    8    8      0.06      0.00
  -12    7    8     -2.37      0.00
  -11    7    8     -3.60      0.00
  -10    7    8     -1.82      0.00
   -9    7    8      4.07      0.00
   -8    7    8      9.75      0.00
   -7    7    8      9.03      0.00
   -6    7    8     -0.67      0.00
   -5    7    8      3.86      0.00
   -4    7    8     11.87      0.00
   -3    7    8     -1.48      0.00
   -2    7    8    -23.41      0.00
   -1    7    8    -29.54      0.00
    0    7    8     -1.42      0.00
    1    7    8     10.75      0.00
    2    7    8     -6.15      0.00
    3    7    8     -5.43      0.00
    4    7    8     10.08      0.00
    5    7    8     21.52      0.00
    6    7    8      9.71      0.00
    7    7    8     -4.81      0.00
    8    7    8     -2.68      0.00
    9    7    8     -0.91      0.00
   10    7    8     -1.37      0.00
   11    7    8     -5.36      0.00
   12    7    8     -5.88      0.00
  -13    6    8     -0.50      0.00
  -12    6    8      1.37      0.00
  -11    6    8      3.80      0.00
  -10    6    8      7.07      0.00
   -9    6    8      8.60      0.00
   -8    6    8     -0.85      0.00
   -7    6    8     -3.18      0.00
   -6    6    8      0.05      0.00
   -5    6    8     -6.14      0.00
   -4    6    8    -17.23      0.00
   -3    6    8    -18.13      0.00
   -2    6    8     -0.86      0.00
   -1    6    8      4.95      0.00
    0    6    8      2.92      0.00
    1    6    8     17.40      0.00
    2    6    8     16.03      0.00
    3    6    8      7.68      0.00
    4    6    8      3.10      0.00
    5    6    8      1.41      0.00
    6    6    8     -4.09      0.00
    7    6    8    -10.91      0.00
    8    6    8     -6.30      0.00
    9    6    8     -1.84      0.00
   10    6    8     -2.47      0.00
   11    6    8     -0.98      0.00
   12    6    8      2.92      0.00
  -13    5    8      1.07      0.00
  -12    5    8      1.50      0.00
  -11    5    8     -0.17      0.00
  -10    5    8      0.39      0.00
   -9    5    8     -1.17      0.00
   -8    5    8      0.88      0.00
   -7    5    8      5.06      0.00
   -6    5    8     -7.40      0.00
   -5    5    8     -6.92      0.00
   -4    5    8      8.71      0.00
   -3    5    8     11.46      0.00
   -2    5    8     -6.28      0.00
   -1    5    8    -22.44      0.00
    0    5    8     13.54      0.00
    1    5    8     23.49      0.00
    2    5    8    -12.47      0.00
    3    5    8    -17.05      0.00
    4    5    8      0.03      0.00
    5    5    8     14.94      0.00
    6    5    8      0.08      0.00
    7    5    8    -10.02      0.00
    8    5    8      0.00      0.00
    9    5    8      2.50      0.00
   10    5    8      2.60      0.00
   11    5    8     -1.17      0.00
   12    5    8     -4.12      0.00
  -13    4    8     -0.42      0.00
  -12    4    8      1.79      0.00
  -11    4    8      3.77      0.00
  -10    4    8      6.39      0.00
   -9    4    8      5.90      0.00
   -8    4    8      2.26      0.00
   -7    4    8     -2.40      0.00
   -6    4    8     -3.68      0.00
   -5    4    8     -3.15      0.00
   -4    4    8    -14.57      0.00
   -3    4    8    -24.30      0.00
   -2    4    8    -11.71      0.00
   -1    4    8     13.51      0.00
    0    4    8     20.19      0.00
    1    4    8      6.16      0.00
    2    4    8      4.04      0.00
    3    4    8     14.86      0.00
    4    4    8     15.45      0.00
    5    4    8      1.73      0.00
    6    4    8    -13.84      0.00
    7    4    8    -12.30      0.00
    8    4    8     -3.72      0.00
    9    4    8     -1.20      0.00
   10    4    8     -2.89      0.00
   11    4    8     -3.82      0.00
   12    4    8      3.19      0.00
  -13    3    8      4.50      0.00
  -12    3    8      6.08      0.00
  -11    3    8      2.99      0.00
  -10    3    8     -0.16      0.00
   -9    3    8     -5.98      0.00
   -8    3    8     -5.46      0.00
   -7    3    8     -3.47      0.00
   -6    3    8    -17.55      0.00
   -5    3    8    -19.25      0.00
   -4    3    8      2.08      0.00
   -3    3    8     24.02      0.00
   -2    3    8     22.55      0.00
   -1    3    8     -0.51      0.00
    0    3    8     20.54      0.00
    1    3    8     25.85      0.00
    2    3    8     -8.18      0.00
    3    3    8    -19.06      0.00
    4    3    8    -16.40      0.00
    5    3    8     -5.69      0.00
    6    3    8    -13.34      0.00
    7    3    8    -10.73      0.00
    8    3    8      4.74      0.00
    9    3    8      5.69      0.00
   10    3    8      4.22      0.00
   11    3    8      2.60      0.00
   12    3    8      1.46      0.00
  -13    2    8      0.88      0.00
  -12    2    8     -1.46      0.00
  -11    2    8     -3.46      0.00
  -10    2    8     -3.10      0.00
   -9    2    8     -1.91      0.00
   -8    2    8      1.47      0.00
   -7    2    8     -4.99      0.00
   -6    2    8     -5.16      0.00
   -5    2    8     13.39      0.00
   -4    2    8     15.79      0.00
   -3    2    8     -0.52      0.00
   -2    2    8    -15.12      0.00
   -1    2    8      4.94      0.00
    0    2    8     19.19      0.00
    1    2    8    -19.32      0.00
    2    2    8    -24.60      0.00
    3    2    8     -2.63      0.00
    4    2    8     10.51      0.00
    5    2    8      3.20      0.00
    6    2    8     -8.81      0.00
    7    2    8      4.31      0.00
    8    2    8      8.09      0.00
    9    2    8      2.56      0.00
   10    2    8     -0.50      0.00
   11    2    8     -2.44      0.00
   12    2    8      3.36      0.00
  -13    1    8      2.90      0.00
  -12    1    8      3.78      0.00
  -11    1    8      2.26      0.00
  -10    1    8      0.35      0.00
   -9    1    8     -2.68      0.00
   -8    1    8     -2.98      0.00
   -7    1    8     -3.74      0.00
   -6    1    8    -10.56      0.00
   -5    1    8    -11.17      0.00
   -4    1    8     -0.37      0.00
   -3    1    8     13.24      0.00
   -2    1    8     16.60      0.00
   -1    1    8      4.67      0.00
    0    1    8      9.53      0.00
    1    1    8     11.70      0.00
    2    1    8     -0.91      0.00
    3    1    8     -6.93      0.00
    4    1    8    -10.18      0.00
    5    1    8     -7.15      0.00
    6    1    8     -8.70      0.00
    7    1    8     -4.80      0.00
    8    1    8      2.93      0.00
    9    1    8      3.02      0.00
   10    1    8      1.85      0.00
   11    1    8      1.43      0.00
   12    1    8      1.60      0.00
   13    1    8      1.31      0.00
  -13    0    8      3.00      0.00
  -12    0    8     -2.44      0.00
  -11    0    8     -6.72      0.00
  -10    0    8     -7.89      0.00
   -9    0    8     -5.93      0.00
   -8    0    8     -0.64      0.00
   -7    0    8     -7.67      0.00
   -6    0    8     -4.55      0.00
   -5    0    8     25.05      0.00
   -4    0    8     36.24      0.00
   -3    0    8     17.83      0.00
   -2    0    8    -13.85      0.00
   -1    0    8     -2.65      0.00
    0    0    8     15.98      0.00
    1    0    8    -30.09      0.00
    2    0    8    -38.21      0.00
    3    0    8    -15.95      0.00
    4    0    8      3.11      0.00
    5    0    8      3.61      0.00
    6    0    8     -3.22      0.00
    7    0    8     15.51      0.00
    8    0    8     15.40      0.00
    9    0    8      5.11      0.00
   10    0    8      1.24      0.00
   11    0    8     -0.32      0.00
   12    0    8      4.46      0.00
   13    0    8      2.28      0.00
   -4   19    9     -0.66      0.00
   -3   19    9     -0.33      0.00
   -2   19    9      1.34      0.00
   -1   19    9     -0.25      0.00
    0   19    9     -0.47      0.00
    1   19    9     -0.82      0.00
    2   19    9     -1.26      0.00
    3   19    9     -1.20      0.00
   -6   18    9     -5.07      0.00
   -5   18    9     -1.11      0.00
   -4   18    9      3.35      0.00
   -3   18    9      2.10      0.00
   -2   18    9     -2.37      0.00
   -1   18    9     -2.45      0.00
    0   18    9      0.21      0.00
    1   18    9      2.04      0.00
    2   18    9      2.65      0.00
    3   18    9     -3.24      0.00
    4   18    9     -2.00      0.00
    5   18    9      3.16      0.00
   -7   17    9     -2.53      0.00
   -6   17    9     -0.31      0.00
   -5   17    9      4.14      0.00
   -4   17    9      1.66      0.00
   -3   17    9     -1.99      0.00
   -2   17    9      0.81      0.00
   -1   17    9      2.40      0.00
    0   17    9      0.84      0.00
    1   17    9      0.09      0.00
    2   17    9     -3.42      0.00
    3   17    9     -2.55      0.00
    4   17    9      3.32      0.00
    5   17    9      1.38      0.00
    6   17    9     -1.69      0.00
   -8   16    9      1.17      0.00
   -7   16    9     -1.09      0.00
   -6   16    9     -3.53      0.00
   -5   16    9     -1.27      0.00
   -4   16    9      0.10      0.00
   -3   16    9      1.75      0.00
   -2   16    9     -0.71      0.00
   -1   16    9     -2.72      0.00
    0   16    9     -0.53      0.00
    1   16    9      0.89      0.00
    2   16    9      0.92      0.00
    3   16    9     -1.69      0.00
    4   16    9     -1.69      0.00
    5   16    9      0.47      0.00
    6   16    9     -0.07      0.00
    7   16    9     -1.48      0.00
   -9   15    9     -0.52      0.00
   -8   15    9     -1.48      0.00
   -7   15    9     -5.22      0.00
   -6   15    9      0.29      0.00
   -5   15    9      5.96      0.00
   -4   15    9      3.70      0.00
   -3   15    9     -0.41      0.00
   -2   15    9      1.56      0.00
   -1   15    9      4.81      0.00
    0   15    9      1.49      0.00
    1   15    9     -0.31      0.00
    2   15    9     -5.29      0.00
    3   15    9     -4.31      0.00
    4   15    9      2.42      0.00
    5   15    9      1.61      0.00
    6   15    9     -1.06      0.00
    7   15    9      0.11      0.00
    8   15    9      2.72      0.00
   -9   14    9      0.03      0.00
   -8   14    9      1.51      0.00
   -7   14    9      2.98      0.00
   -6   14    9      1.74      0.00
   -5   14    9     -0.43      0.00
   -4   14    9     -0.70      0.00
   -3   14    9      2.64      0.00
   -2   14    9      1.39      0.00
   -1   14    9     -5.54      0.00
    0   14    9     -4.03      0.00
    1   14    9     -1.68      0.00
    2   14    9     -2.19      0.00
    3   14    9      0.82      0.00
    4   14    9      1.27      0.00
    5   14    9      2.62      0.00
    6   14    9      1.24      0.00
    7   14    9     -0.73      0.00
    8   14    9     -0.36      0.00
    9   14    9     -0.19      0.00
  -10   13    9     -2.08      0.00
   -9   13    9      2.56      0.00
   -8   13    9      0.29      0.00
   -7   13    9     -6.29      0.00
   -6   13    9     -3.13      0.00
   -5   13    9      3.76      0.00
   -4   13    9      4.39      0.00
   -3   13    9     -0.74      0.00
   -2   13    9     -3.14      0.00
   -1   13    9      1.36      0.00
    0   13    9      2.35      0.00
    1   13    9     -0.35      0.00
    2   13    9     -3.95      0.00
    3   13    9     -2.72      0.00
    4   13    9      2.28      0.00
    5   13    9      1.53      0.00
    6   13    9     -3.16      0.00
    7   13    9     -1.37      0.00
    8   13    9      3.65      0.00
    9   13    9      4.16      0.00
  -11   12    9     -0.98      0.00
  -10   12    9      0.11      0.00
   -9   12    9      0.87      0.00
   -8   12    9     -1.24      0.00
   -7   12    9      3.80      0.00
   -6   12    9      5.49      0.00
   -5   12    9      2.97      0.00
   -4   12    9      0.53      0.00
   -3   12    9      0.17      0.00
   -2   12    9     -1.12      0.00
   -1   12    9     -8.22      0.00
    0   12    9     -4.85      0.00
    1   12    9     -2.94      0.00
    2   12    9     -5.61      0.00
    3   12    9      1.41      0.00
    4   12    9      4.69      0.00
    5   12    9      5.09      0.00
    6   12    9      2.03      0.00
    7   12    9      2.06      0.00
    8   12    9      2.67      0.00
    9   12    9     -1.27      0.00
   10   12    9     -3.70      0.00
  -11   11    9     -0.19      0.00
  -10   11    9      2.98      0.00
   -9   11    9      7.08      0.00
   -8   11    9      4.78      0.00
   -7   11    9     -3.11      0.00
   -6   11    9     -3.99      0.00
   -5   11    9      2.46      0.00
   -4   11    9     -0.81      0.00
   -3   11    9     -9.14      0.00
   -2   11    9    -11.66      0.00
   -1   11    9     -0.35      0.00
    0   11    9      8.22      0.00
    1   11    9      0.56      0.00
    2   11    9      1.37      0.00
    3   11    9      7.41      0.00
    4   11    9      8.90      0.00
    5   11    9      2.43      0.00
    6   11    9     -6.39      0.00
    7   11    9     -2.74      0.00
    8   11    9      1.01      0.00
    9   11    9     -0.04      0.00
   10   11    9     -1.40      0.00
  -11   10    9      2.45      0.00
  -10   10    9      4.55      0.00
   -9   10    9     -0.20      0.00
   -8   10    9     -7.49      0.00
   -7   10    9     -1.05      0.00
   -6   10    9      4.40      0.00
   -5   10    9      0.66      0.00
   -4   10    9     -5.03      0.00
   -3   10    9     -1.92      0.00
   -2   10    9      3.27      0.00
   -1   10    9      1.00      0.00
    0   10    9      1.85      0.00
    1   10    9      0.52      0.00
    2   10    9     -2.43      0.00
    3   10    9      1.11      0.00
    4   10    9      1.12      0.00
    5   10    9     -2.23      0.00
    6   10    9     -2.29      0.00
    7   10    9      3.15      0.00
    8   10    9      3.26      0.00
    9   10    9     -1.98      0.00
   10   10    9     -4.52      0.00
   11   10    9     -0.63      0.00
  -12    9    9      0.50      0.00
  -11    9    9      0.66      0.00
  -10    9    9      2.83      0.00
   -9    9    9      2.22      0.00
   -8    9    9      4.98      0.00
   -7    9    9      0.97      0.00
   -6    9    9     -2.56      0.00
   -5    9    9      2.06      0.00
   -4    9    9     -3.37      0.00
   -3    9    9    -12.13      0.00
   -2    9    9    -15.19      0.00
   -1    9    9      2.09      0.00
    0    9    9     13.77      0.00
    1    9    9     -4.36      0.00
    2    9    9     -1.79      0.00
    3    9    9     11.54      0.00
    4    9    9     12.50      0.00
    5    9    9      2.23      0.00
    6    9    9     -6.29      0.00
    7    9    9     -1.43      0.00
    8    9    9     -1.85      0.00
    9    9    9     -5.24      0.00
   10    9    9     -3.21      0.00
   11    9    9     -0.86      0.00
  -12    8    9      2.91      0.00
  -11    8    9      5.13      0.00
  -10    8    9      5.38      0.00
   -9    8    9     -1.74      0.00
   -8    8    9     -8.83      0.00
   -7    8    9     -5.67      0.00
   -6    8    9      0.59      0.00
   -5    8    9     -7.35      0.00
   -4    8    9    -15.82      0.00
   -3    8    9     -3.27      0.00
   -2    8    9     15.36      0.00
   -1    8    9     20.24      0.00
    0    8    9      6.53      0.00
    1    8    9      0.39      0.00
    2    8    9      8.19      0.00
    3    8    9      6.31      0.00
    4    8    9     -5.07      0.00
    5    8    9    -14.77      0.00
    6    8    9     -9.30      0.00
    7    8    9      0.52      0.00
    8    8    9     -0.66      0.00
    9    8    9     -1.84      0.00
   10    8    9      0.13      0.00
   11    8    9      5.10      0.00
  -12    7    9      0.94      0.00
  -11    7    9     -0.63      0.00
  -10    7    9     -2.86      0.00
   -9    7    9     -6.21      0.00
   -8    7    9      1.20      0.00
   -7    7    9      0.98      0.00
   -6    7    9     -3.34      0.00
   -5    7    9      2.49      0.00
   -4    7    9      8.44      0.00
   -3    7    9      6.79      0.00
   -2    7    9     -3.28      0.00
   -1    7    9      4.34      0.00
    0    7    9     10.15      0.00
    1    7    9    -11.51      0.00
    2    7    9    -11.84      0.00
    3    7    9     -0.61      0.00
    4    7    9      2.42      0.00
    5    7    9     -2.61      0.00
    6    7    9     -3.43      0.00
    7    7    9      4.00      0.00
    8    7    9      2.78      0.00
    9    7    9      0.41      0.00
   10    7    9      2.13      0.00
   11    7    9      0.81      0.00
   12    7    9     -1.26      0.00
  -13    6    9      0.35      0.00
  -12    6    9      1.53      0.00
  -11    6    9      3.19      0.00
  -10    6    9      1.31      0.00
   -9    6    9     -1.24      0.00
   -8    6    9     -4.05      0.00
   -7    6    9     -5.70      0.00
   -6    6    9      3.09      0.00
   -5    6    9     -2.91      0.00
   -4    6    9    -15.82      0.00
   -3    6    9     -8.44      0.00
   -2    6    9     15.19      0.00
   -1    6    9     27.35      0.00
    0    6    9     -4.06      0.00
    1    6    9    -12.93      0.00
    2    6    9     14.02      0.00
    3    6    9     14.56      0.00
    4    6    9     -4.52      0.00
    5    6    9    -19.38      0.00
    6    6    9     -6.97      0.00
    7    6    9      4.83      0.00
    8    6    9     -0.63      0.00
    9    6    9     -1.87      0.00
   10    6    9     -0.91      0.00
   11    6    9      3.86      0.00
   12    6    9      6.15      0.00
  -13    5    9      2.12      0.00
  -12    5    9      0.38      0.00
  -11    5    9     -3.07      0.00
  -10    5    9     -7.49      0.00
   -9    5    9     -8.53      0.00
   -8    5    9     -3.05      0.00
   -7    5    9     -2.02      0.00
   -6    5    9     -4.37      0.00
   -5    5    9      0.12      0.00
   -4    5    9     16.48      0.00
   -3    5    9     26.98      0.00
   -2    5    9     14.78      0.00
   -1    5    9     -0.17      0.00
    0    5    9     -4.80      0.00
    1    5    9     -8.78      0.00
    2    5    9    -10.87      0.00
    3    5    9    -16.46      0.00
    4    5    9    -16.38      0.00
    5    5    9     -8.07      0.00
    6    5    9      4.56      0.00
    7    5    9      9.97      0.00
    8    5    9      5.40      0.00
    9    5    9      3.64      0.00
   10    5    9      5.65      0.00
   11    5    9      4.75      0.00
   12    5    9     -1.83      0.00
  -13    4    9     -2.21      0.00
  -12    4    9     -4.38      0.00
  -11    4    9     -3.37      0.00
  -10    4    9     -2.65      0.00
   -9    4    9      1.41      0.00
   -8    4    9      0.60      0.00
   -7    4    9     -1.17      0.00
   -6    4    9     13.99      0.00
   -5    4    9     16.45      0.00
   -4    4    9     -0.21      0.00
   -3    4    9    -12.75      0.00
   -2    4    9     -4.63      0.00
   -1    4    9      9.92      0.00
    0    4    9    -22.06      0.00
    1    4    9    -29.25      0.00
    2    4    9      4.92      0.00
    3    4    9     13.16      0.00
    4    4    9      5.31      0.00
    5    4    9     -4.37      0.00
    6    4    9      9.46      0.00
    7    4    9     12.97      0.00
    8    4    9     -0.16      0.00
    9    4    9     -1.99      0.00
   10    4    9     -2.16      0.00
   11    4    9     -0.41      0.00
   12    4    9      1.21      0.00
  -13    3    9      0.31      0.00
  -12    3    9      0.05      0.00
  -11    3    9     -0.32      0.00
  -10    3    9     -1.86      0.00
   -9    3    9     -1.88      0.00
   -8    3    9     -2.48      0.00
   -7    3    9      1.97      0.00
   -6    3    9      2.22      0.00
   -5    3    9     -6.05      0.00
   -4    3    9      0.66      0.00
   -3    3    9     15.45      0.00
   -2    3    9     16.20      0.00
   -1    3    9     -7.41      0.00
    0    3    9    -17.23      0.00
    1    3    9      8.11      0.00
    2    3    9     10.16      0.00
    3    3    9     -8.14      0.00
    4    3    9    -15.79      0.00
    5    3    9     -4.17      0.00
    6    3    9     10.12      0.00
    7    3    9      3.45      0.00
    8    3    9     -1.70      0.00
    9    3    9      0.45      0.00
   10    3    9      2.78      0.00
   11    3    9      3.72      0.00
   12    3    9     -3.13      0.00
  -13    2    9     -2.97      0.00
  -12    2    9     -5.57      0.00
  -11    2    9     -5.00      0.00
  -10    2    9     -3.11      0.00
   -9    2    9      1.23      0.00
   -8    2    9      0.93      0.00
   -7    2    9      3.12      0.00
   -6    2    9     18.11      0.00
   -5    2    9     23.07      0.00
   -4    2    9      9.04      0.00
   -3    2    9    -10.37      0.00
   -2    2    9    -15.93      0.00
   -1    2    9     -4.76      0.00
    0    2    9    -20.75      0.00
    1    2    9    -25.30      0.00
    2    2    9     -4.97      0.00
    3    2    9      3.87      0.00
    4    2    9      9.11      0.00
    5    2    9      7.96      0.00
    6    2    9     16.12      0.00
    7    2    9     12.60      0.00
    8    2    9      0.05      0.00
    9    2    9     -1.38      0.00
   10    2    9     -1.48      0.00
   11    2    9     -1.65      0.00
   12    2    9     -1.50      0.00
  -13    1    9     -3.67      0.00
  -12    1    9     -0.84      0.00
  -11    1    9      2.64      0.00
  -10    1    9      4.82      0.00
   -9    1    9      4.74      0.00
   -8    1    9      2.61      0.00
   -7    1    9     12.20      0.00
   -6    1    9     10.54      0.00
   -5    1    9    -15.53      0.00
   -4    1    9    -26.22      0.00
   -3    1    9    -13.62      0.00
   -2    1    9      5.41      0.00
   -1    1    9    -10.08      0.00
    0    1    9    -22.12      0.00
    1    1    9     20.70      0.00
    2    1    9     29.24      0.00
    3    1    9     12.93      0.00
    4    1    9      0.60      0.00
    5    1    9      4.56      0.00
    6    1    9     10.31      0.00
    7    1    9     -9.01      0.00
    8    1    9    -11.81      0.00
    9    1    9     -4.67      0.00
   10    1    9     -1.76      0.00
   11    1    9     -0.03      0.00
   12    1    9     -4.79      0.00
   -4   19   10     -2.72      0.00
   -3   19   10     -1.23      0.00
   -2   19   10      1.97      0.00
   -1   19   10      2.61      0.00
    0   19   10     -0.10      0.00
    1   19   10     -2.16      0.00
    2   19   10     -2.74      0.00
    3   19   10      2.61      0.00
   -5   18   10     -1.34      0.00
   -4   18   10     -0.29      0.00
   -3   18   10      1.01      0.00
   -2   18   10     -0.84      0.00
   -1   18   10     -1.22      0.00
    0   18   10     -1.38      0.00
    1   18   10      0.15      0.00
    2   18   10      2.57      0.00
    3   18   10      2.15      0.00
    4   18   10     -1.88      0.00
   -7   17   10      1.44      0.00
   -6   17   10      4.60      0.00
   -5   17   10      0.95      0.00
   -4   17   10     -1.22      0.00
   -3   17   10     -1.12      0.00
   -2   17   10      2.28      0.00
   -1   17   10      3.00      0.00
    0   17   10      0.42      0.00
    1   17   10     -1.28      0.00
    2   17   10     -1.97      0.00
    3   17   10      2.32      0.00
    4   17   10      1.24      0.00
    5   17   10     -1.76      0.00
    6   17   10     -0.16      0.00
   -8   16   10      0.60      0.00
   -7   16   10      4.08      0.00
   -6   16   10      0.08      0.00
   -5   16   10     -4.65      0.00
   -4   16   10     -1.75      0.00
   -3   16   10      1.48      0.00
   -2   16   10     -1.14      0.00
   -1   16   10     -4.53      0.00
    0   16   10     -2.71      0.00
    1   16   10     -0.70      0.00
    2   16   10      4.02      0.00
    3   16   10      3.26      0.00
    4   16   10     -3.14      0.00
    5   16   10     -1.42      0.00
    6   16   10      1.53      0.00
    7   16   10      0.22      0.00
   -9   15   10     -0.48      0.00
   -8   15   10     -1.49      0.00
   -7   15   10     -0.89      0.00
   -6   15   10     -0.04      0.00
   -5   15   10      0.08      0.00
   -4   15   10      0.64      0.00
   -3   15   10     -2.19      0.00
   -2   15   10     -1.17      0.00
   -1   15   10      2.73      0.00
    0   15   10      2.15      0.00
    1   15   10      0.71      0.00
    2   15   10      0.41      0.00
    3   15   10      0.23      0.00
    4   15   10     -0.05      0.00
    5   15   10     -0.84      0.00
    6   15   10     -0.02      0.00
    7   15   10      1.11      0.00
    8   15   10      0.70      0.00
   -9   14   10     -0.07      0.00
   -8   14   10      1.22      0.00
   -7   14   10      5.81      0.00
   -6   14   10      1.69      0.00
   -5   14   10     -2.69      0.00
   -4   14   10     -2.22      0.00
   -3   14   10     -0.04      0.00
   -2   14   10     -0.67      0.00
   -1   14   10     -4.16      0.00
    0   14   10     -2.30      0.00
    1   14   10     -0.45      0.00
    2   14   10      4.34      0.00
    3   14   10      4.18      0.00
    4   14   10     -0.68      0.00
    5   14   10      0.05      0.00
    6   14   10      2.33      0.00
    7   14   10      0.94      0.00
    8   14   10     -2.55      0.00
  -10   13   10      2.35      0.00
   -9   13   10      0.33      0.00
   -8   13   10      0.47      0.00
   -7   13   10     -2.62      0.00
   -6   13   10     -3.30      0.00
   -5   13   10     -1.76      0.00
   -4   13   10     -2.14      0.00
   -3   13   10     -4.43      0.00
   -2   13   10     -2.65      0.00
   -1   13   10      5.28      0.00
    0   13   10      4.52      0.00
    1   13   10      3.46      0.00
    2   13   10      5.74      0.00
    3   13   10      0.92      0.00
    4   13   10     -1.69      0.00
    5   13   10     -3.88      0.00
    6   13   10     -2.02      0.00
    7   13   10     -0.52      0.00
    8   13   10     -0.77      0.00
    9   13   10      0.38      0.00
  -10   12   10      0.66      0.00
   -9   12   10     -4.61      0.00
   -8   12   10     -2.61      0.00
   -7   12   10      3.66      0.00
   -6   12   10      2.19      0.00
   -5   12   10     -3.51      0.00
   -4   12   10     -2.80      0.00
   -3   12   10      3.13      0.00
   -2   12   10      6.29      0.00
   -1   12   10      0.58      0.00
    0   12   10     -2.55      0.00
    1   12   10      1.37      0.00
    2   12   10      1.85      0.00
    3   12   10     -2.02      0.00
    4   12   10     -5.30      0.00
    5   12   10     -1.82      0.00
    6   12   10      4.88      0.00
    7   12   10      2.60      0.00
    8   12   10     -2.57      0.00
    9   12   10     -3.67      0.00
  -11   11   10      0.38      0.00
  -10   11   10     -1.66      0.00
   -9   11   10     -0.40      0.00
   -8   11   10      4.68      0.00
   -7   11   10     -0.93      0.00
   -6   11   10     -4.44      0.00
   -5   11   10     -2.91      0.00
   -4   11   10     -0.82      0.00
   -3   11   10     -1.27      0.00
   -2   11   10     -0.97      0.00
   -1   11   10      5.03      0.00
    0   11   10      2.49      0.00
    1   11   10      2.07      0.00
    2   11   10      5.82      0.00
    3   11   10      0.73      0.00
    4   11   10     -1.50      0.00
    5   11   10     -1.39      0.00
    6   11   10     -0.38      0.00
    7   11   10     -3.82      0.00
    8   11   10     -5.15      0.00
    9   11   10     -0.01      0.00
   10   11   10      4.25      0.00
  -11   10   10      0.62      0.00
  -10   10   10     -2.62      0.00
   -9   10   10     -4.74      0.00
   -8   10   10     -5.17      0.00
   -7   10   10     -0.95      0.00
   -6   10   10     -0.31      0.00
   -5   10   10     -5.53      0.00
   -4   10   10      0.95      0.00
   -3   10   10     11.67      0.00
   -2   10   10     15.44      0.00
   -1   10   10      2.48      0.00
    0   10   10     -6.22      0.00
    1   10   10      5.41      0.00
    2   10   10      1.08      0.00
    3   10   10    -10.32      0.00
    4   10   10    -12.40      0.00
    5   10   10     -4.66      0.00
    6   10   10      3.89      0.00
    7   10   10      0.28      0.00
    8   10   10      0.07      0.00
    9   10   10      3.80      0.00
   10   10   10      4.24      0.00
  -12    9   10     -2.13      0.00
  -11    9   10     -3.90      0.00
  -10    9   10     -6.28      0.00
   -9    9   10     -0.79      0.00
   -8    9   10      6.45      0.00
   -7    9   10      1.76      0.00
   -6    9   10     -2.42      0.00
   -5    9   10      4.77      0.00
   -4    9   10     12.24      0.00
   -3    9   10      4.88      0.00
   -2    9   10     -5.85      0.00
   -1    9   10     -6.95      0.00
    0    9   10     -3.93      0.00
    1    9   10     -3.60      0.00
    2    9   10     -6.14      0.00
    3    9   10     -5.58      0.00
    4    9   10      0.78      0.00
    5    9   10      7.04      0.00
    6    9   10      5.19      0.00
    7    9   10     -1.16      0.00
    8    9   10     -0.10      0.00
    9    9   10      3.11      0.00
   10    9   10      2.84      0.00
   11    9   10     -1.95      0.00
  -12    8   10     -0.91      0.00
  -11    8   10     -0.36      0.00
  -10    8   10     -0.78      0.00
   -9    8   10      2.28      0.00
   -8    8   10     -2.46      0.00
   -7    8   10     -1.35      0.00
   -6    8   10      1.20      0.00
   -5    8   10     -4.10      0.00
   -4    8   10     -2.48      0.00
   -3    8   10      4.68      0.00
   -2    8   10     11.34      0.00
   -1    8   10     -2.76      0.00
    0    8   10    -11.56      0.00
    1    8   10      8.84      0.00
    2    8   10      7.37      0.00
    3    8   10     -5.67      0.00
    4    8   10     -8.81      0.00
    5    8   10     -1.60      0.00
    6    8   10      3.56      0.00
    7    8   10     -1.79      0.00
    8    8   10     -0.12      0.00
    9    8   10      3.20      0.00
   10    8   10      1.52      0.00
   11    8   10      1.07      0.00
  -12    7   10     -2.59      0.00
  -11    7   10     -5.41      0.00
  -10    7   10     -4.87      0.00
   -9    7   10      0.01      0.00
   -8    7   10      3.59      0.00
   -7    7   10      2.32      0.00
   -6    7   10     -2.65      0.00
   -5    7   10      8.75      0.00
   -4    7   10     22.07      0.00
   -3    7   10     11.88      0.00
   -2    7   10    -10.86      0.00
   -1    7   10    -20.83      0.00
    0    7   10     -1.59      0.00
    1    7   10      1.92      0.00
    2    7   10    -16.96      0.00
    3    7   10    -15.73      0.00
    4    7   10      1.06      0.00
    5    7   10     14.94      0.00
    6    7   10      8.51      0.00
    7    7   10      0.06      0.00
    8    7   10      4.04      0.00
    9    7   10      4.70      0.00
   10    7   10      1.92      0.00
   11    7   10     -4.15      0.00
  -12    6   10     -2.68      0.00
  -11    6   10     -0.10      0.00
  -10    6   10      3.86      0.00
   -9    6   10      7.04      0.00
   -8    6   10      1.66      0.00
   -7    6   10      3.22      0.00
   -6    6   10      8.28      0.00
   -5    6   10      3.59      0.00
   -4    6   10     -9.44      0.00
   -3    6   10    -16.77      0.00
   -2    6   10     -8.89      0.00
   -1    6   10     -8.83      0.00
    0    6   10     -9.86      0.00
    1    6   10      4.86      0.00
    2    6   10      8.63      0.00
    3    6   10      8.83      0.00
    4    6   10      9.14      0.00
    5    6   10      8.89      0.00
    6    6   10      3.46      0.00
    7    6   10     -3.95      0.00
    8    6   10     -2.63      0.00
    9    6   10     -2.43      0.00
   10    6   10     -5.45      0.00
   11    6   10     -4.08      0.00
   12    6   10      0.58      0.00
  -13    5   10     -0.13      0.00
  -12    5   10      0.70      0.00
  -11    5   10     -0.16      0.00
  -10    5   10      1.25      0.00
   -9    5   10      0.92      0.00
   -8    5   10      1.95      0.00
   -7    5   10      3.03      0.00
   -6    5   10     -8.29      0.00
   -5    5   10     -5.30      0.00
   -4    5   10      8.91      0.00
   -3    5   10     10.27      0.00
   -2    5   10     -7.16      0.00
   -1    5   10    -19.21      0.00
    0    5   10     13.63      0.00
    1    5   10     20.67      0.00
    2    5   10     -9.72      0.00
    3    5   10    -13.82      0.00
    4    5   10      0.37      0.00
    5    5   10     12.57      0.00
    6    5   10     -0.88      0.00
    7    5   10     -8.32      0.00
    8    5   10      0.49      0.00
    9    5   10      1.48      0.00
   10    5   10      1.08      0.00
   11    5   10     -2.11      0.00
   12    5   10     -4.11      0.00
  -13    4   10     -2.15      0.00
  -12    4   10     -1.58      0.00
  -11    4   10      0.71      0.00
  -10    4   10      4.51      0.00
   -9    4   10      4.96      0.00
   -8    4   10      3.52      0.00
   -7    4   10      3.58      0.00
   -6    4   10      7.12      0.00
   -5    4   10      8.79      0.00
   -4    4   10     -6.15      0.00
   -3    4   10    -23.05      0.00
   -2    4   10    -20.27      0.00
   -1    4   10     -2.37      0.00
    0    4   10      4.49      0.00
    1    4   10     -5.12      0.00
    2    4   10     -2.75      0.00
    3    4   10     13.47      0.00
    4    4   10     20.49      0.00
    5    4   10     11.19      0.00
    6    4   10     -3.00      0.00
    7    4   10     -4.08      0.00
    8    4   10     -0.88      0.00
    9    4   10     -2.58      0.00
   10    4   10     -5.77      0.00
   11    4   10     -5.77      0.00
   12    4   10      1.46      0.00
  -13    3   10      1.21      0.00
  -12    3   10      4.70      0.00
  -11    3   10      5.62      0.00
  -10    3   10      5.08      0.00
   -9    3   10      1.47      0.00
   -8    3   10      3.27      0.00
   -7    3   10      2.26      0.00
   -6    3   10    -15.66      0.00
   -5    3   10    -23.50      0.00
   -4    3   10    -12.56      0.00
   -3    3   10      2.22      0.00
   -2    3   10      2.92      0.00
   -1    3   10     -4.41      0.00
    0    3   10     23.34      0.00
    1    3   10     30.87      0.00
    2    3   10      7.72      0.00
    3    3   10      0.96      0.00
    4    3   10     -0.14      0.00
    5    3   10      0.32      0.00
    6    3   10    -14.59      0.00
    7    3   10    -15.29      0.00
    8    3   10     -2.92      0.00
    9    3   10     -1.70      0.00
   10    3   10     -0.81      0.00
   11    3   10     -0.06      0.00
   12    3   10      0.08      0.00
  -13    2   10      2.15      0.00
  -12    2   10      1.61      0.00
  -11    2   10     -0.06      0.00
  -10    2   10     -0.87      0.00
   -9    2   10     -1.16      0.00
   -8    2   10     -0.36      0.00
   -7    2   10     -8.49      0.00
   -6    2   10     -8.18      0.00
   -5    2   10      8.30      0.00
   -4    2   10     10.77      0.00
   -3    2   10     -0.92      0.00
   -2    2   10     -8.06      0.00
   -1    2   10     12.60      0.00
    0    2   10     21.63      0.00
    1    2   10    -12.06      0.00
    2    2   10    -17.36      0.00
    3    2   10     -1.96      0.00
    4    2   10      5.85      0.00
    5    2   10     -3.35      0.00
    6    2   10    -11.99      0.00
    7    2   10      2.01      0.00
    8    2   10      5.72      0.00
    9    2   10      1.21      0.00
   10    2   10     -0.61      0.00
   11    2   10     -1.11      0.00
   12    2   10      4.58      0.00
  -13    1   10      0.26      0.00
  -12    1   10      2.00      0.00
  -11    1   10      2.76      0.00
  -10    1   10      2.53      0.00
   -9    1   10      1.17      0.00
   -8    1   10      2.49      0.00
   -7    1   10      0.57      0.00
   -6    1   10     -9.55      0.00
   -5    1   10    -15.04      0.00
   -4    1   10    -10.31      0.00
   -3    1   10     -0.85      0.00
   -2    1   10      3.56      0.00
   -1    1   10      0.81      0.00
    0    1   10     10.45      0.00
    1    1   10     14.05      0.00
    2    1   10      7.04      0.00
    3    1   10      4.16      0.00
    4    1   10     -0.06      0.00
    5    1   10     -2.55      0.00
    6    1   10     -8.96      0.00
    7    1   10     -7.97      0.00
    8    1   10     -2.25      0.00
    9    1   10     -1.42      0.00
   10    1   10     -0.37      0.00
   11    1   10      0.60      0.00
   12    1   10      0.45      0.00
  -13    0   10      4.87      0.00
  -12    0   10      3.79      0.00
  -11    0   10      0.60      0.00
  -10    0   10     -2.54      0.00
   -9    0   10     -3.13      0.00
   -8    0   10     -3.78      0.00
   -7    0   10    -18.17      0.00
   -6    0   10    -18.67      0.00
   -5    0   10      7.64      0.00
   -4    0   10     22.00      0.00
   -3    0   10     15.24      0.00
   -2    0   10      1.87      0.00
   -1    0   10     19.19      0.00
    0    0   10     29.07      0.00
    1    0   10    -12.41      0.00
    2    0   10    -21.92      0.00
    3    0   10    -12.06      0.00
    4    0   10     -6.04      0.00
    5    0   10    -12.80      0.00
    6    0   10    -16.24      0.00
    7    0   10      5.38      0.00
    8    0   10      9.33      0.00
    9    0   10      4.14      0.00
   10    0   10      2.69      0.00
   11    0   10      1.05      0.00
   12    0   10      4.79      0.00
   -3   19   11     -0.02      0.00
   -2   19   11      1.41      0.00
   -1   19   11      0.77      0.00
    0   19   11      1.51      0.00
    1   19   11     -0.36      0.00
    2   19   11     -1.73      0.00
   -5   18   11     -0.56      0.00
   -4   18   11      1.93      0.00
   -3   18   11      1.25      0.00
   -2   18   11     -2.13      0.00
   -1   18   11     -3.46      0.00
    0   18   11     -0.17      0.00
    1   18   11      2.18      0.00
    2   18   11      2.54      0.00
    3   18   11     -2.84      0.00
    4   18   11     -1.74      0.00
   -6   17   11     -0.69      0.00
   -5   17   11      2.70      0.00
   -4   17   11      0.64      0.00
   -3   17   11     -1.45      0.00
   -2   17   11      0.18      0.00
   -1   17   11      3.09      0.00
    0   17   11      3.66      0.00
    1   17   11      0.76      0.00
    2   17   11     -3.49      0.00
    3   17   11     -3.01      0.00
    4   17   11      3.04      0.00
    5   17   11      2.33      0.00
   -7   16   11     -0.39      0.00
   -6   16   11     -1.62      0.00
   -5   16   11      0.58      0.00
   -4   16   11      0.13      0.00
   -3   16   11      1.01      0.00
   -2   16   11     -0.73      0.00
   -1   16   11     -2.31      0.00
    0   16   11     -1.40      0.00
    1   16   11     -0.17      0.00
    2   16   11      0.86      0.00
    3   16   11     -0.69      0.00
    4   16   11      0.73      0.00
    5   16   11      1.30      0.00
    6   16   11     -0.52      0.00
   -8   15   11     -1.03      0.00
   -7   15   11     -4.67      0.00
   -6   15   11     -0.72      0.00
   -5   15   11      2.07      0.00
   -4   15   11     -0.46      0.00
   -3   15   11     -1.79      0.00
   -2   15   11      0.52      0.00
   -1   15   11      4.71      0.00
    0   15   11      3.35      0.00
    1   15   11      1.56      0.00
    2   15   11     -3.28      0.00
    3   15   11     -3.11      0.00
    4   15   11      1.66      0.00
    5   15   11     -0.10      0.00
    6   15   11     -1.84      0.00
    7   15   11     -0.40      0.00
   -9   14   11      0.08      0.00
   -8   14   11      0.41      0.00
   -7   14   11      1.22      0.00
   -6   14   11      1.47      0.00
   -5   14   11      0.66      0.00
   -4   14   11      0.86      0.00
   -3   14   11      4.23      0.00
   -2   14   11      3.61      0.00
   -1   14   11     -1.70      0.00
    0   14   11     -2.36      0.00
    1   14   11     -1.91      0.00
    2   14   11     -3.06      0.00
    3   14   11     -0.93      0.00
    4   14   11      0.64      0.00
    5   14   11      2.07      0.00
    6   14   11      0.86      0.00
    7   14   11     -0.52      0.00
    8   14   11     -0.62      0.00
  -10   13   11     -2.53      0.00
   -9   13   11      1.79      0.00
   -8   13   11      0.49      0.00
   -7   13   11     -4.09      0.00
   -6   13   11     -1.39      0.00
   -5   13   11      1.68      0.00
   -4   13   11      1.47      0.00
   -3   13   11     -0.36      0.00
   -2   13   11     -0.83      0.00
   -1   13   11      2.62      0.00
    0   13   11      2.00      0.00
    1   13   11     -0.03      0.00
    2   13   11     -2.74      0.00
    3   13   11     -1.36      0.00
    4   13   11      1.90      0.00
    5   13   11     -0.25      0.00
    6   13   11     -3.85      0.00
    7   13   11     -2.45      0.00
    8   13   11      2.01      0.00
    9   13   11      3.79      0.00
  -10   12   11     -1.74      0.00
   -9   12   11     -0.56      0.00
   -8   12   11     -3.31      0.00
   -7   12   11      0.38      0.00
   -6   12   11      1.99      0.00
   -5   12   11      1.76      0.00
   -4   12   11      3.84      0.00
   -3   12   11      5.97      0.00
   -2   12   11      3.87      0.00
   -1   12   11     -4.05      0.00
    0   12   11     -3.05      0.00
    1   12   11     -3.29      0.00
    2   12   11     -7.80      0.00
    3   12   11     -3.42      0.00
    4   12   11     -0.43      0.00
    5   12   11      2.18      0.00
    6   12   11      1.13      0.00
    7   12   11      2.28      0.00
    8   12   11      4.03      0.00
    9   12   11      1.34      0.00
  -11   11   11     -2.55      0.00
  -10   11   11     -0.06      0.00
   -9   11   11      4.16      0.00
   -8   11   11      3.36      0.00
   -7   11   11     -0.61      0.00
   -6   11   11      1.18      0.00
   -5   11   11      6.81      0.00
   -4   11   11      3.15      0.00
   -3   11   11     -5.51      0.00
   -2   11   11     -9.65      0.00
   -1   11   11     -2.61      0.00
    0   11   11      0.86      0.00
    1   11   11     -6.44      0.00
    2   11   11     -3.11      0.00
    3   11   11      5.65      0.00
    4   11   11      9.21      0.00
    5   11   11      4.16      0.00
    6   11   11     -3.40      0.00
    7   11   11     -0.76      0.00
    8   11   11      1.82      0.00
    9   11   11      0.55      0.00
   10   11   11     -1.42      0.00
  -11   10   11      0.72      0.00
  -10   10   11      4.11      0.00
   -9   10   11      1.47      0.00
   -8   10   11     -5.03      0.00
   -7   10   11     -0.03      0.00
   -6   10   11      3.02      0.00
   -5   10   11     -0.57      0.00
   -4   10   11     -3.82      0.00
   -3   10   11     -0.51      0.00
   -2   10   11      2.43      0.00
   -1   10   11     -1.59      0.00
    0   10   11     -0.32      0.00
    1   10   11      1.42      0.00
    2   10   11      0.49      0.00
    3   10   11      2.08      0.00
    4   10   11     -0.13      0.00
    5   10   11     -2.71      0.00
    6   10   11     -2.40      0.00
    7   10   11      2.82      0.00
    8   10   11      4.04      0.00
    9   10   11     -0.20      0.00
   10   10   11     -3.21      0.00
  -11    9   11     -0.61      0.00
  -10    9   11      1.57      0.00
   -9    9   11      0.25      0.00
   -8    9   11      2.62      0.00
   -7    9   11      1.79      0.00
   -6    9   11      2.62      0.00
   -5    9   11      8.85      0.00
   -4    9   11      3.12      0.00
   -3    9   11     -8.11      0.00
   -2    9   11    -14.45      0.00
   -1    9   11     -1.69      0.00
    0    9   11      5.66      0.00
    1    9   11    -10.51      0.00
    2    9   11     -6.55      0.00
    3    9   11      6.80      0.00
    4    9   11     10.91      0.00
    5    9   11      4.88      0.00
    6    9   11     -1.08      0.00
    7    9   11      3.62      0.00
    8    9   11      1.60      0.00
    9    9   11     -3.83      0.00
   10    9   11     -4.46      0.00
  -12    8   11      1.64      0.00
  -11    8   11      4.32      0.00
  -10    8   11      6.24      0.00
   -9    8   11      1.81      0.00
   -8    8   11     -2.13      0.00
   -7    8   11      1.72      0.00
   -6    8   11      4.63      0.00
   -5    8   11     -7.35      0.00
   -4    8   11    -19.64      0.00
   -3    8   11    -12.07      0.00
   -2    8   11      3.18      0.00
   -1    8   11      8.02      0.00
    0    8   11     -0.03      0.00
    1    8   11      2.27      0.00
    2    8   11     14.72      0.00
    3    8   11     13.99      0.00
    4    8   11      2.53      0.00
    5    8   11     -7.54      0.00
    6    8   11     -5.12      0.00
    7    8   11     -0.27      0.00
    8    8   11     -4.35      0.00
    9    8   11     -6.60      0.00
   10    8   11     -4.20      0.00
   11    8   11      2.07      0.00
  -12    7   11      2.24      0.00
  -11    7   11      1.38      0.00
  -10    7   11      0.23      0.00
   -9    7   11     -3.87      0.00
   -8    7   11      0.28      0.00
   -7    7   11     -1.60      0.00
   -6    7   11     -5.42      0.00
   -5    7   11     -0.75      0.00
   -4    7   11      4.15      0.00
   -3    7   11      3.75      0.00
   -2    7   11     -2.60      0.00
   -1    7   11      7.26      0.00
    0    7   11     13.55      0.00
    1    7   11     -4.21      0.00
    2    7   11     -6.30      0.00
    3    7   11     -0.80      0.00
    4    7   11      0.63      0.00
    5    7   11     -3.47      0.00
    6    7   11     -4.48      0.00
    7    7   11      1.48      0.00
    8    7   11      0.24      0.00
    9    7   11     -0.77      0.00
   10    7   11      2.02      0.00
   11    7   11      1.18      0.00
  -12    6   11      1.38      0.00
  -11    6   11      3.77      0.00
  -10    6   11      2.49      0.00
   -9    6   11     -0.23      0.00
   -8    6   11     -0.92      0.00
   -7    6   11      0.50      0.00
   -6    6   11      7.46      0.00
   -5    6   11     -2.95      0.00
   -4    6   11    -18.65      0.00
   -3    6   11    -14.69      0.00
   -2    6   11      6.05      0.00
   -1    6   11     17.20      0.00
    0    6   11     -7.39      0.00
    1    6   11    -10.01      0.00
    2    6   11     16.00      0.00
    3    6   11     18.42      0.00
    4    6   11      2.71      0.00
    5    6   11    -11.45      0.00
    6    6   11     -3.34      0.00
    7    6   11      3.03      0.00
    8    6   11     -3.70      0.00
    9    6   11     -4.55      0.00
   10    6   11     -2.92      0.00
   11    6   11      2.11      0.00
  -13    5   11      3.08      0.00
  -12    5   11      3.83      0.00
  -11    5   11      1.64      0.00
  -10    5   11     -2.69      0.00
   -9    5   11     -4.43      0.00
   -8    5   11     -1.65      0.00
   -7    5   11     -5.13      0.00
   -6    5   11    -12.81      0.00
   -5    5   11    -13.37      0.00
   -4    5   11      1.63      0.00
   -3    5   11     16.75      0.00
   -2    5   11     15.38      0.00
   -1    5   11     10.53      0.00
    0    5   11      9.89      0.00
    1    5   11      7.77      0.00
    2    5   11      3.51      0.00
    3    5   11     -8.19      0.00
    4    5   11    -15.68      0.00
    5    5   11    -13.65      0.00
    6    5   11     -4.78      0.00
    7    5   11      0.20      0.00
    8    5   11     -0.98      0.00
    9    5   11      1.13      0.00
   10    5   11      5.81      0.00
   11    5   11      6.00      0.00
   12    5   11      0.38      0.00
  -13    4   11      0.84      0.00
  -12    4   11     -1.91      0.00
  -11    4   11     -2.72      0.00
  -10    4   11     -3.76      0.00
   -9    4   11     -2.60      0.00
   -8    4   11     -4.80      0.00
   -7    4   11     -5.03      0.00
   -6    4   11      9.52      0.00
   -5    4   11     13.04      0.00
   -4    4   11      4.00      0.00
   -3    4   11     -1.31      0.00
   -2    4   11      8.16      0.00
   -1    4   11     15.42      0.00
    0    4   11    -16.95      0.00
    1    4   11    -25.04      0.00
    2    4   11     -1.28      0.00
    3    4   11      1.98      0.00
    4    4   11     -4.79      0.00
    5    4   11     -9.12      0.00
    6    4   11      7.02      0.00
    7    4   11     11.55      0.00
    8    4   11      1.81      0.00
    9    4   11      1.82      0.00
   10    4   11      2.01      0.00
   11    4   11      2.58      0.00
   12    4   11      2.49      0.00
  -13    3   11     -0.06      0.00
  -12    3   11      0.13      0.00
  -11    3   11      0.13      0.00
  -10    3   11     -1.66      0.00
   -9    3   11     -1.58      0.00
   -8    3   11     -1.56      0.00
   -7    3   11      1.01      0.00
   -6    3   11     -2.75      0.00
   -5    3   11    -11.56      0.00
   -4    3   11     -3.72      0.00
   -3    3   11     11.68      0.00
   -2    3   11     14.20      0.00
   -1    3   11     -4.57      0.00
    0    3   11    -10.85      0.00
    1    3   11     10.97      0.00
    2    3   11     11.89      0.00
    3    3   11     -5.22      0.00
    4    3   11    -13.82      0.00
    5    3   11     -4.92      0.00
    6    3   11      5.80      0.00
    7    3   11     -0.45      0.00
    8    3   11     -2.93      0.00
    9    3   11      1.22      0.00
   10    3   11      4.05      0.00
   11    3   11      3.65      0.00
   12    3   11     -3.24      0.00
  -13    2   11      1.02      0.00
  -12    2   11     -1.85      0.00
  -11    2   11     -3.98      0.00
  -10    2   11     -4.35      0.00
   -9    2   11     -3.12      0.00
   -8    2   11     -7.28      0.00
   -7    2   11     -6.59      0.00
   -6    2   11      9.19      0.00
   -5    2   11     20.07      0.00
   -4    2   11     17.35      0.00
   -3    2   11      7.86      0.00
   -2    2   11      5.06      0.00
   -1    2   11      7.10      0.00
    0    2   11    -13.63      0.00
    1    2   11    -21.14      0.00
    2    2   11    -11.31      0.00
    3    2   11    -10.64      0.00
    4    2   11     -7.83      0.00
    5    2   11     -3.29      0.00
    6    2   11     10.45      0.00
    7    2   11     11.69      0.00
    8    2   11      4.44      0.00
    9    2   11      4.49      0.00
   10    2   11      2.88      0.00
   11    2   11      0.42      0.00
   12    2   11     -0.19      0.00
  -13    1   11     -3.59      0.00
  -12    1   11     -4.16      0.00
  -11    1   11     -2.07      0.00
  -10    1   11     -0.09      0.00
   -9    1   11     -0.18      0.00
   -8    1   11      0.98      0.00
   -7    1   11     15.56      0.00
   -6    1   11     18.45      0.00
   -5    1   11     -0.54      0.00
   -4    1   11     -9.80      0.00
   -3    1   11     -4.59      0.00
   -2    1   11      0.70      0.00
   -1    1   11    -20.85      0.00
    0    1   11    -29.84      0.00
    1    1   11      5.31      0.00
    2    1   11     11.75      0.00
    3    1   11      2.80      0.00
    4    1   11      1.21      0.00
    5    1   11     12.51      0.00
    6    1   11     17.82      0.00
    7    1   11     -0.30      0.00
    8    1   11     -4.13      0.00
    9    1   11     -0.67      0.00
   10    1   11     -0.85      0.00
   11    1   11     -0.65      0.00
   12    1   11     -4.58      0.00
  -12    9   11     -0.09      0.00
   -2   19   12      1.14      0.00
   -1   19   12      3.59      0.00
    0   19   12     -0.24      0.00
    1   19   12     -3.22      0.00
   -5   18   12     -1.01      0.00
   -4   18   12      0.12      0.00
   -3   18   12      0.80      0.00
   -2   18   12     -0.12      0.00
   -1   18   12     -1.91      0.00
    0   18   12     -3.92      0.00
    1   18   12     -0.74      0.00
    2   18   12      2.63      0.00
    3   18   12      3.10      0.00
   -6   17   12      2.60      0.00
   -5   17   12     -0.68      0.00
   -4   17   12     -1.15      0.00
   -3   17   12     -1.20      0.00
   -2   17   12      1.26      0.00
   -1   17   12      2.92      0.00
    0   17   12      0.82      0.00
    1   17   12     -0.96      0.00
    2   17   12     -1.41      0.00
    3   17   12      2.09      0.00
    4   17   12     -0.09      0.00
    5   17   12     -2.10      0.00
   -7   16   12      3.30      0.00
   -6   16   12      0.75      0.00
   -5   16   12     -1.65      0.00
   -4   16   12      1.02      0.00
   -3   16   12      2.37      0.00
   -2   16   12      1.06      0.00
   -1   16   12     -3.48      0.00
    0   16   12     -4.59      0.00
    1   16   12     -1.79      0.00
    2   16   12      3.09      0.00
    3   16   12      2.74      0.00
    4   16   12     -2.86      0.00
    5   16   12     -1.60      0.00
    6   16   12      0.95      0.00
   -8   15   12     -1.17      0.00
   -7   15   12      0.04      0.00
   -6   15   12     -0.16      0.00
   -5   15   12     -1.32      0.00
   -4   15   12     -0.39      0.00
   -3   15   12     -2.03      0.00
   -2   15   12     -1.56      0.00
   -1   15   12      0.46      0.00
    0   15   12      1.24      0.00
    1   15   12      1.18      0.00
    2   15   12      0.94      0.00
    3   15   12      0.16      0.00
    4   15   12     -1.94      0.00
    5   15   12     -1.61      0.00
    6   15   12      0.62      0.00
    7   15   12      1.10      0.00
   -9   14   12     -0.70      0.00
   -8   14   12      0.06      0.00
   -7   14   12      3.18      0.00
   -6   14   12     -0.13      0.00
   -5   14   12     -0.56      0.00
   -4   14   12      1.91      0.00
   -3   14   12      1.89      0.00
   -2   14   12     -0.12      0.00
   -1   14   12     -3.95      0.00
    0   14   12     -2.76      0.00
    1   14   12     -1.80      0.00
    2   14   12      1.65      0.00
    3   14   12      1.22      0.00
    4   14   12     -1.28      0.00
    5   14   12      1.44      0.00
    6   14   12      2.88      0.00
    7   14   12      1.34      0.00
    8   14   12     -1.64      0.00
   -9   13   12      0.45      0.00
   -8   13   12      1.48      0.00
   -7   13   12      0.20      0.00
   -6   13   12      0.34      0.00
   -5   13   12      0.84      0.00
   -4   13   12     -2.05      0.00
   -3   13   12     -6.00      0.00
   -2   13   12     -5.10      0.00
   -1   13   12      0.82      0.00
    0   13   12      1.10      0.00
    1   13   12      1.86      0.00
    2   13   12      5.81      0.00
    3   13   12      3.51      0.00
    4   13   12      1.27      0.00
    5   13   12     -1.66      0.00
    6   13   12     -0.87      0.00
    7   13   12     -0.66      0.00
    8   13   12     -1.53      0.00
  -10   12   12      2.11      0.00
   -9   12   12     -2.57      0.00
   -8   12   12     -1.36      0.00
   -7   12   12      2.34      0.00
   -6   12   12     -0.40      0.00
   -5   12   12     -4.01      0.00
   -4   12   12     -2.55      0.00
   -3   12   12      1.21      0.00
   -2   12   12      2.67      0.00
   -1   12   12     -1.04      0.00
    0   12   12     -0.30      0.00
    1   12   12      4.02      0.00
    2   12   12      3.45      0.00
    3   12   12     -1.64      0.00
    4   12   12     -5.09      0.00
    5   12   12     -1.74      0.00
    6   12   12      3.59      0.00
    7   12   12      2.23      0.00
    8   12   12     -1.22      0.00
    9   12   12     -2.59      0.00
  -11   11   12      2.24      0.00
  -10   11   12     -0.55      0.00
   -9   11   12     -0.58      0.00
   -8   11   12      4.48      0.00
   -7   11   12      0.90      0.00
   -6   11   12     -0.35      0.00
   -5   11   12      0.36      0.00
   -4   11   12     -2.05      0.00
   -3   11   12     -5.58      0.00
   -2   11   12     -4.64      0.00
   -1   11   12      2.58      0.00
    0   11   12      1.06      0.00
    1   11   12      0.33      0.00
    2   11   12      4.40      0.00
    3   11   12      2.28      0.00
    4   11   12      1.94      0.00
    5   11   12      1.15      0.00
    6   11   12      1.66      0.00
    7   11   12     -2.19      0.00
    8   11   12     -5.72      0.00
    9   11   12     -3.12      0.00
  -11   10   12      2.46      0.00
  -10   10   12      0.12      0.00
   -9   10   12     -0.80      0.00
   -8   10   12     -1.07      0.00
   -7   10   12      0.01      0.00
   -6   10   12     -3.61      0.00
   -5   10   12    -11.16      0.00
   -4   10   12     -6.41      0.00
   -3   10   12      4.42      0.00
   -2   10   12     10.40      0.00
   -1   10   12      2.41      0.00
    0   10   12     -0.25      0.00
    1   10   12     12.23      0.00
    2   10   12      7.95      0.00
    3   10   12     -4.00      0.00
    4   10   12     -9.22      0.00
    5   10   12     -5.06      0.00
    6   10   12      0.50      0.00
    7   10   12     -4.22      0.00
    8   10   12     -4.06      0.00
    9   10   12      0.69      0.00
   10   10   12      3.32      0.00
  -11    9   12     -1.28      0.00
  -10    9   12     -5.02      0.00
   -9    9   12     -2.40      0.00
   -8    9   12      2.06      0.00
   -7    9   12     -2.94      0.00
   -6    9   12     -5.05      0.00
   -5    9   12      3.08      0.00
   -4    9   12     10.61      0.00
   -3    9   12      6.05      0.00
   -2    9   12     -0.52      0.00
   -1    9   12      1.29      0.00
    0    9   12      3.18      0.00
    1    9   12     -1.60      0.00
    2    9   12     -8.33      0.00
    3    9   12     -8.96      0.00
    4    9   12     -2.63      0.00
    5    9   12      3.08      0.00
    6    9   12      2.36      0.00
    7    9   12     -1.56      0.00
    8    9   12      0.38      0.00
    9    9   12      3.93      0.00
   10    9   12      4.13      0.00
  -12    8   12     -0.57      0.00
  -11    8   12     -0.43      0.00
  -10    8   12     -1.73      0.00
   -9    8   12      2.15      0.00
   -8    8   12     -0.25      0.00
   -7    8   12      0.50      0.00
   -6    8   12      0.23      0.00
   -5    8   12     -6.46      0.00
   -4    8   12     -5.20      0.00
   -3    8   12      2.19      0.00
   -2    8   12      9.37      0.00
   -1    8   12     -2.28      0.00
    0    8   12     -9.00      0.00
    1    8   12      8.14      0.00
    2    8   12      7.55      0.00
    3    8   12     -1.74      0.00
    4    8   12     -5.60      0.00
    5    8   12     -1.39      0.00
    6    8   12      1.80      0.00
    7    8   12     -3.94      0.00
    8    8   12     -2.06      0.00
    9    8   12      1.71      0.00
   10    8   12      1.28      0.00
   11    8   12      1.79      0.00
  -12    7   12     -0.88      0.00
  -11    7   12     -3.77      0.00
  -10    7   12     -4.19      0.00
   -9    7   12     -0.81      0.00
   -8    7   12     -0.77      0.00
   -7    7   12     -5.44      0.00
   -6    7   12    -10.05      0.00
   -5    7   12      3.44      0.00
   -4    7   12     19.57      0.00
   -3    7   12     15.80      0.00
   -2    7   12     -0.14      0.00
   -1    7   12     -6.71      0.00
    0    7   12      8.01      0.00
    1    7   12      5.17      0.00
    2    7   12    -15.87      0.00
    3    7   12    -18.64      0.00
    4    7   12     -6.66      0.00
    5    7   12      5.20      0.00
    6    7   12      1.41      0.00
    7    7   12     -2.03      0.00
    8    7   12      4.87      0.00
    9    7   12      7.34      0.00
   10    7   12      5.63      0.00
   11    7   12     -0.25      0.00
  -12    6   12     -3.39      0.00
  -11    6   12     -2.66      0.00
  -10    6   12     -0.71      0.00
   -9    6   12      1.88      0.00
   -8    6   12     -1.23      0.00
   -7    6   12      2.91      0.00
   -6    6   12     10.48      0.00
   -5    6   12     10.45      0.00
   -4    6   12      1.92      0.00
   -3    6   12     -5.14      0.00
   -2    6   12     -2.93      0.00
   -1    6   12     -9.12      0.00
    0    6   12    -14.89      0.00
    1    6   12     -6.53      0.00
    2    6   12     -3.55      0.00
    3    6   12      0.67      0.00
    4    6   12      5.35      0.00
    5    6   12      8.71      0.00
    6    6   12      6.71      0.00
    7    6   12      1.91      0.00
    8    6   12      3.06      0.00
    9    6   12      1.86      0.00
   10    6   12     -2.94      0.00
   11    6   12     -3.28      0.00
  -12    5   12     -0.17      0.00
  -11    5   12     -1.48      0.00
  -10    5   12     -0.15      0.00
   -9    5   12      1.51      0.00
   -8    5   12      2.55      0.00
   -7    5   12      1.26      0.00
   -6    5   12     -8.72      0.00
   -5    5   12     -3.65      0.00
   -4    5   12      8.32      0.00
   -3    5   12      8.02      0.00
   -2    5   12     -8.02      0.00
   -1    5   12    -16.67      0.00
    0    5   12     11.61      0.00
    1    5   12     16.14      0.00
    2    5   12     -7.97      0.00
    3    5   12    -10.73      0.00
    4    5   12      0.59      0.00
    5    5   12      9.97      0.00
    6    5   12     -1.68      0.00
    7    5   12     -6.58      0.00
    8    5   12      1.39      0.00
    9    5   12      1.40      0.00
   10    5   12      0.31      0.00
   11    5   12     -2.36      0.00
  -13    4   12     -1.56      0.00
  -12    4   12     -2.96      0.00
  -11    4   12     -2.48      0.00
  -10    4   12      1.00      0.00
   -9    4   12      1.26      0.00
   -8    4   12     -0.29      0.00
   -7    4   12      2.16      0.00
   -6    4   12     11.32      0.00
   -5    4   12     18.24      0.00
   -4    4   12      6.76      0.00
   -3    4   12     -9.65      0.00
   -2    4   12    -12.42      0.00
   -1    4   12     -3.61      0.00
    0    4   12     -3.17      0.00
    1    4   12    -14.80      0.00
    2    4   12    -13.94      0.00
    3    4   12      1.93      0.00
    4    4   12     13.18      0.00
    5    4   12     10.51      0.00
    6    4   12      2.14      0.00
    7    4   12      2.85      0.00
    8    4   12      4.37      0.00
    9    4   12      0.49      0.00
   10    4   12     -4.40      0.00
   11    4   12     -5.07      0.00
  -13    3   12     -2.30      0.00
  -12    3   12      0.62      0.00
  -11    3   12      2.84      0.00
  -10    3   12      3.81      0.00
   -9    3   12      3.56      0.00
   -8    3   12      8.92      0.00
   -7    3   12     10.49      0.00
   -6    3   12     -3.67      0.00
   -5    3   12    -12.62      0.00
   -4    3   12    -11.67      0.00
   -3    3   12     -8.61      0.00
   -2    3   12    -14.19      0.00
   -1    3   12    -17.80      0.00
    0    3   12      9.50      0.00
    1    3   12     18.30      0.00
    2    3   12      6.28      0.00
    3    3   12      9.25      0.00
    4    3   12     13.08      0.00
    5    3   12     11.05      0.00
    6    3   12     -5.87      0.00
    7    3   12     -9.55      0.00
    8    3   12     -2.70      0.00
    9    3   12     -4.55      0.00
   10    3   12     -4.80      0.00
   11    3   12     -3.15      0.00
   12    3   12     -1.71      0.00
  -13    2   12      2.03      0.00
  -12    2   12      2.54      0.00
  -11    2   12      1.18      0.00
  -10    2   12      1.39      0.00
   -9    2   12      1.92      0.00
   -8    2   12      1.26      0.00
   -7    2   12     -7.51      0.00
   -6    2   12     -7.38      0.00
   -5    2   12      4.25      0.00
   -4    2   12      3.43      0.00
   -3    2   12     -5.85      0.00
   -2    2   12     -7.41      0.00
   -1    2   12     13.99      0.00
    0    2   12     20.99      0.00
    1    2   12     -5.90      0.00
    2    2   12     -8.32      0.00
    3    2   12      3.84      0.00
    4    2   12      6.79      0.00
    5    2   12     -4.83      0.00
    6    2   12    -12.32      0.00
    7    2   12     -0.41      0.00
    8    2   12      2.00      0.00
    9    2   12     -2.11      0.00
   10    2   12     -2.88      0.00
   11    2   12     -1.54      0.00
   12    2   12      4.22      0.00
  -13    1   12     -1.35      0.00
  -12    1   12     -0.31      0.00
  -11    1   12      1.21      0.00
  -10    1   12      1.69      0.00
   -9    1   12      1.86      0.00
   -8    1   12      5.91      0.00
   -7    1   12      7.09      0.00
   -6    1   12     -0.72      0.00
   -5    1   12     -8.24      0.00
   -4    1   12     -9.99      0.00
   -3    1   12     -7.34      0.00
   -2    1   12     -6.72      0.00
   -1    1   12     -7.32      0.00
    0    1   12      3.05      0.00
    1    1   12      7.33      0.00
    2    1   12      5.37      0.00
    3    1   12      8.27      0.00
    4    1   12      7.99      0.00
    5    1   12      4.70      0.00
    6    1   12     -3.05      0.00
    7    1   12     -4.34      0.00
    8    1   12     -2.42      0.00
    9    1   12     -3.63      0.00
   10    1   12     -2.51      0.00
   11    1   12     -0.04      0.00
   12    1   12      0.63      0.00
  -13    0   12      2.55      0.00
  -12    0   12      4.47      0.00
  -11    0   12      3.04      0.00
  -10    0   12      1.74      0.00
   -9    0   12      3.50      0.00
   -8    0   12      2.13      0.00
   -7    0   12    -15.21      0.00
   -6    0   12    -22.04      0.00
   -5    0   12     -7.85      0.00
   -4    0   12      0.33      0.00
   -3    0   12     -1.75      0.00
   -2    0   12     -2.32      0.00
   -1    0   12     22.08      0.00
    0    0   12     31.91      0.00
    1    0   12      1.20      0.00
    2    0   12     -2.04      0.00
    3    0   12      4.68      0.00
    4    0   12      0.78      0.00
    5    0   12    -14.31      0.00
    6    0   12    -19.94      0.00
    7    0   12     -3.42      0.00
    8    0   12     -0.55      0.00
    9    0   12     -2.40      0.00
   10    0   12      0.22      0.00
   11    0   12      1.22      0.00
   12    0   12      3.85      0.00
   -4   18   13      1.36      0.00
   -3   18   13      1.65      0.00
   -2   18   13     -0.62      0.00
   -1   18   13     -4.05      0.00
    0   18   13     -0.60      0.00
    1   18   13      2.65      0.00
    2   18   13      2.49      0.00
    3   18   13     -2.47      0.00
   -5   17   13      0.77      0.00
   -4   17   13     -0.71      0.00
   -3   17   13     -1.50      0.00
   -2   17   13     -1.78      0.00
   -1   17   13      2.00      0.00
    0   17   13      5.55      0.00
    1   17   13      2.18      0.00
    2   17   13     -2.53      0.00
    3   17   13     -3.38      0.00
    4   17   13      1.48      0.00
   -7   16   13     -0.87      0.00
   -6   16   13     -1.34      0.00
   -5   16   13      1.81      0.00
   -4   16   13      1.08      0.00
   -3   16   13      1.36      0.00
   -2   16   13      0.18      0.00
   -1   16   13     -0.78      0.00
    0   16   13     -0.53      0.00
    1   16   13     -0.32      0.00
    2   16   13     -0.30      0.00
    3   16   13     -1.20      0.00
    4   16   13      2.20      0.00
    5   16   13      2.04      0.00
    6   16   13     -0.99      0.00
   -8   15   13      0.00      0.00
   -7   15   13     -2.20      0.00
   -6   15   13      0.87      0.00
   -5   15   13      0.89      0.00
   -4   15   13     -2.58      0.00
   -3   15   13     -2.73      0.00
   -2   15   13     -1.46      0.00
   -1   15   13      2.97      0.00
    0   15   13      3.76      0.00
    1   15   13      2.33      0.00
    2   15   13     -1.50      0.00
    3   15   13     -0.80      0.00
    4   15   13      2.45      0.00
    5   15   13     -0.28      0.00
    6   15   13     -1.76      0.00
    7   15   13     -0.91      0.00
   -9   14   13      0.48      0.00
   -8   14   13      0.24      0.00
   -7   14   13     -0.57      0.00
   -6   14   13     -1.06      0.00
   -5   14   13     -0.67      0.00
   -4   14   13      0.34      0.00
   -3   14   13      2.82      0.00
   -2   14   13      2.77      0.00
   -1   14   13      0.81      0.00
    0   14   13      0.14      0.00
    1   14   13     -0.97      0.00
    2   14   13     -3.02      0.00
    3   14   13     -1.53      0.00
    4   14   13      0.73      0.00
    5   14   13      1.48      0.00
    6   14   13     -0.44      0.00
    7   14   13     -0.55      0.00
   -9   13   13      1.74      0.00
   -8   13   13      0.73      0.00
   -7   13   13     -2.01      0.00
   -6   13   13      1.29      0.00
   -5   13   13      1.44      0.00
   -4   13   13     -1.44      0.00
   -3   13   13     -1.88      0.00
   -2   13   13      0.00      0.00
   -1   13   13      3.30      0.00
    0   13   13      1.18      0.00
    1   13   13     -0.51      0.00
    2   13   13     -1.39      0.00
    3   13   13      1.16      0.00
    4   13   13      2.82      0.00
    5   13   13     -0.98      0.00
    6   13   13     -3.66      0.00
    7   13   13     -2.51      0.00
    8   13   13      0.31      0.00
  -10   12   13     -1.29      0.00
   -9   12   13      0.27      0.00
   -8   12   13     -2.59      0.00
   -7   12   13     -1.23      0.00
   -6   12   13     -2.62      0.00
   -5   12   13     -3.35      0.00
   -4   12   13      1.63      0.00
   -3   12   13      6.83      0.00
   -2   12   13      6.06      0.00
   -1   12   13     -0.11      0.00
    0   12   13      1.10      0.00
    1   12   13      0.68      0.00
    2   12   13     -4.89      0.00
    3   12   13     -4.16      0.00
    4   12   13     -3.57      0.00
    5   12   13     -0.98      0.00
    6   12   13     -1.55      0.00
    7   12   13      0.65      0.00
    8   12   13      4.10      0.00
    9   12   13      2.94      0.00
  -10   11   13     -2.05      0.00
   -9   11   13      0.88      0.00
   -8   11   13     -0.33      0.00
   -7   11   13     -2.66      0.00
   -6   11   13      1.55      0.00
   -5   11   13      8.01      0.00
   -4   11   13      5.71      0.00
   -3   11   13     -0.73      0.00
   -2   11   13     -3.64      0.00
   -1   11   13      0.79      0.00
    0   11   13     -1.00      0.00
    1   11   13    -10.20      0.00
    2   11   13     -7.92      0.00
    3   11   13      0.64      0.00
    4   11   13      5.78      0.00
    5   11   13      3.04      0.00
    6   11   13     -1.56      0.00
    7   11   13      1.93      0.00
    8   11   13      3.29      0.00
    9   11   13      1.43      0.00
  -11   10   13     -1.78      0.00
  -10   10   13      2.51      0.00
   -9   10   13      1.95      0.00
   -8   10   13     -3.00      0.00
   -7   10   13      0.96      0.00
   -6   10   13      1.60      0.00
   -5   10   13     -2.17      0.00
   -4   10   13     -2.72      0.00
   -3   10   13      1.85      0.00
   -2   10   13      3.08      0.00
   -1   10   13     -3.32      0.00
    0   10   13     -2.88      0.00
    1   10   13      0.86      0.00
    2   10   13      1.84      0.00
    3   10   13      2.97      0.00
    4   10   13      0.18      0.00
    5   10   13     -1.89      0.00
    6   10   13     -2.47      0.00
    7   10   13      1.24      0.00
    8   10   13      3.11      0.00
    9   10   13      0.84      0.00
   10   10   13     -1.11      0.00
  -11    9   13     -1.26      0.00
  -10    9   13      0.87      0.00
   -9    9   13     -1.95      0.00
   -8    9   13     -1.85      0.00
   -7    9   13     -2.25      0.00
   -6    9   13      1.85      0.00
   -5    9   13     11.30      0.00
   -4    9   13      8.80      0.00
   -3    9   13     -0.86      0.00
   -2    9   13     -8.04      0.00
   -1    9   13      0.75      0.00
    0    9   13      3.63      0.00
    1    9   13    -12.16      0.00
    2    9   13    -10.23      0.00
    3    9   13      0.11      0.00
    4    9   13      5.57      0.00
    5    9   13      2.48      0.00
    6    9   13     -0.51      0.00
    7    9   13      6.66      0.00
    8    9   13      6.00      0.00
    9    9   13      0.84      0.00
   10    9   13     -1.55      0.00
  -11    8   13      1.30      0.00
  -10    8   13      3.38      0.00
   -9    8   13      0.77      0.00
   -8    8   13      0.40      0.00
   -7    8   13      7.08      0.00
   -6    8   13     10.75      0.00
   -5    8   13     -0.39      0.00
   -4    8   13    -12.66      0.00
   -3    8   13    -10.03      0.00
   -2    8   13     -1.80      0.00
   -1    8   13     -2.29      0.00
    0    8   13    -10.18      0.00
    1    8   13     -4.40      0.00
    2    8   13     10.49      0.00
    3    8   13     13.67      0.00
    4    8   13      6.58      0.00
    5    8   13     -0.75      0.00
    6    8   13      1.54      0.00
    7    8   13      3.91      0.00
    8    8   13     -2.13      0.00
    9    8   13     -6.36      0.00
   10    8   13     -5.92      0.00
  -12    7   13      1.15      0.00
  -11    7   13      1.32      0.00
  -10    7   13      2.31      0.00
   -9    7   13     -0.81      0.00
   -8    7   13      1.49      0.00
   -7    7   13     -1.48      0.00
   -6    7   13     -4.89      0.00
   -5    7   13     -1.54      0.00
   -4    7   13      0.84      0.00
   -3    7   13     -0.87      0.00
   -2    7   13     -6.06      0.00
   -1    7   13      4.13      0.00
    0    7   13     11.76      0.00
    1    7   13      0.12      0.00
    2    7   13     -0.87      0.00
    3    7   13      1.57      0.00
    4    7   13      1.53      0.00
    5    7   13     -2.70      0.00
    6    7   13     -4.30      0.00
    7    7   13      0.33      0.00
    8    7   13     -1.51      0.00
    9    7   13     -2.48      0.00
   10    7   13      0.65      0.00
   11    7   13      0.40      0.00
  -12    6   13     -0.04      0.00
  -11    6   13      2.85      0.00
  -10    6   13      2.31      0.00
   -9    6   13     -0.84      0.00
   -8    6   13      0.07      0.00
   -7    6   13      4.93      0.00
   -6    6   13     12.68      0.00
   -5    6   13      2.14      0.00
   -4    6   13    -12.82      0.00
   -3    6   13    -12.07      0.00
   -2    6   13      2.33      0.00
   -1    6   13      8.39      0.00
    0    6   13    -12.62      0.00
    1    6   13    -12.25      0.00
    2    6   13     10.57      0.00
    3    6   13     15.23      0.00
    4    6   13      5.54      0.00
    5    6   13     -4.73      0.00
    6    6   13      2.12      0.00
    7    6   13      5.30      0.00
    8    6   13     -2.51      0.00
    9    6   13     -4.19      0.00
   10    6   13     -3.67      0.00
   11    6   13     -0.11      0.00
  -12    5   13      3.63      0.00
  -11    5   13      3.66      0.00
  -10    5   13      1.28      0.00
   -9    5   13      1.10      0.00
   -8    5   13      4.15      0.00
   -7    5   13     -0.18      0.00
   -6    5   13    -10.89      0.00
   -5    5   13    -17.19      0.00
   -4    5   13     -9.51      0.00
   -3    5   13      0.79      0.00
   -2    5   13      1.97      0.00
   -1    5   13      3.71      0.00
    0    5   13      9.73      0.00
    1    5   13     14.18      0.00
    2    5   13     14.56      0.00
    3    5   13      5.02      0.00
    4    5   13     -5.06      0.00
    5    5   13     -8.51      0.00
    6    5   13     -5.36      0.00
    7    5   13     -4.19      0.00
    8    5   13     -6.19      0.00
    9    5   13     -4.01      0.00
   10    5   13      1.44      0.00
   11    5   13      3.16      0.00
  -12    4   13      0.24      0.00
  -11    4   13      0.13      0.00
  -10    4   13     -0.65      0.00
   -9    4   13     -2.05      0.00
   -8    4   13     -6.04      0.00
   -7    4   13     -6.93      0.00
   -6    4   13      3.32      0.00
   -5    4   13      4.08      0.00
   -4    4   13     -0.51      0.00
   -3    4   13      0.86      0.00
   -2    4   13     14.03      0.00
   -1    4   13     20.51      0.00
    0    4   13     -6.36      0.00
    1    4   13    -12.51      0.00
    2    4   13      2.95      0.00
    3    4   13      0.02      0.00
    4    4   13     -9.23      0.00
    5    4   13    -12.70      0.00
    6    4   13      1.80      0.00
    7    4   13      5.94      0.00
    8    4   13     -0.88      0.00
    9    4   13      1.04      0.00
   10    4   13      2.98      0.00
   11    4   13      3.83      0.00
  -12    3   13      0.27      0.00
  -11    3   13      1.60      0.00
  -10    3   13     -0.58      0.00
   -9    3   13     -0.65      0.00
   -8    3   13      0.90      0.00
   -7    3   13      3.05      0.00
   -6    3   13     -3.73      0.00
   -5    3   13    -13.46      0.00
   -4    3   13     -6.75      0.00
   -3    3   13      5.91      0.00
   -2    3   13      7.95      0.00
   -1    3   13     -6.28      0.00
    0    3   13     -8.10      0.00
    1    3   13     11.59      0.00
    2    3   13     12.94      0.00
    3    3   13     -0.61      0.00
    4    3   13     -8.32      0.00
    5    3   13     -2.24      0.00
    6    3   13      4.58      0.00
    7    3   13     -2.07      0.00
    8    3   13     -4.08      0.00
    9    3   13      0.52      0.00
   10    3   13      4.12      0.00
   11    3   13      3.73      0.00
  -13    2   13      2.53      0.00
  -12    2   13      1.24      0.00
  -11    2   13     -0.97      0.00
  -10    2   13     -1.66      0.00
   -9    2   13     -2.22      0.00
   -8    2   13     -9.16      0.00
   -7    2   13    -13.22      0.00
   -6    2   13     -4.62      0.00
   -5    2   13      4.42      0.00
   -4    2   13      8.62      0.00
   -3    2   13      9.58      0.00
   -2    2   13     14.72      0.00
   -1    2   13     17.67      0.00
    0    2   13      0.29      0.00
    1    2   13     -5.74      0.00
    2    2   13     -2.24      0.00
    3    2   13    -10.29      0.00
    4    2   13    -15.03      0.00
    5    2   13    -11.95      0.00
    6    2   13      0.65      0.00
    7    2   13      3.26      0.00
    8    2   13      0.86      0.00
    9    2   13      4.56      0.00
   10    2   13      5.12      0.00
   11    2   13      2.10      0.00
  -13    1   13     -1.54      0.00
  -12    1   13     -3.40      0.00
  -11    1   13     -2.22      0.00
  -10    1   13     -2.35      0.00
   -9    1   13     -5.00      0.00
   -8    1   13     -4.67      0.00
   -7    1   13      8.59      0.00
   -6    1   13     13.88      0.00
   -5    1   13      5.78      0.00
   -4    1   13      4.95      0.00
   -3    1   13      9.86      0.00
   -2    1   13      8.30      0.00
   -1    1   13    -16.11      0.00
    0    1   13    -25.04      0.00
    1    1   13     -0.46      0.00
    2    1   13     -1.48      0.00
    3    1   13    -10.67      0.00
    4    1   13     -6.85      0.00
    5    1   13      8.86      0.00
    6    1   13     15.66      0.00
    7    1   13      3.42      0.00
    8    1   13      2.36      0.00
    9    1   13      5.15      0.00
   10    1   13      2.76      0.00
   11    1   13      0.03      0.00
  -13    3   13     -0.78      0.00
  -12    8   13     -0.29      0.00
   -6   17   13     -0.76      0.00
   -3   18   14      0.90      0.00
   -2   18   14      1.36      0.00
   -1   18   14     -0.66      0.00
    0   18   14     -4.24      0.00
    1   18   14     -1.79      0.00
    2   18   14      0.72      0.00
   -4   17   14     -0.94      0.00
   -3   17   14     -1.68      0.00
   -2   17   14     -0.16      0.00
   -1   17   14      2.61      0.00
    0   17   14      0.66      0.00
    1   17   14     -1.36      0.00
    2   17   14     -0.77      0.00
    3   17   14      2.51      0.00
    4   17   14     -0.07      0.00
   -6   16   14     -0.18      0.00
   -5   16   14     -0.51      0.00
   -4   16   14      1.40      0.00
   -3   16   14      1.48      0.00
   -2   16   14      2.80      0.00
   -1   16   14     -1.17      0.00
    0   16   14     -5.07      0.00
    1   16   14     -2.89      0.00
    2   16   14      1.57      0.00
    3   16   14      1.90      0.00
    4   16   14     -2.07      0.00
    5   16   14     -1.45      0.00
   -7   15   14      1.53      0.00
   -6   15   14      1.98      0.00
   -5   15   14     -0.81      0.00
   -4   15   14     -0.80      0.00
   -3   15   14     -0.99      0.00
   -2   15   14     -0.47      0.00
   -1   15   14     -1.08      0.00
    0   15   14     -0.95      0.00
    1   15   14      0.50      0.00
    2   15   14      1.88      0.00
    3   15   14      0.95      0.00
    4   15   14     -2.99      0.00
    5   15   14     -2.31      0.00
    6   15   14      1.39      0.00
   -8   14   14     -0.36      0.00
   -7   14   14      1.14      0.00
   -6   14   14     -2.74      0.00
   -5   14   14     -1.51      0.00
   -4   14   14      2.88      0.00
   -3   14   14      2.73      0.00
   -2   14   14      0.70      0.00
   -1   14   14     -2.87      0.00
    0   14   14     -1.91      0.00
    1   14   14     -1.23      0.00
    2   14   14      0.15      0.00
    3   14   14     -2.08      0.00
    4   14   14     -3.17      0.00
    5   14   14      1.54      0.00
    6   14   14      3.23      0.00
    7   14   14      2.23      0.00
   -9   13   14     -0.84      0.00
   -8   13   14     -0.14      0.00
   -7   13   14      0.32      0.00
   -6   13   14      2.82      0.00
   -5   13   14      3.61      0.00
   -4   13   14      0.13      0.00
   -3   13   14     -3.65      0.00
   -2   13   14     -3.62      0.00
   -1   13   14     -1.48      0.00
    0   13   14     -2.67      0.00
    1   13   14     -1.64      0.00
    2   13   14      2.75      0.00
    3   13   14      2.55      0.00
    4   13   14      2.12      0.00
    5   13   14      0.55      0.00
    6   13   14      1.84      0.00
    7   13   14      0.38      0.00
    8   13   14     -2.25      0.00
  -10   12   14      1.99      0.00
   -9   12   14     -1.60      0.00
   -8   12   14      0.03      0.00
   -7   12   14      2.89      0.00
   -6   12   14     -1.08      0.00
   -5   12   14     -3.72      0.00
   -4   12   14     -0.78      0.00
   -3   12   14      1.49      0.00
   -2   12   14      0.05      0.00
   -1   12   14     -3.38      0.00
    0   12   14      0.40      0.00
    1   12   14      5.65      0.00
    2   12   14      4.76      0.00
    3   12   14     -0.44      0.00
    4   12   14     -3.36      0.00
    5   12   14     -0.16      0.00
    6   12   14      2.85      0.00
    7   12   14      0.69      0.00
    8   12   14     -0.61      0.00
  -10   11   14     -0.70      0.00
   -9   11   14     -1.84      0.00
   -8   11   14      2.15      0.00
   -7   11   14      0.37      0.00
   -6   11   14      2.62      0.00
   -5   11   14      5.11      0.00
   -4   11   14      1.00      0.00
   -3   11   14     -5.28      0.00
   -2   11   14     -5.41      0.00
   -1   11   14      1.14      0.00
    0   11   14     -0.69      0.00
    1   11   14     -2.66      0.00
    2   11   14      0.72      0.00
    3   11   14      0.95      0.00
    4   11   14      2.81      0.00
    5   11   14      2.48      0.00
    6   11   14      3.86      0.00
    7   11   14      1.01      0.00
    8   11   14     -3.01      0.00
    9   11   14     -2.60      0.00
  -11   10   14      2.51      0.00
  -10   10   14      0.81      0.00
   -9   10   14      1.39      0.00
   -8   10   14      3.33      0.00
   -7   10   14      5.28      0.00
   -6   10   14      0.09      0.00
   -5   10   14     -9.76      0.00
   -4   10   14     -8.72      0.00
   -3   10   14     -1.66      0.00
   -2   10   14      2.55      0.00
   -1   10   14     -3.25      0.00
    0   10   14     -1.51      0.00
    1   10   14     12.30      0.00
    2   10   14     11.16      0.00
    3   10   14      2.66      0.00
    4   10   14     -2.97      0.00
    5   10   14     -0.84      0.00
    6   10   14      1.61      0.00
    7   10   14     -5.84      0.00
    8   10   14     -6.78      0.00
    9   10   14     -2.86      0.00
  -11    9   14      1.54      0.00
  -10    9   14     -1.86      0.00
   -9    9   14     -0.60      0.00
   -8    9   14      1.46      0.00
   -7    9   14     -4.58      0.00
   -6    9   14     -6.77      0.00
   -5    9   14     -0.03      0.00
   -4    9   14      5.28      0.00
   -3    9   14      1.81      0.00
   -2    9   14     -0.81      0.00
   -1    9   14      5.18      0.00
    0    9   14      9.01      0.00
    1    9   14      3.55      0.00
    2    9   14     -4.21      0.00
    3    9   14     -6.90      0.00
    4    9   14     -3.39      0.00
    5    9   14     -0.04      0.00
    6    9   14     -1.31      0.00
    7    9   14     -3.87      0.00
    8    9   14     -1.03      0.00
    9    9   14      2.74      0.00
   10    9   14      3.34      0.00
  -11    8   14      0.29      0.00
  -10    8   14     -2.26      0.00
   -9    8   14      1.41      0.00
   -8    8   14      1.33      0.00
   -7    8   14      3.50      0.00
   -6    8   14      2.17      0.00
   -5    8   14     -5.74      0.00
   -4    8   14     -5.92      0.00
   -3    8   14      0.19      0.00
   -2    8   14      6.79      0.00
   -1    8   14     -2.59      0.00
    0    8   14     -7.43      0.00
    1    8   14      6.35      0.00
    2    8   14      6.32      0.00
    3    8   14      0.43      0.00
    4    8   14     -2.85      0.00
    5    8   14      0.54      0.00
    6    8   14      2.66      0.00
    7    8   14     -3.92      0.00
    8    8   14     -2.85      0.00
    9    8   14     -0.16      0.00
   10    8   14     -0.70      0.00
  -12    7   14      0.71      0.00
  -11    7   14     -1.56      0.00
  -10    7   14     -1.55      0.00
   -9    7   14      2.02      0.00
   -8    7   14      0.16      0.00
   -7    7   14     -7.71      0.00
   -6    7   14    -14.84      0.00
   -5    7   14     -4.51      0.00
   -4    7   14      8.92      0.00
   -3    7   14      8.57      0.00
   -2    7   14      0.09      0.00
   -1    7   14      0.14      0.00
    0    7   14     15.10      0.00
    1    7   14     11.68      0.00
    2    7   14     -6.84      0.00
    3    7   14    -12.53      0.00
    4    7   14     -6.93      0.00
    5    7   14      0.23      0.00
    6    7   14     -4.96      0.00
    7    7   14     -7.37      0.00
    8    7   14      0.25      0.00
    9    7   14      4.10      0.00
   10    7   14      4.76      0.00
  -12    6   14     -1.78      0.00
  -11    6   14     -1.89      0.00
  -10    6   14     -2.10      0.00
   -9    6   14     -1.94      0.00
   -8    6   14     -5.41      0.00
   -7    6   14     -1.52      0.00
   -6    6   14      5.97      0.00
   -5    6   14      8.56      0.00
   -4    6   14      5.79      0.00
   -3    6   14      4.07      0.00
   -2    6   14      7.00      0.00
   -1    6   14     -0.09      0.00
    0    6   14     -8.70      0.00
    1    6   14     -7.20      0.00
    2    6   14     -8.88      0.00
    3    6   14     -6.80      0.00
    4    6   14     -1.84      0.00
    5    6   14      3.25      0.00
    6    6   14      3.86      0.00
    7    6   14      2.24      0.00
    8    6   14      5.27      0.00
    9    6   14      5.14      0.00
   10    6   14      0.50      0.00
   11    6   14     -0.80      0.00
  -12    5   14      0.64      0.00
  -11    5   14     -1.71      0.00
  -10    5   14     -1.63      0.00
   -9    5   14      1.24      0.00
   -8    5   14      2.46      0.00
   -7    5   14     -0.24      0.00
   -6    5   14     -8.93      0.00
   -5    5   14     -2.86      0.00
   -4    5   14      6.94      0.00
   -3    5   14      5.80      0.00
   -2    5   14     -7.94      0.00
   -1    5   14    -13.67      0.00
    0    5   14      9.37      0.00
    1    5   14     11.52      0.00
    2    5   14     -6.38      0.00
    3    5   14     -7.34      0.00
    4    5   14      1.44      0.00
    5    5   14      8.14      0.00
    6    5   14     -1.98      0.00
    7    5   14     -5.15      0.00
    8    5   14      1.92      0.00
    9    5   14      1.54      0.00
   10    5   14      0.30      0.00
   11    5   14     -1.52      0.00
  -12    4   14     -2.05      0.00
  -11    4   14     -3.60      0.00
  -10    4   14     -1.30      0.00
   -9    4   14     -2.43      0.00
   -8    4   14     -5.93      0.00
   -7    4   14     -4.60      0.00
   -6    4   14      5.95      0.00
   -5    4   14     15.99      0.00
   -4    4   14     10.69      0.00
   -3    4   14      1.26      0.00
   -2    4   14      0.09      0.00
   -1    4   14      5.03      0.00
    0    4   14      0.68      0.00
    1    4   14    -13.32      0.00
    2    4   14    -16.97      0.00
    3    4   14     -7.64      0.00
    4    4   14      2.16      0.00
    5    4   14      3.10      0.00
    6    4   14     -0.45      0.00
    7    4   14      3.15      0.00
    8    4   14      6.18      0.00
    9    4   14      3.51      0.00
   10    4   14     -1.19      0.00
   11    4   14     -2.64      0.00
  -12    3   14     -1.68      0.00
  -11    3   14     -0.68      0.00
  -10    3   14     -0.53      0.00
   -9    3   14      0.65      0.00
   -8    3   14      7.23      0.00
   -7    3   14     11.54      0.00
   -6    3   14      5.37      0.00
   -5    3   14      2.08      0.00
   -4    3   14      0.76      0.00
   -3    3   14     -3.23      0.00
   -2    3   14    -15.29      0.00
   -1    3   14    -21.77      0.00
    0    3   14     -2.54      0.00
    1    3   14      1.55      0.00
    2    3   14     -5.80      0.00
    3    3   14      3.89      0.00
    4    3   14     14.09      0.00
    5    3   14     14.73      0.00
    6    3   14      1.71      0.00
    7    3   14     -0.97      0.00
    8    3   14      2.94      0.00
    9    3   14     -1.19      0.00
   10    3   14     -4.21      0.00
   11    3   14     -3.61      0.00
  -12    2   14      1.70      0.00
  -11    2   14     -0.07      0.00
  -10    2   14      1.43      0.00
   -9    2   14      3.15      0.00
   -8    2   14      2.31      0.00
   -7    2   14     -4.39      0.00
   -6    2   14     -2.97      0.00
   -5    2   14      3.96      0.00
   -4    2   14     -0.95      0.00
   -3    2   14     -9.91      0.00
   -2    2   14     -9.51      0.00
   -1    2   14      9.59      0.00
    0    2   14     14.33      0.00
    1    2   14     -5.43      0.00
    2    2   14     -3.53      0.00
    3    2   14      7.72      0.00
    4    2   14      8.56      0.00
    5    2   14     -2.74      0.00
    6    2   14     -9.18      0.00
    7    2   14     -0.44      0.00
    8    2   14      0.57      0.00
    9    2   14     -3.76      0.00
   10    2   14     -4.75      0.00
   11    2   14     -2.63      0.00
  -12    1   14     -1.33      0.00
  -11    1   14     -0.31      0.00
  -10    1   14     -0.16      0.00
   -9    1   14      0.15      0.00
   -8    1   14      4.57      0.00
   -7    1   14      8.35      0.00
   -6    1   14      6.24      0.00
   -5    1   14      2.04      0.00
   -4    1   14     -1.50      0.00
   -3    1   14     -3.72      0.00
   -2    1   14     -7.73      0.00
   -1    1   14    -10.26      0.00
    0    1   14     -3.38      0.00
    1    1   14     -1.68      0.00
    2    1   14     -2.42      0.00
    3    1   14      4.18      0.00
    4    1   14      8.47      0.00
    5    1   14      7.27      0.00
    6    1   14      1.77      0.00
    7    1   14      1.14      0.00
    8    1   14      1.29      0.00
    9    1   14     -2.12      0.00
   10    1   14     -3.29      0.00
   11    1   14     -1.11      0.00
  -12    0   14      2.67      0.00
  -11    0   14      1.94      0.00
  -10    0   14      2.80      0.00
   -9    0   14      7.12      0.00
   -8    0   14      8.22      0.00
   -7    0   14     -3.59      0.00
   -6    0   14    -10.12      0.00
   -5    0   14     -7.36      0.00
   -4    0   14    -10.37      0.00
   -3    0   14    -15.92      0.00
   -2    0   14    -13.36      0.00
   -1    0   14     11.01      0.00
    0    0   14     20.05      0.00
    1    0   14      0.49      0.00
    2    0   14      6.82      0.00
    3    0   14     17.28      0.00
    4    0   14     11.21      0.00
    5    0   14     -5.87      0.00
    6    0   14    -12.73      0.00
    7    0   14     -3.37      0.00
    8    0   14     -4.79      0.00
    9    0   14     -8.01      0.00
   10    0   14     -4.23      0.00
   11    0   14      0.45      0.00
   -5   17   14     -1.19      0.00
   -2   18   15      0.92      0.00
   -1   18   15     -4.39      0.00
    0   18   15     -1.74      0.00
    1   18   15      1.91      0.00
   -5   17   15     -0.39      0.00
   -4   17   15     -0.69      0.00
   -3   17   15     -0.21      0.00
   -2   17   15     -2.95      0.00
   -1   17   15     -0.75      0.00
    0   17   15      4.37      0.00
    1   17   15      2.77      0.00
    2   17   15     -0.35      0.00
    3   17   15     -2.12      0.00
   -6   16   15     -2.79      0.00
   -5   16   15      0.79      0.00
   -4   16   15      0.71      0.00
   -3   16   15      0.81      0.00
   -2   16   15     -0.28      0.00
   -1   16   15     -0.54      0.00
    0   16   15      0.71      0.00
    1   16   15      0.70      0.00
    2   16   15     -0.98      0.00
    3   16   15     -2.05      0.00
    4   16   15      2.31      0.00
    5   16   15      2.15      0.00
   -7   15   15     -0.79      0.00
   -6   15   15      1.89      0.00
   -5   15   15      1.11      0.00
   -4   15   15     -1.65      0.00
   -3   15   15     -1.17      0.00
   -2   15   15     -2.14      0.00
   -1   15   15      0.90      0.00
    0   15   15      3.04      0.00
    1   15   15      2.15      0.00
    2   15   15     -0.40      0.00
    3   15   15      1.11      0.00
    4   15   15      3.17      0.00
    5   15   15      0.04      0.00
    6   15   15     -1.42      0.00
   -8   14   15      1.52      0.00
   -7   14   15     -0.58      0.00
   -6   14   15     -2.64      0.00
   -5   14   15     -1.06      0.00
   -4   14   15      0.64      0.00
   -3   14   15      0.99      0.00
   -2   14   15      0.36      0.00
   -1   14   15      2.03      0.00
    0   14   15      3.42      0.00
    1   14   15      1.50      0.00
    2   14   15     -1.65      0.00
    3   14   15     -0.84      0.00
    4   14   15      1.51      0.00
    5   14   15      1.46      0.00
    6   14   15     -1.76      0.00
    7   14   15     -1.10      0.00
   -9   13   15      1.75      0.00
   -8   13   15      0.22      0.00
   -7   13   15     -1.81      0.00
   -6   13   15      2.71      0.00
   -5   13   15      2.63      0.00
   -4   13   15     -2.26      0.00
   -3   13   15     -3.06      0.00
   -2   13   15      0.09      0.00
   -1   13   15      3.40      0.00
    0   13   15     -0.09      0.00
    1   13   15     -2.35      0.00
    2   13   15     -1.52      0.00
    3   13   15      2.88      0.00
    4   13   15      3.95      0.00
    5   13   15     -1.09      0.00
    6   13   15     -3.37      0.00
    7   13   15     -2.08      0.00
   -9   12   15      2.18      0.00
   -8   12   15      0.60      0.00
   -7   12   15      0.87      0.00
   -6   12   15     -3.22      0.00
   -5   12   15     -5.84      0.00
   -4   12   15     -1.76      0.00
   -3   12   15      3.52      0.00
   -2   12   15      3.88      0.00
   -1   12   15      0.77      0.00
    0   12   15      3.74      0.00
    1   12   15      4.69      0.00
    2   12   15      0.52      0.00
    3   12   15     -0.62      0.00
    4   12   15     -3.07      0.00
    5   12   15     -2.68      0.00
    6   12   15     -4.64      0.00
    7   12   15     -2.38      0.00
    8   12   15      1.78      0.00
  -10   11   15     -1.34      0.00
   -9   11   15      0.56      0.00
   -8   11   15     -2.05      0.00
   -7   11   15     -5.59      0.00
   -6   11   15     -1.18      0.00
   -5   11   15      5.35      0.00
   -4   11   15      3.80      0.00
   -3   11   15      0.53      0.00
   -2   11   15      1.25      0.00
   -1   11   15      5.81      0.00
    0   11   15      1.38      0.00
    1   11   15     -8.54      0.00
    2   11   15     -8.15      0.00
    3   11   15     -2.68      0.00
    4   11   15      1.00      0.00
    5   11   15     -1.38      0.00
    6   11   15     -3.12      0.00
    7   11   15      2.91      0.00
    8   11   15      3.84      0.00
  -10   10   15      1.03      0.00
   -9   10   15      1.42      0.00
   -8   10   15     -1.67      0.00
   -7   10   15      1.91      0.00
   -6   10   15      1.01      0.00
   -5   10   15     -3.42      0.00
   -4   10   15     -2.80      0.00
   -3   10   15      2.90      0.00
   -2   10   15      3.62      0.00
   -1   10   15     -3.73      0.00
    0   10   15     -4.17      0.00
    1   10   15     -0.20      0.00
    2   10   15      1.13      0.00
    3   10   15      1.85      0.00
    4   10   15     -0.59      0.00
    5   10   15     -1.46      0.00
    6   10   15     -1.73      0.00
    7   10   15      0.47      0.00
    8   10   15      0.92      0.00
    9   10   15     -0.71      0.00
  -11    9   15     -1.36      0.00
  -10    9   15      1.49      0.00
   -9    9   15     -1.37      0.00
   -8    9   15     -3.86      0.00
   -7    9   15     -7.12      0.00
   -6    9   15     -3.54      0.00
   -5    9   15      6.81      0.00
   -4    9   15      7.57      0.00
   -3    9   15      2.12      0.00
   -2    9   15     -2.34      0.00
   -1    9   15      5.28      0.00
    0    9   15      5.73      0.00
    1    9   15     -8.80      0.00
    2    9   15     -9.25      0.00
    3    9   15     -3.41      0.00
    4    9   15      0.80      0.00
    5    9   15     -2.12      0.00
    6    9   15     -3.97      0.00
    7    9   15      4.70      0.00
    8    9   15      5.49      0.00
    9    9   15      2.78      0.00
  -11    8   15     -0.46      0.00
  -10    8   15      0.27      0.00
   -9    8   15     -2.98      0.00
   -8    8   15     -2.41      0.00
   -7    8   15      5.76      0.00
   -6    8   15     11.68      0.00
   -5    8   15      4.66      0.00
   -4    8   15     -3.30      0.00
   -3    8   15     -1.58      0.00
   -2    8   15      1.80      0.00
   -1    8   15     -3.85      0.00
    0    8   15    -14.15      0.00
    1    8   15    -10.22      0.00
    2    8   15      1.69      0.00
    3    8   15      6.38      0.00
    4    8   15      3.81      0.00
    5    8   15      0.45      0.00
    6    8   15      5.44      0.00
    7    8   15      8.45      0.00
    8    8   15      2.49      0.00
    9    8   15     -2.32      0.00
   10    8   15     -3.65      0.00
  -11    7   15     -0.31      0.00
  -10    7   15      1.92      0.00
   -9    7   15      0.76      0.00
   -8    7   15      2.66      0.00
   -7    7   15     -0.65      0.00
   -6    7   15     -3.33      0.00
   -5    7   15     -0.26      0.00
   -4    7   15      0.44      0.00
   -3    7   15     -3.12      0.00
   -2    7   15     -8.67      0.00
   -1    7   15     -0.37      0.00
    0    7   15      6.47      0.00
    1    7   15     -0.48      0.00
    2    7   15      0.97      0.00
    3    7   15      3.50      0.00
    4    7   15      3.49      0.00
    5    7   15     -0.56      0.00
    6    7   15     -2.24      0.00
    7    7   15      0.95      0.00
    8    7   15     -2.18      0.00
    9    7   15     -3.32      0.00
   10    7   15      0.09      0.00
  -12    6   15     -1.53      0.00
  -11    6   15      1.40      0.00
  -10    6   15      1.04      0.00
   -9    6   15     -3.15      0.00
   -8    6   15     -2.22      0.00
   -7    6   15      4.24      0.00
   -6    6   15     13.31      0.00
   -5    6   15      5.69      0.00
   -4    6   15     -5.23      0.00
   -3    6   15     -5.01      0.00
   -2    6   15      4.53      0.00
   -1    6   15      5.48      0.00
    0    6   15    -13.89      0.00
    1    6   15    -13.62      0.00
    2    6   15      3.02      0.00
    3    6   15      7.34      0.00
    4    6   15      2.44      0.00
    5    6   15     -3.35      0.00
    6    6   15      4.51      0.00
    7    6   15      7.21      0.00
    8    6   15      0.29      0.00
    9    6   15     -1.07      0.00
   10    6   15     -1.48      0.00
  -12    5   15      1.53      0.00
  -11    5   15      2.22      0.00
  -10    5   15      1.31      0.00
   -9    5   15      3.65      0.00
   -8    5   15      8.69      0.00
   -7    5   15      6.72      0.00
   -6    5   15     -2.39      0.00
   -5    5   15     -9.77      0.00
   -4    5   15     -8.09      0.00
   -3    5   15     -5.77      0.00
   -2    5   15     -8.34      0.00
   -1    5   15     -7.34      0.00
    0    5   15      0.02      0.00
    1    5   15      7.91      0.00
    2    5   15     13.67      0.00
    3    5   15     11.23      0.00
    4    5   15      4.34      0.00
    5    5   15      0.11      0.00
    6    5   15      0.70      0.00
    7    5   15     -1.25      0.00
    8    5   15     -5.51      0.00
    9    5   15     -5.41      0.00
   10    5   15     -1.42      0.00
  -12    4   15      0.33      0.00
  -11    4   15      1.57      0.00
  -10    4   15      2.45      0.00
   -9    4   15      0.43      0.00
   -8    4   15     -3.60      0.00
   -7    4   15     -4.78      0.00
   -6    4   15      0.93      0.00
   -5    4   15     -2.24      0.00
   -4    4   15     -6.84      0.00
   -3    4   15     -3.84      0.00
   -2    4   15     10.05      0.00
   -1    4   15     16.96      0.00
    0    4   15     -1.49      0.00
    1    4   15     -2.45      0.00
    2    4   15      9.14      0.00
    3    4   15      3.14      0.00
    4    4   15     -7.55      0.00
    5    4   15    -11.55      0.00
    6    4   15     -0.81      0.00
    7    4   15      1.29      0.00
    8    4   15     -4.16      0.00
    9    4   15     -1.68      0.00
   10    4   15      1.26      0.00
   11    4   15      2.30      0.00
  -12    3   15     -0.25      0.00
  -11    3   15      2.20      0.00
  -10    3   15      0.25      0.00
   -9    3   15      0.74      0.00
   -8    3   15      3.79      0.00
   -7    3   15      6.33      0.00
   -6    3   15     -0.63      0.00
   -5    3   15     -9.51      0.00
   -4    3   15     -4.95      0.00
   -3    3   15      2.99      0.00
   -2    3   15      2.81      0.00
   -1    3   15     -8.72      0.00
    0    3   15     -7.96      0.00
    1    3   15      8.34      0.00
    2    3   15      9.90      0.00
    3    3   15      1.60      0.00
    4    3   15     -3.27      0.00
    5    3   15      1.15      0.00
    6    3   15      5.61      0.00
    7    3   15     -0.82      0.00
    8    3   15     -3.64      0.00
    9    3   15     -0.54      0.00
   10    3   15      2.66      0.00
   11    3   15      2.81      0.00
  -12    2   15      2.39      0.00
  -11    2   15      1.72      0.00
  -10    2   15      2.28      0.00
   -9    2   15      1.84      0.00
   -8    2   15     -4.12      0.00
   -7    2   15     -9.83      0.00
   -6    2   15     -9.28      0.00
   -5    2   15     -7.54      0.00
   -4    2   15     -4.85      0.00
   -3    2   15     -0.34      0.00
   -2    2   15      9.43      0.00
   -1    2   15     15.66      0.00
    0    2   15      6.27      0.00
    1    2   15      6.56      0.00
    2    2   15     10.46      0.00
    3    2   15     -0.51      0.00
    4    2   15    -10.55      0.00
    5    2   15    -11.15      0.00
    6    2   15     -3.46      0.00
    7    2   15     -3.46      0.00
    8    2   15     -5.22      0.00
    9    2   15     -0.21      0.00
   10    2   15      3.69      0.00
   11    2   15      2.58      0.00
  -12    1   15     -1.61      0.00
  -11    1   15     -0.47      0.00
  -10    1   15     -2.07      0.00
   -9    1   15     -5.93      0.00
   -8    1   15     -7.03      0.00
   -7    1   15     -0.03      0.00
   -6    1   15      2.02      0.00
   -5    1   15      0.40      0.00
   -4    1   15      7.18      0.00
   -3    1   15     15.63      0.00
   -2    1   15     14.66      0.00
   -1    1   15     -5.39      0.00
    0    1   15    -11.27      0.00
    1    1   15      4.58      0.00
    2    1   15     -3.84      0.00
    3    1   15    -16.17      0.00
    4    1   15    -12.84      0.00
    5    1   15      1.38      0.00
    6    1   15      7.57      0.00
    7    1   15      0.36      0.00
    8    1   15      2.26      0.00
    9    1   15      7.16      0.00
   10    1   15      5.82      0.00
   11    1   15      1.18      0.00
   -4   17   16      0.54      0.00
   -3   17   16     -1.21      0.00
   -2   17   16     -0.61      0.00
   -1   17   16      2.93      0.00
    0   17   16      1.07      0.00
    1   17   16     -1.23      0.00
    2   17   16     -0.29      0.00
   -5   16   16      0.68      0.00
   -4   16   16      0.70      0.00
   -3   16   16     -0.82      0.00
   -2   16   16      3.09      0.00
   -1   16   16      1.92      0.00
    0   16   16     -2.70      0.00
    1   16   16     -2.24      0.00
    2   16   16      0.32      0.00
    3   16   16      0.76      0.00
    4   16   16     -1.15      0.00
   -7   15   16      1.47      0.00
   -6   15   16      3.44      0.00
   -5   15   16     -0.08      0.00
   -3   15   16     -0.10      0.00
   -2   15   16      1.60      0.00
   -1   15   16     -0.80      0.00
    0   15   16     -3.04      0.00
    1   15   16     -1.57      0.00
    2   15   16      1.57      0.00
    3   15   16      1.46      0.00
    4   15   16     -2.99      0.00
    5   15   16     -3.04      0.00
   -8   14   16      0.46      0.00
   -7   14   16      1.69      0.00
   -6   14   16     -2.30      0.00
   -5   14   16     -1.88      0.00
   -4   14   16      1.98      0.00
   -3   14   16      2.06      0.00
   -2   14   16      1.14      0.00
   -1   14   16     -1.54      0.00
    0   14   16     -0.55      0.00
    1   14   16      0.67      0.00
    2   14   16      0.75      0.00
    3   14   16     -3.55      0.00
    4   14   16     -4.95      0.00
    5   14   16     -0.03      0.00
    6   14   16      2.15      0.00
   -8   13   16     -2.34      0.00
   -7   13   16     -1.40      0.00
   -6   13   16      2.28      0.00
   -5   13   16      2.73      0.00
   -4   13   16      0.18      0.00
   -3   13   16     -1.08      0.00
   -2   13   16     -0.52      0.00
   -1   13   16     -1.70      0.00
    0   13   16     -5.10      0.00
    1   13   16     -4.64      0.00
    2   13   16     -1.34      0.00
    3   13   16     -1.13      0.00
    4   13   16      0.03      0.00
    5   13   16      0.55      0.00
    6   13   16      3.79      0.00
    7   13   16      2.11      0.00
   -9   12   16     -2.16      0.00
   -8   12   16      0.19      0.00
   -7   12   16      3.61      0.00
   -6   12   16     -0.80      0.00
   -5   12   16     -3.57      0.00
   -4   12   16      0.54      0.00
   -3   12   16      2.16      0.00
   -2   12   16     -1.77      0.00
   -1   12   16     -5.87      0.00
    0   12   16     -0.75      0.00
    1   12   16      4.90      0.00
    2   12   16      3.77      0.00
    3   12   16     -0.88      0.00
    4   12   16     -2.51      0.00
    5   12   16      1.55      0.00
    6   12   16      3.17      0.00
    7   12   16     -0.82      0.00
  -10   11   16     -1.13      0.00
   -9   11   16     -2.63      0.00
   -8   11   16     -0.59      0.00
   -7   11   16     -2.25      0.00
   -6   11   16      1.34      0.00
   -5   11   16      5.56      0.00
   -4   11   16      3.31      0.00
   -3   11   16     -2.43      0.00
   -2   11   16     -3.05      0.00
   -1   11   16      1.89      0.00
    0   11   16     -0.62      0.00
    1   11   16     -3.78      0.00
    2   11   16     -2.35      0.00
    3   11   16     -1.52      0.00
    4   11   16      1.96      0.00
    5   11   16      2.50      0.00
    6   11   16      4.39      0.00
    7   11   16      2.74      0.00
    8   11   16      0.49      0.00
  -10   10   16     -0.89      0.00
   -9   10   16     -0.54      0.00
   -8   10   16      2.99      0.00
   -7   10   16      7.92      0.00
   -6   10   16      4.65      0.00
   -5   10   16     -3.94      0.00
   -4   10   16     -4.18      0.00
   -3   10   16     -1.62      0.00
   -2   10   16     -1.88      0.00
   -1   10   16     -8.51      0.00
    0   10   16     -5.82      0.00
    1   10   16      6.48      0.00
    2   10   16      7.34      0.00
    3   10   16      3.78      0.00
    4   10   16      1.09      0.00
    5   10   16      4.41      0.00
    6   10   16      5.95      0.00
    7   10   16     -2.97      0.00
    8   10   16     -4.45      0.00
    9   10   16     -2.34      0.00
  -10    9   16      0.00      0.00
   -9    9   16      1.80      0.00
   -8    9   16      3.24      0.00
   -7    9   16     -2.67      0.00
   -6    9   16     -5.54      0.00
   -5    9   16     -1.03      0.00
   -4    9   16      1.10      0.00
   -3    9   16     -3.31      0.00
   -2    9   16     -4.32      0.00
   -1    9   16      3.64      0.00
    0    9   16      9.12      0.00
    1    9   16      5.72      0.00
    2    9   16      0.76      0.00
    3    9   16     -1.24      0.00
    4    9   16      0.56      0.00
    5    9   16      1.36      0.00
    6    9   16     -2.52      0.00
    7    9   16     -5.68      0.00
    8    9   16     -2.25      0.00
    9    9   16      1.59      0.00
  -11    8   16      1.45      0.00
  -10    8   16     -2.01      0.00
   -9    8   16     -0.07      0.00
   -8    8   16      0.87      0.00
   -7    8   16      4.99      0.00
   -6    8   16      4.48      0.00
   -5    8   16     -2.77      0.00
   -4    8   16     -3.66      0.00
   -3    8   16      0.57      0.00
   -2    8   16      5.10      0.00
   -1    8   16     -3.30      0.00
    0    8   16     -6.58      0.00
    1    8   16      4.28      0.00
    2    8   16      4.28      0.00
    3    8   16      0.79      0.00
    4    8   16     -1.47      0.00
    5    8   16      1.97      0.00
    6    8   16      3.73      0.00
    7    8   16     -2.01      0.00
    8    8   16     -0.28      0.00
    9    8   16      0.95      0.00
  -11    7   16     -0.79      0.00
  -10    7   16      0.13      0.00
   -9    7   16      5.37      0.00
   -8    7   16      4.62      0.00
   -7    7   16     -3.30      0.00
   -6    7   16    -12.12      0.00
   -5    7   16     -6.48      0.00
   -4    7   16      1.06      0.00
   -3    7   16     -0.32      0.00
   -2    7   16     -5.56      0.00
   -1    7   16     -1.37      0.00
    0    7   16     14.47      0.00
    1    7   16     13.67      0.00
    2    7   16      1.73      0.00
    3    7   16     -2.83      0.00
    4    7   16     -0.88      0.00
    5    7   16      2.26      0.00
    6    7   16     -5.54      0.00
    7    7   16     -9.12      0.00
    8    7   16     -3.09      0.00
    9    7   16     -0.26      0.00
   10    7   16      1.25      0.00
  -11    6   16      0.37      0.00
  -10    6   16     -0.15      0.00
   -9    6   16     -2.12      0.00
   -8    6   16     -6.80      0.00
   -7    6   16     -4.88      0.00
   -6    6   16      0.21      0.00
   -5    6   16      2.08      0.00
   -4    6   16      2.03      0.00
   -3    6   16      4.94      0.00
   -2    6   16     10.52      0.00
   -1    6   16      6.70      0.00
    0    6   16      0.18      0.00
    1    6   16     -0.77      0.00
    2    6   16     -5.98      0.00
    3    6   16     -8.20      0.00
    4    6   16     -5.91      0.00
    5    6   16     -2.13      0.00
    6    6   16     -1.79      0.00
    7    6   16     -1.46      0.00
    8    6   16      3.64      0.00
    9    6   16      4.92      0.00
   10    6   16      1.35      0.00
  -12    5   16      1.44      0.00
  -11    5   16     -1.09      0.00
  -10    5   16     -1.78      0.00
   -9    5   16      1.59      0.00
   -8    5   16      3.00      0.00
   -7    5   16      0.17      0.00
   -6    5   16     -7.29      0.00
   -5    5   16     -1.83      0.00
   -4    5   16      5.77      0.00
   -3    5   16      4.54      0.00
   -2    5   16     -6.72      0.00
   -1    5   16    -10.03      0.00
    0    5   16      7.83      0.00
    1    5   16      7.49      0.00
    2    5   16     -5.08      0.00
    3    5   16     -4.04      0.00
    4    5   16      2.79      0.00
    5    5   16      7.07      0.00
    6    5   16     -1.76      0.00
    7    5   16     -3.52      0.00
    8    5   16      2.25      0.00
    9    5   16      1.03      0.00
   10    5   16     -0.30      0.00
  -12    4   16      0.12      0.00
  -11    4   16     -1.48      0.00
  -10    4   16      0.12      0.00
   -9    4   16     -2.75      0.00
   -8    4   16     -8.24      0.00
   -7    4   16     -9.61      0.00
   -6    4   16     -2.03      0.00
   -5    4   16      6.46      0.00
   -4    4   16      4.95      0.00
   -3    4   16      2.41      0.00
   -2    4   16      5.33      0.00
   -1    4   16     11.50      0.00
    0    4   16      7.78      0.00
    1    4   16     -4.09      0.00
    2    4   16     -9.81      0.00
    3    4   16     -8.08      0.00
    4    4   16     -3.48      0.00
    5    4   16     -3.12      0.00
    6    4   16     -5.50      0.00
    7    4   16     -1.06      0.00
    8    4   16      3.30      0.00
    9    4   16      2.90      0.00
   10    4   16      0.25      0.00
  -12    3   16     -1.65      0.00
  -11    3   16     -2.33      0.00
  -10    3   16     -4.21      0.00
   -9    3   16     -3.67      0.00
   -8    3   16      1.12      0.00
   -7    3   16      5.20      0.00
   -6    3   16      4.78      0.00
   -5    3   16      7.74      0.00
   -4    3   16      9.86      0.00
   -3    3   16      6.44      0.00
   -2    3   16     -5.74      0.00
   -1    3   16    -13.21      0.00
    0    3   16     -3.19      0.00
    1    3   16     -6.73      0.00
    2    3   16    -15.25      0.00
    3    3   16     -5.45      0.00
    4    3   16      6.73      0.00
    5    3   16      9.80      0.00
    6    3   16      2.08      0.00
    7    3   16      2.71      0.00
    8    3   16      6.85      0.00
    9    3   16      3.22      0.00
   10    3   16     -1.23      0.00
  -12    2   16      0.87      0.00
  -11    2   16     -1.15      0.00
  -10    2   16      0.70      0.00
   -9    2   16      2.27      0.00
   -8    2   16      1.31      0.00
   -7    2   16     -2.28      0.00
   -6    2   16      0.91      0.00
   -5    2   16      5.32      0.00
   -4    2   16     -0.78      0.00
   -3    2   16     -9.00      0.00
   -2    2   16     -8.98      0.00
   -1    2   16      5.03      0.00
    0    2   16      6.30      0.00
    1    2   16     -7.52      0.00
    2    2   16     -2.20      0.00
    3    2   16      7.96      0.00
    4    2   16      8.45      0.00
    5    2   16     -0.39      0.00
    6    2   16     -5.29      0.00
    7    2   16      0.95      0.00
    8    2   16      1.32      0.00
    9    2   16     -2.96      0.00
   10    2   16     -4.41      0.00
  -12    1   16     -1.45      0.00
  -11    1   16     -1.47      0.00
  -10    1   16     -2.31      0.00
   -9    1   16     -2.56      0.00
   -8    1   16      0.20      0.00
   -7    1   16      3.60      0.00
   -6    1   16      5.42      0.00
   -5    1   16      5.98      0.00
   -4    1   16      5.10      0.00
   -3    1   16      2.74      0.00
   -2    1   16     -2.37      0.00
   -1    1   16     -6.02      0.00
    0    1   16     -3.47      0.00
    1    1   16     -5.89      0.00
    2    1   16     -8.72      0.00
    3    1   16     -2.59      0.00
    4    1   16      3.53      0.00
    5    1   16      4.31      0.00
    6    1   16      1.67      0.00
    7    1   16      3.17      0.00
    8    1   16      4.42      0.00
    9    1   16      1.44      0.00
   10    1   16     -1.75      0.00
   11    1   16     -1.59      0.00
  -12    0   16      0.50      0.00
  -11    0   16     -0.45      0.00
  -10    0   16      1.36      0.00
   -9    0   16      5.89      0.00
   -8    0   16      8.09      0.00
   -7    0   16      4.24      0.00
   -6    0   16      3.50      0.00
   -5    0   16      2.71      0.00
   -4    0   16     -6.18      0.00
   -3    0   16    -16.04      0.00
   -2    0   16    -16.56      0.00
   -1    0   16      0.07      0.00
    0    0   16      3.56      0.00
    1    0   16     -9.18      0.00
    2    0   16      3.41      0.00
    3    0   16     17.90      0.00
    4    0   16     15.08      0.00
    5    0   16      1.92      0.00
    6    0   16     -3.01      0.00
    7    0   16      2.73      0.00
    8    0   16     -1.01      0.00
    9    0   16     -7.64      0.00
   10    0   16     -6.95      0.00
   11    0   16     -1.00      0.00
   -4   15   16     -1.25      0.00
   -3   17   17      1.76      0.00
   -2   17   17     -1.97      0.00
   -1   17   17     -2.75      0.00
    0   17   17      1.01      0.00
    1   17   17      0.90      0.00
   -5   16   17     -0.29      0.00
   -4   16   17      0.08      0.00
   -3   16   17      0.40      0.00
   -2   16   17     -1.18      0.00
   -1   16   17     -1.65      0.00
    0   16   17      0.81      0.00
    1   16   17      1.47      0.00
    2   16   17     -1.01      0.00
    3   16   17     -2.32      0.00
   -6   15   17     -0.03      0.00
   -5   15   17     -0.80      0.00
   -4   15   17     -1.31      0.00
   -3   15   17      0.27      0.00
   -2   15   17     -2.62      0.00
   -1   15   17     -1.86      0.00
    0   15   17      0.38      0.00
    1   15   17      0.00      0.00
    2   15   17     -1.14      0.00
    3   15   17      1.32      0.00
    4   15   17      3.03      0.00
   -7   14   17      0.05      0.00
   -6   14   17     -3.00      0.00
   -5   14   17     -0.42      0.00
   -4   14   17      1.77      0.00
   -3   14   17     -0.07      0.00
   -2   14   17     -2.42      0.00
   -1   14   17      1.00      0.00
    0   14   17      4.90      0.00
    1   14   17      3.61      0.00
    2   14   17      0.15      0.00
    3   14   17      0.24      0.00
    4   14   17      2.05      0.00
    5   14   17      2.10      0.00
    6   14   17     -1.61      0.00
   -8   13   17     -0.22      0.00
   -7   13   17     -2.78      0.00
   -6   13   17      1.62      0.00
   -5   13   17      2.91      0.00
   -4   13   17     -1.57      0.00
   -3   13   17     -2.77      0.00
   -2   13   17      0.42      0.00
   -1   13   17      3.84      0.00
    0   13   17      0.14      0.00
    1   13   17     -3.24      0.00
    2   13   17     -2.21      0.00
    3   13   17      3.36      0.00
    4   13   17      5.20      0.00
    5   13   17      0.52      0.00
    6   13   17     -1.60      0.00
   -9   12   17      2.40      0.00
   -8   12   17      2.31      0.00
   -7   12   17      2.86      0.00
   -6   12   17     -0.99      0.00
   -5   12   17     -3.47      0.00
   -4   12   17     -2.00      0.00
   -3   12   17      0.25      0.00
   -2   12   17      0.09      0.00
   -1   12   17     -0.81      0.00
    0   12   17      3.08      0.00
    1   12   17      4.90      0.00
    2   12   17      3.67      0.00
    3   12   17      3.62      0.00
    4   12   17      0.21      0.00
    5   12   17     -1.10      0.00
    6   12   17     -4.64      0.00
    7   12   17     -3.25      0.00
   -9   11   17      2.71      0.00
   -8   11   17     -0.26      0.00
   -7   11   17     -5.33      0.00
   -6   11   17     -2.26      0.00
   -5   11   17      2.61      0.00
   -4   11   17     -0.05      0.00
   -3   11   17     -1.12      0.00
   -2   11   17      3.22      0.00
   -1   11   17      9.06      0.00
    0   11   17      4.74      0.00
    1   11   17     -3.38      0.00
    2   11   17     -2.98      0.00
    3   11   17     -0.30      0.00
    4   11   17      0.42      0.00
    5   11   17     -4.04      0.00
    6   11   17     -5.47      0.00
    7   11   17      2.01      0.00
    8   11   17      2.84      0.00
  -10   10   17      0.77      0.00
   -9   10   17      0.74      0.00
   -8   10   17     -1.20      0.00
   -7   10   17      2.14      0.00
   -6   10   17      1.50      0.00
   -5   10   17     -2.59      0.00
   -4   10   17     -2.10      0.00
   -3   10   17      3.51      0.00
   -2   10   17      3.96      0.00
   -1   10   17     -2.90      0.00
    0   10   17     -3.55      0.00
    1   10   17     -0.03      0.00
    2   10   17      1.08      0.00
    3   10   17      0.85      0.00
    4   10   17     -2.10      0.00
    5   10   17     -2.29      0.00
    6   10   17     -0.75      0.00
    7   10   17      1.60      0.00
    8   10   17      0.23      0.00
  -10    9   17      2.22      0.00
   -9    9   17      1.30      0.00
   -8    9   17     -1.54      0.00
   -7    9   17     -7.16      0.00
   -6    9   17     -5.93      0.00
   -5    9   17      1.54      0.00
   -4    9   17      2.02      0.00
   -3    9   17     -0.21      0.00
   -2    9   17     -0.82      0.00
   -1    9   17      7.68      0.00
    0    9   17      8.15      0.00
    1    9   17     -3.05      0.00
    2    9   17     -4.03      0.00
    3    9   17     -2.18      0.00
    4    9   17     -0.68      0.00
    5    9   17     -4.81      0.00
    6    9   17     -6.79      0.00
    7    9   17      0.79      0.00
    8    9   17      0.60      0.00
    9    9   17     -0.20      0.00
  -10    8   17     -0.21      0.00
   -9    8   17     -4.93      0.00
   -8    8   17     -5.93      0.00
   -7    8   17      0.62      0.00
   -6    8   17      7.04      0.00
   -5    8   17      3.50      0.00
   -4    8   17      0.89      0.00
   -3    8   17      5.06      0.00
   -2    8   17      7.74      0.00
   -1    8   17      0.76      0.00
    0    8   17    -10.22      0.00
    1    8   17     -9.36      0.00
    2    8   17     -3.46      0.00
    3    8   17     -1.38      0.00
    4    8   17     -2.83      0.00
    5    8   17     -3.89      0.00
    6    8   17      3.69      0.00
    7    8   17      8.24      0.00
    8    8   17      3.73      0.00
    9    8   17      0.34      0.00
  -11    7   17     -1.87      0.00
  -10    7   17      0.16      0.00
   -9    7   17      0.70      0.00
   -8    7   17      2.94      0.00
   -7    7   17      0.16      0.00
   -6    7   17     -1.45      0.00
   -5    7   17      1.77      0.00
   -4    7   17      2.00      0.00
   -3    7   17     -2.39      0.00
   -2    7   17     -7.86      0.00
   -1    7   17     -1.87      0.00
    0    7   17      2.29      0.00
    1    7   17     -2.87      0.00
    2    7   17     -0.20      0.00
    3    7   17      2.95      0.00
    4    7   17      3.53      0.00
    5    7   17      0.72      0.00
    6    7   17      0.45      0.00
    7    7   17      2.41      0.00
    8    7   17     -2.45      0.00
    9    7   17     -3.92      0.00
  -11    6   17      1.10      0.00
  -10    6   17      0.51      0.00
   -9    6   17     -4.81      0.00
   -8    6   17     -5.43      0.00
   -7    6   17     -0.22      0.00
   -6    6   17      8.53      0.00
   -5    6   17      4.05      0.00
   -4    6   17     -2.11      0.00
   -3    6   17     -0.35      0.00
   -2    6   17      7.77      0.00
   -1    6   17      6.68      0.00
    0    6   17    -10.32      0.00
    1    6   17    -10.61      0.00
    2    6   17     -0.94      0.00
    3    6   17      0.25      0.00
    4    6   17     -2.87      0.00
    5    6   17     -5.51      0.00
    6    6   17      3.02      0.00
    7    6   17      5.39      0.00
    8    6   17      0.18      0.00
    9    6   17      0.56      0.00
   10    6   17      0.58      0.00
  -11    5   17     -0.74      0.00
  -10    5   17     -2.15      0.00
   -9    5   17      1.40      0.00
   -8    5   17      7.83      0.00
   -7    5   17      9.05      0.00
   -6    5   17      4.15      0.00
   -5    5   17     -0.39      0.00
   -4    5   17     -0.35      0.00
   -3    5   17     -2.58      0.00
   -2    5   17     -8.37      0.00
   -1    5   17    -11.42      0.00
    0    5   17     -8.17      0.00
    1    5   17     -2.62      0.00
    2    5   17      4.22      0.00
    3    5   17      7.55      0.00
    4    5   17      5.81      0.00
    5    5   17      4.28      0.00
    6    5   17      5.97      0.00
    7    5   17      3.49      0.00
    8    5   17     -1.77      0.00
    9    5   17     -3.07      0.00
   10    5   17     -0.97      0.00
  -11    4   17      1.33      0.00
  -10    4   17      3.49      0.00
   -9    4   17      2.26      0.00
   -8    4   17     -0.36      0.00
   -7    4   17     -1.15      0.00
   -6    4   17      1.76      0.00
   -5    4   17     -3.19      0.00
   -4    4   17     -8.85      0.00
   -3    4   17     -7.58      0.00
   -2    4   17      3.33      0.00
   -1    4   17      8.33      0.00
    0    4   17     -3.14      0.00
    1    4   17      1.41      0.00
    2    4   17     12.08      0.00
    3    4   17      6.39      0.00
    4    4   17     -3.17      0.00
    5    4   17     -6.68      0.00
    6    4   17      0.59      0.00
    7    4   17     -0.20      0.00
    8    4   17     -5.37      0.00
    9    4   17     -2.98      0.00
   10    4   17      0.06      0.00
  -12    3   17     -1.06      0.00
  -11    3   17      0.63      0.00
  -10    3   17     -1.30      0.00
   -9    3   17      0.07      0.00
   -8    3   17      3.86      0.00
   -7    3   17      6.82      0.00
   -6    3   17      2.08      0.00
   -5    3   17     -4.05      0.00
   -4    3   17     -1.17      0.00
   -3    3   17      2.91      0.00
   -2    3   17      1.10      0.00
   -1    3   17     -8.85      0.00
    0    3   17     -7.69      0.00
    1    3   17      3.39      0.00
    2    3   17      3.40      0.00
    3    3   17     -0.42      0.00
    4    3   17     -1.78      0.00
    5    3   17      2.37      0.00
    6    3   17      6.09      0.00
    7    3   17      1.16      0.00
    8    3   17     -1.42      0.00
    9    3   17      0.23      0.00
   10    3   17      1.63      0.00
  -12    2   17      1.37      0.00
  -11    2   17      2.07      0.00
  -10    2   17      4.58      0.00
   -9    2   17      5.51      0.00
   -8    2   17      2.65      0.00
   -7    2   17     -1.07      0.00
   -6    2   17     -4.14      0.00
   -5    2   17     -7.93      0.00
   -4    2   17    -10.07      0.00
   -3    2   17     -8.16      0.00
   -2    2   17     -0.44      0.00
   -1    2   17      4.83      0.00
    0    2   17      1.48      0.00
    1    2   17      8.03      0.00
    2    2   17     15.81      0.00
    3    2   17      8.28      0.00
    4    2   17     -1.60      0.00
    5    2   17     -3.97      0.00
    6    2   17     -0.22      0.00
    7    2   17     -3.29      0.00
    8    2   17     -7.09      0.00
    9    2   17     -4.36      0.00
   10    2   17      0.42      0.00
  -12    1   17      0.16      0.00
  -11    1   17      1.74      0.00
  -10    1   17      0.11      0.00
   -9    1   17     -3.07      0.00
   -8    1   17     -4.31      0.00
   -7    1   17     -3.09      0.00
   -6    1   17     -5.64      0.00
   -5    1   17     -6.60      0.00
   -4    1   17      1.23      0.00
   -3    1   17     10.68      0.00
   -2    1   17     12.21      0.00
   -1    1   17      0.50      0.00
    0    1   17      1.00      0.00
    1    1   17     12.58      0.00
    2    1   17      1.33      0.00
    3    1   17    -12.19      0.00
    4    1   17    -11.94      0.00
    5    1   17     -2.36      0.00
    6    1   17      1.18      0.00
    7    1   17     -4.38      0.00
    8    1   17     -2.02      0.00
    9    1   17      4.56      0.00
   10    1   17      5.94      0.00
  -11    8   17      0.08      0.00
   -4   16   18      1.05      0.00
   -3   16   18     -2.35      0.00
   -2   16   18      2.02      0.00
   -1   16   18      3.63      0.00
    0   16   18      0.63      0.00
    1   16   18      0.32      0.00
    2   16   18      0.86      0.00
   -5   15   18      0.28      0.00
   -4   15   18     -1.60      0.00
   -3   15   18     -0.15      0.00
   -2   15   18      3.08      0.00
   -1   15   18      1.26      0.00
    0   15   18     -2.70      0.00
    1   15   18     -2.60      0.00
    2   15   18      0.91      0.00
    3   15   18      1.99      0.00
    4   15   18     -1.11      0.00
   -7   14   18      2.51      0.00
   -6   14   18      0.28      0.00
   -5   14   18     -0.15      0.00
   -4   14   18      1.45      0.00
   -3   14   18      1.28      0.00
   -2   14   18      1.77      0.00
   -1   14   18     -0.02      0.00
    0   14   18      0.45      0.00
    1   14   18      2.44      0.00
    2   14   18      2.87      0.00
    3   14   18     -1.98      0.00
    4   14   18     -4.58      0.00
    5   14   18     -1.70      0.00
   -7   13   18     -1.19      0.00
   -6   13   18      2.02      0.00
   -5   13   18      1.02      0.00
   -4   13   18     -0.55      0.00
   -3   13   18      1.13      0.00
   -2   13   18      3.18      0.00
   -1   13   18      0.77      0.00
    0   13   18     -3.71      0.00
    1   13   18     -3.77      0.00
    2   13   18     -2.14      0.00
    3   13   18     -2.93      0.00
    4   13   18     -1.83      0.00
    5   13   18     -1.08      0.00
    6   13   18      3.08      0.00
   -8   12   18     -0.72      0.00
   -7   12   18      3.24      0.00
   -6   12   18     -0.29      0.00
   -5   12   18     -3.01      0.00
   -4   12   18      1.47      0.00
   -3   12   18      2.76      0.00
   -2   12   18     -2.28      0.00
   -1   12   18     -7.13      0.00
    0   12   18     -2.78      0.00
    1   12   18      2.56      0.00
    2   12   18      1.54      0.00
    3   12   18     -2.52      0.00
    4   12   18     -3.58      0.00
    5   12   18      1.08      0.00
    6   12   18      2.86      0.00
    7   12   18     -1.93      0.00
   -9   11   18     -1.97      0.00
   -8   11   18     -1.04      0.00
   -7   11   18     -2.79      0.00
   -6   11   18     -0.60      0.00
   -5   11   18      2.49      0.00
   -4   11   18      2.31      0.00
   -3   11   18     -0.97      0.00
   -2   11   18     -0.90      0.00
   -1   11   18      2.85      0.00
    0   11   18      0.69      0.00
    1   11   18     -2.32      0.00
    2   11   18     -3.20      0.00
    3   11   18     -3.68      0.00
    4   11   18     -0.20      0.00
    5   11   18      0.67      0.00
    6   11   18      2.03      0.00
    7   11   18      0.49      0.00
   -9   10   18     -3.23      0.00
   -8   10   18     -0.43      0.00
   -7   10   18      5.43      0.00
   -6   10   18      4.10      0.00
   -5   10   18     -0.60      0.00
   -4   10   18      1.69      0.00
   -3   10   18      2.37      0.00
   -2   10   18     -1.25      0.00
   -1   10   18     -9.08      0.00
    0   10   18     -7.64      0.00
    1   10   18      0.50      0.00
    2   10   18      0.22      0.00
    3   10   18     -0.57      0.00
    4   10   18     -0.10      0.00
    5   10   18      5.36      0.00
    6   10   18      7.52      0.00
    7   10   18     -0.46      0.00
    8   10   18     -0.74      0.00
  -10    9   18     -0.70      0.00
   -9    9   18      1.96      0.00
   -8    9   18      4.09      0.00
   -7    9   18      0.12      0.00
   -6    9   18     -2.44      0.00
   -5    9   18      0.71      0.00
   -4    9   18      0.29      0.00
   -3    9   18     -6.00      0.00
   -2    9   18     -7.40      0.00
   -1    9   18     -0.27      0.00
    0    9   18      4.74      0.00
    1    9   18      2.76      0.00
    2    9   18      0.88      0.00
    3    9   18      1.48      0.00
    4    9   18      4.17      0.00
    5    9   18      4.43      0.00
    6    9   18     -1.36      0.00
    7    9   18     -5.56      0.00
    8    9   18     -2.45      0.00
  -10    8   18     -1.15      0.00
   -9    8   18     -1.14      0.00
   -8    8   18     -0.69      0.00
   -7    8   18      3.67      0.00
   -6    8   18      3.66      0.00
   -5    8   18     -1.59      0.00
   -4    8   18     -1.66      0.00
   -3    8   18      1.62      0.00
   -2    8   18      4.32      0.00
   -1    8   18     -3.70      0.00
    0    8   18     -6.23      0.00
    1    8   18      1.67      0.00
    2    8   18      1.21      0.00
    3    8   18     -0.33      0.00
    4    8   18     -0.98      0.00
    5    8   18      2.31      0.00
    6    8   18      3.01      0.00
    7    8   18     -1.27      0.00
    8    8   18      2.24      0.00
    9    8   18      3.10      0.00
  -10    7   18     -0.43      0.00
   -9    7   18      5.73      0.00
   -8    7   18      7.34      0.00
   -7    7   18      2.25      0.00
   -6    7   18     -5.45      0.00
   -5    7   18     -2.36      0.00
   -4    7   18      0.14      0.00
   -3    7   18     -4.16      0.00
   -2    7   18    -10.17      0.00
   -1    7   18     -6.42      0.00
    0    7   18      7.47      0.00
    1    7   18      8.42      0.00
    2    7   18      3.53      0.00
    3    7   18      3.40      0.00
    4    7   18      5.40      0.00
    5    7   18      6.64      0.00
    6    7   18     -2.01      0.00
    7    7   18     -5.68      0.00
    8    7   18     -1.54      0.00
    9    7   18     -1.03      0.00
  -11    6   18      1.93      0.00
  -10    6   18      2.65      0.00
   -9    6   18      0.41      0.00
   -8    6   18     -4.54      0.00
   -7    6   18     -4.84      0.00
   -6    6   18     -2.90      0.00
   -5    6   18     -3.25      0.00
   -4    6   18     -3.65      0.00
   -3    6   18      0.48      0.00
   -2    6   18      6.76      0.00
   -1    6   18      6.51      0.00
    0    6   18      4.79      0.00
    1    6   18      5.76      0.00
    2    6   18      0.88      0.00
    3    6   18     -3.55      0.00
    4    6   18     -3.90      0.00
    5    6   18     -2.72      0.00
    6    6   18     -4.75      0.00
    7    6   18     -4.47      0.00
    8    6   18      1.27      0.00
    9    6   18      3.16      0.00
  -11    5   18     -1.02      0.00
  -10    5   18     -1.86      0.00
   -9    5   18      1.33      0.00
   -8    5   18      2.84      0.00
   -7    5   18      1.07      0.00
   -6    5   18     -4.61      0.00
   -5    5   18     -0.41      0.00
   -4    5   18      5.07      0.00
   -3    5   18      3.91      0.00
   -2    5   18     -5.34      0.00
   -1    5   18     -6.91      0.00
    0    5   18      6.28      0.00
    1    5   18      3.40      0.00
    2    5   18     -5.33      0.00
    3    5   18     -2.34      0.00
    4    5   18      3.40      0.00
    5    5   18      5.56      0.00
    6    5   18     -1.83      0.00
    7    5   18     -1.40      0.00
    8    5   18      3.60      0.00
    9    5   18      1.39      0.00
  -11    4   18      1.20      0.00
  -10    4   18      3.91      0.00
   -9    4   18      1.02      0.00
   -8    4   18     -4.65      0.00
   -7    4   18     -8.18      0.00
   -6    4   18     -5.18      0.00
   -5    4   18     -0.86      0.00
   -4    4   18     -1.93      0.00
   -3    4   18     -1.83      0.00
   -2    4   18      2.45      0.00
   -1    4   18     10.38      0.00
    0    4   18     10.18      0.00
    1    4   18      4.15      0.00
    2    4   18      0.98      0.00
    3    4   18     -1.15      0.00
    4    4   18     -1.46      0.00
    5    4   18     -3.43      0.00
    6    4   18     -6.77      0.00
    7    4   18     -3.71      0.00
    8    4   18     -0.20      0.00
    9    4   18      0.09      0.00
   10    4   18     -0.49      0.00
  -11    3   18     -0.79      0.00
  -10    3   18     -4.13      0.00
   -9    3   18     -5.44      0.00
   -8    3   18     -4.06      0.00
   -7    3   18     -2.28      0.00
   -6    3   18     -0.80      0.00
   -5    3   18      4.62      0.00
   -4    3   18      9.86      0.00
   -3    3   18      9.82      0.00
   -2    3   18      2.52      0.00
   -1    3   18     -1.00      0.00
    0    3   18      4.36      0.00
    1    3   18     -4.23      0.00
    2    3   18    -15.33      0.00
    3    3   18     -9.95      0.00
    4    3   18     -0.61      0.00
    5    3   18      2.08      0.00
    6    3   18     -2.50      0.00
    7    3   18      1.07      0.00
    8    3   18      6.41      0.00
    9    3   18      4.71      0.00
   10    3   18      0.76      0.00
  -11    2   18     -1.28      0.00
  -10    2   18      0.25      0.00
   -9    2   18      0.88      0.00
   -8    2   18     -0.12      0.00
   -7    2   18     -1.26      0.00
   -6    2   18      2.42      0.00
   -5    2   18      5.61      0.00
   -4    2   18      1.08      0.00
   -3    2   18     -5.01      0.00
   -2    2   18     -5.30      0.00
   -1    2   18      3.49      0.00
    0    2   18      0.96      0.00
    1    2   18     -9.09      0.00
    2    2   18     -2.59      0.00
    3    2   18      5.59      0.00
    4    2   18      6.11      0.00
    5    2   18      0.03      0.00
    6    2   18     -2.79      0.00
    7    2   18      2.26      0.00
    8    2   18      2.19      0.00
    9    2   18     -1.93      0.00
   10    2   18     -3.28      0.00
  -11    1   18     -0.56      0.00
  -10    1   18     -2.41      0.00
   -9    1   18     -3.61      0.00
   -8    1   18     -3.07      0.00
   -7    1   18     -1.81      0.00
   -6    1   18      0.71      0.00
   -5    1   18      3.60      0.00
   -4    1   18      5.62      0.00
   -3    1   18      5.39      0.00
   -2    1   18      2.65      0.00
   -1    1   18      0.96      0.00
    0    1   18      1.73      0.00
    1    1   18     -3.09      0.00
    2    1   18     -8.54      0.00
    3    1   18     -5.99      0.00
    4    1   18     -1.37      0.00
    5    1   18     -0.23      0.00
    6    1   18     -1.58      0.00
    7    1   18      1.02      0.00
    8    1   18      3.80      0.00
    9    1   18      3.20      0.00
   10    1   18      0.46      0.00
  -11    0   18     -2.87      0.00
  -10    0   18     -2.04      0.00
   -9    0   18      0.95      0.00
   -8    0   18      2.60      0.00
   -7    0   18      4.11      0.00
   -6    0   18      8.38      0.00
   -5    0   18      9.30      0.00
   -4    0   18      2.08      0.00
   -3    0   18     -7.10      0.00
   -2    0   18     -9.37      0.00
   -1    0   18     -1.61      0.00
    0    0   18     -5.89      0.00
    1    0   18    -17.30      0.00
    2    0   18     -5.38      0.00
    3    0   18      8.95      0.00
    4    0   18     10.28      0.00
    5    0   18      2.73      0.00
    6    0   18      1.28      0.00
    7    0   18      7.29      0.00
    8    0   18      4.70      0.00
    9    0   18     -2.97      0.00
   10    0   18     -5.80      0.00
  -11    7   18     -1.34      0.00
   -3   16   19      1.25      0.00
   -2   16   19     -0.58      0.00
   -1   16   19     -1.94      0.00
    0   16   19      0.78      0.00
    1   16   19      1.98      0.00
   -5   15   19     -2.56      0.00
   -4   15   19     -1.24      0.00
   -3   15   19      1.33      0.00
   -2   15   19     -2.08      0.00
   -1   15   19     -2.83      0.00
    0   15   19     -1.18      0.00
    1   15   19     -1.78      0.00
    2   15   19     -2.63      0.00
    3   15   19     -0.11      0.00
   -6   14   19     -3.35      0.00
   -5   14   19     -0.65      0.00
   -4   14   19      1.68      0.00
   -3   14   19     -0.89      0.00
   -2   14   19     -4.72      0.00
   -1   14   19     -2.23      0.00
    0   14   19      2.59      0.00
    1   14   19      2.74      0.00
    2   14   19      0.13      0.00
    3   14   19     -0.25      0.00
    4   14   19      0.51      0.00
   -7   13   19     -2.62      0.00
   -6   13   19     -0.13      0.00
   -5   13   19      1.70      0.00
   -4   13   19     -1.06      0.00
   -3   13   19     -2.22      0.00
   -2   13   19     -0.14      0.00
   -1   13   19      3.38      0.00
    0   13   19      1.45      0.00
    1   13   19     -2.46      0.00
    2   13   19     -3.12      0.00
    3   13   19      1.37      0.00
    4   13   19      4.00      0.00
    5   13   19      1.19      0.00
   -8   12   19      1.17      0.00
   -7   12   19      1.46      0.00
   -6   12   19     -0.67      0.00
   -5   12   19     -0.76      0.00
   -4   12   19     -0.68      0.00
   -3   12   19     -1.44      0.00
   -2   12   19     -2.78      0.00
   -1   12   19     -2.87      0.00
    0   12   19      0.33      0.00
    1   12   19      1.30      0.00
    2   12   19      1.97      0.00
    3   12   19      4.11      0.00
    4   12   19      2.19      0.00
    5   12   19      1.36      0.00
    6   12   19     -2.12      0.00
   -8   11   19      1.71      0.00
   -7   11   19     -2.84      0.00
   -6   11   19     -0.68      0.00
   -5   11   19      1.75      0.00
   -4   11   19     -3.28      0.00
   -3   11   19     -4.16      0.00
   -2   11   19      1.38      0.00
   -1   11   19      7.69      0.00
    0   11   19      4.96      0.00
    1   11   19     -0.45      0.00
    2   11   19      1.13      0.00
    3   11   19      3.05      0.00
    4   11   19      2.41      0.00
    5   11   19     -3.33      0.00
    6   11   19     -5.56      0.00
    7   11   19      1.34      0.00
   -9   10   19      0.85      0.00
   -8   10   19     -0.88      0.00
   -7   10   19      1.09      0.00
   -6   10   19      0.82      0.00
   -5   10   19     -2.15      0.00
   -4   10   19     -1.70      0.00
   -3   10   19      3.64      0.00
   -2   10   19      4.10      0.00
   -1   10   19     -1.48      0.00
    0   10   19     -2.19      0.00
    1   10   19      0.54      0.00
    2   10   19      1.98      0.00
    3   10   19      1.65      0.00
    4   10   19     -1.65      0.00
    5   10   19     -2.10      0.00
    6   10   19      0.53      0.00
    7   10   19      3.55      0.00
   -9    9   19      2.72      0.00
   -8    9   19      1.05      0.00
   -7    9   19     -4.06      0.00
   -6    9   19     -3.39      0.00
   -5    9   19      0.49      0.00
   -4    9   19     -1.76      0.00
   -3    9   19     -3.54      0.00
   -2    9   19     -2.61      0.00
   -1    9   19      5.85      0.00
    0    9   19      7.28      0.00
    1    9   19      0.85      0.00
    2    9   19      1.87      0.00
    3    9   19      2.08      0.00
    4    9   19      1.10      0.00
    5    9   19     -3.83      0.00
    6    9   19     -5.36      0.00
    7    9   19      0.50      0.00
    8    9   19     -1.62      0.00
  -10    8   19      1.17      0.00
   -9    8   19     -3.62      0.00
   -8    8   19     -6.16      0.00
   -7    8   19     -2.80      0.00
   -6    8   19      1.51      0.00
   -5    8   19     -1.66      0.00
   -4    8   19     -1.20      0.00
   -3    8   19      5.74      0.00
   -2    8   19     10.01      0.00
   -1    8   19      5.42      0.00
    0    8   19     -2.78      0.00
    1    8   19     -2.57      0.00
    2    8   19     -1.33      0.00
    3    8   19     -3.51      0.00
    4    8   19     -6.47      0.00
    5    8   19     -7.15      0.00
    6    8   19      0.57      0.00
    7    8   19      4.81      0.00
    8    8   19      1.71      0.00
  -10    7   19     -1.19      0.00
   -9    7   19     -0.35      0.00
   -8    7   19      1.77      0.00
   -7    7   19      0.04      0.00
   -6    7   19     -0.21      0.00
   -5    7   19      3.27      0.00
   -4    7   19      4.06      0.00
   -3    7   19      0.21      0.00
   -2    7   19     -4.47      0.00
   -1    7   19     -0.27      0.00
    0    7   19      1.14      0.00
    1    7   19     -3.83      0.00
    2    7   19     -1.62      0.00
    3    7   19      1.10      0.00
    4    7   19      1.58      0.00
    5    7   19     -0.03      0.00
    6    7   19      1.79      0.00
    7    7   19      3.73      0.00
    8    7   19     -1.44      0.00
  -10    6   19      1.46      0.00
   -9    6   19     -3.63      0.00
   -8    6   19     -5.67      0.00
   -7    6   19     -3.14      0.00
   -6    6   19      3.34      0.00
   -5    6   19      0.22      0.00
   -4    6   19     -2.76      0.00
   -3    6   19      0.42      0.00
   -2    6   19      8.79      0.00
   -1    6   19      8.56      0.00
    0    6   19     -4.07      0.00
    1    6   19     -3.34      0.00
    2    6   19      1.22      0.00
    3    6   19     -1.78      0.00
    4    6   19     -5.59      0.00
    5    6   19     -6.57      0.00
    6    6   19      1.13      0.00
    7    6   19      1.86      0.00
    8    6   19     -2.26      0.00
    9    6   19     -0.39      0.00
  -11    5   19     -1.83      0.00
  -10    5   19     -5.06      0.00
   -9    5   19     -3.01      0.00
   -8    5   19      2.33      0.00
   -7    5   19      5.55      0.00
   -6    5   19      4.81      0.00
   -5    5   19      4.17      0.00
   -4    5   19      5.59      0.00
   -3    5   19      3.53      0.00
   -2    5   19     -1.46      0.00
   -1    5   19     -6.66      0.00
    0    5   19     -8.34      0.00
    1    5   19     -8.28      0.00
    2    5   19     -5.19      0.00
    3    5   19     -0.84      0.00
    4    5   19      0.73      0.00
    5    5   19      1.93      0.00
    6    5   19      5.70      0.00
    7    5   19      4.83      0.00
    8    5   19      0.75      0.00
    9    5   19     -0.47      0.00
  -11    4   19      0.12      0.00
  -10    4   19      2.40      0.00
   -9    4   19      2.52      0.00
   -8    4   19      2.18      0.00
   -7    4   19      2.33      0.00
   -6    4   19      3.87      0.00
   -5    4   19     -0.76      0.00
   -4    4   19     -6.34      0.00
   -3    4   19     -6.74      0.00
   -2    4   19     -0.02      0.00
   -1    4   19      0.89      0.00
    0    4   19     -7.42      0.00
    1    4   19     -0.11      0.00
    2    4   19     10.08      0.00
    3    4   19      6.29      0.00
    4    4   19     -0.55      0.00
    5    4   19     -1.96      0.00
    6    4   19      3.66      0.00
    7    4   19      0.27      0.00
    8    4   19     -5.23      0.00
    9    4   19     -3.34      0.00
  -11    3   19     -0.36      0.00
  -10    3   19     -2.93      0.00
   -9    3   19     -1.82      0.00
   -8    3   19      1.08      0.00
   -7    3   19      3.72      0.00
   -6    3   19      1.76      0.00
   -5    3   19     -1.05      0.00
   -4    3   19      1.31      0.00
   -3    3   19      3.83      0.00
   -2    3   19      2.21      0.00
   -1    3   19     -5.90      0.00
    0    3   19     -4.90      0.00
    1    3   19      1.07      0.00
    2    3   19     -1.76      0.00
    3    3   19     -3.82      0.00
    4    3   19     -2.78      0.00
    5    3   19      1.41      0.00
    6    3   19      4.31      0.00
    7    3   19      0.76      0.00
    8    3   19     -0.21      0.00
    9    3   19      1.62      0.00
  -11    2   19     -0.85      0.00
  -10    2   19      2.24      0.00
   -9    2   19      4.67      0.00
   -8    2   19      5.40      0.00
   -7    2   19      5.28      0.00
   -6    2   19      2.65      0.00
   -5    2   19     -2.22      0.00
   -4    2   19     -6.86      0.00
   -3    2   19     -7.78      0.00
   -2    2   19     -5.04      0.00
   -1    2   19     -4.97      0.00
    0    2   19     -7.74      0.00
    1    2   19      0.27      0.00
    2    2   19     10.44      0.00
    3    2   19      8.91      0.00
    4    2   19      3.29      0.00
    5    2   19      2.04      0.00
    6    2   19      4.82      0.00
    7    2   19      0.66      0.00
    8    2   19     -4.32      0.00
    9    2   19     -4.45      0.00
  -11    1   19      2.42      0.00
  -10    1   19      2.32      0.00
   -9    1   19      1.13      0.00
   -8    1   19      0.71      0.00
   -7    1   19     -1.27      0.00
   -6    1   19     -6.27      0.00
   -5    1   19     -8.62      0.00
   -4    1   19     -3.95      0.00
   -3    1   19      2.60      0.00
   -2    1   19      3.58      0.00
   -1    1   19     -2.07      0.00
    0    1   19      4.21      0.00
    1    1   19     15.36      0.00
    2    1   19      6.91      0.00
    3    1   19     -3.86      0.00
    4    1   19     -5.70      0.00
    5    1   19     -0.41      0.00
    6    1   19     -0.16      0.00
    7    1   19     -6.46      0.00
    8    1   19     -5.23      0.00
    9    1   19      0.92      0.00
   -4   15   20     -1.31      0.00
   -3   15   20     -0.97      0.00
   -2   15   20      2.63      0.00
   -1   15   20      2.80      0.00
    0   15   20     -1.02      0.00
    1   15   20     -2.43      0.00
    2   15   20      0.02      0.00
   -5   14   20      0.67      0.00
   -4   14   20      0.21      0.00
   -3   14   20     -0.27      0.00
   -2   14   20      1.54      0.00
   -1   14   20      0.30      0.00
    0   14   20     -0.63      0.00
    1   14   20      1.52      0.00
    2   14   20      3.56      0.00
    3   14   20      0.64      0.00
   -6   13   20      2.74      0.00
   -5   13   20      0.47      0.00
   -4   13   20     -0.77      0.00
   -3   13   20      2.14      0.00
   -2   13   20      5.22      0.00
   -1   13   20      3.50      0.00
    0   13   20     -0.51      0.00
    1   13   20     -0.62      0.00
    2   13   20      0.07      0.00
    3   13   20     -1.48      0.00
    4   13   20     -1.16      0.00
   -7   12   20      1.85      0.00
   -6   12   20     -0.38      0.00
   -5   12   20     -2.25      0.00
   -4   12   20      2.24      0.00
   -3   12   20      3.82      0.00
   -2   12   20     -0.12      0.00
   -1   12   20     -4.98      0.00
    0   12   20     -3.23      0.00
    1   12   20      1.06      0.00
    2   12   20      1.08      0.00
    3   12   20     -1.64      0.00
    4   12   20     -2.65      0.00
    5   12   20      1.19      0.00
   -8   11   20     -0.56      0.00
   -7   11   20     -1.15      0.00
   -6   11   20     -0.09      0.00
   -5   11   20      0.75      0.00
   -4   11   20      1.01      0.00
   -3   11   20     -0.68      0.00
   -2   11   20     -0.15      0.00
   -1   11   20      2.54      0.00
    0   11   20      1.57      0.00
    1   11   20      0.57      0.00
    2   11   20     -0.94      0.00
    3   11   20     -3.00      0.00
    4   11   20     -1.19      0.00
    5   11   20     -0.74      0.00
    6   11   20      0.05      0.00
   -8   10   20     -1.89      0.00
   -7   10   20      2.22      0.00
   -6   10   20      0.42      0.00
   -5   10   20     -1.39      0.00
   -4   10   20      4.12      0.00
   -3   10   20      5.55      0.00
   -2   10   20      2.05      0.00
   -1   10   20     -4.79      0.00
    0   10   20     -4.52      0.00
    1   10   20     -0.47      0.00
    2   10   20     -3.41      0.00
    3   10   20     -4.46      0.00
    4   10   20     -2.67      0.00
    5   10   20      3.45      0.00
    6   10   20      5.55      0.00
    7   10   20     -0.94      0.00
   -9    9   20      0.31      0.00
   -8    9   20      2.44      0.00
   -7    9   20      0.76      0.00
   -6    9   20      0.02      0.00
   -5    9   20      3.96      0.00
   -4    9   20      3.06      0.00
   -3    9   20     -4.27      0.00
   -2    9   20     -6.59      0.00
   -1    9   20     -1.93      0.00
    0    9   20      0.99      0.00
    1    9   20     -1.06      0.00
    2    9   20     -1.76      0.00
    3    9   20      0.74      0.00
    4    9   20      4.45      0.00
    5    9   20      5.01      0.00
    6    9   20     -0.42      0.00
    7    9   20     -4.05      0.00
   -9    8   20     -1.33      0.00
   -8    8   20     -1.13      0.00
   -7    8   20      2.41      0.00
   -6    8   20      1.94      0.00
   -5    8   20     -1.62      0.00
   -4    8   20     -0.94      0.00
   -3    8   20      1.88      0.00
   -2    8   20      4.17      0.00
   -1    8   20     -2.44      0.00
    0    8   20     -4.42      0.00
    1    8   20      0.44      0.00
    2    8   20     -1.39      0.00
    3    8   20     -2.39      0.00
    4    8   20     -1.60      0.00
    5    8   20      1.61      0.00
    6    8   20      0.99      0.00
    7    8   20     -2.60      0.00
    8    8   20      1.31      0.00
  -10    7   20     -1.80      0.00
   -9    7   20      3.29      0.00
   -8    7   20      6.08      0.00
   -7    7   20      4.11      0.00
   -6    7   20     -0.49      0.00
   -5    7   20      3.05      0.00
   -4    7   20      3.49      0.00
   -3    7   20     -2.26      0.00
   -2    7   20     -9.33      0.00
   -1    7   20     -8.63      0.00
    0    7   20     -0.07      0.00
    1    7   20     -0.72      0.00
    2    7   20     -1.75      0.00
    3    7   20      2.76      0.00
    4    7   20      6.70      0.00
    5    7   20      7.33      0.00
    6    7   20      0.11      0.00
    7    7   20     -1.78      0.00
    8    7   20      1.15      0.00
  -10    6   20      3.65      0.00
   -9    6   20      3.08      0.00
   -8    6   20     -0.16      0.00
   -7    6   20     -1.34      0.00
   -6    6   20     -1.60      0.00
   -5    6   20     -4.01      0.00
   -4    6   20     -6.30      0.00
   -3    6   20     -3.91      0.00
   -2    6   20      0.30      0.00
   -1    6   20      1.00      0.00
    0    6   20      2.70      0.00
    1    6   20      6.86      0.00
    2    6   20      5.37      0.00
    3    6   20      1.90      0.00
    4    6   20      0.58      0.00
    5    6   20      0.39      0.00
    6    6   20     -3.37      0.00
    7    6   20     -4.59      0.00
    8    6   20     -0.54      0.00
  -10    5   20     -1.94      0.00
   -9    5   20      0.15      0.00
   -8    5   20      1.06      0.00
   -7    5   20      0.30      0.00
   -6    5   20     -3.30      0.00
   -5    5   20      0.06      0.00
   -4    5   20      3.86      0.00
   -3    5   20      2.88      0.00
   -2    5   20     -4.36      0.00
   -1    5   20     -4.59      0.00
    0    5   20      4.92      0.00
    1    5   20      0.26      0.00
    2    5   20     -6.26      0.00
    3    5   20     -2.06      0.00
    4    5   20      3.19      0.00
    5    5   20      3.47      0.00
    6    5   20     -2.87      0.00
    7    5   20     -0.46      0.00
    8    5   20      4.24      0.00
  -10    4   20      4.76      0.00
   -9    4   20      4.09      0.00
   -8    4   20      0.98      0.00
   -7    4   20     -2.53      0.00
   -6    4   20     -2.80      0.00
   -5    4   20     -2.44      0.00
   -4    4   20     -4.87      0.00
   -3    4   20     -5.69      0.00
   -2    4   20     -3.73      0.00
   -1    4   20      3.07      0.00
    0    4   20      4.93      0.00
    1    4   20      4.51      0.00
    2    4   20      6.35      0.00
    3    4   20      5.19      0.00
    4    4   20      2.95      0.00
    5    4   20     -0.12      0.00
    6    4   20     -3.71      0.00
    7    4   20     -2.39      0.00
    8    4   20     -0.95      0.00
    9    4   20     -1.44      0.00
  -11    3   20      1.81      0.00
  -10    3   20     -0.59      0.00
   -9    3   20     -2.78      0.00
   -8    3   20     -4.71      0.00
   -7    3   20     -6.11      0.00
   -6    3   20     -5.51      0.00
   -5    3   20     -1.00      0.00
   -4    3   20      4.28      0.00
   -3    3   20      5.46      0.00
   -2    3   20      2.89      0.00
   -1    3   20      5.31      0.00
    0    3   20     11.35      0.00
    1    3   20      3.44      0.00
    2    3   20     -7.41      0.00
    3    3   20     -6.50      0.00
    4    3   20     -1.80      0.00
    5    3   20     -1.83      0.00
    6    3   20     -6.50      0.00
    7    3   20     -1.95      0.00
    8    3   20      3.74      0.00
    9    3   20      3.60      0.00
  -11    2   20     -0.93      0.00
  -10    2   20     -0.18      0.00
   -9    2   20     -0.61      0.00
   -8    2   20     -1.54      0.00
   -7    2   20     -1.13      0.00
   -6    2   20      2.16      0.00
   -5    2   20      4.50      0.00
   -4    2   20      1.80      0.00
   -3    2   20     -1.87      0.00
   -2    2   20     -1.24      0.00
   -1    2   20      4.55      0.00
    0    2   20     -0.15      0.00
    1    2   20     -8.19      0.00
    2    2   20     -2.70      0.00
    3    2   20      2.92      0.00
    4    2   20      2.93      0.00
    5    2   20     -1.42      0.00
    6    2   20     -1.76      0.00
    7    2   20      3.61      0.00
    8    2   20      3.16      0.00
    9    2   20     -0.83      0.00
  -11    1   20      1.40      0.00
  -10    1   20     -0.03      0.00
   -9    1   20     -1.52      0.00
   -8    1   20     -2.77      0.00
   -7    1   20     -3.91      0.00
   -6    1   20     -2.73      0.00
   -5    1   20     -0.25      0.00
   -4    1   20      2.29      0.00
   -3    1   20      2.84      0.00
   -2    1   20      2.63      0.00
   -1    1   20      4.34      0.00
    0    1   20      6.43      0.00
    1    1   20      2.79      0.00
    2    1   20     -2.93      0.00
    3    1   20     -3.96      0.00
    4    1   20     -2.46      0.00
    5    1   20     -2.47      0.00
    6    1   20     -4.10      0.00
    7    1   20     -1.69      0.00
    8    1   20      1.16      0.00
    9    1   20      2.05      0.00
  -11    0   20     -2.04      0.00
  -10    0   20     -3.33      0.00
   -9    0   20     -3.19      0.00
   -8    0   20     -3.44      0.00
   -7    0   20     -0.12      0.00
   -6    0   20      5.99      0.00
   -5    0   20      8.98      0.00
   -4    0   20      5.66      0.00
   -3    0   20      0.78      0.00
   -2    0   20      1.47      0.00
   -1    0   20      5.67      0.00
    0    0   20     -2.85      0.00
    1    0   20    -15.31      0.00
    2    0   20     -9.51      0.00
    3    0   20     -0.39      0.00
    4    0   20      2.10      0.00
    5    0   20     -1.78      0.00
    6    0   20      0.15      0.00
    7    0   20      7.77      0.00
    8    0   20      6.95      0.00
    9    0   20      0.96      0.00
   -2   15   21     -0.32      0.00
   -1   15   21     -1.05      0.00
    0   15   21      0.54      0.00
   -4   14   21      1.16      0.00
   -3   14   21     -0.41      0.00
   -2   14   21     -4.23      0.00
   -1   14   21     -3.91      0.00
    0   14   21     -0.09      0.00
    1   14   21      1.22      0.00
    2   14   21      0.01      0.00
   -6   13   21     -0.27      0.00
   -5   13   21      1.02      0.00
   -4   13   21     -0.15      0.00
   -3   13   21     -1.29      0.00
   -2   13   21     -1.30      0.00
   -1   13   21      1.69      0.00
    0   13   21      2.83      0.00
    1   13   21      0.07      0.00
    2   13   21     -2.37      0.00
    3   13   21     -0.74      0.00
   -7   12   21     -0.32      0.00
   -6   12   21     -1.62      0.00
   -5   12   21      0.25      0.00
   -4   12   21      0.53      0.00
   -3   12   21     -1.15      0.00
   -2   12   21     -2.93      0.00
   -1   12   21     -2.75      0.00
    0   12   21     -0.66      0.00
    1   12   21     -1.48      0.00
    2   12   21     -1.36      0.00
    3   12   21      1.50      0.00
    4   12   21      1.54      0.00
    5   12   21      1.93      0.00
   -7   11   21     -1.20      0.00
   -6   11   21      1.49      0.00
   -5   11   21      2.78      0.00
   -4   11   21     -3.52      0.00
   -3   11   21     -5.43      0.00
   -2   11   21     -1.75      0.00
   -1   11   21      3.23      0.00
    0   11   21      2.35      0.00
    1   11   21     -0.89      0.00
    2   11   21      1.38      0.00
    3   11   21      3.45      0.00
    4   11   21      2.63      0.00
    5   11   21     -2.63      0.00
   -8   10   21      0.58      0.00
   -7   10   21      1.25      0.00
   -6   10   21      0.36      0.00
   -5   10   21     -2.51      0.00
   -4   10   21     -2.54      0.00
   -3   10   21      2.23      0.00
   -2   10   21      2.86      0.00
   -1   10   21     -0.76      0.00
    0   10   21     -1.28      0.00
    1   10   21     -0.02      0.00
    2   10   21      1.00      0.00
    3   10   21      0.85      0.00
    4   10   21     -1.51      0.00
    5   10   21     -1.86      0.00
    6   10   21      0.30      0.00
   -8    9   21      1.66      0.00
   -7    9   21     -1.92      0.00
   -6    9   21     -0.26      0.00
   -5    9   21      1.78      0.00
   -4    9   21     -2.09      0.00
   -3    9   21     -4.28      0.00
   -2    9   21     -4.37      0.00
   -1    9   21      1.51      0.00
    0    9   21      2.60      0.00
    1    9   21     -0.35      0.00
    2    9   21      3.52      0.00
    3    9   21      5.05      0.00
    4    9   21      3.18      0.00
    5    9   21     -1.91      0.00
    6    9   21     -2.62      0.00
    7    9   21      2.12      0.00
   -9    8   21     -1.09      0.00
   -8    8   21     -3.34      0.00
   -7    8   21     -1.96      0.00
   -6    8   21     -0.51      0.00
   -5    8   21     -5.64      0.00
   -4    8   21     -5.30      0.00
   -3    8   21      1.70      0.00
   -2    8   21      6.14      0.00
   -1    8   21      4.58      0.00
    0    8   21      1.23      0.00
    1    8   21      3.81      0.00
    2    8   21      4.09      0.00
    3    8   21     -1.05      0.00
    4    8   21     -5.64      0.00
    5    8   21     -6.20      0.00
    6    8   21     -0.32      0.00
    7    8   21      1.83      0.00
   -9    7   21     -0.96      0.00
   -8    7   21      0.04      0.00
   -7    7   21     -1.47      0.00
   -6    7   21     -1.35      0.00
   -5    7   21      1.79      0.00
   -4    7   21      3.57      0.00
   -3    7   21      1.39      0.00
   -2    7   21     -1.88      0.00
   -1    7   21      1.47      0.00
    0    7   21      1.63      0.00
    1    7   21     -3.21      0.00
    2    7   21     -2.29      0.00
    3    7   21     -0.36      0.00
    4    7   21     -0.12      0.00
    5    7   21     -1.48      0.00
    6    7   21      1.06      0.00
    7    7   21      3.49      0.00
  -10    6   21      2.35      0.00
   -9    6   21     -0.98      0.00
   -8    6   21     -3.06      0.00
   -7    6   21     -2.64      0.00
   -6    6   21      0.75      0.00
   -5    6   21     -2.73      0.00
   -4    6   21     -4.35      0.00
   -3    6   21     -1.36      0.00
   -2    6   21      5.86      0.00
   -1    6   21      6.93      0.00
    0    6   21     -0.30      0.00
    1    6   21      3.02      0.00
    2    6   21      6.00      0.00
    3    6   21      0.55      0.00
    4    6   21     -4.42      0.00
    5    6   21     -4.56      0.00
    6    6   21      1.31      0.00
    7    6   21      0.21      0.00
    8    6   21     -2.95      0.00
  -10    5   21     -4.15      0.00
   -9    5   21     -4.82      0.00
   -8    5   21     -2.93      0.00
   -7    5   21     -0.51      0.00
   -6    5   21      0.48      0.00
   -5    5   21      2.55      0.00
   -4    5   21      5.94      0.00
   -3    5   21      6.21      0.00
   -2    5   21      4.97      0.00
   -1    5   21      1.79      0.00
    0    5   21     -1.08      0.00
    1    5   21     -4.93      0.00
    2    5   21     -7.02      0.00
    3    5   21     -5.40      0.00
    4    5   21     -3.51      0.00
    5    5   21     -2.12      0.00
    6    5   21      1.72      0.00
    7    5   21      2.72      0.00
    8    5   21      1.17      0.00
  -10    4   21      0.23      0.00
   -9    4   21      0.71      0.00
   -8    4   21      2.20      0.00
   -7    4   21      3.71      0.00
   -6    4   21      5.19      0.00
   -5    4   21      1.94      0.00
   -4    4   21     -2.13      0.00
   -3    4   21     -2.39      0.00
   -2    4   21      1.34      0.00
   -1    4   21     -1.31      0.00
    0    4   21     -9.19      0.00
    1    4   21     -3.01      0.00
    2    4   21      5.35      0.00
    3    4   21      3.07      0.00
    4    4   21     -1.42      0.00
    5    4   21     -0.37      0.00
    6    4   21      5.71      0.00
    7    4   21      1.89      0.00
    8    4   21     -3.26      0.00
  -10    3   21     -1.72      0.00
   -9    3   21     -1.48      0.00
   -8    3   21     -0.57      0.00
   -7    3   21      0.60      0.00
   -6    3   21     -0.19      0.00
   -5    3   21     -0.81      0.00
   -4    3   21      1.67      0.00
   -3    3   21      4.04      0.00
   -2    3   21      3.77      0.00
   -1    3   21     -1.66      0.00
    0    3   21     -0.26      0.00
    1    3   21      2.54      0.00
    2    3   21     -2.48      0.00
    3    3   21     -5.09      0.00
    4    3   21     -3.47      0.00
    5    3   21      0.38      0.00
    6    3   21      1.82      0.00
    7    3   21     -1.35      0.00
    8    3   21     -1.18      0.00
  -10    2   21     -1.44      0.00
   -9    2   21      0.25      0.00
   -8    2   21      2.90      0.00
   -7    2   21      5.87      0.00
   -6    2   21      5.60      0.00
   -5    2   21      2.65      0.00
   -4    2   21     -0.84      0.00
   -3    2   21     -0.95      0.00
   -2    2   21     -0.77      0.00
   -1    2   21     -5.40      0.00
    0    2   21    -11.02      0.00
    1    2   21     -6.88      0.00
    2    2   21      1.08      0.00
    3    2   21      2.98      0.00
    4    2   21      1.75      0.00
    5    2   21      3.17      0.00
    6    2   21      7.27      0.00
    7    2   21      3.60      0.00
    8    2   21     -0.85      0.00
  -10    1   21      1.94      0.00
   -9    1   21      3.06      0.00
   -8    1   21      4.44      0.00
   -7    1   21      2.03      0.00
   -6    1   21     -3.07      0.00
   -5    1   21     -6.00      0.00
   -4    1   21     -3.75      0.00
   -3    1   21     -0.91      0.00
   -2    1   21     -3.50      0.00
   -1    1   21     -8.29      0.00
    0    1   21     -1.04      0.00
    1    1   21      9.74      0.00
    2    1   21      6.49      0.00
    3    1   21      1.15      0.00
    4    1   21      0.32      0.00
    5    1   21      4.04      0.00
    6    1   21      1.53      0.00
    7    1   21     -6.18      0.00
    8    1   21     -5.74      0.00
   -3   14   22     -1.91      0.00
   -2   14   22      0.91      0.00
   -1   14   22      0.19      0.00
    0   14   22     -2.41      0.00
    1   14   22     -1.37      0.00
   -5   13   22      0.05      0.00
   -4   13   22     -1.37      0.00
   -3   13   22      0.75      0.00
   -2   13   22      3.61      0.00
   -1   13   22      3.13      0.00
    0   13   22      0.34      0.00
    1   13   22      0.44      0.00
    2   13   22      1.16      0.00
    3   13   22     -0.41      0.00
   -6   12   22     -0.83      0.00
   -5   12   22     -2.25      0.00
   -4   12   22      1.35      0.00
   -3   12   22      3.30      0.00
   -2   12   22      2.17      0.00
   -1   12   22     -1.25      0.00
    0   12   22     -2.49      0.00
    1   12   22     -0.26      0.00
    2   12   22      0.29      0.00
    3   12   22     -0.87      0.00
    4   12   22     -1.16      0.00
   -7   11   22     -0.86      0.00
   -6   11   22      0.29      0.00
   -5   11   22      0.25      0.00
   -4   11   22      0.39      0.00
   -3   11   22     -0.67      0.00
   -2   11   22     -0.14      0.00
   -1   11   22      0.90      0.00
    0   11   22      0.19      0.00
    1   11   22      1.50      0.00
    2   11   22      1.85      0.00
    3   11   22      0.00      0.00
    4   11   22     -0.12      0.00
    5   11   22     -0.50      0.00
   -7   10   22      1.22      0.00
   -6   10   22     -1.99      0.00
   -5   10   22     -3.43      0.00
   -4   10   22      2.48      0.00
   -3   10   22      4.50      0.00
   -2   10   22      3.14      0.00
   -1   10   22     -0.70      0.00
    0   10   22     -0.08      0.00
    1   10   22      2.38      0.00
    2   10   22     -2.23      0.00
    3   10   22     -5.29      0.00
    4   10   22     -3.71      0.00
    5   10   22      1.97      0.00
   -8    9   22     -0.09      0.00
   -7    9   22     -1.47      0.00
   -6    9   22     -0.99      0.00
   -5    9   22      4.31      0.00
   -4    9   22      4.62      0.00
   -3    9   22     -1.31      0.00
   -2    9   22     -2.83      0.00
   -1    9   22     -0.23      0.00
    0    9   22      0.24      0.00
    1    9   22     -2.72      0.00
    2    9   22     -3.65      0.00
    3    9   22     -0.24      0.00
    4    9   22      3.55      0.00
    5    9   22      3.92      0.00
    6    9   22      0.18      0.00
   -8    8   22     -1.52      0.00
   -7    8   22      1.34      0.00
   -6    8   22      0.82      0.00
   -5    8   22     -1.23      0.00
   -4    8   22     -0.46      0.00
   -3    8   22      1.51      0.00
   -2    8   22      3.97      0.00
   -1    8   22     -0.22      0.00
    0    8   22     -1.10      0.00
    1    8   22      2.22      0.00
    2    8   22     -0.44      0.00
    3    8   22     -2.56      0.00
    4    8   22     -1.80      0.00
    5    8   22      1.34      0.00
    6    8   22      0.46      0.00
   -9    7   22      0.24      0.00
   -8    7   22      2.38      0.00
   -7    7   22      1.91      0.00
   -6    7   22      0.43      0.00
   -5    7   22      5.56      0.00
   -4    7   22      6.00      0.00
   -3    7   22      1.57      0.00
   -2    7   22     -3.46      0.00
   -1    7   22     -4.34      0.00
    0    7   22     -1.43      0.00
    1    7   22     -5.83      0.00
    2    7   22     -7.60      0.00
    3    7   22     -1.44      0.00
    4    7   22      3.85      0.00
    5    7   22      4.16      0.00
    6    7   22     -0.48      0.00
    7    7   22     -0.10      0.00
   -9    6   22      3.20      0.00
   -8    6   22      2.48      0.00
   -7    6   22      2.42      0.00
   -6    6   22      2.35      0.00
   -5    6   22     -0.49      0.00
   -4    6   22     -4.01      0.00
   -3    6   22     -3.73      0.00
   -2    6   22     -2.49      0.00
   -1    6   22     -3.57      0.00
    0    6   22     -2.41      0.00
    1    6   22      2.68      0.00
    2    6   22      4.72      0.00
    3    6   22      3.66      0.00
    4    6   22      2.59      0.00
    5    6   22      2.99      0.00
    6    6   22      0.16      0.00
    7    6   22     -1.98      0.00
   -9    5   22     -0.16      0.00
   -8    5   22     -0.13      0.00
   -7    5   22     -0.55      0.00
   -6    5   22     -2.52      0.00
   -5    5   22      0.40      0.00
   -4    5   22      2.69      0.00
   -3    5   22      1.89      0.00
   -2    5   22     -2.81      0.00
   -1    5   22     -2.16      0.00
    0    5   22      4.46      0.00
    1    5   22     -0.42      0.00
    2    5   22     -5.88      0.00
    3    5   22     -1.98      0.00
    4    5   22      2.85      0.00
    5    5   22      2.04      0.00
    6    5   22     -3.55      0.00
    7    5   22     -0.98      0.00
  -10    4   22      1.78      0.00
   -9    4   22      2.79      0.00
   -8    4   22      3.01      0.00
   -7    4   22      1.87      0.00
   -6    4   22      1.52      0.00
   -5    4   22      0.17      0.00
   -4    4   22     -2.98      0.00
   -3    4   22     -4.88      0.00
   -2    4   22     -6.19      0.00
   -1    4   22     -3.36      0.00
    0    4   22     -2.75      0.00
    1    4   22     -1.13      0.00
    2    4   22      3.94      0.00
    3    4   22      5.63      0.00
    4    4   22      4.16      0.00
    5    4   22      2.16      0.00
    6    4   22     -0.05      0.00
    7    4   22      0.24      0.00
    8    4   22      0.08      0.00
  -10    3   22      1.93      0.00
   -9    3   22      1.40      0.00
   -8    3   22     -1.23      0.00
   -7    3   22     -4.55      0.00
   -6    3   22     -5.78      0.00
   -5    3   22     -3.62      0.00
   -4    3   22     -0.73      0.00
   -3    3   22     -1.70      0.00
   -2    3   22     -3.01      0.00
   -1    3   22      2.35      0.00
    0    3   22     10.15      0.00
    1    3   22      6.75      0.00
    2    3   22     -0.26      0.00
    3    3   22     -0.51      0.00
    4    3   22      1.60      0.00
    5    3   22     -0.84      0.00
    6    3   22     -7.28      0.00
    7    3   22     -3.87      0.00
    8    3   22      0.72      0.00
  -10    2   22     -0.42      0.00
   -9    2   22     -1.56      0.00
   -8    2   22     -2.77      0.00
   -7    2   22     -1.87      0.00
   -6    2   22      0.99      0.00
   -5    2   22      2.65      0.00
   -4    2   22      0.60      0.00
   -3    2   22     -1.33      0.00
   -2    2   22      0.65      0.00
   -1    2   22      5.31      0.00
    0    2   22      1.02      0.00
    1    2   22     -5.24      0.00
    2    2   22     -1.57      0.00
    3    2   22      1.86      0.00
    4    2   22      0.84      0.00
    5    2   22     -3.39      0.00
    6    2   22     -2.11      0.00
    7    2   22      3.86      0.00
    8    2   22      3.54      0.00
  -10    1   22      1.21      0.00
   -9    1   22      0.90      0.00
   -8    1   22     -0.50      0.00
   -7    1   22     -2.76      0.00
   -6    1   22     -3.02      0.00
   -5    1   22     -1.90      0.00
   -4    1   22     -0.70      0.00
   -3    1   22     -1.86      0.00
   -2    1   22     -2.02      0.00
   -1    1   22      1.28      0.00
    0    1   22      5.25      0.00
    1    1   22      4.96      0.00
    2    1   22      1.98      0.00
    3    1   22      0.34      0.00
    4    1   22     -0.23      0.00
    5    1   22     -1.92      0.00
    6    1   22     -4.68      0.00
    7    1   22     -2.75      0.00
    8    1   22     -0.51      0.00
  -10    0   22     -1.35      0.00
   -9    0   22     -3.16      0.00
   -8    0   22     -5.84      0.00
   -7    0   22     -3.57      0.00
   -6    0   22      1.64      0.00
   -5    0   22      4.51      0.00
   -4    0   22      2.16      0.00
   -3    0   22      0.49      0.00
   -2    0   22      5.75      0.00
   -1    0   22     11.54      0.00
    0    0   22      5.19      0.00
    1    0   22     -5.66      0.00
    2    0   22     -5.44      0.00
    3    0   22     -3.05      0.00
    4    0   22     -3.44      0.00
    5    0   22     -7.38      0.00
    6    0   22     -3.23      0.00
    7    0   22      5.85      0.00
    8    0   22      5.64      0.00
   -3   13   23     -0.09      0.00
   -2   13   23     -2.17      0.00
   -1   13   23     -0.85      0.00
    0   13   23      2.46      0.00
    1   13   23      2.07      0.00
   -5   12   23      0.40      0.00
   -4   12   23      1.20      0.00
   -3   12   23      0.05      0.00
   -2   12   23     -1.53      0.00
   -1   12   23     -0.87      0.00
    0   12   23      1.13      0.00
    1   12   23     -0.66      0.00
    2   12   23     -2.37      0.00
    3   12   23     -0.54      0.00
   -6   11   23      1.59      0.00
   -5   11   23      3.34      0.00
   -4   11   23     -1.44      0.00
   -3   11   23     -3.27      0.00
   -2   11   23     -2.23      0.00
   -1   11   23      0.21      0.00
    0   11   23      0.26      0.00
    1   11   23     -1.95      0.00
    2   11   23      0.55      0.00
    3   11   23      3.32      0.00
    4   11   23      2.66      0.00
   -7   10   23      2.34      0.00
   -6   10   23      1.47      0.00
   -5   10   23     -1.35      0.00
   -4   10   23     -1.93      0.00
   -3   10   23      1.28      0.00
   -2   10   23      1.08      0.00
   -1   10   23     -0.59      0.00
    0   10   23      0.08      0.00
    1   10   23      0.52      0.00
    2   10   23      0.38      0.00
    3   10   23     -0.56      0.00
    4   10   23     -1.77      0.00
    5   10   23     -1.54      0.00
   -7    9   23     -0.60      0.00
   -6    9   23      1.57      0.00
   -5    9   23      2.94      0.00
   -4    9   23     -0.48      0.00
   -3    9   23     -2.03      0.00
   -2    9   23     -3.12      0.00
   -1    9   23     -0.47      0.00
    0    9   23     -1.33      0.00
    1    9   23     -4.35      0.00
    2    9   23      0.10      0.00
    3    9   23      4.17      0.00
    4    9   23      3.34      0.00
    5    9   23     -1.12      0.00
   -8    8   23     -0.32      0.00
   -7    8   23      1.18      0.00
   -6    8   23      1.26      0.00
   -5    8   23     -4.85      0.00
   -4    8   23     -5.22      0.00
   -3    8   23     -0.57      0.00
   -2    8   23      0.96      0.00
   -1    8   23     -0.27      0.00
    0    8   23     -0.40      0.00
    1    8   23      5.10      0.00
    2    8   23      7.72      0.00
    3    8   23      2.56      0.00
    4    8   23     -2.50      0.00
    5    8   23     -2.88      0.00
    6    8   23      0.41      0.00
   -8    7   23      0.18      0.00
   -7    7   23     -1.41      0.00
   -6    7   23     -2.00      0.00
   -5    7   23     -0.12      0.00
   -4    7   23      1.70      0.00
   -3    7   23      0.72      0.00
   -2    7   23     -1.47      0.00
   -1    7   23      1.52      0.00
    0    7   23      2.25      0.00
    1    7   23     -1.62      0.00
    2    7   23     -2.24      0.00
    3    7   23     -1.06      0.00
    4    7   23     -0.63      0.00
    5    7   23     -2.26      0.00
    6    7   23     -0.86      0.00
   -9    6   23      0.85      0.00
   -8    6   23     -0.07      0.00
   -7    6   23     -0.26      0.00
   -6    6   23      0.60      0.00
   -5    6   23     -3.57      0.00
   -4    6   23     -4.46      0.00
   -3    6   23     -2.87      0.00
   -2    6   23      0.73      0.00
   -1    6   23      1.46      0.00
    0    6   23     -1.76      0.00
    1    6   23      3.37      0.00
    2    6   23      7.38      0.00
    3    6   23      2.79      0.00
    4    6   23     -2.10      0.00
    5    6   23     -1.81      0.00
    6    6   23      1.87      0.00
    7    6   23     -0.05      0.00
   -9    5   23     -2.45      0.00
   -8    5   23     -3.31      0.00
   -7    5   23     -3.51      0.00
   -6    5   23     -3.93      0.00
   -5    5   23     -1.64      0.00
   -4    5   23      1.94      0.00
   -3    5   23      3.07      0.00
   -2    5   23      4.70      0.00
   -1    5   23      5.35      0.00
    0    5   23      5.24      0.00
    1    5   23      1.79      0.00
    2    5   23     -2.61      0.00
    3    5   23     -3.80      0.00
    4    5   23     -2.91      0.00
    5    5   23     -3.29      0.00
    6    5   23     -1.78      0.00
    7    5   23     -0.29      0.00
   -9    4   23     -1.56      0.00
   -8    4   23     -0.15      0.00
   -7    4   23      1.72      0.00
   -6    4   23      3.52      0.00
   -5    4   23      1.92      0.00
   -4    4   23      0.24      0.00
   -3    4   23      1.48      0.00
   -2    4   23      3.71      0.00
   -1    4   23      0.28      0.00
    0    4   23     -6.71      0.00
    1    4   23     -3.57      0.00
    2    4   23      1.93      0.00
    3    4   23      0.21      0.00
    4    4   23     -3.49      0.00
    5    4   23     -1.79      0.00
    6    4   23      4.69      0.00
    7    4   23      2.49      0.00
   -9    3   23      0.42      0.00
   -8    3   23      0.17      0.00
   -7    3   23     -0.21      0.00
   -6    3   23     -1.49      0.00
   -5    3   23     -1.60      0.00
   -4    3   23      0.42      0.00
   -3    3   23      1.81      0.00
   -2    3   23      2.41      0.00
   -1    3   23      0.17      0.00
    0    3   23      2.48      0.00
    1    3   23      4.46      0.00
    2    3   23     -0.19      0.00
    3    3   23     -3.62      0.00
    4    3   23     -2.74      0.00
    5    3   23      0.23      0.00
    6    3   23      0.54      0.00
    7    3   23     -2.12      0.00
   -9    2   23     -2.33      0.00
   -8    2   23     -0.63      0.00
   -7    2   23      2.73      0.00
   -6    2   23      3.87      0.00
   -5    2   23      2.72      0.00
   -4    2   23      1.57      0.00
   -3    2   23      4.80      0.00
   -2    2   23      6.22      0.00
   -1    2   23      1.30      0.00
    0    2   23     -5.57      0.00
    1    2   23     -6.14      0.00
    2    2   23     -3.20      0.00
    3    2   23     -2.56      0.00
    4    2   23     -2.73      0.00
    5    2   23      0.44      0.00
    6    2   23      6.46      0.00
    7    2   23      4.05      0.00
   -9    1   23      2.10      0.00
   -8    1   23      4.87      0.00
   -7    1   23      3.58      0.00
   -6    1   23     -0.25      0.00
   -5    1   23     -2.16      0.00
   -4    1   23      0.70      0.00
   -3    1   23      1.98      0.00
   -2    1   23     -3.37      0.00
   -1    1   23     -9.33      0.00
    0    1   23     -5.45      0.00
    1    1   23      2.25      0.00
    2    1   23      1.84      0.00
    3    1   23      0.74      0.00
    4    1   23      2.83      0.00
    5    1   23      7.91      0.00
    6    1   23      4.44      0.00
    7    1   23     -3.98      0.00
  -10    1   23      0.40      0.00
   -4   12   24      0.11      0.00
   -3   12   24      1.26      0.00
   -2   12   24      2.34      0.00
   -1   12   24      1.45      0.00
    0   12   24     -0.85      0.00
    1   12   24     -0.34      0.00
   -5   11   24      0.04      0.00
   -4   11   24     -0.07      0.00
   -3   11   24     -0.53      0.00
   -2   11   24      0.58      0.00
   -1   11   24      0.07      0.00
    0   11   24     -2.11      0.00
    1   11   24     -0.63      0.00
    2   11   24      1.67      0.00
   -6   10   24     -1.67      0.00
   -5   10   24     -3.31      0.00
   -4   10   24      0.62      0.00
   -3   10   24      1.53      0.00
   -2   10   24      1.15      0.00
   -1   10   24     -0.40      0.00
    0   10   24      1.38      0.00
    1   10   24      5.15      0.00
    2   10   24      1.44      0.00
    3   10   24     -3.52      0.00
   -7    9   24     -2.43      0.00
   -6    9   24     -2.35      0.00
   -5    9   24      2.12      0.00
   -4    9   24      2.39      0.00
   -3    9   24     -1.33      0.00
   -2    9   24     -0.48      0.00
   -1    9   24      1.93      0.00
    0    9   24      1.38      0.00
    1    9   24     -2.41      0.00
    2    9   24     -4.76      0.00
    3    9   24     -1.80      0.00
    4    9   24      1.37      0.00
   -7    8   24     -0.36      0.00
   -6    8   24     -0.88      0.00
   -5    8   24     -1.81      0.00
   -4    8   24     -1.08      0.00
   -3    8   24      0.02      0.00
   -2    8   24      2.32      0.00
   -1    8   24      0.11      0.00
    0    8   24      0.18      0.00
    1    8   24      3.61      0.00
    2    8   24      2.15      0.00
    3    8   24     -0.88      0.00
    4    8   24     -1.20      0.00
    5    8   24      1.32      0.00
   -8    7   24     -0.83      0.00
   -7    7   24     -1.56      0.00
   -6    7   24     -1.40      0.00
   -5    7   24      4.09      0.00
   -4    7   24      4.20      0.00
   -3    7   24      1.91      0.00
   -2    7   24      1.17      0.00
   -1    7   24      1.90      0.00
    0    7   24      2.74      0.00
    1    7   24     -3.41      0.00
    2    7   24     -8.13      0.00
    3    7   24     -4.08      0.00
    4    7   24      0.63      0.00
    5    7   24      0.59      0.00
   -8    6   24      1.12      0.00
   -7    6   24      2.33      0.00
   -6    6   24      3.80      0.00
   -5    6   24      1.98      0.00
   -4    6   24     -0.94      0.00
   -3    6   24     -0.95      0.00
   -2    6   24     -0.80      0.00
   -1    6   24     -3.27      0.00
    0    6   24     -4.94      0.00
    1    6   24     -2.26      0.00
    2    6   24      0.80      0.00
    3    6   24      1.46      0.00
    4    6   24      0.74      0.00
    5    6   24      2.27      0.00
    6    6   24      1.95      0.00
   -8    5   24     -0.10      0.00
   -7    5   24     -0.44      0.00
   -6    5   24     -1.43      0.00
   -5    5   24      0.81      0.00
   -4    5   24      1.25      0.00
   -3    5   24      0.54      0.00
   -2    5   24     -0.95      0.00
   -1    5   24      0.14      0.00
    0    5   24      4.24      0.00
    1    5   24      0.86      0.00
    2    5   24     -3.67      0.00
    3    5   24     -1.39      0.00
    4    5   24      2.65      0.00
    5    5   24      2.03      0.00
    6    5   24     -2.07      0.00
   -9    4   24     -0.18      0.00
   -8    4   24      1.11      0.00
   -7    4   24      2.12      0.00
   -6    4   24      3.49      0.00
   -5    4   24      2.49      0.00
   -4    4   24      0.53      0.00
   -3    4   24      0.04      0.00
   -2    4   24     -2.22      0.00
   -1    4   24     -3.08      0.00
    0    4   24     -5.01      0.00
    1    4   24     -4.71      0.00
    2    4   24     -0.66      0.00
    3    4   24      2.18      0.00
    4    4   24      1.96      0.00
    5    4   24      1.84      0.00
    6    4   24      1.60      0.00
   -9    3   24      2.69      0.00
   -8    3   24      1.69      0.00
   -7    3   24     -0.74      0.00
   -6    3   24     -2.40      0.00
   -5    3   24     -1.69      0.00
   -4    3   24     -1.17      0.00
   -3    3   24     -5.00      0.00
   -2    3   24     -7.08      0.00
   -1    3   24     -2.97      0.00
    0    3   24      3.79      0.00
    1    3   24      3.98      0.00
    2    3   24      1.25      0.00
    3    3   24      2.42      0.00
    4    3   24      4.96      0.00
    5    3   24      2.65      0.00
    6    3   24     -4.48      0.00
    7    3   24     -3.02      0.00
   -9    2   24     -1.23      0.00
   -8    2   24     -2.62      0.00
   -7    2   24     -1.96      0.00
   -6    2   24      0.24      0.00
   -5    2   24      1.00      0.00
   -4    2   24     -1.36      0.00
   -3    2   24     -1.89      0.00
   -2    2   24      0.88      0.00
   -1    2   24      4.30      0.00
    0    2   24      1.68      0.00
    1    2   24     -2.58      0.00
    2    2   24     -0.54      0.00
    3    2   24      1.81      0.00
    4    2   24      0.26      0.00
    5    2   24     -4.34      0.00
    6    2   24     -3.03      0.00
    7    2   24      2.22      0.00
   -9    1   24      1.21      0.00
   -8    1   24      0.68      0.00
   -7    1   24     -1.05      0.00
   -6    1   24     -1.47      0.00
   -5    1   24     -0.61      0.00
   -4    1   24     -0.19      0.00
   -3    1   24     -3.32      0.00
   -2    1   24     -5.10      0.00
   -1    1   24     -2.99      0.00
    0    1   24      0.69      0.00
    1    1   24      2.34      0.00
    2    1   24      2.45      0.00
    3    1   24      3.00      0.00
    4    1   24      3.01      0.00
    5    1   24      0.66      0.00
    6    1   24     -3.33      0.00
    7    1   24     -2.21      0.00
   -9    0   24     -1.47      0.00
   -8    0   24     -4.83      0.00
   -7    0   24     -3.82      0.00
   -6    0   24     -0.25      0.00
   -5    0   24      0.99      0.00
   -4    0   24     -3.58      0.00
   -3    0   24     -5.22      0.00
   -2    0   24      1.59      0.00
   -1    0   24      8.53      0.00
    0    0   24      7.02      0.00
    1    0   24      1.01      0.00
    2    0   24      0.65      0.00
    3    0   24      0.11      0.00
    4    0   24     -3.86      0.00
    5    0   24    -10.52      0.00
    6    0   24     -6.64      0.00
    7    0   24      2.60      0.00
    4   10   24     -3.36      0.00
    3   11   24      1.51      0.00
   -4   11   25     -0.64      0.00
   -3   11   25     -1.00      0.00
   -2   11   25     -0.79      0.00
   -1   11   25     -0.07      0.00
    0   11   25     -0.23      0.00
    1   11   25     -2.95      0.00
   -5   10   25     -0.81      0.00
   -4   10   25     -0.54      0.00
   -3   10   25      1.34      0.00
   -2   10   25     -0.38      0.00
   -1   10   25     -1.26      0.00
    0   10   25      0.56      0.00
    1   10   25      1.61      0.00
    2   10   25      1.41      0.00
   -6    9   25      1.85      0.00
   -5    9   25      2.72      0.00
   -4    9   25      0.39      0.00
   -3    9   25     -0.05      0.00
   -2    9   25     -0.56      0.00
   -1    9   25      1.02      0.00
    0    9   25     -0.84      0.00
    1    9   25     -5.81      0.00
    2    9   25     -3.98      0.00
    3    9   25      1.01      0.00
   -6    8   25      2.21      0.00
   -5    8   25     -2.60      0.00
   -4    8   25     -2.00      0.00
   -3    8   25      1.00      0.00
   -2    8   25     -0.43      0.00
   -1    8   25     -3.50      0.00
    0    8   25     -4.43      0.00
    1    8   25      0.91      0.00
    2    8   25      6.31      0.00
    3    8   25      3.95      0.00
    4    8   25      0.28      0.00
   -7    7   25     -0.03      0.00
   -6    7   25     -0.87      0.00
   -5    7   25      0.18      0.00
   -4    7   25      1.45      0.00
   -3    7   25      0.81      0.00
   -2    7   25     -1.24      0.00
   -1    7   25      0.57      0.00
    0    7   25      2.41      0.00
    1    7   25      0.66      0.00
    2    7   25     -0.58      0.00
    3    7   25      0.10      0.00
    4    7   25      0.81      0.00
   -7    6   25      1.72      0.00
   -6    6   25      1.64      0.00
   -5    6   25     -1.98      0.00
   -4    6   25     -1.53      0.00
   -3    6   25     -1.00      0.00
   -2    6   25     -1.57      0.00
   -1    6   25     -2.50      0.00
    0    6   25     -4.30      0.00
    1    6   25     -0.33      0.00
    2    6   25      4.46      0.00
    3    6   25      2.64      0.00
    4    6   25     -0.84      0.00
    5    6   25     -0.42      0.00
   -8    5   25     -0.27      0.00
   -7    5   25     -1.85      0.00
   -6    5   25     -4.20      0.00
   -5    5   25     -3.02      0.00
   -4    5   25     -1.12      0.00
   -3    5   25     -1.48      0.00
   -2    5   25     -0.06      0.00
   -1    5   25      2.24      0.00
    0    5   25      4.90      0.00
    1    5   25      4.57      0.00
    2    5   25      1.87      0.00
    3    5   25      0.15      0.00
    4    5   25      0.63      0.00
    5    5   25     -0.99      0.00
   -8    4   25     -1.35      0.00
   -7    4   25     -0.72      0.00
   -6    4   25      0.52      0.00
   -5    4   25      0.00      0.00
   -4    4   25      0.62      0.00
   -3    4   25      3.25      0.00
   -2    4   25      4.07      0.00
   -1    4   25      1.76      0.00
    0    4   25     -2.64      0.00
    1    4   25     -2.00      0.00
    2    4   25      0.96      0.00
    3    4   25     -0.36      0.00
    4    4   25     -3.95      0.00
    5    4   25     -3.49      0.00
    6    4   25      1.48      0.00
   -8    3   25      0.76      0.00
   -7    3   25     -0.02      0.00
   -6    3   25     -1.45      0.00
   -5    3   25     -1.10      0.00
   -4    3   25      0.04      0.00
   -3    3   25     -1.08      0.00
   -2    3   25     -1.24      0.00
   -1    3   25     -1.17      0.00
    0    3   25      1.30      0.00
    1    3   25      3.48      0.00
    2    3   25      1.60      0.00
    3    3   25     -1.21      0.00
    4    3   25     -1.18      0.00
    5    3   25      0.49      0.00
    6    3   25      0.15      0.00
   -8    2   25     -1.53      0.00
   -7    2   25      0.26      0.00
   -6    2   25      0.95      0.00
   -5    2   25     -0.30      0.00
   -4    2   25     -0.88      0.00
   -3    2   25      4.29      0.00
   -2    2   25      7.40      0.00
   -1    2   25      5.11      0.00
    0    2   25      0.37      0.00
    1    2   25     -1.40      0.00
    2    2   25     -1.55      0.00
    3    2   25     -3.84      0.00
    4    2   25     -5.97      0.00
    5    2   25     -3.60      0.00
    6    2   25      3.00      0.00
   -8    1   25      3.41      0.00
   -7    1   25      2.70      0.00
   -6    1   25      0.15      0.00
   -5    1   25     -0.30      0.00
   -4    1   25      4.43      0.00
   -3    1   25      5.77      0.00
   -2    1   25      0.37      0.00
   -1    1   25     -4.82      0.00
    0    1   25     -4.34      0.00
    1    1   25     -0.67      0.00
    2    1   25     -1.61      0.00
    3    1   25     -2.33      0.00
    4    1   25      1.19      0.00
    5    1   25      8.08      0.00
    6    1   25      5.91      0.00
    5    7   25     -0.87      0.00
   -3   10   26      0.85      0.00
   -2   10   26     -0.19      0.00
   -1   10   26     -1.95      0.00
    0   10   26     -0.49      0.00
   -4    9   26      0.73      0.00
   -3    9   26     -2.19      0.00
   -2    9   26     -0.30      0.00
   -1    9   26      2.52      0.00
    0    9   26      3.16      0.00
    1    9   26      0.37      0.00
    2    9   26     -3.13      0.00
   -5    8   26     -1.79      0.00
   -4    8   26     -1.39      0.00
   -3    8   26     -1.01      0.00
   -2    8   26      0.52      0.00
   -1    8   26     -0.73      0.00
    0    8   26     -0.87      0.00
    1    8   26      2.30      0.00
    2    8   26      2.79      0.00
    3    8   26      0.09      0.00
   -6    7   26     -2.32      0.00
   -5    7   26      1.73      0.00
   -4    7   26      0.55      0.00
   -3    7   26     -0.93      0.00
   -2    7   26      0.94      0.00
   -1    7   26      3.70      0.00
    0    7   26      5.96      0.00
    1    7   26      2.41      0.00
    2    7   26     -3.43      0.00
    3    7   26     -2.85      0.00
   -6    6   26      2.47      0.00
   -5    6   26      1.61      0.00
   -4    6   26      0.06      0.00
   -3    6   26      0.60      0.00
   -2    6   26      1.45      0.00
   -1    6   26      0.29      0.00
    0    6   26     -2.64      0.00
    1    6   26     -3.45      0.00
    2    6   26     -2.21      0.00
    3    6   26     -1.56      0.00
    4    6   26     -2.38      0.00
   -7    5   26     -0.05      0.00
   -6    5   26     -0.40      0.00
   -5    5   26      0.74      0.00
   -4    5   26     -0.94      0.00
   -3    5   26     -2.05      0.00
   -2    5   26     -0.60      0.00
   -1    5   26      0.68      0.00
    0    5   26      2.50      0.00
    1    5   26      1.37      0.00
    2    5   26     -1.78      0.00
    3    5   26     -1.25      0.00
    4    5   26      1.63      0.00
    5    5   26      1.69      0.00
   -7    4   26      0.53      0.00
   -6    4   26      2.42      0.00
   -5    4   26      1.52      0.00
   -4    4   26      1.15      0.00
   -3    4   26      3.41      0.00
   -2    4   26      2.70      0.00
   -1    4   26      0.80      0.00
    0    4   26     -1.76      0.00
    1    4   26     -3.09      0.00
    2    4   26     -2.47      0.00
    3    4   26     -0.79      0.00
    4    4   26     -0.82      0.00
    5    4   26      0.04      0.00
   -7    3   26      1.16      0.00
   -6    3   26      0.66      0.00
   -5    3   26      1.52      0.00
   -4    3   26      1.24      0.00
   -3    3   26     -3.64      0.00
   -2    3   26     -5.63      0.00
   -1    3   26     -3.93      0.00
    0    3   26     -0.41      0.00
    1    3   26      0.36      0.00
    2    3   26     -0.61      0.00
    3    3   26      1.50      0.00
    4    3   26      5.05      0.00
    5    3   26      4.65      0.00
   -8    2   26     -1.37      0.00
   -7    2   26     -0.79      0.00
   -6    2   26      0.42      0.00
   -5    2   26     -0.21      0.00
   -4    2   26     -3.23      0.00
   -3    2   26     -2.35      0.00
   -2    2   26      0.80      0.00
   -1    2   26      2.55      0.00
    0    2   26      1.63      0.00
    1    2   26     -0.80      0.00
    2    2   26     -0.04      0.00
    3    2   26      1.97      0.00
    4    2   26      0.87      0.00
    5    2   26     -3.22      0.00
   -8    1   26      0.77      0.00
   -7    1   26     -0.18      0.00
   -6    1   26     -0.30      0.00
   -5    1   26      1.10      0.00
   -4    1   26      2.16      0.00
   -3    1   26     -1.08      0.00
   -2    1   26     -3.53      0.00
   -1    1   26     -3.15      0.00
    0    1   26     -1.26      0.00
    1    1   26     -0.45      0.00
    2    1   26      0.15      0.00
    3    1   26      2.43      0.00
    4    1   26      4.25      0.00
    5    1   26      3.06      0.00
   -8    0   26     -3.25      0.00
   -7    0   26     -2.36      0.00
   -6    0   26      0.25      0.00
   -5    0   26      0.52      0.00
   -4    0   26     -5.81      0.00
   -3    0   26     -8.16      0.00
   -2    0   26     -2.70      0.00
   -1    0   26      2.34      0.00
    0    0   26      3.37      0.00
    1    0   26      1.25      0.00
    2    0   26      3.17      0.00
    3    0   26      4.43      0.00
    4    0   26      0.36      0.00
    5    0   26     -7.81      0.00
   -7    6   26      0.21      0.00
    4    7   26     -0.21      0.00
    1   10   26      4.84      0.00
   -2    9   27      0.00      0.00
   -1    9   27      2.33      0.00
    0    9   27      1.92      0.00
   -4    8   27     -0.51      0.00
   -3    8   27      2.17      0.00
   -2    8   27      0.91      0.00
   -1    8   27     -2.35      0.00
    0    8   27     -5.67      0.00
    1    8   27     -4.09      0.00
   -5    7   27      0.00      0.00
   -4    7   27      0.91      0.00
   -3    7   27      0.92      0.00
   -2    7   27     -0.80      0.00
   -1    7   27     -1.06      0.00
    0    7   27      0.57      0.00
    1    7   27      0.92      0.00
    2    7   27      0.35      0.00
   -5    6   27     -0.52      0.00
   -4    6   27      1.63      0.00
   -3    6   27      2.37      0.00
   -2    6   27     -0.22      0.00
   -1    6   27     -2.06      0.00
    0    6   27     -3.67      0.00
    1    6   27     -2.81      0.00
    2    6   27      1.01      0.00
    3    6   27      1.43      0.00
   -6    5   27     -1.91      0.00
   -5    5   27     -1.20      0.00
   -4    5   27     -0.96      0.00
   -3    5   27     -2.83      0.00
   -2    5   27     -2.98      0.00
   -1    5   27     -2.11      0.00
    0    5   27      0.25      0.00
    1    5   27      2.09      0.00
    2    5   27      2.53      0.00
    3    5   27      1.92      0.00
    4    5   27      2.72      0.00
   -6    4   27     -1.44      0.00
   -5    4   27     -1.91      0.00
   -4    4   27     -0.06      0.00
   -3    4   27      3.23      0.00
   -2    4   27      2.47      0.00
   -1    4   27      1.34      0.00
    0    4   27      0.13      0.00
    1    4   27     -0.06      0.00
    2    4   27      1.58      0.00
    3    4   27      0.95      0.00
    4    4   27     -1.93      0.00
   -7    3   27     -0.38      0.00
   -6    3   27     -1.02      0.00
   -5    3   27      0.65      0.00
   -4    3   27      1.77      0.00
   -3    3   27     -1.38      0.00
   -2    3   27     -2.91      0.00
   -1    3   27     -2.04      0.00
    0    3   27     -0.81      0.00
    1    3   27      0.71      0.00
    2    3   27      1.45      0.00
    3    3   27      0.12      0.00
    4    3   27      0.12      0.00
   -7    2   27     -0.64      0.00
   -6    2   27     -0.57      0.00
   -5    2   27     -2.47      0.00
   -4    2   27     -3.88      0.00
   -3    2   27      0.65      0.00
   -2    2   27      3.46      0.00
   -1    2   27      3.14      0.00
    0    2   27      1.16      0.00
    1    2   27      0.98      0.00
    2    2   27      1.39      0.00
    3    2   27     -1.43      0.00
    4    2   27     -4.86      0.00
   -7    1   27      0.93      0.00
   -6    1   27     -0.79      0.00
   -5    1   27     -0.48      0.00
   -4    1   27      4.99      0.00
   -3    1   27      6.13      0.00
   -2    1   27      1.91      0.00
   -1    1   27     -0.96      0.00
    0    1   27     -1.74      0.00
    1    1   27     -0.15      0.00
    2    1   27     -1.94      0.00
    3    1   27     -4.30      0.00
    4    1   27     -2.18      0.00
   -6    6   27      1.39      0.00
    2    8   27      1.10      0.00
   -3    9   27     -0.45      0.00
   -3    7   28     -2.44      0.00
   -2    7   28     -1.19      0.00
   -1    7   28      0.94      0.00
    0    7   28      4.18      0.00
   -4    6   28      0.21      0.00
   -3    6   28      0.51      0.00
   -2    6   28      1.49      0.00
   -1    6   28      2.92      0.00
    0    6   28      1.78      0.00
    1    6   28     -0.35      0.00
   -5    5   28      1.25      0.00
   -4    5   28     -1.61      0.00
   -3    5   28     -3.44      0.00
   -2    5   28     -0.65      0.00
   -1    5   28      0.56      0.00
    0    5   28      0.51      0.00
    1    5   28      0.76      0.00
    2    5   28     -1.14      0.00
   -5    4   28     -0.97      0.00
   -4    4   28     -0.97      0.00
   -3    4   28      2.48      0.00
   -2    4   28      3.36      0.00
   -1    4   28      2.32      0.00
    0    4   28      1.30      0.00
    1    4   28      0.12      0.00
    2    4   28     -1.57      0.00
    3    4   28     -1.23      0.00
   -6    3   28      1.57      0.00
   -5    3   28      3.07      0.00
   -4    3   28      3.23      0.00
   -3    3   28     -0.92      0.00
   -2    3   28     -1.72      0.00
   -1    3   28     -1.30      0.00
    0    3   28     -0.54      0.00
    1    3   28     -0.75      0.00
    2    3   28     -2.07      0.00
    3    3   28     -0.76      0.00
   -6    2   28      1.19      0.00
   -5    2   28     -0.40      0.00
   -4    2   28     -3.84      0.00
   -3    2   28     -2.32      0.00
   -2    2   28      0.65      0.00
   -1    2   28      0.96      0.00
    0    2   28      1.19      0.00
    1    2   28      0.08      0.00
    2    2   28      0.01      0.00
    3    2   28      1.73      0.00
   -6    1   28      0.10      0.00
   -5    1   28      1.46      0.00
   -4    1   28      3.18      0.00
   -3    1   28      1.04      0.00
   -2    1   28     -0.77      0.00
   -1    1   28     -1.01      0.00
    0    1   28     -0.19      0.00
    1    1   28     -0.66      0.00
    2    1   28     -1.36      0.00
    3    1   28      0.28      0.00
   -6    0   28      1.47      0.00
   -5    0   28      1.76      0.00
   -4    0   28     -4.13      0.00
   -3    0   28     -6.16      0.00
   -2    0   28     -2.48      0.00
   -1    0   28     -0.03      0.00
    0    0   28      1.10      0.00
    1    0   28     -0.36      0.00
    2    0   28      1.96      0.00
    3    0   28      5.12      0.00
    2    6   28     -1.22      0.00
    1    7   28      4.83      0.00
   -3    5   29     -1.07      0.00
   -2    5   29     -1.67      0.00
   -1    5   29     -2.65      0.00
    0    5   29     -2.67      0.00
   -4    4   29     -0.94      0.00
   -3    4   29      2.07      0.00
   -2    4   29      0.28      0.00
   -1    4   29     -0.58      0.00
    0    4   29      0.18      0.00
    1    4   29      0.33      0.00
   -4    3   29      3.09      0.00
   -3    3   29     -0.06      0.00
   -2    3   29     -2.03      0.00
   -1    3   29     -0.99      0.00
    0    3   29     -0.98      0.00
    1    3   29     -0.62      0.00
    2    3   29      0.80      0.00
   -5    2   29     -2.14      0.00
   -4    2   29     -4.18      0.00
   -3    2   29     -1.35      0.00
   -2    2   29      0.20      0.00
   -1    2   29      0.43      0.00
    0    2   29     -0.35      0.00
    1    2   29      0.41      0.00
    2    2   29      2.01      0.00
   -5    1   29     -1.68      0.00
   -4    1   29      2.89      0.00
   -3    1   29      3.62      0.00
   -2    1   29      0.80      0.00
   -1    1   29     -0.22      0.00
    0    1   29     -1.08      0.00
    1    1   29      0.30      0.00
    2    1   29     -0.68      0.00
   -2    2   30      0.81      0.00
   -1    2   30      0.29      0.00
   -3    1   30      1.21      0.00
   -2    1   30      0.19      0.00
   -1    1   30     -0.23      0.00
    0    1   30      0.42      0.00
   -3    0   30     -2.53      0.00
   -2    0   30     -0.58      0.00
   -1    0   30      0.36      0.00
    0    0   30      1.42      0.00
    1    0    0     43.30      0.00
   13    8    0     -2.99      0.00
   13    9    0      0.29      0.00
   13   10    0     -1.92      0.00
   12   11    0      1.06      0.00
   13   11    0     -0.58      0.00
   12   12    0     -0.02      0.00
   11   13    0     -0.37      0.00
   12   13    0     -0.62      0.00
   11   14    0     -0.02      0.00
   10   15    0     -0.24      0.00
   11   15    0      0.13      0.00
   10   16    0     -0.27      0.00
    9   17    0     -2.20      0.00
    8   18    0      1.28      0.00
    9   18    0     -1.52      0.00
    6   19    0      1.28      0.00
    7   19    0      2.49      0.00
    8   19    0      1.58      0.00
    5   20    0     -0.59      0.00
    6   20    0     -0.86      0.00
    7   20    0      0.82      0.00
    0    1    1   -113.71      0.00
  -13    8    1     -0.03      0.00
   13    8    1     -1.07      0.00
  -13    9    1      2.34      0.00
   13    9    1      2.36      0.00
  -13   10    1     -0.71      0.00
   13   10    1      0.10      0.00
  -13   11    1      0.51      0.00
  -12   11    1     -0.40      0.00
   12   11    1      0.74      0.00
   13   11    1      1.48      0.00
  -12   12    1      0.06      0.00
   12   12    1     -0.37      0.00
  -12   13    1     -0.59      0.00
  -11   13    1     -1.39      0.00
   11   13    1      0.34      0.00
   12   13    1      0.91      0.00
  -11   14    1      0.14      0.00
   11   14    1      0.61      0.00
  -11   15    1      0.26      0.00
  -10   15    1      1.14      0.00
   10   15    1     -0.80      0.00
   11   15    1     -0.42      0.00
  -10   16    1     -0.39      0.00
    9   16    1      1.72      0.00
   10   16    1     -1.10      0.00
   -9   17    1      2.21      0.00
    9   17    1      1.63      0.00
   -9   18    1     -1.77      0.00
   -8   18    1      0.80      0.00
    8   18    1     -1.43      0.00
    9   18    1      1.15      0.00
   -8   19    1     -1.06      0.00
   -7   19    1      0.04      0.00
   -6   19    1      0.22      0.00
    6   19    1      0.23      0.00
    7   19    1     -1.63      0.00
    8   19    1     -2.30      0.00
   -7   20    1      1.24      0.00
   -6   20    1      1.32      0.00
   -5   20    1     -0.36      0.00
    5   20    1      1.92      0.00
    6   20    1     -0.40      0.00
    7   20    1     -1.48      0.00
    0    0    2    107.52      0.00
    0    1    2    -30.10      0.00
  -13    8    2     -2.57      0.00
   13    8    2     -2.63      0.00
  -13    9    2      1.13      0.00
   13    9    2      0.54      0.00
  -13   10    2     -0.95      0.00
   13   10    2     -1.50      0.00
  -13   11    2      1.66      0.00
  -12   11    2     -0.02      0.00
   12   11    2      0.12      0.00
   13   11    2     -0.39      0.00
  -12   12    2      1.34      0.00
   12   12    2     -1.17      0.00
  -12   13    2     -0.03      0.00
  -11   13    2     -1.54      0.00
   11   13    2     -0.57      0.00
   12   13    2     -0.19      0.00
  -11   14    2      0.72      0.00
   11   14    2      0.34      0.00
  -11   15    2     -1.28      0.00
  -10   15    2      0.34      0.00
   10   15    2      1.82      0.00
   11   15    2      0.82      0.00
  -10   16    2     -1.50      0.00
    9   16    2     -0.91      0.00
   10   16    2      1.51      0.00
   -9   17    2      2.80      0.00
    9   17    2     -1.43      0.00
   -9   18    2     -1.49      0.00
   -8   18    2      0.57      0.00
    8   18    2      1.97      0.00
   -8   19    2     -0.58      0.00
   -7   19    2     -0.59      0.00
   -6   19    2     -0.35      0.00
    6   19    2     -0.05      0.00
    7   19    2      2.87      0.00
    8   19    2      1.97      0.00
   -7   20    2     -0.08      0.00
   -6   20    2     -0.10      0.00
   -5   20    2      0.06      0.00
    4   20    2      0.32      0.00
    5   20    2     -1.01      0.00
    6   20    2     -2.21      0.00
   13    7    3      2.11      0.00
  -13    8    3     -1.54      0.00
   13    8    3     -1.94      0.00
  -13    9    3      1.59      0.00
   13    9    3      1.74      0.00
  -13   10    3     -2.29      0.00
   13   10    3      0.37      0.00
  -13   11    3      0.10      0.00
  -12   11    3     -0.93      0.00
   12   11    3      0.39      0.00
  -12   12    3     -0.05      0.00
   12   12    3      0.45      0.00
  -12   13    3     -0.33      0.00
  -11   13    3     -1.72      0.00
   11   13    3     -0.70      0.00
   12   13    3      0.99      0.00
  -11   14    3      2.63      0.00
   11   14    3     -0.71      0.00
  -11   15    3     -0.63      0.00
  -10   15    3      0.68      0.00
   10   15    3     -2.54      0.00
   11   15    3     -1.38      0.00
  -10   16    3     -1.02      0.00
    9   16    3      0.82      0.00
   10   16    3     -1.81      0.00
   -9   17    3      2.19      0.00
    8   17    3     -0.76      0.00
    9   17    3      1.01      0.00
   -9   18    3     -1.85      0.00
   -8   18    3      1.15      0.00
    7   18    3     -3.69      0.00
    8   18    3     -1.35      0.00
   -8   19    3     -0.12      0.00
   -7   19    3      1.74      0.00
   -6   19    3      1.21      0.00
    6   19    3      1.84      0.00
    7   19    3     -1.08      0.00
   -7   20    3     -0.05      0.00
   -6   20    3      0.24      0.00
   -5   20    3      0.14      0.00
    4   20    3      0.37      0.00
    5   20    3      2.53      0.00
    6   20    3      1.07      0.00
   13    7    4      2.37      0.00
  -13    8    4     -1.15      0.00
   13    8    4     -2.02      0.00
  -13    9    4      2.61      0.00
   13    9    4      1.19      0.00
  -13   10    4     -0.69      0.00
   12   10    4     -0.79      0.00
   13   10    4     -0.57      0.00
  -13   11    4      1.74      0.00
  -12   11    4      0.59      0.00
   12   11    4     -1.34      0.00
  -12   12    4      0.04      0.00
   12   12    4     -0.18      0.00
  -12   13    4     -0.59      0.00
  -11   13    4     -3.01      0.00
   11   13    4     -0.03      0.00
  -11   14    4      1.11      0.00
   11   14    4      1.83      0.00
  -11   15    4     -2.08      0.00
  -10   15    4     -0.84      0.00
   10   15    4      2.25      0.00
  -10   16    4     -0.12      0.00
    9   16    4     -0.71      0.00
   10   16    4      1.73      0.00
   -9   17    4      3.01      0.00
    8   17    4      0.05      0.00
    9   17    4     -1.17      0.00
   -9   18    4     -0.92      0.00
   -8   18    4      0.83      0.00
    7   18    4      1.54      0.00
    8   18    4      0.85      0.00
   -8   19    4     -0.51      0.00
   -7   19    4      0.81      0.00
   -6   19    4      1.97      0.00
    6   19    4     -1.94      0.00
    7   19    4      1.61      0.00
   -7   20    4     -1.18      0.00
   -6   20    4     -0.06      0.00
   -5   20    4      0.59      0.00
   -4   20    4     -0.19      0.00
    4   20    4      1.07      0.00
    5   20    4     -0.57      0.00
    6   20    4     -2.86      0.00
   13    6    5     -1.34      0.00
   13    7    5      0.55      0.00
  -13    8    5     -1.51      0.00
   13    8    5     -2.32      0.00
  -13    9    5      0.88      0.00
   13    9    5      1.58      0.00
  -13   10    5     -2.26      0.00
   12   10    5      0.64      0.00
   13   10    5     -0.14      0.00
  -13   11    5      1.00      0.00
  -12   11    5      0.59      0.00
   12   11    5      0.55      0.00
  -12   12    5      0.49      0.00
   11   12    5      0.73      0.00
   12   12    5      1.15      0.00
  -12   13    5      0.57      0.00
  -11   13    5     -0.10      0.00
   11   13    5     -3.06      0.00
  -11   14    5      2.07      0.00
   10   14    5     -2.09      0.00
   11   14    5     -0.76      0.00
  -11   15    5     -2.05      0.00
  -10   15    5     -1.98      0.00
   10   15    5     -2.02      0.00
  -10   16    5     -1.00      0.00
   -9   16    5     -3.32      0.00
    9   16    5      0.92      0.00
   10   16    5     -0.87      0.00
   -9   17    5      1.41      0.00
    8   17    5      0.74      0.00
    9   17    5      1.04      0.00
   -9   18    5     -1.61      0.00
   -8   18    5      1.77      0.00
   -7   18    5      0.01      0.00
    7   18    5     -1.84      0.00
    8   18    5     -0.03      0.00
   -8   19    5     -0.39      0.00
   -7   19    5      1.20      0.00
   -6   19    5      0.54      0.00
    6   19    5      2.09      0.00
    7   19    5      0.20      0.00
   -6   20    5     -1.99      0.00
   -5   20    5     -1.05      0.00
   -4   20    5      2.52      0.00
    4   20    5     -1.06      0.00
    5   20    5      1.82      0.00
    6   20    5      1.09      0.00
   13    5    6      0.26      0.00
   13    6    6      2.09      0.00
   13    7    6      1.53      0.00
  -13    8    6      0.15      0.00
   13    8    6     -1.34      0.00
  -13    9    6      1.66      0.00
   12    9    6     -0.55      0.00
   13    9    6      1.58      0.00
  -13   10    6     -1.07      0.00
   12   10    6     -2.47      0.00
  -13   11    6      0.63      0.00
  -12   11    6     -0.53      0.00
   12   11    6     -1.19      0.00
  -12   12    6     -0.81      0.00
   11   12    6      2.89      0.00
   12   12    6      0.54      0.00
  -12   13    6      0.26      0.00
  -11   13    6     -1.27      0.00
   11   13    6      0.07      0.00
  -11   14    6      1.40      0.00
   10   14    6      2.15      0.00
   11   14    6      2.11      0.00
  -11   15    6     -0.49      0.00
  -10   15    6     -0.08      0.00
   10   15    6      0.26      0.00
  -10   16    6      1.97      0.00
   -9   16    6     -1.36      0.00
    9   16    6     -1.25      0.00
   10   16    6      0.76      0.00
   -9   17    6      2.58      0.00
   -8   17    6     -1.57      0.00
    8   17    6     -0.85      0.00
    9   17    6     -1.11      0.00
   -8   18    6      1.19      0.00
   -7   18    6      1.01      0.00
    7   18    6      0.54      0.00
    8   18    6     -0.80      0.00
   -7   19    6      0.89      0.00
   -6   19    6      3.85      0.00
    5   19    6     -4.19      0.00
    6   19    6     -2.10      0.00
    7   19    6      1.14      0.00
   -6   20    6      0.12      0.00
   -5   20    6      1.18      0.00
   -4   20    6      0.54      0.00
    3   20    6     -0.24      0.00
    4   20    6      1.87      0.00
    5   20    6      0.69      0.00
    6   20    6     -1.90      0.00
   13    4    7     -0.69      0.00
   13    5    7     -4.06      0.00
   13    6    7     -0.15      0.00
   13    7    7     -0.33      0.00
  -13    8    7     -0.06      0.00
   13    8    7     -1.17      0.00
  -13    9    7      0.54      0.00
   12    9    7      2.44      0.00
   13    9    7      1.51      0.00
  -13   10    7     -0.68      0.00
   12   10    7      0.87      0.00
  -13   11    7      0.94      0.00
  -12   11    7      0.97      0.00
   12   11    7      1.35      0.00
  -12   12    7      0.65      0.00
   11   12    7     -0.99      0.00
   12   12    7      0.59      0.00
  -12   13    7     -0.64      0.00
  -11   13    7     -0.44      0.00
   11   13    7     -3.15      0.00
  -11   14    7     -0.88      0.00
   10   14    7      0.32      0.00
   11   14    7      0.68      0.00
  -11   15    7     -1.74      0.00
  -10   15    7     -3.55      0.00
    9   15    7      1.67      0.00
   10   15    7     -0.61      0.00
  -10   16    7     -0.67      0.00
   -9   16    7     -2.24      0.00
    9   16    7      0.65      0.00
   -9   17    7      0.99      0.00
   -8   17    7     -0.58      0.00
    8   17    7      1.90      0.00
    9   17    7      0.93      0.00
   -8   18    7      2.00      0.00
   -7   18    7     -0.57      0.00
    7   18    7     -1.28      0.00
    8   18    7      0.31      0.00
   -7   19    7     -0.13      0.00
   -6   19    7     -1.23      0.00
    5   19    7     -1.34      0.00
    6   19    7      0.18      0.00
    7   19    7     -0.03      0.00
   -6   20    7     -2.83      0.00
   -5   20    7     -1.81      0.00
   -4   20    7      2.35      0.00
   -3   20    7      0.64      0.00
    3   20    7     -1.46      0.00
    4   20    7     -1.10      0.00
    5   20    7      1.72      0.00
   13    2    8      2.42      0.00
   13    3    8      2.00      0.00
   13    4    8      3.84      0.00
   13    5    8     -0.07      0.00
   13    6    8      1.99      0.00
  -13    7    8     -0.69      0.00
   13    7    8     -0.26      0.00
  -13    8    8     -0.24      0.00
   12    8    8     -0.20      0.00
   13    8    8     -0.74      0.00
  -13    9    8      0.18      0.00
   12    9    8     -2.59      0.00
  -13   10    8     -0.95      0.00
   12   10    8     -2.38      0.00
  -12   11    8     -1.33      0.00
   11   11    8      2.17      0.00
   12   11    8     -0.28      0.00
  -12   12    8      0.83      0.00
   11   12    8      2.33      0.00
  -12   13    8      0.56      0.00
  -11   13    8      1.29      0.00
   10   13    8      1.03      0.00
   11   13    8     -0.07      0.00
  -11   14    8      1.65      0.00
   10   14    8      0.27      0.00
  -11   15    8      0.45      0.00
  -10   15    8      0.96      0.00
    9   15    8     -0.21      0.00
   10   15    8     -1.15      0.00
  -10   16    8      1.90      0.00
   -9   16    8     -0.34      0.00
    8   16    8     -2.73      0.00
    9   16    8     -0.88      0.00
   -9   17    8      1.10      0.00
   -8   17    8     -1.22      0.00
    7   17    8      1.41      0.00
    8   17    8     -0.22      0.00
   -8   18    8      0.11      0.00
   -7   18    8      1.68      0.00
    6   18    8      1.54      0.00
    7   18    8      0.76      0.00
   -7   19    8      0.06      0.00
   -6   19    8      4.05      0.00
   -5   19    8      1.47      0.00
    5   19    8     -3.62      0.00
    6   19    8     -1.73      0.00
   -6   20    8      0.20      0.00
   -5   20    8      1.35      0.00
   -4   20    8      0.86      0.00
   -3   20    8     -0.49      0.00
    2   20    8      0.34      0.00
    3   20    8      0.24      0.00
    4   20    8      1.95      0.00
    5   20    8      1.41      0.00
   13    1    9     -2.73      0.00
   13    2    9     -1.43      0.00
   13    3    9     -2.72      0.00
   13    4    9     -1.18      0.00
   13    5    9     -2.41      0.00
   13    6    9      1.04      0.00
  -13    7    9      1.34      0.00
   13    7    9     -0.25      0.00
  -13    8    9      0.08      0.00
   12    8    9      5.01      0.00
   13    8    9      0.28      0.00
  -13    9    9      0.79      0.00
   12    9    9      1.00      0.00
  -13   10    9     -0.24      0.00
  -12   10    9      1.83      0.00
   12   10    9      1.10      0.00
  -12   11    9     -0.48      0.00
   11   11    9     -1.48      0.00
   12   11    9      0.75      0.00
  -12   12    9      0.15      0.00
   11   12    9     -1.99      0.00
  -12   13    9     -1.81      0.00
  -11   13    9     -2.07      0.00
   10   13    9      0.92      0.00
   11   13    9     -1.74      0.00
  -11   14    9     -1.37      0.00
  -10   14    9     -1.82      0.00
   10   14    9      1.28      0.00
  -10   15    9     -2.78      0.00
    9   15    9      1.09      0.00
   10   15    9     -0.37      0.00
  -10   16    9      0.38      0.00
   -9   16    9     -0.18      0.00
    8   16    9     -0.31      0.00
    9   16    9      0.00      0.00
   -9   17    9      1.22      0.00
   -8   17    9      0.31      0.00
    7   17    9     -0.50      0.00
    8   17    9      1.70      0.00
   -8   18    9      2.17      0.00
   -7   18    9     -0.93      0.00
    6   18    9      1.39      0.00
    7   18    9     -1.50      0.00
   -7   19    9      0.26      0.00
   -6   19    9     -1.22      0.00
   -5   19    9     -0.81      0.00
    4   19    9     -0.53      0.00
    5   19    9     -0.76      0.00
    6   19    9     -0.51      0.00
   -6   20    9     -1.86      0.00
   -5   20    9     -0.92      0.00
   -4   20    9      2.22      0.00
   -3   20    9      0.52      0.00
   -2   20    9     -1.50      0.00
   -1   20    9     -1.43      0.00
    0   20    9     -0.08      0.00
    1   20    9      1.38      0.00
    2   20    9      2.35      0.00
    3   20    9     -1.28      0.00
    4   20    9     -0.98      0.00
    5   20    9      2.20      0.00
   13    0   10      2.48      0.00
   13    1   10     -0.03      0.00
   13    2   10      2.63      0.00
   13    3   10      1.49      0.00
   13    4   10      1.87      0.00
   13    5   10     -0.18      0.00
  -13    6   10     -2.76      0.00
   13    6   10      0.65      0.00
  -13    7   10     -0.01      0.00
   12    7   10     -5.82      0.00
   13    7   10     -1.07      0.00
  -13    8   10     -1.15      0.00
   12    8   10      0.72      0.00
  -13    9   10      0.42      0.00
   12    9   10     -2.74      0.00
  -13   10   10     -0.62      0.00
  -12   10   10      0.34      0.00
   11   10   10      2.50      0.00
   12   10   10     -0.24      0.00
  -12   11   10     -0.34      0.00
   11   11   10      2.55      0.00
  -12   12   10      1.66      0.00
  -11   12   10      2.33      0.00
   10   12   10     -1.12      0.00
   11   12   10      1.38      0.00
  -11   13   10      1.97      0.00
   10   13   10      0.44      0.00
  -11   14   10      0.99      0.00
  -10   14   10      2.97      0.00
    9   14   10     -2.47      0.00
   10   14   10     -0.68      0.00
  -10   15   10      0.20      0.00
    9   15   10      0.25      0.00
  -10   16   10      1.05      0.00
   -9   16   10     -0.33      0.00
    8   16   10     -1.91      0.00
    9   16   10     -0.28      0.00
   -9   17   10     -0.69      0.00
   -8   17   10     -1.92      0.00
    7   17   10      1.65      0.00
    8   17   10      0.39      0.00
   -8   18   10     -1.12      0.00
   -7   18   10      0.59      0.00
   -6   18   10      0.91      0.00
    5   18   10     -1.28      0.00
    6   18   10      0.71      0.00
    7   18   10      0.28      0.00
   -7   19   10     -0.40      0.00
   -6   19   10      3.06      0.00
   -5   19   10      0.70      0.00
    4   19   10      1.97      0.00
    5   19   10     -2.84      0.00
    6   19   10     -1.57      0.00
   -5   20   10      0.81      0.00
   -4   20   10      0.48      0.00
   -3   20   10     -0.76      0.00
   -2   20   10     -1.84      0.00
   -1   20   10      0.06      0.00
    0   20   10      0.00      0.00
    1   20   10      0.91      0.00
    2   20   10      0.83      0.00
    3   20   10      0.34      0.00
    4   20   10      1.30      0.00
   13    1   11     -1.99      0.00
   13    2   11     -0.29      0.00
   13    3   11     -2.19      0.00
   13    4   11     -0.91      0.00
   13    5   11     -0.26      0.00
  -13    6   11      0.38      0.00
   12    6   11      4.67      0.00
   13    6   11      0.86      0.00
  -13    7   11      1.72      0.00
   12    7   11     -0.88      0.00
  -13    8   11     -0.70      0.00
   12    8   11      3.53      0.00
  -13    9   11      0.72      0.00
   11    9   11     -3.28      0.00
   12    9   11     -1.06      0.00
  -13   10   11     -0.94      0.00
  -12   10   11      0.43      0.00
   11   10   11     -0.91      0.00
  -12   11   11     -1.35      0.00
   11   11   11     -2.14      0.00
  -12   12   11     -0.50      0.00
  -11   12   11     -2.52      0.00
   10   12   11     -1.54      0.00
   11   12   11     -1.66      0.00
  -11   13   11     -1.71      0.00
   10   13   11      2.25      0.00
  -11   14   11     -0.30      0.00
  -10   14   11     -1.39      0.00
    9   14   11     -0.66      0.00
   10   14   11      0.57      0.00
  -10   15   11     -1.59      0.00
   -9   15   11     -0.08      0.00
    8   15   11      1.86      0.00
    9   15   11      0.80      0.00
   -9   16   11      1.33      0.00
   -8   16   11      1.95      0.00
    7   16   11     -1.28      0.00
    8   16   11     -0.22      0.00
   -9   17   11      0.70      0.00
   -8   17   11      0.44      0.00
   -7   17   11     -2.24      0.00
    6   17   11     -0.74      0.00
    7   17   11     -0.34      0.00
    8   17   11      1.06      0.00
   -8   18   11      2.27      0.00
   -7   18   11     -0.42      0.00
   -6   18   11     -3.86      0.00
    5   18   11      2.44      0.00
    6   18   11      0.98      0.00
    7   18   11     -1.02      0.00
   -6   19   11     -0.02      0.00
   -5   19   11     -0.06      0.00
   -4   19   11     -0.40      0.00
    3   19   11     -1.57      0.00
    4   19   11     -0.19      0.00
    5   19   11      0.15      0.00
   -5   20   11      0.30      0.00
   -4   20   11      1.86      0.00
   -3   20   11      0.34      0.00
   -2   20   11     -1.02      0.00
   -1   20   11     -2.16      0.00
    0   20   11      0.47      0.00
    1   20   11      2.32      0.00
    2   20   11      2.19      0.00
    3   20   11     -1.54      0.00
    4   20   11     -1.82      0.00
   13    0   12      0.72      0.00
   13    1   12      0.01      0.00
   13    2   12      2.24      0.00
   13    3   12      0.56      0.00
   12    4   12      0.78      0.00
   13    4   12      0.61      0.00
  -13    5   12     -1.16      0.00
   12    5   12     -3.50      0.00
   13    5   12      0.14      0.00
  -13    6   12     -1.97      0.00
   12    6   12     -0.11      0.00
  -13    7   12      0.49      0.00
   12    7   12     -2.87      0.00
  -13    8   12     -0.63      0.00
   12    8   12      1.68      0.00
  -13    9   12      0.99      0.00
  -12    9   12     -0.10      0.00
   11    9   12     -0.09      0.00
   12    9   12     -1.22      0.00
  -12   10   12      1.21      0.00
   11   10   12      3.29      0.00
  -12   11   12      0.87      0.00
   10   11   12      0.72      0.00
   11   11   12      1.12      0.00
  -12   12   12      0.59      0.00
  -11   12   12      2.48      0.00
   10   12   12     -1.57      0.00
  -11   13   12      1.61      0.00
  -10   13   12      2.24      0.00
    9   13   12     -0.37      0.00
   10   13   12      0.21      0.00
  -11   14   12     -0.39      0.00
  -10   14   12      1.73      0.00
    9   14   12     -2.14      0.00
  -10   15   12     -0.32      0.00
   -9   15   12     -1.02      0.00
    8   15   12      0.31      0.00
    9   15   12      0.13      0.00
   -9   16   12     -0.18      0.00
   -8   16   12      0.31      0.00
    7   16   12      0.56      0.00
    8   16   12     -1.00      0.00
   -8   17   12     -2.23      0.00
   -7   17   12      0.45      0.00
    6   17   12     -0.10      0.00
    7   17   12      1.05      0.00
   -7   18   12      0.08      0.00
   -6   18   12      0.23      0.00
    4   18   12     -0.74      0.00
    5   18   12     -1.50      0.00
    6   18   12     -0.04      0.00
   -6   19   12      1.98      0.00
   -5   19   12     -0.36      0.00
   -4   19   12     -1.94      0.00
   -3   19   12     -1.14      0.00
    2   19   12     -3.04      0.00
    3   19   12      2.17      0.00
    4   19   12      2.50      0.00
    5   19   12     -1.07      0.00
   -4   20   12      0.45      0.00
   -3   20   12     -0.12      0.00
   -2   20   12     -1.52      0.00
   -1   20   12     -0.38      0.00
    0   20   12     -0.69      0.00
    1   20   12      0.43      0.00
    2   20   12      0.76      0.00
    3   20   12      0.18      0.00
   12    1   13     -3.68      0.00
   13    1   13     -0.82      0.00
   12    2   13      0.10      0.00
   13    2   13     -0.44      0.00
   12    3   13     -2.33      0.00
   13    3   13     -1.55      0.00
  -13    4   13      2.35      0.00
   12    4   13      3.26      0.00
  -13    5   13      1.46      0.00
   12    5   13     -0.03      0.00
  -13    6   13     -0.03      0.00
   12    6   13      1.91      0.00
  -13    7   13      0.51      0.00
   12    7   13     -1.12      0.00
  -13    8   13     -0.80      0.00
   11    8   13     -0.79      0.00
   12    8   13      1.15      0.00
  -13    9   13     -0.17      0.00
  -12    9   13     -0.83      0.00
   11    9   13     -2.60      0.00
  -12   10   13     -1.22      0.00
   11   10   13     -0.02      0.00
  -12   11   13     -1.00      0.00
  -11   11   13     -3.17      0.00
   10   11   13     -0.41      0.00
   11   11   13     -1.30      0.00
  -11   12   13     -2.32      0.00
   10   12   13      0.66      0.00
  -11   13   13     -0.23      0.00
  -10   13   13     -1.72      0.00
    9   13   13      1.83      0.00
   10   13   13      1.93      0.00
  -10   14   13     -0.83      0.00
    8   14   13      0.37      0.00
    9   14   13     -0.40      0.00
  -10   15   13     -0.85      0.00
   -9   15   13      0.32      0.00
    8   15   13      1.14      0.00
   -9   16   13      1.11      0.00
   -8   16   13      1.44      0.00
    7   16   13     -1.41      0.00
    8   16   13     -0.11      0.00
   -8   17   13      0.22      0.00
   -7   17   13     -1.41      0.00
    5   17   13      2.09      0.00
    6   17   13      0.00      0.00
    7   17   13     -0.68      0.00
   -7   18   13     -0.10      0.00
   -6   18   13     -2.14      0.00
   -5   18   13      0.63      0.00
    4   18   13     -1.75      0.00
    5   18   13      1.05      0.00
    6   18   13      0.17      0.00
   -6   19   13      0.25      0.00
   -5   19   13      0.06      0.00
   -4   19   13     -0.62      0.00
   -3   19   13     -0.65      0.00
   -2   19   13      0.51      0.00
   -1   19   13      0.89      0.00
    0   19   13      2.35      0.00
    1   19   13      0.20      0.00
    2   19   13     -1.09      0.00
    3   19   13     -1.55      0.00
    4   19   13     -0.86      0.00
    5   19   13     -0.38      0.00
   -4   20   13      1.33      0.00
   -3   20   13      0.45      0.00
   -2   20   13     -0.40      0.00
   -1   20   13     -3.08      0.00
    0   20   13      0.31      0.00
    1   20   13      2.94      0.00
    2   20   13      2.63      0.00
    3   20   13     -0.41      0.00
  -13    0   14      0.41      0.00
   12    0   14      3.52      0.00
  -13    1   14     -1.13      0.00
   12    1   14      0.73      0.00
  -13    2   14      1.37      0.00
   12    2   14      2.42      0.00
  -13    3   14     -2.99      0.00
   12    3   14     -1.99      0.00
  -13    4   14      0.30      0.00
   12    4   14      1.13      0.00
  -13    5   14     -0.81      0.00
   12    5   14     -2.09      0.00
  -13    6   14     -0.57      0.00
   12    6   14      0.75      0.00
  -13    7   14      0.63      0.00
   11    7   14      1.36      0.00
   12    7   14     -0.43      0.00
  -13    8   14      0.40      0.00
  -12    8   14      0.62      0.00
   11    8   14      0.53      0.00
  -12    9   14      1.42      0.00
   11    9   14      0.23      0.00
  -12   10   14      1.11      0.00
   10   10   14      0.05      0.00
   11   10   14      1.45      0.00
  -12   11   14      0.78      0.00
  -11   11   14      2.46      0.00
   10   11   14     -1.09      0.00
  -11   12   14      1.50      0.00
    9   12   14     -0.52      0.00
   10   12   14     -0.60      0.00
  -11   13   14      0.70      0.00
  -10   13   14      1.00      0.00
    9   13   14     -1.03      0.00
  -10   14   14      0.79      0.00
   -9   14   14     -1.00      0.00
    8   14   14     -0.14      0.00
    9   14   14     -0.89      0.00
   -9   15   14     -0.89      0.00
   -8   15   14     -0.88      0.00
    7   15   14      1.62      0.00
    8   15   14      0.11      0.00
   -9   16   14     -0.06      0.00
   -8   16   14     -0.31      0.00
   -7   16   14      1.18      0.00
    6   16   14      0.17      0.00
    7   16   14      0.98      0.00
   -8   17   14     -1.24      0.00
   -7   17   14      0.66      0.00
   -6   17   14      1.92      0.00
    5   17   14     -1.16      0.00
    6   17   14      0.64      0.00
   -7   18   14      0.09      0.00
   -6   18   14      0.25      0.00
   -5   18   14     -0.11      0.00
   -4   18   14      0.66      0.00
    3   18   14      2.31      0.00
    4   18   14      0.40      0.00
    5   18   14     -0.58      0.00
   -5   19   14     -0.59      0.00
   -4   19   14     -0.94      0.00
   -3   19   14     -1.40      0.00
   -2   19   14     -0.16      0.00
   -1   19   14      4.49      0.00
    0   19   14      0.84      0.00
    1   19   14     -2.93      0.00
    2   19   14     -3.01      0.00
    3   19   14      0.71      0.00
    4   19   14      1.51      0.00
   -3   20   14      0.87      0.00
   -2   20   14     -0.88      0.00
   -1   20   14     -0.34      0.00
    0   20   14     -0.13      0.00
    1   20   14      0.81      0.00
    2   20   14      0.50      0.00
  -13    1   15     -0.28      0.00
   12    1   15     -2.69      0.00
  -13    2   15      1.91      0.00
   12    2   15      0.20      0.00
  -13    3   15     -1.56      0.00
   12    3   15     -1.17      0.00
  -13    4   15      2.02      0.00
   12    4   15      1.98      0.00
  -13    5   15     -0.29      0.00
   11    5   15      0.30      0.00
   12    5   15     -1.44      0.00
  -13    6   15     -0.42      0.00
   11    6   15     -0.14      0.00
   12    6   15      0.42      0.00
  -13    7   15     -0.07      0.00
  -12    7   15     -0.20      0.00
   11    7   15      0.39      0.00
  -12    8   15     -1.13      0.00
   11    8   15     -0.81      0.00
  -12    9   15     -1.27      0.00
   10    9   15      1.58      0.00
   11    9   15     -0.26      0.00
  -12   10   15     -1.41      0.00
  -11   10   15     -2.73      0.00
   10   10   15     -0.85      0.00
  -11   11   15     -1.90      0.00
    9   11   15      1.48      0.00
   10   11   15      0.20      0.00
  -11   12   15     -0.95      0.00
  -10   12   15      0.29      0.00
    9   12   15      1.44      0.00
   10   12   15      0.70      0.00
  -10   13   15     -0.96      0.00
    8   13   15     -0.82      0.00
    9   13   15     -0.59      0.00
  -10   14   15     -0.43      0.00
   -9   14   15      1.12      0.00
    8   14   15      1.16      0.00
   -9   15   15      0.14      0.00
   -8   15   15      0.06      0.00
    7   15   15     -1.79      0.00
    8   15   15     -0.11      0.00
   -8   16   15      0.93      0.00
   -7   16   15     -1.76      0.00
    6   16   15     -1.15      0.00
    7   16   15     -1.49      0.00
   -7   17   15     -0.09      0.00
   -6   17   15     -0.36      0.00
    4   17   15      0.32      0.00
    5   17   15      1.33      0.00
    6   17   15      0.61      0.00
   -6   18   15     -1.52      0.00
   -5   18   15      0.44      0.00
   -4   18   15      0.07      0.00
   -3   18   15      1.79      0.00
    2   18   15      1.86      0.00
    3   18   15     -1.63      0.00
    4   18   15     -1.14      0.00
    5   18   15     -0.15      0.00
   -5   19   15     -0.15      0.00
   -4   19   15     -0.70      0.00
   -3   19   15     -0.94      0.00
   -2   19   15     -0.04      0.00
   -1   19   15      0.38      0.00
    0   19   15      1.54      0.00
    1   19   15      0.15      0.00
    2   19   15      0.37      0.00
    3   19   15     -0.03      0.00
   -2   20   15      0.47      0.00
   -1   20   15     -3.22      0.00
    0   20   15     -0.43      0.00
  -13    0   16     -0.57      0.00
   12    0   16      2.81      0.00
  -13    1   16     -0.46      0.00
   12    1   16      0.05      0.00
  -13    2   16      0.81      0.00
   11    2   16     -2.26      0.00
   12    2   16      1.14      0.00
  -13    3   16     -1.90      0.00
   11    3   16     -1.85      0.00
   12    3   16     -0.67      0.00
  -13    4   16      1.66      0.00
   11    4   16     -0.78      0.00
   12    4   16      1.46      0.00
  -13    5   16     -0.60      0.00
   11    5   16     -0.90      0.00
  -13    6   16     -0.01      0.00
  -12    6   16     -0.35      0.00
   11    6   16      0.13      0.00
  -12    7   16      1.34      0.00
   11    7   16      0.16      0.00
  -12    8   16      1.42      0.00
   10    8   16     -1.11      0.00
   11    8   16     -0.56      0.00
  -12    9   16      1.18      0.00
  -11    9   16      1.90      0.00
   10    9   16      2.27      0.00
  -12   10   16      0.26      0.00
  -11   10   16      1.25      0.00
   10   10   16     -1.20      0.00
  -11   11   16      1.55      0.00
    9   11   16      0.98      0.00
   10   11   16      0.36      0.00
  -11   12   16      0.57      0.00
  -10   12   16      0.83      0.00
    8   12   16     -1.17      0.00
    9   12   16      0.54      0.00
  -10   13   16      0.06      0.00
   -9   13   16     -1.81      0.00
    8   13   16     -1.58      0.00
    9   13   16     -0.41      0.00
   -9   14   16     -0.75      0.00
    7   14   16      2.28      0.00
    8   14   16      0.86      0.00
   -9   15   16     -1.05      0.00
   -8   15   16     -1.72      0.00
    6   15   16      0.75      0.00
    7   15   16      1.07      0.00
   -8   16   16     -0.21      0.00
   -7   16   16      0.07      0.00
   -6   16   16     -0.12      0.00
    5   16   16     -0.83      0.00
    6   16   16     -0.50      0.00
   -7   17   16      1.04      0.00
   -6   17   16      2.19      0.00
   -5   17   16     -0.03      0.00
    3   17   16      2.10      0.00
    4   17   16     -0.34      0.00
    5   17   16     -0.46      0.00
   -6   18   16      0.32      0.00
   -5   18   16      0.59      0.00
   -4   18   16      0.57      0.00
   -3   18   16     -0.06      0.00
   -2   18   16      1.36      0.00
   -1   18   16      0.93      0.00
    0   18   16     -2.06      0.00
    1   18   16     -1.06      0.00
    2   18   16     -0.85      0.00
    3   18   16      0.42      0.00
    4   18   16     -0.02      0.00
   -4   19   16      0.36      0.00
   -3   19   16     -1.21      0.00
   -2   19   16     -1.49      0.00
   -1   19   16      3.94      0.00
    0   19   16      1.67      0.00
    1   19   16     -1.11      0.00
    2   19   16     -1.24      0.00
  -13    1   17      0.51      0.00
   11    1   17      1.55      0.00
   12    1   17     -1.73      0.00
  -13    2   17      0.46      0.00
   11    2   17      1.50      0.00
  -13    3   17     -1.43      0.00
   11    3   17      1.21      0.00
  -13    4   17      1.19      0.00
  -12    4   17     -0.32      0.00
   11    4   17      0.58      0.00
  -13    5   17     -0.89      0.00
  -12    5   17     -0.18      0.00
   11    5   17     -0.10      0.00
  -12    6   17     -1.72      0.00
   11    6   17      0.75      0.00
  -12    7   17     -0.74      0.00
   10    7   17     -0.62      0.00
   11    7   17      0.16      0.00
  -12    8   17     -0.83      0.00
   10    8   17     -1.19      0.00
  -12    9   17     -1.12      0.00
  -11    9   17     -1.41      0.00
   10    9   17      0.96      0.00
  -11   10   17     -1.59      0.00
    9   10   17     -2.20      0.00
   10   10   17     -1.65      0.00
  -11   11   17     -0.50      0.00
  -10   11   17      0.61      0.00
    9   11   17      0.64      0.00
  -10   12   17      0.75      0.00
    8   12   17     -0.08      0.00
    9   12   17     -0.88      0.00
  -10   13   17     -0.61      0.00
   -9   13   17      1.81      0.00
    7   13   17     -0.13      0.00
    8   13   17      0.28      0.00
   -9   14   17      1.09      0.00
   -8   14   17      2.45      0.00
    7   14   17     -1.09      0.00
    8   14   17      1.53      0.00
   -8   15   17     -0.63      0.00
   -7   15   17     -1.30      0.00
    5   15   17      0.71      0.00
    6   15   17     -0.20      0.00
    7   15   17     -1.49      0.00
   -8   16   17      1.38      0.00
   -7   16   17     -1.14      0.00
   -6   16   17     -3.02      0.00
    4   16   17      1.62      0.00
    5   16   17      1.99      0.00
    6   16   17     -0.18      0.00
   -6   17   17     -0.47      0.00
   -5   17   17     -1.55      0.00
   -4   17   17     -0.51      0.00
    2   17   17      0.31      0.00
    3   17   17     -0.94      0.00
    4   17   17     -0.30      0.00
    5   17   17      0.42      0.00
   -5   18   17     -0.06      0.00
   -4   18   17     -1.37      0.00
   -3   18   17      1.27      0.00
   -2   18   17      2.12      0.00
   -1   18   17     -3.18      0.00
    0   18   17     -1.70      0.00
    1   18   17      0.82      0.00
    2   18   17      0.60      0.00
    3   18   17     -0.87      0.00
   -3   19   17     -0.50      0.00
   -2   19   17      0.32      0.00
   -1   19   17      0.27      0.00
    0   19   17      0.46      0.00
    1   19   17     -0.44      0.00
  -13    0   18     -0.93      0.00
  -12    0   18     -0.90      0.00
   11    0   18     -1.42      0.00
  -13    1   18      0.32      0.00
  -12    1   18     -0.22      0.00
   11    1   18     -0.75      0.00
  -13    2   18      0.10      0.00
  -12    2   18      0.31      0.00
   11    2   18     -0.92      0.00
  -13    3   18     -0.25      0.00
  -12    3   18      0.14      0.00
   11    3   18     -0.25      0.00
  -13    4   18      1.12      0.00
  -12    4   18      0.91      0.00
   11    4   18     -0.45      0.00
  -12    5   18      1.26      0.00
   10    5   18     -0.38      0.00
   11    5   18     -0.41      0.00
  -12    6   18      0.12      0.00
   10    6   18      0.90      0.00
   11    6   18      0.06      0.00
  -12    7   18      1.21      0.00
   10    7   18     -0.23      0.00
  -12    8   18      1.16      0.00
  -11    8   18      2.11      0.00
   10    8   18      0.40      0.00
  -11    9   18      0.14      0.00
    9    9   18      0.59      0.00
   10    9   18      1.17      0.00
  -11   10   18      0.62      0.00
  -10   10   18     -2.08      0.00
    9   10   18      0.35      0.00
  -11   11   18      0.67      0.00
  -10   11   18     -1.07      0.00
    8   11   18      0.05      0.00
    9   11   18      1.85      0.00
  -10   12   18      0.10      0.00
   -9   12   18     -2.86      0.00
    8   12   18     -2.28      0.00
   -9   13   18     -1.00      0.00
   -8   13   18     -2.11      0.00
    7   13   18      2.25      0.00
    8   13   18     -0.99      0.00
   -9   14   18     -0.65      0.00
   -8   14   18      0.73      0.00
    6   14   18     -0.12      0.00
    7   14   18      0.61      0.00
   -8   15   18     -2.17      0.00
   -7   15   18      0.51      0.00
   -6   15   18      3.29      0.00
    5   15   18     -2.22      0.00
    6   15   18      0.00      0.00
   -7   16   18     -0.06      0.00
   -6   16   18      1.03      0.00
   -5   16   18      2.69      0.00
    3   16   18      0.52      0.00
    4   16   18     -0.16      0.00
    5   16   18      0.11      0.00
   -6   17   18      1.03      0.00
   -5   17   18      0.17      0.00
   -4   17   18      1.31      0.00
   -3   17   18     -1.01      0.00
   -2   17   18     -1.24      0.00
   -1   17   18      2.16      0.00
    0   17   18      0.57      0.00
    1   17   18     -1.13      0.00
    2   17   18      0.14      0.00
    3   17   18      1.44      0.00
    4   17   18     -0.54      0.00
   -4   18   18      0.38      0.00
   -3   18   18     -1.12      0.00
   -2   18   18      0.01      0.00
   -1   18   18      1.02      0.00
    0   18   18     -0.20      0.00
    1   18   18      0.38      0.00
    2   18   18     -0.51      0.00
    3   18   18      0.13      0.00
  -13    1   19      0.51      0.00
  -12    1   19      0.33      0.00
   10    1   19      3.77      0.00
   11    1   19      0.74      0.00
  -13    2   19     -0.59      0.00
  -12    2   19     -0.81      0.00
   10    2   19     -1.37      0.00
   11    2   19      0.17      0.00
  -12    3   19     -0.50      0.00
   10    3   19      1.72      0.00
   11    3   19      0.35      0.00
  -12    4   19     -0.96      0.00
   10    4   19     -0.54      0.00
   11    4   19     -0.21      0.00
  -12    5   19     -0.03      0.00
   10    5   19      0.17      0.00
  -12    6   19     -1.26      0.00
  -11    6   19      1.64      0.00
   10    6   19      0.23      0.00
  -12    7   19     -0.33      0.00
  -11    7   19     -2.09      0.00
    9    7   19     -2.95      0.00
   10    7   19     -0.75      0.00
  -11    8   19      1.24      0.00
    9    8   19      0.64      0.00
   10    8   19     -0.14      0.00
  -11    9   19     -1.27      0.00
  -10    9   19      1.99      0.00
    9    9   19     -2.18      0.00
  -11   10   19     -0.02      0.00
  -10   10   19      1.43      0.00
    8   10   19      1.84      0.00
    9   10   19     -0.70      0.00
  -10   11   19      0.94      0.00
   -9   11   19      3.49      0.00
    8   11   19      1.66      0.00
  -10   12   19      0.13      0.00
   -9   12   19      1.01      0.00
    7   12   19     -1.23      0.00
    8   12   19      0.77      0.00
   -9   13   19      1.62      0.00
   -8   13   19      0.18      0.00
    6   13   19     -0.45      0.00
    7   13   19      1.11      0.00
   -8   14   19      1.69      0.00
   -7   14   19     -0.28      0.00
    5   14   19      1.40      0.00
    6   14   19     -1.32      0.00
    7   14   19     -1.07      0.00
   -8   15   19     -0.30      0.00
   -7   15   19     -0.86      0.00
   -6   15   19     -1.40      0.00
    4   15   19      1.56      0.00
    5   15   19      0.61      0.00
    6   15   19      0.61      0.00
   -6   16   19     -1.31      0.00
   -5   16   19     -0.04      0.00
   -4   16   19      0.26      0.00
    2   16   19     -0.52      0.00
    3   16   19     -2.11      0.00
    4   16   19      0.06      0.00
    5   16   19      0.71      0.00
   -5   17   19     -2.04      0.00
   -4   17   19     -0.77      0.00
   -3   17   19      2.67      0.00
   -2   17   19      0.12      0.00
   -1   17   19     -2.02      0.00
    0   17   19     -0.52      0.00
    1   17   19     -0.61      0.00
    2   17   19     -0.11      0.00
    3   17   19     -0.56      0.00
   -3   18   19      0.57      0.00
   -2   18   19      2.29      0.00
   -1   18   19     -1.20      0.00
    0   18   19      0.08      0.00
    1   18   19      1.09      0.00
  -12    0   20      0.26      0.00
   10    0   20     -2.67      0.00
  -12    1   20      0.71      0.00
   10    1   20      0.96      0.00
  -12    2   20      0.14      0.00
   10    2   20     -2.09      0.00
  -12    3   20      1.20      0.00
   10    3   20      1.08      0.00
  -12    4   20     -0.44      0.00
  -11    4   20      0.74      0.00
   10    4   20     -1.06      0.00
  -12    5   20      0.95      0.00
  -11    5   20     -1.00      0.00
    9    5   20      2.00      0.00
   10    5   20      0.40      0.00
  -12    6   20     -0.28      0.00
  -11    6   20      1.60      0.00
    9    6   20      0.78      0.00
   10    6   20     -0.03      0.00
  -11    7   20     -1.77      0.00
    9    7   20     -0.19      0.00
   10    7   20     -0.02      0.00
  -11    8   20      1.37      0.00
  -10    8   20     -0.79      0.00
    9    8   20      2.05      0.00
  -11    9   20     -0.95      0.00
  -10    9   20     -1.87      0.00
    8    9   20     -1.75      0.00
    9    9   20     -0.39      0.00
  -10   10   20     -1.55      0.00
   -9   10   20     -3.25      0.00
    8   10   20      0.08      0.00
  -10   11   20     -0.79      0.00
   -9   11   20     -1.26      0.00
    7   11   20     -1.69      0.00
    8   11   20     -1.87      0.00
   -9   12   20     -2.09      0.00
   -8   12   20     -1.16      0.00
    6   12   20      3.16      0.00
    7   12   20     -1.09      0.00
   -9   13   20      0.07      0.00
   -8   13   20     -0.60      0.00
   -7   13   20      0.44      0.00
    5   13   20     -1.60      0.00
    6   13   20      1.75      0.00
    7   13   20      1.48      0.00
   -8   14   20     -0.20      0.00
   -7   14   20      1.14      0.00
   -6   14   20      0.99      0.00
    4   14   20     -1.90      0.00
    5   14   20     -1.14      0.00
    6   14   20     -0.60      0.00
   -7   15   20     -0.16      0.00
   -6   15   20      2.11      0.00
   -5   15   20      0.53      0.00
    3   15   20      1.66      0.00
    4   15   20      0.93      0.00
    5   15   20     -0.37      0.00
   -6   16   20      0.58      0.00
   -5   16   20      2.67      0.00
   -4   16   20      0.97      0.00
   -3   16   20     -2.94      0.00
   -2   16   20      0.02      0.00
   -1   16   20      2.07      0.00
    0   16   20      0.75      0.00
    1   16   20      0.95      0.00
    2   16   20      1.09      0.00
    3   16   20      0.35      0.00
    4   16   20      0.10      0.00
   -4   17   20      0.83      0.00
   -3   17   20     -1.14      0.00
   -2   17   20     -1.52      0.00
   -1   17   20      1.02      0.00
    0   17   20     -0.69      0.00
    1   17   20     -1.75      0.00
    2   17   20     -0.20      0.00
  -12    1   21     -0.77      0.00
  -11    1   21      0.75      0.00
    9    1   21     -1.17      0.00
   10    1   21      1.43      0.00
  -12    2   21     -0.78      0.00
  -11    2   21     -2.55      0.00
    9    2   21     -1.98      0.00
   10    2   21     -0.85      0.00
  -12    3   21      0.64      0.00
  -11    3   21      0.67      0.00
    9    3   21      1.18      0.00
   10    3   21      1.19      0.00
  -12    4   21     -0.80      0.00
  -11    4   21     -0.81      0.00
    9    4   21     -2.33      0.00
   10    4   21     -0.62      0.00
  -12    5   21      0.86      0.00
  -11    5   21     -0.33      0.00
    9    5   21      0.97      0.00
   10    5   21      0.60      0.00
  -11    6   21      1.67      0.00
    9    6   21     -0.63      0.00
  -11    7   21     -1.08      0.00
  -10    7   21     -1.07      0.00
    8    7   21      0.09      0.00
    9    7   21     -0.51      0.00
  -11    8   21      1.39      0.00
  -10    8   21      2.11      0.00
    8    8   21     -0.34      0.00
    9    8   21      0.38      0.00
  -10    9   21      1.71      0.00
   -9    9   21      2.70      0.00
    8    9   21     -0.40      0.00
  -10   10   21      1.40      0.00
   -9   10   21      1.38      0.00
    7   10   21      2.73      0.00
    8   10   21      1.76      0.00
   -9   11   21      1.88      0.00
   -8   11   21      1.24      0.00
    6   11   21     -4.83      0.00
    7   11   21      0.66      0.00
   -9   12   21      0.28      0.00
   -8   12   21      0.27      0.00
    6   12   21     -0.79      0.00
    7   12   21     -0.26      0.00
   -8   13   21      0.66      0.00
   -7   13   21     -0.94      0.00
    4   13   21      1.12      0.00
    5   13   21     -0.08      0.00
    6   13   21     -1.13      0.00
   -7   14   21     -0.43      0.00
   -6   14   21     -2.71      0.00
   -5   14   21     -0.88      0.00
    3   14   21     -0.24      0.00
    4   14   21     -0.57      0.00
    5   14   21      0.66      0.00
   -6   15   21     -0.21      0.00
   -5   15   21     -1.50      0.00
   -4   15   21      0.32      0.00
   -3   15   21      2.73      0.00
    1   15   21     -0.34      0.00
    2   15   21     -1.90      0.00
    3   15   21     -0.57      0.00
    4   15   21      0.50      0.00
   -5   16   21      0.26      0.00
   -4   16   21      0.22      0.00
   -3   16   21      1.88      0.00
   -2   16   21      0.27      0.00
   -1   16   21     -1.80      0.00
    0   16   21      0.53      0.00
    1   16   21      2.15      0.00
    2   16   21      0.49      0.00
    3   16   21     -0.84      0.00
   -3   17   21      2.07      0.00
   -2   17   21      1.02      0.00
   -1   17   21     -0.43      0.00
    0   17   21      0.11      0.00
    1   17   21     -0.25      0.00
  -12    0   22      1.16      0.00
  -11    0   22      0.17      0.00
    9    0   22      1.86      0.00
   10    0   22     -0.71      0.00
  -12    1   22      0.03      0.00
  -11    1   22      1.29      0.00
    9    1   22      0.34      0.00
   10    1   22      0.22      0.00
  -12    2   22      0.11      0.00
  -11    2   22     -0.58      0.00
    9    2   22      0.41      0.00
   10    2   22     -0.75      0.00
  -11    3   22      1.89      0.00
    9    3   22      1.23      0.00
  -11    4   22     -1.25      0.00
    9    4   22     -1.05      0.00
  -11    5   22     -0.41      0.00
  -10    5   22     -1.12      0.00
    8    5   22      2.44      0.00
    9    5   22      0.80      0.00
  -11    6   22      0.32      0.00
  -10    6   22      2.25      0.00
    8    6   22     -0.67      0.00
    9    6   22     -0.71      0.00
  -11    7   22     -1.57      0.00
  -10    7   22     -2.58      0.00
    8    7   22      1.87      0.00
    9    7   22     -0.20      0.00
  -10    8   22     -1.05      0.00
   -9    8   22     -1.71      0.00
    7    8   22     -2.54      0.00
    8    8   22      0.10      0.00
  -10    9   22     -1.52      0.00
   -9    9   22     -0.66      0.00
    7    9   22     -1.58      0.00
    8    9   22     -0.18      0.00
   -9   10   22     -1.92      0.00
   -8   10   22     -1.00      0.00
    6   10   22      3.63      0.00
    7   10   22     -1.32      0.00
   -9   11   22     -0.96      0.00
   -8   11   22     -1.09      0.00
    6   11   22      0.40      0.00
    7   11   22     -0.55      0.00
   -8   12   22     -0.25      0.00
   -7   12   22      0.93      0.00
    5   12   22      1.50      0.00
    6   12   22      3.08      0.00
   -8   13   22     -0.04      0.00
   -7   13   22      0.76      0.00
   -6   13   22      2.39      0.00
    4   13   22     -0.60      0.00
    5   13   22     -1.71      0.00
    6   13   22      0.56      0.00
   -7   14   22     -0.58      0.00
   -6   14   22      0.05      0.00
   -5   14   22      0.02      0.00
   -4   14   22     -1.47      0.00
    2   14   22      1.37      0.00
    3   14   22      0.90      0.00
    4   14   22     -0.29      0.00
    5   14   22     -0.24      0.00
   -6   15   22      0.85      0.00
   -5   15   22      0.79      0.00
   -4   15   22     -0.42      0.00
   -3   15   22     -1.48      0.00
   -2   15   22      1.17      0.00
   -1   15   22      3.02      0.00
    0   15   22      0.64      0.00
    1   15   22     -1.43      0.00
    2   15   22     -0.63      0.00
    3   15   22      0.20      0.00
   -4   16   22      0.03      0.00
   -3   16   22     -2.53      0.00
   -2   16   22     -0.79      0.00
   -1   16   22      0.13      0.00
    0   16   22     -0.79      0.00
    1   16   22     -0.18      0.00
    2   16   22      0.48      0.00
  -11    1   23     -0.19      0.00
    8    1   23     -3.89      0.00
    9    1   23     -1.24      0.00
  -11    2   23     -1.13      0.00
  -10    2   23     -1.73      0.00
    8    2   23      0.80      0.00
    9    2   23     -0.05      0.00
  -11    3   23      1.28      0.00
  -10    3   23      0.22      0.00
    8    3   23     -1.75      0.00
    9    3   23      0.04      0.00
  -11    4   23     -0.79      0.00
  -10    4   23     -1.13      0.00
    8    4   23     -0.64      0.00
    9    4   23     -0.25      0.00
  -11    5   23      1.04      0.00
  -10    5   23     -0.99      0.00
    8    5   23      0.09      0.00
    9    5   23      0.84      0.00
  -10    6   23      2.01      0.00
    8    6   23     -1.78      0.00
  -10    7   23     -0.34      0.00
   -9    7   23     -0.33      0.00
    7    7   23      1.18      0.00
    8    7   23     -0.13      0.00
  -10    8   23      1.94      0.00
   -9    8   23      0.48      0.00
    7    8   23      0.33      0.00
    8    8   23     -1.00      0.00
   -9    9   23      2.37      0.00
   -8    9   23      1.78      0.00
    6    9   23     -1.69      0.00
    7    9   23      1.64      0.00
   -9   10   23      0.56      0.00
   -8   10   23      1.28      0.00
    6   10   23     -0.51      0.00
    7   10   23      0.34      0.00
   -8   11   23     -0.55      0.00
   -7   11   23     -1.60      0.00
    5   11   23     -1.47      0.00
    6   11   23     -3.19      0.00
   -8   12   23      0.59      0.00
   -7   12   23     -0.12      0.00
   -6   12   23     -1.49      0.00
    4   12   23      0.66      0.00
    5   12   23      1.76      0.00
    6   12   23     -0.28      0.00
   -7   13   23     -0.08      0.00
   -6   13   23      0.00      0.00
   -5   13   23      0.83      0.00
   -4   13   23      0.81      0.00
    2   13   23      0.03      0.00
    3   13   23     -0.20      0.00
    4   13   23      0.20      0.00
    5   13   23     -0.35      0.00
   -6   14   23     -1.28      0.00
   -5   14   23     -0.61      0.00
   -4   14   23      0.92      0.00
   -3   14   23      0.89      0.00
   -2   14   23     -1.66      0.00
   -1   14   23     -2.96      0.00
    0   14   23     -1.08      0.00
    1   14   23      0.22      0.00
    2   14   23     -0.07      0.00
    3   14   23      0.45      0.00
    4   14   23     -0.15      0.00
   -4   15   23      1.42      0.00
   -3   15   23      2.79      0.00
   -2   15   23      0.12      0.00
   -1   15   23     -0.18      0.00
    0   15   23      1.72      0.00
    1   15   23      1.21      0.00
    2   15   23     -0.51      0.00
   -2   16   23      0.21      0.00
   -1   16   23     -2.10      0.00
    0   16   23     -0.79      0.00
  -11    0   24      0.11      0.00
  -10    0   24     -0.07      0.00
    8    0   24      2.65      0.00
    9    0   24      0.95      0.00
  -11    1   24      0.26      0.00
  -10    1   24      0.49      0.00
    8    1   24     -0.60      0.00
    9    1   24     -0.20      0.00
  -11    2   24     -0.37      0.00
  -10    2   24     -0.18      0.00
    8    2   24      2.12      0.00
    9    2   24      0.59      0.00
  -11    3   24      0.56      0.00
  -10    3   24      1.41      0.00
    8    3   24     -0.54      0.00
  -10    4   24     -0.58      0.00
    7    4   24      1.45      0.00
    8    4   24      0.77      0.00
  -10    5   24      0.07      0.00
   -9    5   24      0.35      0.00
    7    5   24     -0.49      0.00
    8    5   24      0.76      0.00
  -10    6   24      0.34      0.00
   -9    6   24      1.03      0.00
    7    6   24      0.52      0.00
    8    6   24      0.37      0.00
  -10    7   24     -2.11      0.00
   -9    7   24     -1.37      0.00
    6    7   24     -1.46      0.00
    7    7   24      0.21      0.00
   -9    8   24     -1.41      0.00
   -8    8   24     -1.99      0.00
    6    8   24      1.01      0.00
    7    8   24     -0.85      0.00
   -9    9   24      0.16      0.00
   -8    9   24     -0.30      0.00
    5    9   24      1.52      0.00
    6    9   24     -0.13      0.00
    7    9   24     -0.08      0.00
   -8   10   24     -0.12      0.00
   -7   10   24      1.46      0.00
    5   10   24      0.80      0.00
    6   10   24      2.08      0.00
   -8   11   24     -0.90      0.00
   -7   11   24     -1.10      0.00
   -6   11   24      0.03      0.00
    4   11   24      0.48      0.00
    5   11   24     -0.54      0.00
    6   11   24      0.29      0.00
   -7   12   24      1.35      0.00
   -6   12   24     -0.12      0.00
   -5   12   24     -1.63      0.00
    2   12   24     -0.62      0.00
    3   12   24     -1.55      0.00
    4   12   24     -1.21      0.00
    5   12   24      0.50      0.00
   -6   13   24      1.26      0.00
   -5   13   24     -0.07      0.00
   -4   13   24     -1.53      0.00
   -3   13   24     -0.79      0.00
   -2   13   24      1.13      0.00
   -1   13   24      1.31      0.00
    0   13   24     -0.47      0.00
    1   13   24     -0.09      0.00
    2   13   24      1.18      0.00
    3   13   24     -0.05      0.00
    4   13   24     -0.53      0.00
   -5   14   24      0.00      0.00
   -4   14   24     -1.54      0.00
   -3   14   24     -1.92      0.00
   -2   14   24      1.18      0.00
   -1   14   24      1.44      0.00
    0   14   24     -1.47      0.00
    1   14   24     -1.77      0.00
    2   14   24     -0.02      0.00
    3   14   24      0.33      0.00
   -3   15   24     -1.35      0.00
   -2   15   24     -0.14      0.00
   -1   15   24      2.08      0.00
    0   15   24      1.49      0.00
    1   15   24      0.17      0.00
  -10    1   25      0.00      0.00
   -9    1   25      0.92      0.00
    7    1   25     -1.26      0.00
    8    1   25     -1.28      0.00
  -10    2   25     -0.48      0.00
   -9    2   25     -1.85      0.00
    7    2   25      2.20      0.00
    8    2   25      0.51      0.00
  -10    3   25      0.31      0.00
   -9    3   25      0.90      0.00
    7    3   25     -1.37      0.00
    8    3   25     -0.98      0.00
  -10    4   25     -0.94      0.00
   -9    4   25     -1.74      0.00
    7    4   25      0.77      0.00
    8    4   25     -0.01      0.00
  -10    5   25      0.61      0.00
   -9    5   25      0.42      0.00
    6    5   25     -1.89      0.00
    7    5   25     -1.10      0.00
   -9    6   25      0.89      0.00
   -8    6   25      1.31      0.00
    6    6   25      1.25      0.00
    7    6   25     -0.42      0.00
   -9    7   25      0.00      0.00
   -8    7   25      0.94      0.00
    6    7   25     -1.00      0.00
    7    7   25     -0.07      0.00
   -9    8   25      0.53      0.00
   -8    8   25      0.51      0.00
   -7    8   25      2.36      0.00
    5    8   25      0.19      0.00
    6    8   25      1.14      0.00
   -8    9   25      1.22      0.00
   -7    9   25     -0.09      0.00
    4    9   25      1.88      0.00
    5    9   25     -0.77      0.00
    6    9   25     -1.12      0.00
   -8   10   25     -0.25      0.00
   -7   10   25      1.13      0.00
   -6   10   25      0.84      0.00
    3   10   25     -0.12      0.00
    4   10   25     -0.66      0.00
    5   10   25     -0.15      0.00
   -7   11   25     -2.02      0.00
   -6   11   25      0.13      0.00
   -5   11   25      1.79      0.00
    2   11   25     -1.18      0.00
    3   11   25      2.19      0.00
    4   11   25      2.15      0.00
    5   11   25     -0.24      0.00
   -6   12   25     -0.83      0.00
   -5   12   25      0.06      0.00
   -4   12   25      1.03      0.00
   -3   12   25      0.35      0.00
   -2   12   25     -1.36      0.00
   -1   12   25     -0.43      0.00
    0   12   25      2.32      0.00
    1   12   25      1.24      0.00
    2   12   25     -1.45      0.00
    3   12   25     -1.05      0.00
    4   12   25      0.19      0.00
   -5   13   25      0.24      0.00
   -4   13   25      0.84      0.00
   -3   13   25      0.84      0.00
   -2   13   25     -1.76      0.00
   -1   13   25     -2.59      0.00
    0   13   25      0.20      0.00
    1   13   25      0.98      0.00
    2   13   25      0.52      0.00
    3   13   25      0.35      0.00
   -3   14   25      1.36      0.00
   -2   14   25      0.39      0.00
   -1   14   25     -0.99      0.00
    0   14   25     -0.65      0.00
    1   14   25     -0.30      0.00
  -10    0   26     -0.08      0.00
   -9    0   26     -0.78      0.00
    6    0   26     -6.39      0.00
    7    0   26      0.43      0.00
  -10    1   26      0.25      0.00
   -9    1   26      0.95      0.00
    6    1   26     -0.89      0.00
    7    1   26     -0.75      0.00
  -10    2   26      0.12      0.00
   -9    2   26     -0.47      0.00
    6    2   26     -2.56      0.00
    7    2   26      0.79      0.00
  -10    3   26      0.45      0.00
   -9    3   26      1.49      0.00
   -8    3   26      1.52      0.00
    6    3   26     -0.89      0.00
    7    3   26     -0.63      0.00
   -9    4   26     -0.92      0.00
   -8    4   26     -0.59      0.00
    6    4   26      1.08      0.00
    7    4   26      0.83      0.00
   -9    5   26      0.42      0.00
   -8    5   26     -0.09      0.00
    6    5   26     -0.31      0.00
    7    5   26      0.52      0.00
   -9    6   26     -0.33      0.00
   -8    6   26     -0.95      0.00
    5    6   26     -0.69      0.00
    6    6   26      0.57      0.00
    7    6   26      0.24      0.00
   -9    7   26     -0.90      0.00
   -8    7   26     -1.33      0.00
   -7    7   26     -2.70      0.00
    5    7   26     -0.72      0.00
    6    7   26     -1.11      0.00
   -8    8   26     -0.78      0.00
   -7    8   26     -0.24      0.00
   -6    8   26     -1.02      0.00
    4    8   26     -0.98      0.00
    5    8   26      0.45      0.00
    6    8   26      0.49      0.00
   -8    9   26      0.71      0.00
   -7    9   26     -0.78      0.00
   -6    9   26     -0.63      0.00
   -5    9   26      1.98      0.00
    3    9   26     -1.95      0.00
    4    9   26     -0.31      0.00
    5    9   26     -0.41      0.00
   -7   10   26      1.11      0.00
   -6   10   26     -0.68      0.00
   -5   10   26     -1.52      0.00
   -4   10   26      0.94      0.00
    2   10   26      4.13      0.00
    3   10   26     -0.44      0.00
    4   10   26     -1.37      0.00
    5   10   26      0.35      0.00
   -6   11   26      0.47      0.00
   -5   11   26      0.40      0.00
   -4   11   26     -0.43      0.00
   -3   11   26     -0.49      0.00
   -2   11   26      1.83      0.00
   -1   11   26      1.17      0.00
    0   11   26     -2.17      0.00
    1   11   26     -2.30      0.00
    2   11   26     -0.13      0.00
    3   11   26      0.91      0.00
    4   11   26      0.20      0.00
   -5   12   26     -0.54      0.00
   -4   12   26     -0.05      0.00
   -3   12   26     -0.39      0.00
   -2   12   26      0.65      0.00
   -1   12   26      1.52      0.00
    0   12   26      0.28      0.00
    1   12   26      0.88      0.00
    2   12   26      0.12      0.00
    3   12   26     -1.08      0.00
   -4   13   26     -0.92      0.00
   -3   13   26     -0.86      0.00
   -2   13   26      0.31      0.00
   -1   13   26      0.42      0.00
    0   13   26     -0.91      0.00
    1   13   26     -0.55      0.00
   -9    1   27      0.40      0.00
   -8    1   27      1.84      0.00
    5    1   27      4.09      0.00
    6    1   27      3.80      0.00
    7    1   27     -0.39      0.00
   -9    2   27     -1.27      0.00
   -8    2   27     -1.13      0.00
    5    2   27     -4.75      0.00
    6    2   27      0.05      0.00
    7    2   27      0.10      0.00
   -9    3   27      0.35      0.00
   -8    3   27      0.29      0.00
    5    3   27      0.84      0.00
    6    3   27      0.08      0.00
   -9    4   27     -0.50      0.00
   -8    4   27     -0.40      0.00
   -7    4   27     -1.30      0.00
    5    4   27     -2.62      0.00
    6    4   27     -0.03      0.00
   -9    5   27      0.70      0.00
   -8    5   27      1.34      0.00
   -7    5   27      0.49      0.00
    5    5   27      1.33      0.00
    6    5   27     -0.25      0.00
   -8    6   27      0.77      0.00
   -7    6   27      1.45      0.00
    4    6   27     -0.45      0.00
    5    6   27     -0.01      0.00
    6    6   27      0.31      0.00
   -8    7   27      0.62      0.00
   -7    7   27      0.06      0.00
   -6    7   27     -0.77      0.00
    3    7   27      1.15      0.00
    4    7   27      2.08      0.00
    5    7   27      0.88      0.00
   -7    8   27      1.49      0.00
   -6    8   27      0.97      0.00
   -5    8   27     -2.14      0.00
    3    8   27      1.45      0.00
    4    8   27      0.16      0.00
    5    8   27      0.67      0.00
   -7    9   27     -0.56      0.00
   -6    9   27      0.83      0.00
   -5    9   27      1.33      0.00
   -4    9   27     -0.29      0.00
    1    9   27     -3.06      0.00
    2    9   27     -4.28      0.00
    3    9   27     -0.91      0.00
    4    9   27      0.28      0.00
   -6   10   27     -0.81      0.00
   -5   10   27     -1.53      0.00
   -4   10   27     -0.06      0.00
   -3   10   27      1.48      0.00
   -2   10   27     -0.79      0.00
   -1   10   27     -1.72      0.00
    0   10   27     -0.29      0.00
    1   10   27      1.04      0.00
    2   10   27      1.57      0.00
    3   10   27      0.36      0.00
    4   10   27      0.15      0.00
   -5   11   27      0.57      0.00
   -4   11   27     -0.96      0.00
   -3   11   27     -0.53      0.00
   -2   11   27      0.19      0.00
   -1   11   27      0.90      0.00
    0   11   27      0.90      0.00
    1   11   27     -2.30      0.00
    2   11   27     -2.02      0.00
    3   11   27      0.45      0.00
   -4   12   27      0.96      0.00
   -3   12   27      0.57      0.00
   -2   12   27     -1.56      0.00
   -1   12   27     -1.11      0.00
    0   12   27      1.61      0.00
    1   12   27      1.76      0.00
   -9    0   28     -0.05      0.00
   -8    0   28     -1.42      0.00
   -7    0   28     -0.35      0.00
    4    0   28      3.68      0.00
    5    0   28     -2.29      0.00
    6    0   28     -2.65      0.00
   -9    1   28      0.93      0.00
   -8    1   28      0.81      0.00
   -7    1   28      0.35      0.00
    4    1   28      2.33      0.00
    5    1   28      2.67      0.00
    6    1   28      0.33      0.00
   -8    2   28     -0.39      0.00
   -7    2   28      0.61      0.00
    4    2   28      1.30      0.00
    5    2   28     -1.40      0.00
    6    2   28     -1.09      0.00
   -8    3   28      0.32      0.00
   -7    3   28      1.07      0.00
    4    3   28      2.14      0.00
    5    3   28      3.09      0.00
    6    3   28      0.16      0.00
   -8    4   28     -0.56      0.00
   -7    4   28     -0.18      0.00
   -6    4   28      0.77      0.00
    4    4   28     -1.75      0.00
    5    4   28     -1.09      0.00
    6    4   28      0.15      0.00
   -8    5   28     -0.44      0.00
   -7    5   28      0.30      0.00
   -6    5   28      0.73      0.00
    3    5   28     -1.60      0.00
    4    5   28      0.13      0.00
    5    5   28      0.42      0.00
   -7    6   28     -0.88      0.00
   -6    6   28      1.01      0.00
   -5    6   28      0.61      0.00
    3    6   28     -1.53      0.00
    4    6   28     -2.59      0.00
    5    6   28     -1.57      0.00
   -7    7   28     -1.35      0.00
   -6    7   28     -1.12      0.00
   -5    7   28      1.00      0.00
   -4    7   28     -0.92      0.00
    2    7   28      0.94      0.00
    3    7   28     -0.18      0.00
    4    7   28      0.64      0.00
   -6    8   28      0.34      0.00
   -5    8   28     -0.25      0.00
   -4    8   28     -0.15      0.00
   -3    8   28     -0.33      0.00
   -2    8   28      0.19      0.00
   -1    8   28     -0.56      0.00
    0    8   28     -1.33      0.00
    1    8   28      0.40      0.00
    2    8   28      1.79      0.00
    3    8   28      0.15      0.00
    4    8   28     -0.68      0.00
   -6    9   28      0.58      0.00
   -5    9   28      2.32      0.00
   -4    9   28      0.80      0.00
   -3    9   28     -1.62      0.00
   -2    9   28     -0.85      0.00
   -1    9   28      0.85      0.00
    0    9   28      2.72      0.00
    1    9   28      2.31      0.00
    2    9   28     -0.41      0.00
    3    9   28     -0.29      0.00
   -5   10   28     -0.83      0.00
   -4   10   28      1.03      0.00
   -3   10   28      1.37      0.00
   -2   10   28      0.27      0.00
   -1   10   28     -2.26      0.00
    0   10   28     -2.71      0.00
    1   10   28      1.49      0.00
    2   10   28      2.79      0.00
   -3   11   28     -1.26      0.00
   -2   11   28      1.40      0.00
   -1   11   28      1.57      0.00
    0   11   28     -0.90      0.00
    1   11   28     -1.95      0.00
   -8    1   29      0.44      0.00
   -7    1   29     -0.73      0.00
   -6    1   29     -1.84      0.00
    3    1   29     -3.13      0.00
    4    1   29     -2.80      0.00
    5    1   29      0.64      0.00
   -8    2   29     -0.53      0.00
   -7    2   29     -0.57      0.00
   -6    2   29     -0.45      0.00
    3    2   29      0.82      0.00
    4    2   29     -1.33      0.00
    5    2   29     -2.37      0.00
   -8    3   29      0.10      0.00
   -7    3   29     -0.70      0.00
   -6    3   29     -0.87      0.00
   -5    3   29      1.51      0.00
    3    3   29      0.20      0.00
    4    3   29      0.54      0.00
    5    3   29      1.00      0.00
   -7    4   29     -0.53      0.00
   -6    4   29     -1.47      0.00
   -5    4   29     -2.45      0.00
    2    4   29      1.69      0.00
    3    4   29      1.70      0.00
    4    4   29      0.04      0.00
    5    4   29     -0.72      0.00
   -7    5   29      1.01      0.00
   -6    5   29     -0.12      0.00
   -5    5   29      0.93      0.00
   -4    5   29      0.60      0.00
    1    5   29     -1.26      0.00
    2    5   29      0.62      0.00
    3    5   29      0.87      0.00
    4    5   29      1.85      0.00
   -7    6   29      0.14      0.00
   -6    6   29     -0.14      0.00
   -5    6   29     -0.82      0.00
   -4    6   29      1.77      0.00
   -3    6   29      3.06      0.00
   -2    6   29      0.98      0.00
   -1    6   29     -0.21      0.00
    0    6   29     -1.10      0.00
    1    6   29     -2.43      0.00
    2    6   29     -0.46      0.00
    3    6   29      0.52      0.00
    4    6   29     -0.35      0.00
   -6    7   29     -0.82      0.00
   -5    7   29     -0.66      0.00
   -4    7   29     -0.41      0.00
   -3    7   29      0.39      0.00
   -2    7   29     -0.03      0.00
   -1    7   29     -1.62      0.00
    0    7   29     -1.41      0.00
    1    7   29     -0.50      0.00
    2    7   29     -0.52      0.00
    3    7   29      0.40      0.00
   -5    8   29     -1.61      0.00
   -4    8   29     -0.54      0.00
   -3    8   29      1.18      0.00
   -2    8   29      1.67      0.00
   -1    8   29      0.81      0.00
    0    8   29     -2.38      0.00
    1    8   29     -3.94      0.00
    2    8   29     -1.36      0.00
    3    8   29     -0.70      0.00
   -4    9   29     -0.41      0.00
   -3    9   29     -0.94      0.00
   -2    9   29     -0.61      0.00
   -1    9   29      1.61      0.00
    0    9   29      2.93      0.00
    1    9   29      0.45      0.00
    2    9   29     -1.47      0.00
   -3   10   29      1.36      0.00
   -2   10   29     -0.15      0.00
   -1   10   29     -0.78      0.00
    0   10   29     -0.43      0.00
   -7    0   30      0.98      0.00
   -6    0   30      1.98      0.00
   -5    0   30      2.80      0.00
   -4    0   30     -1.10      0.00
    1    0   30     -0.27      0.00
    2    0   30      0.44      0.00
    3    0   30      2.44      0.00
    4    0   30      2.49      0.00
   -7    1   30      0.17      0.00
   -6    1   30     -0.26      0.00
   -5    1   30      0.48      0.00
   -4    1   30      2.19      0.00
    1    1   30      0.01      0.00
    2    1   30     -1.00      0.00
    3    1   30     -0.58      0.00
    4    1   30      0.12      0.00
   -7    2   30      0.95      0.00
   -6    2   30      1.41      0.00
   -5    2   30      0.25      0.00
   -4    2   30     -2.57      0.00
   -3    2   30     -1.35      0.00
    0    2   30      0.72      0.00
    1    2   30      0.16      0.00
    2    2   30     -0.28      0.00
    3    2   30      0.88      0.00
    4    2   30      0.71      0.00
   -7    3   30      0.13      0.00
   -6    3   30      0.40      0.00
   -5    3   30      1.76      0.00
   -4    3   30      2.64      0.00
   -3    3   30      0.03      0.00
   -2    3   30      0.33      0.00
   -1    3   30      0.63      0.00
    0    3   30      0.48      0.00
    1    3   30     -0.15      0.00
    2    3   30     -1.63      0.00
    3    3   30     -1.32      0.00
    4    3   30     -0.12      0.00
   -6    4   30      0.09      0.00
   -5    4   30     -1.98      0.00
   -4    4   30     -2.35      0.00
   -3    4   30      0.17      0.00
   -2    4   30      1.26      0.00
   -1    4   30      0.96      0.00
    0    4   30      1.35      0.00
    1    4   30      1.20      0.00
    2    4   30     -0.56      0.00
    3    4   30     -0.43      0.00
   -6    5   30      0.90      0.00
   -5    5   30      1.48      0.00
   -4    5   30     -0.68      0.00
   -3    5   30     -2.66      0.00
   -2    5   30     -0.21      0.00
   -1    5   30      0.97      0.00
    0    5   30      0.11      0.00
    1    5   30      0.62      0.00
    2    5   30     -0.53      0.00
    3    5   30     -1.09      0.00
   -5    6   30     -0.12      0.00
   -4    6   30      0.25      0.00
   -3    6   30     -0.16      0.00
   -2    6   30     -0.40      0.00
   -1    6   30      1.80      0.00
    0    6   30      2.85      0.00
    1    6   30      1.79      0.00
    2    6   30      0.68      0.00
    3    6   30      0.00      0.00
   -5    7   30      0.90      0.00
   -4    7   30     -0.38      0.00
   -3    7   30     -1.27      0.00
   -2    7   30     -1.41      0.00
   -1    7   30     -1.42      0.00
    0    7   30      0.28      0.00
    1    7   30      2.51      0.00
    2    7   30      1.21      0.00
   -4    8   30      0.55      0.00
   -3    8   30      0.28      0.00
   -2    8   30      0.16      0.00
   -1    8   30     -0.01      0.00
    0    8   30     -0.81      0.00
    1    8   30     -0.65      0.00
   -1    9   30     -0.69      0.00
    0    0    0      0.00      0.00
# SQUEEZE RESULTS (Version =  21116)
# Note: Data are Listed for all Voids in the P1 Unit Cell
# i.e. Centre of Gravity, Solvent Accessible Volume,
# Recovered number of Electrons in the Void and
# Details about the Squeezed Material
loop_
  _platon_squeeze_void_nr
  _platon_squeeze_void_average_x
  _platon_squeeze_void_average_y
  _platon_squeeze_void_average_z
  _platon_squeeze_void_volume
  _platon_squeeze_void_count_electrons
  _platon_squeeze_void_content
   1 -0.170  0.085  0.544       107        32 ' '
   2 -0.170  0.415  0.044       108        32 ' '
   3  0.170  0.585  0.956       108        32 ' '
   4  0.171  0.915  0.456       108        32 ' '
# Missing Reflections Below sin(th)/lambda = 0.25
loop_
  _platon_missing_refln_index_h
  _platon_missing_refln_index_k
  _platon_missing_refln_index_l
  _platon_missing_refln_theta
    1    0    0     1.771
    0    1    1     1.431
    0    0    2     1.636
    0    1    2     2.013
_platon_squeeze_void_probe_radius                  1.20
_platon_squeeze_details
)
TITL mo_CHEM0434_a.res in P2(1)/c
CELL   11.5545   17.3432   25.0280     90.00     95.76     90.00
SPGR P21/c
# Solvent Accessible Volume =       430
# Electrons Found in S.A.V. =       127
# Note: Atoms in Void as Cxxx and Qxxx all others
C101 0.088 0.901 0.419 !      12.52 eA-3
C102 0.236 0.548 0.005 !      11.70 eA-3
C103 0.200 0.880 0.465 !       3.84 eA-3
C104 0.604 0.062 0.487 !       2.72 eA-3
Q105 0.529 0.279 0.139 !       1.00 eA-3
Q106 0.627 0.685 0.834 !       0.91 eA-3
Q107 0.422 0.783 0.389 !       0.84 eA-3
Q108 0.358 0.268 0.123 !       0.84 eA-3
Q109 0.829 0.981 0.509 !       0.83 eA-3
Q110 0.843 0.425-0.002 !       0.82 eA-3
Q111 0.830 0.234 0.625 !       0.81 eA-3
Q112 0.296 0.152 0.634 !       0.81 eA-3
Q113 0.471 0.672 0.891 !       0.81 eA-3
Q114 0.504 0.296 0.631 !       0.80 eA-3
Q115 0.562 0.750 0.740 !       0.77 eA-3
Q116 0.156 0.564 0.897 !       0.77 eA-3
Q117 0.987 0.845 0.365 !       0.74 eA-3
C118 0.112 0.592 0.963 !       0.73 eA-3
Q119 0.574 0.172 0.122 !       0.72 eA-3
Q120 0.765 0.339 0.072 !       0.71 eA-3
Q121 0.608 0.111 0.468 !       0.70 eA-3
Q122 0.847 0.206 0.549 !       0.70 eA-3
Q123 0.831 0.033 0.420 !       0.70 eA-3
Q124 0.561 0.156 0.636 !       0.69 eA-3
C125 0.031 0.558 0.949 !       0.68 eA-3
Q126 0.115 0.018 0.459 !       0.68 eA-3
Q127 0.610 0.248 0.074 !       0.68 eA-3
Q128 0.983 0.595 0.916 !       0.67 eA-3
C129 0.982 0.389 0.125 !       0.67 eA-3
Q130 0.192 0.890 0.415 !       0.67 eA-3
C131 0.935 0.323 0.111 !       0.67 eA-3
Q132 0.748 0.528 0.003 !       0.67 eA-3
Q133 0.546 0.391 0.103 !       0.67 eA-3
Q134 0.076 0.066 0.762 !       0.67 eA-3
Q135 0.747 0.533 0.332 !       0.66 eA-3
Q136 0.902 0.476 0.057 !       0.65 eA-3
Q137 0.690 0.567 0.354 !       0.65 eA-3
Q138 1.004 0.371 0.064 !       0.65 eA-3
Q139 0.999 0.957 0.396 !       0.64 eA-3
Q140 0.997 0.785 0.158 !       0.64 eA-3
Q141 0.639 0.895 0.694 !       0.63 eA-3
Q142 0.562 0.753 0.367 !       0.63 eA-3
Q143 0.156 0.562 0.037 !       0.63 eA-3
Q144 0.779 0.251 0.866 !       0.62 eA-3
Q145 0.283 0.216 0.649 !       0.62 eA-3
Q146 0.717 0.784 0.351 !       0.62 eA-3
Q147 0.685 0.387 0.091 !       0.62 eA-3
Q148 0.654 0.749 0.887 !       0.62 eA-3
Q149 0.128 0.986 0.529 !       0.62 eA-3
Q150 0.080 0.861 0.828 !       0.61 eA-3
Q151 0.202 0.315 0.124 !       0.61 eA-3
Q152 0.282 0.763 0.919 !       0.61 eA-3
Q153 0.107 0.635 0.001 !       0.61 eA-3
Q154 0.847 0.172 0.470 !       0.61 eA-3
Q155 0.453 0.786 0.907 !       0.61 eA-3
Q156 0.310 0.388 0.350 !       0.61 eA-3
Q157 0.530 0.876 0.296 !       0.61 eA-3
Q158 0.693 0.952 0.411 !       0.61 eA-3
Q159 0.416 0.205 0.449 !       0.61 eA-3
Q160 0.767 0.685 0.917 !       0.60 eA-3
Q161 0.951 0.481 0.069 !       0.60 eA-3
Q162 0.531 0.527 0.852 !       0.60 eA-3
Q163 0.463 0.280-0.002 !       0.60 eA-3
Q164 0.552 0.605 0.402 !       0.60 eA-3
Q165 0.203 0.316 0.033 !       0.60 eA-3
Q166 0.116 0.210 0.756 !       0.60 eA-3
Q167 0.914 0.875 0.387 !       0.59 eA-3
Q168 0.223 0.872 0.335 !       0.59 eA-3
Q169 0.248 0.582 0.920 !       0.59 eA-3
Q170 0.842 0.156 0.611 !       0.59 eA-3
Q171 0.066 0.453 0.930 !       0.59 eA-3
Q172 0.795 0.297 0.011 !       0.59 eA-3
Q173 0.480 0.285 0.702 !       0.59 eA-3
Q174 0.828 0.151 0.033 !       0.59 eA-3
Q175 0.567 0.828 0.408 !       0.59 eA-3
Q176 0.217 0.858 0.504 !       0.59 eA-3
Q177 0.498 0.718 0.218 !       0.59 eA-3
Q178 0.422 0.216 0.101 !       0.58 eA-3
Q179 0.828 0.991 0.390 !       0.58 eA-3
Q180 0.405 0.161 0.174 !       0.58 eA-3
Q181 0.906 0.111 0.014 !       0.58 eA-3
Q182 0.043 0.688 0.367 !       0.58 eA-3
Q183 0.773 0.310 0.100 !       0.58 eA-3
Q184 0.265 0.233 0.117 !       0.58 eA-3
Q185 0.358 0.488 0.052 !       0.58 eA-3
Q186 0.466 0.107 0.367 !       0.58 eA-3
Q187 0.547 0.388 0.139 !       0.58 eA-3
Q188 0.145 0.219 0.443 !       0.58 eA-3
Q189 0.128 0.222 0.940 !       0.57 eA-3
Q190 0.800 0.488 0.062 !       0.57 eA-3
Q191 0.046 0.471 0.782 !       0.57 eA-3
Q192 0.233 0.898 0.536 !       0.57 eA-3
Q193 0.092 0.060 0.600 !       0.57 eA-3
Q194 0.326 0.910 0.554 !       0.57 eA-3
Q195 0.205 0.264 0.086 !       0.57 eA-3
Q196 0.421 0.153 0.993 !       0.57 eA-3
Q197 0.688 0.955 0.464 !       0.56 eA-3
Q198 0.623 0.894-0.004 !       0.56 eA-3
Q199 0.752 0.921 0.446 !       0.56 eA-3
)
;
_shelx_fab_checksum              18382
loop_
_space_group_symop_operation_xyz
'x, y, z'
'-x, y+1/2, -z+1/2'
'-x, -y, -z'
'x, -y-1/2, z-1/2'
loop_
_atom_site_label
_atom_site_type_symbol
_atom_site_fract_x
_atom_site_fract_y
_atom_site_fract_z
_atom_site_U_iso_or_equiv
_atom_site_adp_type
_atom_site_occupancy
_atom_site_site_symmetry_order
_atom_site_calc_flag
_atom_site_refinement_flags_posn
_atom_site_refinement_flags_adp
Ru1 Ru 0.43430(2) 0.73163(2) 0.37480(2) 0.01312(8) Uani 1 1 d . .
N1 N 0.4573(2) 0.74631(15) 0.29546(10) 0.0157(6) Uani 1 1 d . .
N2 N 0.2692(2) 0.69172(15) 0.35350(10) 0.0144(6) Uani 1 1 d . .
N3 N 0.4024(2) 0.72953(16) 0.45383(10) 0.0171(6) Uani 1 1 d . .
N4 N 0.5903(2) 0.78481(14) 0.39610(10) 0.0138(6) Uani 1 1 d . .
C1 C 0.5014(3) 0.63431(19) 0.37586(12) 0.0161(7) Uani 1 1 d . .
C2 C 0.4630(3) 0.5698(2) 0.33755(13) 0.0222(8) Uani 1 1 d . .
H2 H 0.3928 0.5862 0.3136 0.027 Uiso 1 1 calc R U
C3 C 0.5628(3) 0.5503(2) 0.30340(14) 0.0299(9) Uani 1 1 d . .
H3A H 0.5384 0.5084 0.2778 0.036 Uiso 1 1 calc R U
H3B H 0.5822 0.5961 0.2825 0.036 Uiso 1 1 calc R U
C4 C 0.6688(3) 0.5250(2) 0.33992(16) 0.0346(10) Uani 1 1 d . .
H4 H 0.7337 0.5123 0.3178 0.041 Uiso 1 1 calc R U
C5 C 0.7063(3) 0.5911(2) 0.37856(18) 0.0386(10) Uani 1 1 d . .
H5A H 0.7262 0.6371 0.3579 0.046 Uiso 1 1 calc R U
H5B H 0.7762 0.5757 0.4023 0.046 Uiso 1 1 calc R U
C6 C 0.6067(3) 0.6107(2) 0.41265(14) 0.0253(8) Uani 1 1 d . .
H6 H 0.6308 0.6540 0.4378 0.030 Uiso 1 1 calc R U
C7 C 0.5767(4) 0.5394(2) 0.44479(15) 0.0370(10) Uani 1 1 d . .
H7A H 0.6451 0.5240 0.4695 0.044 Uiso 1 1 calc R U
H7B H 0.5121 0.5516 0.4665 0.044 Uiso 1 1 calc R U
C8 C 0.5413(4) 0.4733(2) 0.40631(15) 0.0350(10) Uani 1 1 d . .
H8 H 0.5223 0.4266 0.4272 0.042 Uiso 1 1 calc R U
C9 C 0.4336(3) 0.4989(2) 0.37021(15) 0.0315(9) Uani 1 1 d . .
H9A H 0.3701 0.5117 0.3925 0.038 Uiso 1 1 calc R U
H9B H 0.4067 0.4564 0.3456 0.038 Uiso 1 1 calc R U
C10 C 0.6390(4) 0.4542(2) 0.37163(16) 0.0375(10) Uani 1 1 d . .
H10A H 0.7087 0.4369 0.3948 0.045 Uiso 1 1 calc R U
H10B H 0.6142 0.4118 0.3466 0.045 Uiso 1 1 calc R U
C11 C 0.5555(3) 0.7737(2) 0.27511(12) 0.0186(7) Uani 1 1 d . .
C12 C 0.5410(3) 0.7676(2) 0.21759(13) 0.0240(8) Uani 1 1 d . .
H12 H 0.5961 0.7820 0.1937 0.029 Uiso 1 1 calc R U
C13 C 0.4349(3) 0.7376(2) 0.20375(13) 0.0242(8) Uani 1 1 d . .
H13 H 0.4014 0.7270 0.1683 0.029 Uiso 1 1 calc R U
C14 C 0.3815(3) 0.72431(19) 0.25223(12) 0.0169(7) Uani 1 1 d . .
C15 C 0.2701(3) 0.69398(19) 0.25500(12) 0.0169(7) Uani 1 1 d . .
C16 C 0.1996(3) 0.67640(19) 0.20275(12) 0.0174(7) Uani 1 1 d . .
C17 C 0.1573(3) 0.7355(2) 0.16889(13) 0.0244(8) Uani 1 1 d . .
H17 H 0.1749 0.7875 0.1786 0.029 Uiso 1 1 calc R U
C18 C 0.0900(3) 0.7203(2) 0.12123(14) 0.0287(9) Uani 1 1 d . .
H18 H 0.0615 0.7618 0.0989 0.034 Uiso 1 1 calc R U
C19 C 0.0637(3) 0.6459(3) 0.10563(14) 0.0315(9) Uani 1 1 d . .
C20 C 0.1061(3) 0.5862(2) 0.13914(15) 0.0352(10) Uani 1 1 d . .
H20 H 0.0891 0.5343 0.1291 0.042 Uiso 1 1 calc R U
C21 C 0.1731(3) 0.6017(2) 0.18728(14) 0.0267(8) Uani 1 1 d . .
H21 H 0.2010 0.5602 0.2098 0.032 Uiso 1 1 calc R U
C22 C -0.0126(4) 0.6293(3) 0.05430(16) 0.0507(13) Uani 1 1 d . .
H22A H 0.0072 0.6649 0.0262 0.076 Uiso 1 1 calc R U
H22B H -0.0944 0.6362 0.0604 0.076 Uiso 1 1 calc R U
H22C H 0.0000 0.5761 0.0430 0.076 Uiso 1 1 calc R U
C23 C 0.2186(3) 0.67918(18) 0.30199(12) 0.0154(7) Uani 1 1 d . .
C24 C 0.1039(3) 0.64846(19) 0.30457(12) 0.0172(7) Uani 1 1 d . .
H24 H 0.0502 0.6349 0.2748 0.021 Uiso 1 1 calc R U
C25 C 0.0860(3) 0.64234(19) 0.35662(13) 0.0186(7) Uani 1 1 d . .
H25 H 0.0180 0.6230 0.3703 0.022 Uiso 1 1 calc R U
C26 C 0.1890(3) 0.67051(19) 0.38786(12) 0.0156(7) Uani 1 1 d . .
C27 C 0.2040(3) 0.67515(19) 0.44399(12) 0.0164(7) Uani 1 1 d . .
C28 C 0.1070(3) 0.64879(19) 0.47498(12) 0.0166(7) Uani 1 1 d . .
C29 C -0.0029(3) 0.6827(2) 0.46912(13) 0.0200(7) Uani 1 1 d . .
H29 H -0.0186 0.7235 0.4441 0.024 Uiso 1 1 calc R U
C30 C -0.0897(3) 0.6576(2) 0.49945(13) 0.0216(8) Uani 1 1 d . .
H30 H -0.1644 0.6809 0.4944 0.026 Uiso 1 1 calc R U
C31 C -0.0696(3) 0.5988(2) 0.53715(13) 0.0201(7) Uani 1 1 d . .
C32 C 0.0400(3) 0.5658(2) 0.54275(13) 0.0207(8) Uani 1 1 d . .
H32 H 0.0560 0.5256 0.5683 0.025 Uiso 1 1 calc R U
C33 C 0.1263(3) 0.58945(19) 0.51232(13) 0.0194(7) Uani 1 1 d . .
H33 H 0.2002 0.5649 0.5169 0.023 Uiso 1 1 calc R U
C34 C -0.1634(3) 0.5715(2) 0.57053(15) 0.0288(9) Uani 1 1 d . .
H34A H -0.2394 0.5763 0.5496 0.043 Uiso 1 1 calc R U
H34B H -0.1621 0.6031 0.6031 0.043 Uiso 1 1 calc R U
H34C H -0.1494 0.5175 0.5806 0.043 Uiso 1 1 calc R U
C35 C 0.3039(3) 0.70379(19) 0.47433(12) 0.0173(7) Uani 1 1 d . .
C36 C 0.3156(3) 0.7143(2) 0.53163(13) 0.0217(8) Uani 1 1 d . .
H36 H 0.2595 0.7013 0.5554 0.026 Uiso 1 1 calc R U
C37 C 0.4206(3) 0.7458(2) 0.54520(13) 0.0228(8) Uani 1 1 d . .
H37 H 0.4525 0.7593 0.5804 0.027 Uiso 1 1 calc R U
C38 C 0.4757(3) 0.75547(18) 0.49682(12) 0.0162(7) Uani 1 1 d . .
C39 C 0.5848(3) 0.78974(18) 0.49412(12) 0.0177(7) Uani 1 1 d . .
C40 C 0.6486(3) 0.8133(2) 0.54647(12) 0.0197(7) Uani 1 1 d . .
C41 C 0.7020(3) 0.7590(2) 0.58130(13) 0.0247(8) Uani 1 1 d . .
H41 H 0.6990 0.7061 0.5715 0.030 Uiso 1 1 calc R U
C42 C 0.7600(3) 0.7808(2) 0.63035(13) 0.0274(9) Uani 1 1 d . .
H42 H 0.7969 0.7426 0.6533 0.033 Uiso 1 1 calc R U
C43 C 0.7646(3) 0.8565(2) 0.64607(14) 0.0327(9) Uani 1 1 d . .
C44 C 0.7116(4) 0.9104(3) 0.61115(16) 0.0460(12) Uani 1 1 d . .
H44 H 0.7144 0.9633 0.6211 0.055 Uiso 1 1 calc R U
C45 C 0.6545(4) 0.8895(2) 0.56212(15) 0.0381(10) Uani 1 1 d . .
H45 H 0.6190 0.9280 0.5390 0.046 Uiso 1 1 calc R U
C46 C 0.8259(4) 0.8799(3) 0.70002(16) 0.0534(13) Uani 1 1 d . .
H46A H 0.8956 0.8481 0.7081 0.080 Uiso 1 1 calc R U
H46B H 0.7734 0.8724 0.7280 0.080 Uiso 1 1 calc R U
H46C H 0.8484 0.9343 0.6989 0.080 Uiso 1 1 calc R U
C47 C 0.6361(3) 0.80417(19) 0.44723(12) 0.0181(7) Uani 1 1 d . .
C48 C 0.7465(3) 0.8415(2) 0.44444(13) 0.0209(8) Uani 1 1 d . .
H48 H 0.7964 0.8605 0.4740 0.025 Uiso 1 1 calc R U
C49 C 0.7661(3) 0.8448(2) 0.39257(13) 0.0214(8) Uani 1 1 d . .
H49 H 0.8323 0.8666 0.3787 0.026 Uiso 1 1 calc R U
C50 C 0.6684(3) 0.80890(19) 0.36166(12) 0.0170(7) Uani 1 1 d . .
C51 C 0.6542(3) 0.80290(19) 0.30557(12) 0.0176(7) Uani 1 1 d . .
C52 C 0.7516(3) 0.8334(2) 0.27686(12) 0.0182(7) Uani 1 1 d . .
C53 C 0.8613(3) 0.7999(2) 0.28293(14) 0.0238(8) Uani 1 1 d . .
H53 H 0.8738 0.7546 0.3041 0.029 Uiso 1 1 calc R U
C54 C 0.9530(3) 0.8315(2) 0.25870(14) 0.0252(8) Uani 1 1 d . .
H54 H 1.0270 0.8073 0.2634 0.030 Uiso 1 1 calc R U
C55 C 0.9389(3) 0.8979(2) 0.22777(13) 0.0230(8) Uani 1 1 d . .
C56 C 0.8290(3) 0.9309(2) 0.22112(13) 0.0236(8) Uani 1 1 d . .
H56 H 0.8167 0.9760 0.1997 0.028 Uiso 1 1 calc R U
C57 C 0.7368(3) 0.8993(2) 0.24515(13) 0.0224(8) Uani 1 1 d . .
H57 H 0.6625 0.9230 0.2399 0.027 Uiso 1 1 calc R U
C58 C 1.0389(3) 0.9332(2) 0.20223(16) 0.0349(9) Uani 1 1 d . .
H58A H 1.0448 0.9093 0.1671 0.052 Uiso 1 1 calc R U
H58B H 1.1113 0.9247 0.2254 0.052 Uiso 1 1 calc R U
H58C H 1.0256 0.9887 0.1975 0.052 Uiso 1 1 calc R U
O1 O 0.3584(2) 0.85828(16) 0.36972(10) 0.0289(6) Uani 1 1 d . .
C60 C 0.2929(5) 0.8836(3) 0.32136(19) 0.0618(15) Uani 1 1 d . .
H60A H 0.3453 0.8912 0.2934 0.093 Uiso 1 1 calc R U
H60B H 0.2539 0.9323 0.3280 0.093 Uiso 1 1 calc R U
H60C H 0.2346 0.8445 0.3095 0.093 Uiso 1 1 calc R U
H1O H 0.408(5) 0.888(3) 0.381(2) 0.08(2) Uiso 1 1 d . .
O2 O 0.5235(3) 0.96813(19) 0.39698(14) 0.0587(9) Uani 1 1 d . .
H2O H 0.5385 0.9864 0.4280 0.088 Uiso 1 1 calc R U
C59 C 0.5670(5) 1.0182(4) 0.3590(2) 0.0774(17) Uani 1 1 d . .
H59A H 0.6133 0.9885 0.3355 0.116 Uiso 1 1 calc R U
H59B H 0.6159 1.0578 0.3779 0.116 Uiso 1 1 calc R U
H59C H 0.5018 1.0429 0.3375 0.116 Uiso 1 1 calc R U
loop_
_atom_site_aniso_label
_atom_site_aniso_U_11
_atom_site_aniso_U_22
_atom_site_aniso_U_33
_atom_site_aniso_U_23
_atom_site_aniso_U_13
_atom_site_aniso_U_12
Ru1 0.01071(13) 0.01849(14) 0.00984(12) 0.00020(12) -0.00056(9) -0.00068(12)
N1 0.0135(13) 0.0193(16) 0.0137(13) 0.0024(11) -0.0011(11) 0.0007(11)
N2 0.0138(14) 0.0190(15) 0.0105(13) -0.0015(11) 0.0017(11) 0.0027(11)
N3 0.0155(13) 0.0224(15) 0.0130(13) 0.0010(12) 0.0001(11) -0.0001(13)
N4 0.0142(13) 0.0150(15) 0.0119(13) -0.0003(11) -0.0003(10) -0.0007(11)
C1 0.0161(17) 0.0197(18) 0.0127(16) 0.0015(13) 0.0025(13) -0.0016(14)
C2 0.0219(18) 0.0232(19) 0.0205(18) -0.0033(15) -0.0034(14) 0.0028(15)
C3 0.039(2) 0.029(2) 0.0216(19) -0.0027(16) 0.0050(17) 0.0078(17)
C4 0.023(2) 0.039(2) 0.042(2) -0.0086(19) 0.0046(18) 0.0127(18)
C5 0.019(2) 0.036(2) 0.060(3) -0.005(2) -0.0029(19) 0.0064(17)
C6 0.027(2) 0.023(2) 0.0236(19) -0.0024(15) -0.0090(15) 0.0029(16)
C7 0.052(3) 0.032(2) 0.024(2) 0.0026(17) -0.0101(18) 0.007(2)
C8 0.053(3) 0.022(2) 0.028(2) 0.0035(17) -0.0032(19) -0.0027(19)
C9 0.033(2) 0.027(2) 0.034(2) -0.0016(18) 0.0027(17) -0.0056(18)
C10 0.041(2) 0.030(2) 0.037(2) -0.0092(18) -0.0175(19) 0.0149(19)
C11 0.0144(16) 0.0265(19) 0.0153(16) 0.0041(15) 0.0033(13) -0.0004(15)
C12 0.0209(18) 0.037(2) 0.0148(16) 0.0040(16) 0.0052(14) -0.0034(17)
C13 0.0206(18) 0.039(2) 0.0121(16) 0.0015(16) -0.0012(13) -0.0020(17)
C14 0.0172(16) 0.0197(18) 0.0130(15) 0.0001(14) -0.0015(12) 0.0009(14)
C15 0.0162(17) 0.0191(18) 0.0146(16) 0.0006(14) -0.0018(13) 0.0023(14)
C16 0.0116(16) 0.027(2) 0.0136(16) 0.0005(14) 0.0003(13) -0.0004(14)
C17 0.0217(18) 0.031(2) 0.0200(17) 0.0021(16) 0.0001(14) 0.0000(16)
C18 0.0214(19) 0.043(3) 0.0209(18) 0.0108(17) -0.0033(15) 0.0011(17)
C19 0.023(2) 0.055(3) 0.0162(17) 0.0019(18) -0.0014(15) -0.0020(18)
C20 0.040(2) 0.036(2) 0.028(2) -0.0127(18) -0.0044(18) -0.0072(19)
C21 0.032(2) 0.028(2) 0.0196(18) -0.0008(15) -0.0036(16) 0.0019(16)
C22 0.044(3) 0.081(4) 0.024(2) -0.007(2) -0.0123(19) -0.006(2)
C23 0.0099(15) 0.0201(18) 0.0152(16) 0.0004(13) -0.0041(13) 0.0023(13)
C24 0.0150(17) 0.0222(19) 0.0133(16) -0.0005(14) -0.0046(13) 0.0013(14)
C25 0.0123(16) 0.0218(19) 0.0220(18) 0.0020(14) 0.0034(14) -0.0011(14)
C26 0.0111(16) 0.0191(18) 0.0167(16) 0.0019(13) 0.0013(13) 0.0040(13)
C27 0.0117(16) 0.0198(18) 0.0175(16) 0.0013(14) 0.0008(13) 0.0023(13)
C28 0.0165(17) 0.0215(18) 0.0117(15) -0.0034(13) 0.0014(13) -0.0043(14)
C29 0.0226(18) 0.0212(19) 0.0163(17) 0.0007(14) 0.0024(14) 0.0005(14)
C30 0.0140(17) 0.027(2) 0.0236(18) -0.0018(15) 0.0019(14) 0.0012(14)
C31 0.0212(18) 0.0227(19) 0.0171(17) -0.0036(14) 0.0054(14) -0.0047(15)
C32 0.0225(18) 0.0217(19) 0.0180(17) 0.0044(14) 0.0024(14) 0.0005(15)
C33 0.0151(17) 0.0239(19) 0.0191(17) 0.0008(14) 0.0008(14) 0.0017(14)
C34 0.027(2) 0.031(2) 0.031(2) 0.0019(17) 0.0114(16) -0.0003(17)
C35 0.0166(17) 0.0203(18) 0.0161(16) -0.0001(14) 0.0069(13) -0.0008(14)
C36 0.0223(18) 0.029(2) 0.0145(16) -0.0002(14) 0.0063(14) -0.0030(15)
C37 0.0236(19) 0.032(2) 0.0130(16) -0.0036(14) 0.0015(14) -0.0033(15)
C38 0.0176(17) 0.0173(19) 0.0131(15) -0.0009(13) -0.0016(13) -0.0011(13)
C39 0.0183(17) 0.0180(18) 0.0160(16) -0.0013(13) -0.0021(13) 0.0039(13)
C40 0.0165(17) 0.029(2) 0.0133(16) -0.0007(14) 0.0004(13) -0.0037(15)
C41 0.0243(19) 0.028(2) 0.0213(18) -0.0026(15) 0.0007(15) 0.0021(15)
C42 0.0223(18) 0.041(3) 0.0182(17) 0.0042(16) -0.0019(14) 0.0037(17)
C43 0.031(2) 0.047(3) 0.0191(19) -0.0039(18) -0.0046(16) -0.0053(19)
C44 0.066(3) 0.033(2) 0.036(2) -0.013(2) -0.013(2) -0.006(2)
C45 0.055(3) 0.029(2) 0.026(2) -0.0029(17) -0.0142(19) -0.002(2)
C46 0.058(3) 0.069(3) 0.029(2) -0.011(2) -0.019(2) -0.009(3)
C47 0.0183(17) 0.0189(18) 0.0164(17) -0.0013(14) -0.0014(14) 0.0001(14)
C48 0.0164(17) 0.026(2) 0.0192(17) -0.0012(15) -0.0047(14) -0.0044(15)
C49 0.0159(17) 0.025(2) 0.0239(18) 0.0012(15) 0.0017(14) -0.0066(14)
C50 0.0132(16) 0.0189(18) 0.0188(17) 0.0039(14) 0.0013(13) -0.0003(14)
C51 0.0170(17) 0.0186(17) 0.0174(17) 0.0020(14) 0.0025(14) 0.0025(14)
C52 0.0137(17) 0.0264(19) 0.0146(16) -0.0005(14) 0.0018(13) -0.0027(14)
C53 0.0187(18) 0.029(2) 0.0237(18) 0.0060(15) 0.0006(15) 0.0010(15)
C54 0.0146(18) 0.032(2) 0.030(2) 0.0051(16) 0.0041(15) 0.0001(15)
C55 0.0202(18) 0.027(2) 0.0225(18) -0.0012(15) 0.0044(15) -0.0049(15)
C56 0.029(2) 0.0212(19) 0.0206(18) 0.0039(15) 0.0038(15) -0.0016(16)
C57 0.0187(18) 0.031(2) 0.0177(17) 0.0032(15) 0.0015(14) 0.0020(15)
C58 0.027(2) 0.037(2) 0.042(2) 0.0099(19) 0.0108(18) -0.0052(18)
O1 0.0250(15) 0.0298(16) 0.0296(14) -0.0031(12) -0.0083(12) 0.0005(12)
C60 0.076(4) 0.044(3) 0.057(3) -0.004(2) -0.034(3) 0.020(3)
O2 0.059(2) 0.044(2) 0.070(2) -0.0042(18) -0.0056(19) -0.0094(17)
C59 0.065(4) 0.086(5) 0.084(4) 0.013(4) 0.020(3) -0.015(3)
loop_
_atom_type_symbol
_atom_type_description
_atom_type_scat_dispersion_real
_atom_type_scat_dispersion_imag
_atom_type_scat_source
C C 0.0033 0.0016 'International Tables Vol C Tables 4.2.6.8 and 6.1.1.4'
H H 0.0000 0.0000 'International Tables Vol C Tables 4.2.6.8 and 6.1.1.4'
N N 0.0061 0.0033 'International Tables Vol C Tables 4.2.6.8 and 6.1.1.4'
O O 0.0106 0.0060 'International Tables Vol C Tables 4.2.6.8 and 6.1.1.4'
Cl Cl 0.1484 0.1585 'International Tables Vol C Tables 4.2.6.8 and 6.1.1.4'
Ru Ru -1.2594 0.8363 'International Tables Vol C Tables 4.2.6.8 and 6.1.1.4'
loop_
_geom_angle_atom_site_label_1
_geom_angle_atom_site_label_2
_geom_angle_atom_site_label_3
_geom_angle
C1 Ru1 N1 91.86(12)
C1 Ru1 N4 92.89(12)
N1 Ru1 N4 90.01(10)
C1 Ru1 N3 94.89(12)
N1 Ru1 N3 173.25(11)
N4 Ru1 N3 89.73(10)
C1 Ru1 N2 94.19(12)
N1 Ru1 N2 89.86(10)
N4 Ru1 N2 172.91(10)
N3 Ru1 N2 89.56(10)
C1 Ru1 O1 176.16(12)
N1 Ru1 O1 85.16(9)
N4 Ru1 O1 84.69(10)
N3 Ru1 O1 88.10(10)
N2 Ru1 O1 88.24(10)
C11 N1 C14 106.8(3)
C11 N1 Ru1 126.5(2)
C14 N1 Ru1 126.5(2)
C26 N2 C23 107.1(3)
C26 N2 Ru1 126.5(2)
C23 N2 Ru1 126.4(2)
C35 N3 C38 106.4(2)
C35 N3 Ru1 127.2(2)
C38 N3 Ru1 126.4(2)
C50 N4 C47 107.0(3)
C50 N4 Ru1 126.2(2)
C47 N4 Ru1 126.8(2)
C6 C1 C2 110.7(3)
C6 C1 Ru1 124.5(2)
C2 C1 Ru1 124.7(2)
C1 C2 C9 108.8(3)
C1 C2 C3 109.0(3)
C9 C2 C3 109.7(3)
C1 C2 H2 109.7
C9 C2 H2 109.7
C3 C2 H2 109.7
C4 C3 C2 109.5(3)
C4 C3 H3A 109.8
C2 C3 H3A 109.8
C4 C3 H3B 109.8
C2 C3 H3B 109.8
H3A C3 H3B 108.2
C3 C4 C10 109.6(3)
C3 C4 C5 108.9(3)
C10 C4 C5 109.8(3)
C3 C4 H4 109.5
C10 C4 H4 109.5
C5 C4 H4 109.5
C4 C5 C6 109.6(3)
C4 C5 H5A 109.8
C6 C5 H5A 109.8
C4 C5 H5B 109.8
C6 C5 H5B 109.8
H5A C5 H5B 108.2
C1 C6 C7 109.2(3)
C1 C6 C5 108.9(3)
C7 C6 C5 109.5(3)
C1 C6 H6 109.7
C7 C6 H6 109.7
C5 C6 H6 109.7
C8 C7 C6 109.6(3)
C8 C7 H7A 109.8
C6 C7 H7A 109.8
C8 C7 H7B 109.8
C6 C7 H7B 109.8
H7A C7 H7B 108.2
C7 C8 C10 110.8(3)
C7 C8 C9 107.8(3)
C10 C8 C9 109.3(3)
C7 C8 H8 109.7
C10 C8 H8 109.7
C9 C8 H8 109.7
C8 C9 C2 109.7(3)
C8 C9 H9A 109.7
C2 C9 H9A 109.7
C8 C9 H9B 109.7
C2 C9 H9B 109.7
H9A C9 H9B 108.2
C4 C10 C8 109.9(3)
C4 C10 H10A 109.7
C8 C10 H10A 109.7
C4 C10 H10B 109.7
C8 C10 H10B 109.7
H10A C10 H10B 108.2
N1 C11 C51 125.5(3)
N1 C11 C12 109.2(3)
C51 C11 C12 125.4(3)
C13 C12 C11 107.4(3)
C13 C12 H12 126.3
C11 C12 H12 126.3
C12 C13 C14 107.6(3)
C12 C13 H13 126.2
C14 C13 H13 126.2
N1 C14 C15 125.6(3)
N1 C14 C13 109.1(3)
C15 C14 C13 125.3(3)
C23 C15 C14 125.7(3)
C23 C15 C16 117.2(3)
C14 C15 C16 117.1(3)
C21 C16 C17 117.9(3)
C21 C16 C15 121.4(3)
C17 C16 C15 120.6(3)
C18 C17 C16 121.2(4)
C18 C17 H17 119.4
C16 C17 H17 119.4
C19 C18 C17 121.0(3)
C19 C18 H18 119.5
C17 C18 H18 119.5
C18 C19 C20 118.3(3)
C18 C19 C22 121.0(4)
C20 C19 C22 120.8(4)
C19 C20 C21 120.7(4)
C19 C20 H20 119.6
C21 C20 H20 119.6
C16 C21 C20 120.9(3)
C16 C21 H21 119.6
C20 C21 H21 119.6
C19 C22 H22A 109.5
C19 C22 H22B 109.5
H22A C22 H22B 109.5
C19 C22 H22C 109.5
H22A C22 H22C 109.5
H22B C22 H22C 109.5
N2 C23 C15 125.6(3)
N2 C23 C24 108.9(3)
C15 C23 C24 125.5(3)
C25 C24 C23 107.8(3)
C25 C24 H24 126.1
C23 C24 H24 126.1
C24 C25 C26 107.5(3)
C24 C25 H25 126.3
C26 C25 H25 126.3
N2 C26 C27 126.0(3)
N2 C26 C25 108.8(3)
C27 C26 C25 125.1(3)
C26 C27 C35 125.0(3)
C26 C27 C28 118.6(3)
C35 C27 C28 116.4(3)
C33 C28 C29 117.7(3)
C33 C28 C27 119.7(3)
C29 C28 C27 122.6(3)
C30 C29 C28 120.7(3)
C30 C29 H29 119.6
C28 C29 H29 119.6
C29 C30 C31 121.3(3)
C29 C30 H30 119.3
C31 C30 H30 119.3
C32 C31 C30 117.5(3)
C32 C31 C34 120.9(3)
C30 C31 C34 121.6(3)
C33 C32 C31 121.8(3)
C33 C32 H32 119.1
C31 C32 H32 119.1
C32 C33 C28 121.0(3)
C32 C33 H33 119.5
C28 C33 H33 119.5
C31 C34 H34A 109.5
C31 C34 H34B 109.5
H34A C34 H34B 109.5
C31 C34 H34C 109.5
H34A C34 H34C 109.5
H34B C34 H34C 109.5
N3 C35 C27 125.5(3)
N3 C35 C36 109.5(3)
C27 C35 C36 124.9(3)
C37 C36 C35 107.2(3)
C37 C36 H36 126.4
C35 C36 H36 126.4
C36 C37 C38 107.5(3)
C36 C37 H37 126.3
C38 C37 H37 126.3
N3 C38 C39 125.9(3)
N3 C38 C37 109.4(3)
C39 C38 C37 124.6(3)
C47 C39 C38 125.4(3)
C47 C39 C40 118.4(3)
C38 C39 C40 116.2(3)
C45 C40 C41 117.8(3)
C45 C40 C39 121.1(3)
C41 C40 C39 121.0(3)
C40 C41 C42 121.0(3)
C40 C41 H41 119.5
C42 C41 H41 119.5
C43 C42 C41 121.0(3)
C43 C42 H42 119.5
C41 C42 H42 119.5
C42 C43 C44 117.7(3)
C42 C43 C46 120.9(4)
C44 C43 C46 121.4(4)
C43 C44 C45 121.8(4)
C43 C44 H44 119.1
C45 C44 H44 119.1
C40 C45 C44 120.6(4)
C40 C45 H45 119.7
C44 C45 H45 119.7
C43 C46 H46A 109.5
C43 C46 H46B 109.5
H46A C46 H46B 109.5
C43 C46 H46C 109.5
H46A C46 H46C 109.5
H46B C46 H46C 109.5
N4 C47 C39 125.7(3)
N4 C47 C48 109.0(3)
C39 C47 C48 125.3(3)
C49 C48 C47 107.6(3)
C49 C48 H48 126.2
C47 C48 H48 126.2
C48 C49 C50 107.5(3)
C48 C49 H49 126.2
C50 C49 H49 126.2
N4 C50 C51 126.0(3)
N4 C50 C49 108.8(3)
C51 C50 C49 125.1(3)
C50 C51 C11 125.4(3)
C50 C51 C52 116.0(3)
C11 C51 C52 118.6(3)
C53 C52 C57 117.6(3)
C53 C52 C51 121.6(3)
C57 C52 C51 120.7(3)
C54 C53 C52 121.1(3)
C54 C53 H53 119.4
C52 C53 H53 119.4
C53 C54 C55 121.4(3)
C53 C54 H54 119.3
C55 C54 H54 119.3
C54 C55 C56 117.7(3)
C54 C55 C58 121.5(3)
C56 C55 C58 120.8(3)
C55 C56 C57 121.2(3)
C55 C56 H56 119.4
C57 C56 H56 119.4
C56 C57 C52 121.1(3)
C56 C57 H57 119.5
C52 C57 H57 119.5
C55 C58 H58A 109.5
C55 C58 H58B 109.5
H58A C58 H58B 109.5
C55 C58 H58C 109.5
H58A C58 H58C 109.5
H58B C58 H58C 109.5
C60 O1 Ru1 119.5(2)
C60 O1 H1O 113(4)
Ru1 O1 H1O 109(4)
O1 C60 H60A 109.5
O1 C60 H60B 109.5
H60A C60 H60B 109.5
O1 C60 H60C 109.5
H60A C60 H60C 109.5
H60B C60 H60C 109.5
C59 O2 H2O 109.5
O2 C59 H59A 109.5
O2 C59 H59B 109.5
H59A C59 H59B 109.5
O2 C59 H59C 109.5
H59A C59 H59C 109.5
H59B C59 H59C 109.5
loop_
_geom_bond_atom_site_label_1
_geom_bond_atom_site_label_2
_geom_bond_distance
Ru1 C1 1.856(3)
Ru1 N1 2.045(3)
Ru1 N4 2.047(2)
Ru1 N3 2.048(2)
Ru1 N2 2.049(3)
Ru1 O1 2.364(3)
N1 C11 1.374(4)
N1 C14 1.376(4)
N2 C26 1.376(4)
N2 C23 1.378(4)
N3 C35 1.370(4)
N3 C38 1.376(4)
N4 C50 1.374(4)
N4 C47 1.376(4)
C1 C6 1.507(4)
C1 C2 1.511(5)
C2 C9 1.533(5)
C2 C3 1.541(5)
C2 H2 1.0000
C3 C4 1.517(5)
C3 H3A 0.9900
C3 H3B 0.9900
C4 C10 1.520(6)
C4 C5 1.535(5)
C4 H4 1.0000
C5 C6 1.538(5)
C5 H5A 0.9900
C5 H5B 0.9900
C6 C7 1.534(5)
C6 H6 1.0000
C7 C8 1.527(5)
C7 H7A 0.9900
C7 H7B 0.9900
C8 C10 1.527(6)
C8 C9 1.529(5)
C8 H8 1.0000
C9 H9A 0.9900
C9 H9B 0.9900
C10 H10A 0.9900
C10 H10B 0.9900
C11 C51 1.402(4)
C11 C12 1.436(4)
C12 C13 1.345(5)
C12 H12 0.9500
C13 C14 1.434(4)
C13 H13 0.9500
C14 C15 1.398(4)
C15 C23 1.394(4)
C15 C16 1.501(4)
C16 C21 1.378(5)
C16 C17 1.388(5)
C17 C18 1.383(5)
C17 H17 0.9500
C18 C19 1.372(6)
C18 H18 0.9500
C19 C20 1.390(6)
C19 C22 1.511(5)
C20 C21 1.391(5)
C20 H20 0.9500
C21 H21 0.9500
C22 H22A 0.9800
C22 H22B 0.9800
C22 H22C 0.9800
C23 C24 1.436(4)
C24 C25 1.344(4)
C24 H24 0.9500
C25 C26 1.442(4)
C25 H25 0.9500
C26 C27 1.401(4)
C27 C35 1.407(4)
C27 C28 1.497(4)
C28 C33 1.393(5)
C28 C29 1.394(5)
C29 C30 1.387(5)
C29 H29 0.9500
C30 C31 1.392(5)
C30 H30 0.9500
C31 C32 1.384(5)
C31 C34 1.509(5)
C32 C33 1.377(5)
C32 H32 0.9500
C33 H33 0.9500
C34 H34A 0.9800
C34 H34B 0.9800
C34 H34C 0.9800
C35 C36 1.438(4)
C36 C37 1.344(5)
C36 H36 0.9500
C37 C38 1.433(4)
C37 H37 0.9500
C38 C39 1.401(5)
C39 C47 1.390(4)
C39 C40 1.494(4)
C40 C45 1.378(5)
C40 C41 1.385(5)
C41 C42 1.391(5)
C41 H41 0.9500
C42 C43 1.371(5)
C42 H42 0.9500
C43 C44 1.380(6)
C43 C46 1.516(5)
C44 C45 1.382(5)
C44 H44 0.9500
C45 H45 0.9500
C46 H46A 0.9800
C46 H46B 0.9800
C46 H46C 0.9800
C47 C48 1.438(5)
C48 C49 1.341(5)
C48 H48 0.9500
C49 C50 1.444(4)
C49 H49 0.9500
C50 C51 1.401(4)
C51 C52 1.491(4)
C52 C53 1.389(5)
C52 C57 1.392(5)
C53 C54 1.385(5)
C53 H53 0.9500
C54 C55 1.387(5)
C54 H54 0.9500
C55 C56 1.387(5)
C55 C58 1.506(5)
C56 C57 1.388(5)
C56 H56 0.9500
C57 H57 0.9500
C58 H58A 0.9800
C58 H58B 0.9800
C58 H58C 0.9800
O1 C60 1.431(5)
O1 H1O 0.80(5)
C60 H60A 0.9800
C60 H60B 0.9800
C60 H60C 0.9800
O2 C59 1.415(6)
O2 H2O 0.8400
C59 H59A 0.9800
C59 H59B 0.9800
C59 H59C 0.9800
