#------------------------------------------------------------------------------
#$Date: 2020-04-05 13:26:44 +0300 (Sun, 05 Apr 2020) $
#$Revision: 250219 $
#$URL: file:///home/coder/svn-repositories/cod/cif/1/55/68/1556872.cif $
#------------------------------------------------------------------------------
#
# This file is available in the Crystallography Open Database (COD),
# http://www.crystallography.net/
#
# All data on this site have been placed in the public domain by the
# contributors.
#
data_1556872
loop_
_publ_author_name
'Wang, Hai-Xu'
'Wan, Qingyun'
'Low, Kam-Hung'
'Zhou, Cong-Ying'
'Huang, Jie-Sheng'
'Zhang, Jun-Long'
'Che, Chi-Ming'
_publ_section_title
;
 Stable group 8 metal porphyrin mono- and bis(dialkylcarbene) complexes:
 synthesis, characterization, and catalytic activity.
;
_journal_issue                   8
_journal_name_full               'Chemical science'
_journal_page_first              2243
_journal_page_last               2259
_journal_paper_doi               10.1039/c9sc05432d
_journal_volume                  11
_journal_year                    2020
_chemical_formula_moiety         'C58 H50 Fe N4, C D Cl3'
_chemical_formula_sum            'C59 H50 Cl3 D Fe N4'
_chemical_formula_weight         979.24
_space_group_crystal_system      triclinic
_space_group_IT_number           2
_space_group_name_Hall           '-P 1'
_space_group_name_H-M_alt        'P -1'
_atom_sites_solution_hydrogens   geom
_audit_creation_method           SHELXL-2014/7
_audit_update_record
;
2019-10-26 deposited with the CCDC.	2019-12-30 downloaded from the CCDC.
;
_cell_angle_alpha                85.786(3)
_cell_angle_beta                 84.240(3)
_cell_angle_gamma                70.986(3)
_cell_formula_units_Z            2
_cell_length_a                   11.3588(11)
_cell_length_b                   13.5043(14)
_cell_length_c                   16.5422(15)
_cell_measurement_reflns_used    445
_cell_measurement_temperature    150(2)
_cell_measurement_theta_max      22.5
_cell_measurement_theta_min      2.8
_cell_volume                     2384.6(4)
_computing_cell_refinement       'SAINT v8.34A (Bruker-AXS, 2013)'
_computing_data_collection       'APEX3 v2015.5-2 (Bruker-AXS, 2015)'
_computing_data_reduction        'SAINT v8.34A (Bruker-AXS, 2013)'
_computing_molecular_graphics    'Bruker SHELXTL'
_computing_publication_material  'Bruker SHELXTL'
_computing_structure_refinement  'SHELXL-2014/7 (Sheldrick, 2014)'
_computing_structure_solution    'SHELXT-2014/5 (Sheldrick, 2015)'
_diffrn_ambient_temperature      150(2)
_diffrn_detector_area_resol_mean 1024
_diffrn_measured_fraction_theta_full 0.992
_diffrn_measured_fraction_theta_max 0.989
_diffrn_measurement_device_type  'Bruker D8 VENTURE FIXED-CHI PHOTON 100 CMOS'
_diffrn_measurement_method       '\f and \w scans'
_diffrn_radiation_type           MoK\a
_diffrn_radiation_wavelength     0.71073
_diffrn_reflns_av_R_equivalents  0.0656
_diffrn_reflns_av_unetI/netI     0.0743
_diffrn_reflns_Laue_measured_fraction_full 0.992
_diffrn_reflns_Laue_measured_fraction_max 0.989
_diffrn_reflns_limit_h_max       13
_diffrn_reflns_limit_h_min       -13
_diffrn_reflns_limit_k_max       16
_diffrn_reflns_limit_k_min       -16
_diffrn_reflns_limit_l_max       19
_diffrn_reflns_limit_l_min       -19
_diffrn_reflns_number            35866
_diffrn_reflns_point_group_measured_fraction_full 0.992
_diffrn_reflns_point_group_measured_fraction_max 0.989
_diffrn_reflns_theta_full        25.242
_diffrn_reflns_theta_max         25.373
_diffrn_reflns_theta_min         2.280
_diffrn_source                   'I\mS HB micro-focus sealed tube'
_exptl_absorpt_coefficient_mu    0.529
_exptl_absorpt_correction_T_max  0.7452
_exptl_absorpt_correction_T_min  0.6540
_exptl_absorpt_correction_type   multi-scan
_exptl_absorpt_process_details   'SADABS 2014/5 (Sheldrick, 2014)'
_exptl_crystal_colour            red
_exptl_crystal_density_diffrn    1.364
_exptl_crystal_description       rod
_exptl_crystal_F_000             1020
_exptl_crystal_size_max          0.311
_exptl_crystal_size_mid          0.138
_exptl_crystal_size_min          0.077
_refine_diff_density_max         0.358
_refine_diff_density_min         -0.461
_refine_diff_density_rms         0.080
_refine_ls_extinction_method     none
_refine_ls_goodness_of_fit_ref   1.029
_refine_ls_hydrogen_treatment    constr
_refine_ls_matrix_type           full
_refine_ls_number_parameters     572
_refine_ls_number_reflns         8671
_refine_ls_number_restraints     0
_refine_ls_restrained_S_all      1.029
_refine_ls_R_factor_all          0.0904
_refine_ls_R_factor_gt           0.0588
_refine_ls_shift/su_max          0.000
_refine_ls_shift/su_mean         0.000
_refine_ls_structure_factor_coef Fsqd
_refine_ls_weighting_details
'w=1/[\s^2^(Fo^2^)+(0.0275P)^2^+5.0744P] where P=(Fo^2^+2Fc^2^)/3'
_refine_ls_weighting_scheme      calc
_refine_ls_wR_factor_gt          0.1175
_refine_ls_wR_factor_ref         0.1308
_reflns_Friedel_coverage         0.000
_reflns_number_gt                6460
_reflns_number_total             8671
_reflns_threshold_expression     'I > 2\s(I)'
_cod_data_source_file            c9sc05432d2.cif
_cod_data_source_block           mo_CHEM0477_sq
_cod_depositor_comments
;Adding full bibliography for 1556869--1556873.cif.

 Adding full bibliography for 1556869--1556873.cif.
;
_cod_database_code               1556872
_shelx_shelxl_version_number     2014/7
_shelx_space_group_comment
;
The symmetry employed for this shelxl refinement is uniquely defined
by the following loop, which should always be used as a source of
symmetry information in preference to the above space-group names.
They are only intended as comments.
;
_shelx_estimated_absorpt_t_min   0.853
_shelx_estimated_absorpt_t_max   0.960
_shelx_res_file
;

    mo_CHEM0477_sq.res created by SHELXL-2014/7


TITL mo_CHEM0477_0m_a.res in P-1
CELL 0.71073 11.3588 13.5043 16.5422 85.786 84.240 70.986
ZERR 2.00 0.0011 0.0014 0.0015 0.003 0.003 0.003
LATT 1
SFAC C H N FE D CL
UNIT 118 100 8 2 2 6
LIST 6 ! automatically inserted. Change 6 to 4 for CHECKCIF!!
TEMP -123.150
SIZE 0.077 0.138 0.311
L.S. 5 0   61
FMAP 2
ACTA
PLAN -12 0 0.00
BOND $H
ABIN
WGHT    0.027500    5.074400
FVAR       0.11065
FE1   4    0.389971    0.401572    0.269025    11.00000    0.01623    0.02057 =
         0.01325   -0.00259   -0.00049   -0.00173
N1    3    0.263397    0.515778    0.213498    11.00000    0.01790    0.02214 =
         0.01498   -0.00034   -0.00051   -0.00364
N2    3    0.474728    0.354581    0.161755    11.00000    0.01493    0.02554 =
         0.01513   -0.00239   -0.00151   -0.00165
N3    3    0.543802    0.319739    0.320362    11.00000    0.01897    0.02077 =
         0.01692   -0.00315   -0.00111   -0.00335
N4    3    0.317717    0.463537    0.374685    11.00000    0.01899    0.01783 =
         0.01486   -0.00224   -0.00151   -0.00428
C1    1    0.172286    0.600275    0.248025    11.00000    0.01869    0.01777 =
         0.01943    0.00091   -0.00015   -0.00054
C2    1    0.102116    0.667407    0.186083    11.00000    0.02705    0.02539 =
         0.02284   -0.00140   -0.00247    0.00284
AFIX  43
H2    2    0.035826    0.731294    0.194132    11.00000   -1.20000
AFIX   0
C3    1    0.147700    0.623014    0.114785    11.00000    0.02472    0.03210 =
         0.01676    0.00013   -0.00382   -0.00220
AFIX  43
H3    2    0.119486    0.649761    0.062955    11.00000   -1.20000
AFIX   0
C4    1    0.246944    0.527669    0.130956    11.00000    0.01775    0.02617 =
         0.01888   -0.00196   -0.00020   -0.00638
C5    1    0.313869    0.457724    0.072901    11.00000    0.01573    0.03099 =
         0.01657   -0.00075    0.00026   -0.00586
C6    1    0.420445    0.374187    0.088817    11.00000    0.02070    0.03141 =
         0.01307   -0.00303    0.00049   -0.00885
C7    1    0.496840    0.303429    0.029452    11.00000    0.02549    0.03327 =
         0.01664   -0.00640   -0.00327   -0.00171
AFIX  43
H7    2    0.477842    0.298664   -0.024471    11.00000   -1.20000
AFIX   0
C8    1    0.600083    0.245308    0.064429    11.00000    0.02486    0.03098 =
         0.02012   -0.00944    0.00121    0.00112
AFIX  43
H8    2    0.668734    0.192551    0.039488    11.00000   -1.20000
AFIX   0
C9    1    0.587915    0.277298    0.146186    11.00000    0.01844    0.02484 =
         0.01807   -0.00123    0.00071   -0.00172
C10   1    0.678962    0.239610    0.201095    11.00000    0.01771    0.02078 =
         0.02364   -0.00086    0.00057   -0.00180
C11   1    0.658276    0.264286    0.282142    11.00000    0.01736    0.02515 =
         0.01900    0.00037    0.00034   -0.00419
C12   1    0.750030    0.228422    0.340670    11.00000    0.01810    0.03266 =
         0.02536   -0.00023   -0.00402   -0.00205
AFIX  43
H12   2    0.836444    0.191901    0.329474    11.00000   -1.20000
AFIX   0
C13   1    0.691243    0.255988    0.414077    11.00000    0.02294    0.03317 =
         0.02184    0.00124   -0.00768   -0.00459
AFIX  43
H13   2    0.728102    0.242202    0.464511    11.00000   -1.20000
AFIX   0
C14   1    0.562312    0.310174    0.402126    11.00000    0.02123    0.02002 =
         0.01835    0.00082   -0.00494   -0.00399
C15   1    0.470318    0.349120    0.464580    11.00000    0.02364    0.02065 =
         0.01563   -0.00002   -0.00252   -0.00898
C16   1    0.354158    0.421695    0.450398    11.00000    0.02475    0.01993 =
         0.01576   -0.00291   -0.00093   -0.00693
C17   1    0.262980    0.474709    0.512723    11.00000    0.02793    0.02959 =
         0.01370   -0.00055   -0.00019   -0.00406
AFIX  43
H17   2    0.264460    0.458620    0.569568    11.00000   -1.20000
AFIX   0
C18   1    0.175263    0.551289    0.475508    11.00000    0.02631    0.02721 =
         0.02143   -0.00693    0.00561   -0.00171
AFIX  43
H18   2    0.103906    0.600722    0.501146    11.00000   -1.20000
AFIX   0
C19   1    0.209362    0.544542    0.389912    11.00000    0.02255    0.01885 =
         0.01612   -0.00361   -0.00057   -0.00292
C20   1    0.143743    0.613464    0.330832    11.00000    0.02149    0.02049 =
         0.02032   -0.00295    0.00176   -0.00476
C21   1    0.274968    0.474103   -0.012231    11.00000    0.01992    0.02722 =
         0.01973   -0.00606   -0.00293   -0.00006
C22   1    0.351717    0.497611   -0.076165    11.00000    0.02493    0.02852 =
         0.02563   -0.00348   -0.00449   -0.00760
AFIX  43
H22   2    0.427710    0.507400   -0.065450    11.00000   -1.20000
AFIX   0
C23   1    0.318887    0.506941   -0.155212    11.00000    0.03587    0.03225 =
         0.01730    0.00126   -0.00111   -0.00577
AFIX  43
H23   2    0.372747    0.523257   -0.198033    11.00000   -1.20000
AFIX   0
C24   1    0.209844    0.493097   -0.173190    11.00000    0.02956    0.03755 =
         0.01892   -0.00403   -0.00498    0.00059
C25   1    0.131768    0.473522   -0.109538    11.00000    0.02439    0.06455 =
         0.03099   -0.00441   -0.00941   -0.01478
AFIX  43
H25   2    0.054480    0.466181   -0.120253    11.00000   -1.20000
AFIX   0
C26   1    0.163745    0.464310   -0.030072    11.00000    0.02736    0.05719 =
         0.02243   -0.00071   -0.00074   -0.01278
AFIX  43
H26   2    0.107927    0.451010    0.012803    11.00000   -1.20000
AFIX   0
C27   1    0.179763    0.496784   -0.260435    11.00000    0.04584    0.06458 =
         0.02381   -0.00953   -0.00909   -0.00496
AFIX 137
H27A  2    0.186383    0.561667   -0.288137    11.00000   -1.50000
H27B  2    0.094544    0.494713   -0.261800    11.00000   -1.50000
H27C  2    0.238836    0.436364   -0.287999    11.00000   -1.50000
AFIX   0
C28   1    0.803792    0.169881    0.169361    11.00000    0.02100    0.02576 =
         0.02365   -0.00498   -0.00393    0.00102
C29   1    0.874429    0.206947    0.108562    11.00000    0.02371    0.02964 =
         0.02714   -0.00382   -0.00077    0.00183
AFIX  43
H29   2    0.844845    0.278134    0.089526    11.00000   -1.20000
AFIX   0
C30   1    0.987196    0.141668    0.075372    11.00000    0.02271    0.04432 =
         0.02245   -0.00519    0.00138   -0.00271
AFIX  43
H30   2    1.032990    0.168387    0.033074    11.00000   -1.20000
AFIX   0
C31   1    1.034569    0.037865    0.102784    11.00000    0.01984    0.04002 =
         0.02595   -0.01226   -0.00707    0.00343
C32   1    0.965883    0.001627    0.164502    11.00000    0.03164    0.02651 =
         0.03604   -0.00468   -0.01059    0.00555
AFIX  43
H32   2    0.997012   -0.068861    0.184909    11.00000   -1.20000
AFIX   0
C33   1    0.851448    0.067029    0.197320    11.00000    0.03000    0.02924 =
         0.03005   -0.00072   -0.00058   -0.00444
AFIX  43
H33   2    0.805610    0.040313    0.239593    11.00000   -1.20000
AFIX   0
C34   1    1.158043   -0.033143    0.066893    11.00000    0.02556    0.05048 =
         0.03777   -0.01687   -0.00585    0.01015
AFIX 137
H34A  2    1.156996   -0.032146    0.007670    11.00000   -1.50000
H34B  2    1.171669   -0.104834    0.089359    11.00000   -1.50000
H34C  2    1.225616   -0.008541    0.080352    11.00000   -1.50000
AFIX   0
C35   1    0.502715    0.315628    0.549620    11.00000    0.02248    0.02417 =
         0.01769   -0.00002   -0.00145   -0.00587
C36   1    0.534226    0.210519    0.574979    11.00000    0.04821    0.02339 =
         0.02687   -0.00286   -0.00952   -0.00472
AFIX  43
H36   2    0.532250    0.160292    0.538271    11.00000   -1.20000
AFIX   0
C37   1    0.568266    0.178172    0.652555    11.00000    0.06922    0.02597 =
         0.03266    0.00348   -0.01566   -0.00508
AFIX  43
H37   2    0.587748    0.106037    0.668712    11.00000   -1.20000
AFIX   0
C38   1    0.574808    0.248483    0.707766    11.00000    0.04662    0.03893 =
         0.02275    0.00422   -0.00887   -0.01059
C39   1    0.545443    0.352130    0.682210    11.00000    0.04061    0.03830 =
         0.02185   -0.00370   -0.00791   -0.01677
AFIX  43
H39   2    0.550077    0.401755    0.718584    11.00000   -1.20000
AFIX   0
C40   1    0.509161    0.386207    0.604567    11.00000    0.03323    0.02573 =
         0.02315    0.00068   -0.00428   -0.01181
AFIX  43
H40   2    0.488541    0.458555    0.588889    11.00000   -1.20000
AFIX   0
C41   1    0.614014    0.213151    0.792416    11.00000    0.09976    0.06321 =
         0.03027    0.01150   -0.02882   -0.02127
AFIX 137
H41A  2    0.668118    0.139884    0.792481    11.00000   -1.50000
H41B  2    0.539735    0.219468    0.829951    11.00000   -1.50000
H41C  2    0.659659    0.257146    0.809812    11.00000   -1.50000
AFIX   0
C42   1    0.032827    0.704661    0.357541    11.00000    0.02848    0.02460 =
         0.01495   -0.00060    0.00075   -0.00139
C43   1   -0.080767    0.690990    0.381775    11.00000    0.03585    0.02844 =
         0.04780   -0.00597    0.00429   -0.00483
AFIX  43
H43   2   -0.087507    0.622533    0.383923    11.00000   -1.20000
AFIX   0
C44   1   -0.185265    0.775035    0.403053    11.00000    0.03135    0.03964 =
         0.05704   -0.00468    0.00885   -0.00217
AFIX  43
H44   2   -0.262549    0.763449    0.419158    11.00000   -1.20000
AFIX   0
C45   1   -0.178555    0.875345    0.401160    11.00000    0.04366    0.02901 =
         0.03187    0.00340    0.01049    0.00508
C46   1   -0.064998    0.888614    0.379906    11.00000    0.05142    0.02177 =
         0.05524   -0.00283    0.01035   -0.00172
AFIX  43
H46   2   -0.057917    0.956796    0.379910    11.00000   -1.20000
AFIX   0
C47   1    0.040655    0.804509    0.358228    11.00000    0.03731    0.03255 =
         0.04317   -0.00520    0.00894   -0.00742
AFIX  43
H47   2    0.118437    0.815960    0.343854    11.00000   -1.20000
AFIX   0
C48   1   -0.294642    0.968241    0.422482    11.00000    0.05778    0.03360 =
         0.07073    0.00504    0.02265    0.01500
AFIX 137
H48A  2   -0.332264    1.001619    0.372488    11.00000   -1.50000
H48B  2   -0.271092    1.019154    0.451041    11.00000   -1.50000
H48C  2   -0.355089    0.943580    0.457606    11.00000   -1.50000
AFIX   0
C49   1    0.310212    0.307962    0.279404    11.00000    0.02215    0.02643 =
         0.01305   -0.00525   -0.00193   -0.00119
C50   1    0.376053    0.192112    0.277933    11.00000    0.02659    0.02407 =
         0.03911   -0.00511   -0.00158   -0.00680
AFIX  13
H50   2    0.468579    0.177241    0.270685    11.00000   -1.20000
AFIX   0
C51   1    0.331927    0.148331    0.208014    11.00000    0.04808    0.03800 =
         0.04886   -0.02025    0.00048   -0.01436
AFIX  23
H51A  2    0.355214    0.180036    0.155531    11.00000   -1.20000
H51B  2    0.373133    0.071510    0.207046    11.00000   -1.20000
AFIX   0
C52   1    0.192368    0.172638    0.219082    11.00000    0.04521    0.04239 =
         0.06418   -0.02020   -0.01725   -0.01554
AFIX  13
H52   2    0.164246    0.144561    0.172896    11.00000   -1.20000
AFIX   0
C53   1    0.156160    0.121913    0.298620    11.00000    0.03480    0.03302 =
         0.09470   -0.00505   -0.00842   -0.01612
AFIX  23
H53A  2    0.196114    0.044926    0.298018    11.00000   -1.20000
H53B  2    0.064458    0.137165    0.305347    11.00000   -1.20000
AFIX   0
C54   1    0.198740    0.165138    0.369227    11.00000    0.04346    0.04072 =
         0.05744    0.00987    0.00500   -0.01937
AFIX  13
H54   2    0.175950    0.131052    0.421468    11.00000   -1.20000
AFIX   0
C55   1    0.134934    0.283542    0.371742    11.00000    0.03215    0.04302 =
         0.04867   -0.00604    0.01511   -0.01501
AFIX  23
H55A  2    0.161518    0.311245    0.418050    11.00000   -1.20000
H55B  2    0.043114    0.299719    0.378930    11.00000   -1.20000
AFIX   0
C56   1    0.171925    0.334857    0.291132    11.00000    0.02379    0.02808 =
         0.04169   -0.00324   -0.00207   -0.00756
AFIX  13
H56   2    0.132054    0.412677    0.291647    11.00000   -1.20000
AFIX   0
C57   1    0.339245    0.142468    0.359259    11.00000    0.04245    0.02923 =
         0.05470    0.00753   -0.01280   -0.01244
AFIX  23
H57A  2    0.381869    0.065755    0.360409    11.00000   -1.20000
H57B  2    0.365908    0.171575    0.404780    11.00000   -1.20000
AFIX   0
C58   1    0.130148    0.291417    0.219477    11.00000    0.03366    0.04332 =
         0.05912   -0.00226   -0.01897   -0.01073
AFIX  23
H58A  2    0.038173    0.308425    0.224849    11.00000   -1.20000
H58B  2    0.153965    0.324158    0.167623    11.00000   -1.20000
AFIX   0
HKLF 4 1 1 0 0 0 1 0 0 0 1

REM  mo_CHEM0477_0m_a.res in P-1
REM R1 =  0.0588 for    6460 Fo > 4sig(Fo)  and  0.0904 for all    8671 data
REM    572 parameters refined using      0 restraints

END

WGHT      0.0275      5.0744

REM Highest difference peak  0.358,  deepest hole -0.461,  1-sigma level  0.080
Q1    1   1.2240 -0.0020  0.0327  11.00000  0.05    0.36
Q2    1   0.1044  0.7965  0.4007  11.00000  0.05    0.35
Q3    1   0.1962  0.3752 -0.0232  11.00000  0.05    0.35
Q4    1   1.1810  0.0780  0.0124  11.00000  0.05    0.35
Q5    1  -0.2846  1.0366  0.3937  11.00000  0.05    0.34
Q6    1   0.2022  0.0572  0.2380  11.00000  0.05    0.33
Q7    1   0.8538  0.1983  0.1533  11.00000  0.05    0.32
Q8    1   0.5343  0.1469  0.8046  11.00000  0.05    0.30
Q9    1   0.3204  0.3791  0.3017  11.00000  0.05    0.30
Q10   1   0.3554  0.4491  0.3307  11.00000  0.05    0.29
Q11   1   0.5885  0.1408  0.8463  11.00000  0.05    0.29
Q12   1   0.5595  0.4409  0.5675  11.00000  0.05    0.28
;
_shelx_res_checksum              13514
_shelx_fab_file
;
    2    0    0    -33.70      0.00
    3    0    0     14.21      0.00
    4    0    0      9.12      0.00
    5    0    0      7.60      0.00
    6    0    0    -18.26      0.00
    7    0    0      5.59      0.00
    8    0    0      5.54      0.00
    9    0    0     -2.81      0.00
   10    0    0     -0.78      0.00
   11    0    0      0.24      0.00
   12    0    0      0.87      0.00
  -12    1    0      1.15      0.00
  -11    1    0     -1.45      0.00
  -10    1    0      0.35      0.00
   -9    1    0      0.77      0.00
   -8    1    0      3.02      0.00
   -7    1    0     -2.98      0.00
   -6    1    0    -11.98      0.00
   -5    1    0     22.59      0.00
   -4    1    0     -1.52      0.00
   -3    1    0    -15.83      0.00
   -2    1    0    -19.15      0.00
   -1    1    0     23.09      0.00
    2    1    0     11.32      0.00
    3    1    0     35.65      0.00
    4    1    0     -8.72      0.00
    5    1    0     -5.21      0.00
    6    1    0     -8.25      0.00
    7    1    0     12.28      0.00
    8    1    0      0.26      0.00
    9    1    0     -6.22      0.00
   10    1    0      2.06      0.00
   11    1    0      1.56      0.00
   12    1    0     -0.44      0.00
   13    1    0      0.17      0.00
  -12    2    0      0.37      0.00
  -11    2    0     -1.51      0.00
  -10    2    0      2.45      0.00
   -9    2    0     -0.42      0.00
   -8    2    0     -2.24      0.00
   -7    2    0     -1.94      0.00
   -6    2    0      0.23      0.00
   -5    2    0     18.64      0.00
   -4    2    0    -21.89      0.00
   -3    2    0    -10.23      0.00
   -2    2    0     17.86      0.00
   -1    2    0     18.27      0.00
    0    2    0     -1.82      0.00
    1    2    0    -68.13      0.00
    2    2    0     57.73      0.00
    3    2    0     12.04      0.00
    4    2    0    -29.65      0.00
    5    2    0      3.72      0.00
    6    2    0      4.56      0.00
    7    2    0      7.11      0.00
    8    2    0     -6.46      0.00
    9    2    0     -3.84      0.00
   10    2    0      5.93      0.00
   11    2    0     -0.15      0.00
   12    2    0     -1.38      0.00
   13    2    0      0.68      0.00
  -11    3    0     -0.44      0.00
  -10    3    0      2.14      0.00
   -9    3    0     -3.58      0.00
   -8    3    0     -1.94      0.00
   -7    3    0      4.53      0.00
   -6    3    0      1.17      0.00
   -5    3    0      3.58      0.00
   -4    3    0    -22.26      0.00
   -3    3    0     15.11      0.00
   -2    3    0     18.51      0.00
   -1    3    0    -19.46      0.00
    0    3    0    -14.38      0.00
    1    3    0     -8.23      0.00
    2    3    0     47.65      0.00
    3    3    0    -25.48      0.00
    4    3    0    -21.18      0.00
    5    3    0     21.80      0.00
    6    3    0      1.30      0.00
    7    3    0     -3.21      0.00
    8    3    0     -5.61      0.00
    9    3    0      1.94      0.00
   10    3    0      5.15      0.00
   11    3    0     -3.33      0.00
   12    3    0     -0.59      0.00
   13    3    0      1.11      0.00
  -11    4    0     -0.18      0.00
  -10    4    0      0.35      0.00
   -9    4    0     -3.31      0.00
   -8    4    0      1.88      0.00
   -7    4    0      4.86      0.00
   -6    4    0     -6.63      0.00
   -5    4    0     -0.88      0.00
   -4    4    0     -6.59      0.00
   -3    4    0     21.38      0.00
   -2    4    0     -6.45      0.00
   -1    4    0    -24.70      0.00
    0    4    0     13.68      0.00
    1    4    0      9.02      0.00
    2    4    0      9.59      0.00
    3    4    0    -31.19      0.00
    4    4    0      7.49      0.00
    5    4    0     21.06      0.00
    6    4    0    -13.64      0.00
    7    4    0     -3.57      0.00
    8    4    0      1.44      0.00
    9    4    0      3.41      0.00
   10    4    0      0.54      0.00
   11    4    0     -3.82      0.00
   12    4    0      0.81      0.00
   13    4    0      1.13      0.00
  -10    5    0      0.57      0.00
   -9    5    0     -0.65      0.00
   -8    5    0      1.87      0.00
   -7    5    0      0.31      0.00
   -6    5    0     -8.61      0.00
   -5    5    0      6.77      0.00
   -4    5    0      1.00      0.00
   -3    5    0      6.79      0.00
   -2    5    0    -16.97      0.00
   -1    5    0     -2.86      0.00
    0    5    0     23.20      0.00
    1    5    0     -8.22      0.00
    2    5    0     -6.16      0.00
    3    5    0     -9.24      0.00
    4    5    0     21.28      0.00
    5    5    0      0.25      0.00
    6    5    0    -17.23      0.00
    7    5    0      6.69      0.00
    8    5    0      3.83      0.00
    9    5    0     -0.91      0.00
   10    5    0     -1.44      0.00
   11    5    0     -1.90      0.00
   12    5    0      1.12      0.00
   13    5    0      1.00      0.00
  -10    6    0      2.74      0.00
   -9    6    0     -0.50      0.00
   -8    6    0     -0.81      0.00
   -7    6    0     -0.44      0.00
   -6    6    0     -3.83      0.00
   -5    6    0     11.41      0.00
   -4    6    0     -5.24      0.00
   -3    6    0     -3.71      0.00
   -2    6    0     -5.88      0.00
   -1    6    0     10.52      0.00
    0    6    0      8.16      0.00
    1    6    0    -19.69      0.00
    2    6    0      4.26      0.00
    3    6    0      6.53      0.00
    4    6    0      9.51      0.00
    5    6    0    -13.55      0.00
    6    6    0     -3.65      0.00
    7    6    0     11.41      0.00
    8    6    0     -2.17      0.00
    9    6    0     -3.48      0.00
   10    6    0      1.17      0.00
   11    6    0     -1.07      0.00
   12    6    0      1.07      0.00
   13    6    0      0.57      0.00
   -9    7    0     -2.48      0.00
   -8    7    0     -0.74      0.00
   -7    7    0      1.90      0.00
   -6    7    0     -1.28      0.00
   -5    7    0      7.94      0.00
   -4    7    0    -11.48      0.00
   -3    7    0      1.08      0.00
   -2    7    0      6.35      0.00
   -1    7    0      3.98      0.00
    0    7    0     -6.66      0.00
    1    7    0    -11.23      0.00
    2    7    0     15.94      0.00
    3    7    0      1.11      0.00
    4    7    0     -5.48      0.00
    5    7    0     -6.84      0.00
    6    7    0      7.61      0.00
    7    7    0      3.52      0.00
    8    7    0     -6.46      0.00
    9    7    0      0.20      0.00
   10    7    0      3.17      0.00
   11    7    0     -1.97      0.00
   12    7    0      1.46      0.00
   13    7    0     -0.53      0.00
   -9    8    0     -2.78      0.00
   -8    8    0      1.14      0.00
   -7    8    0      2.35      0.00
   -6    8    0     -2.43      0.00
   -5    8    0      3.40      0.00
   -4    8    0     -9.36      0.00
   -3    8    0      9.52      0.00
   -2    8    0      4.33      0.00
   -1    8    0     -8.04      0.00
    0    8    0     -4.19      0.00
    1    8    0      3.97      0.00
    2    8    0     11.13      0.00
    3    8    0    -10.56      0.00
    4    8    0     -4.71      0.00
    5    8    0      4.67      0.00
    6    8    0      4.41      0.00
    7    8    0     -4.94      0.00
    8    8    0     -2.00      0.00
    9    8    0      3.77      0.00
   10    8    0      0.94      0.00
   11    8    0     -2.23      0.00
   12    8    0      1.62      0.00
   -8    9    0      1.75      0.00
   -7    9    0      1.31      0.00
   -6    9    0     -3.57      0.00
   -5    9    0      2.49      0.00
   -4    9    0     -3.93      0.00
   -3    9    0      9.26      0.00
   -2    9    0     -4.99      0.00
   -1    9    0     -8.08      0.00
    0    9    0      7.86      0.00
    1    9    0      5.52      0.00
    2    9    0     -2.86      0.00
    3    9    0     -8.97      0.00
    4    9    0      4.38      0.00
    5    9    0      5.08      0.00
    6    9    0     -3.42      0.00
    7    9    0     -4.10      0.00
    8    9    0      4.21      0.00
    9    9    0      0.93      0.00
   10    9    0     -1.57      0.00
   11    9    0     -0.57      0.00
   12    9    0      1.21      0.00
   13    9    0     -1.48      0.00
   -7   10    0      0.27      0.00
   -6   10    0     -3.24      0.00
   -5   10    0      3.91      0.00
   -4   10    0     -1.97      0.00
   -3   10    0      3.45      0.00
   -2   10    0     -7.32      0.00
   -1   10    0      0.74      0.00
    0   10    0     10.00      0.00
    1   10    0     -5.15      0.00
    2   10    0     -6.20      0.00
    3   10    0      2.43      0.00
    4   10    0      5.52      0.00
    5   10    0     -1.64      0.00
    6   10    0     -4.08      0.00
    7   10    0      1.23      0.00
    8   10    0      4.01      0.00
    9   10    0     -3.74      0.00
   10   10    0      0.26      0.00
   11   10    0      0.86      0.00
   12   10    0      0.24      0.00
   -6   11    0     -1.51      0.00
   -5   11    0      4.34      0.00
   -4   11    0     -3.35      0.00
   -3   11    0      0.78      0.00
   -2   11    0     -2.78      0.00
   -1   11    0      4.62      0.00
    0   11    0      2.20      0.00
    1   11    0     -9.70      0.00
    2   11    0      1.89      0.00
    3   11    0      6.63      0.00
    4   11    0     -1.49      0.00
    5   11    0     -3.65      0.00
    6   11    0      1.21      0.00
    7   11    0      2.59      0.00
    8   11    0      0.03      0.00
    9   11    0     -3.42      0.00
   10   11    0      3.51      0.00
   11   11    0     -0.48      0.00
   12   11    0     -0.51      0.00
   -5   12    0      2.53      0.00
   -4   12    0     -3.96      0.00
   -3   12    0      2.14      0.00
   -2   12    0      0.65      0.00
   -1   12    0      2.25      0.00
    0   12    0     -2.44      0.00
    1   12    0     -5.00      0.00
    2   12    0      6.71      0.00
    3   12    0      1.27      0.00
    4   12    0     -5.18      0.00
    5   12    0      0.85      0.00
    6   12    0      3.92      0.00
    7   12    0     -0.59      0.00
    8   12    0     -1.19      0.00
    9   12    0      0.10      0.00
   10   12    0      3.26      0.00
   11   12    0     -2.68      0.00
   -4   13    0     -2.35      0.00
   -3   13    0      3.43      0.00
   -2   13    0      0.50      0.00
   -1   13    0     -0.58      0.00
    0   13    0     -1.39      0.00
    1   13    0     -0.89      0.00
    2   13    0      4.67      0.00
    3   13    0     -3.13      0.00
    4   13    0     -2.44      0.00
    5   13    0      3.98      0.00
    6   13    0      1.09      0.00
    7   13    0     -2.74      0.00
    8   13    0      0.85      0.00
    9   13    0      1.54      0.00
   10   13    0      0.81      0.00
   11   13    0     -2.55      0.00
   -2   14    0     -1.36      0.00
   -1   14    0     -1.38      0.00
    0   14    0      0.88      0.00
    1   14    0     -0.71      0.00
    2   14    0      2.16      0.00
    3   14    0     -2.97      0.00
    4   14    0      0.29      0.00
    5   14    0      2.35      0.00
    6   14    0     -1.72      0.00
    7   14    0     -1.34      0.00
    8   14    0      2.20      0.00
    9   14    0      0.48      0.00
   10   14    0     -0.42      0.00
    0   15    0      1.45      0.00
    1   15    0     -1.94      0.00
    2   15    0      1.68      0.00
    3   15    0     -2.03      0.00
    4   15    0      0.40      0.00
    5   15    0      0.54      0.00
    6   15    0     -1.17      0.00
    7   15    0      0.27      0.00
    8   15    0      1.39      0.00
    3   16    0     -1.72      0.00
    4   16    0      0.46      0.00
    5   16    0      0.50      0.00
    6   16    0     -0.24      0.00
   -5  -16    1     -0.97      0.00
   -4  -16    1      1.36      0.00
   -3  -16    1     -1.48      0.00
   -8  -15    1      1.07      0.00
   -7  -15    1      1.50      0.00
   -6  -15    1     -1.29      0.00
   -5  -15    1     -1.42      0.00
   -4  -15    1      2.55      0.00
   -3  -15    1     -1.38      0.00
   -2  -15    1      1.10      0.00
   -1  -15    1     -1.26      0.00
    0  -15    1      0.46      0.00
  -10  -14    1     -1.78      0.00
   -9  -14    1     -0.06      0.00
   -8  -14    1      2.29      0.00
   -7  -14    1     -0.17      0.00
   -6  -14    1     -3.39      0.00
   -5  -14    1      0.84      0.00
   -4  -14    1      3.86      0.00
   -3  -14    1     -3.56      0.00
   -2  -14    1      0.37      0.00
   -1  -14    1      0.44      0.00
    0  -14    1      0.78      0.00
    1  -14    1      0.66      0.00
    2  -14    1     -2.96      0.00
  -11  -13    1     -2.35      0.00
  -10  -13    1     -0.98      0.00
   -9  -13    1      2.24      0.00
   -8  -13    1      0.47      0.00
   -7  -13    1     -3.18      0.00
   -6  -13    1     -1.42      0.00
   -5  -13    1      4.36      0.00
   -4  -13    1      0.90      0.00
   -3  -13    1     -6.46      0.00
   -2  -13    1      3.46      0.00
   -1  -13    1      2.41      0.00
    0  -13    1     -1.62      0.00
    1  -13    1     -0.22      0.00
    2  -13    1     -2.63      0.00
    3  -13    1      3.58      0.00
    4  -13    1     -0.51      0.00
  -11  -12    1     -2.77      0.00
  -10  -12    1      2.20      0.00
   -9  -12    1      1.76      0.00
   -8  -12    1     -3.52      0.00
   -7  -12    1     -1.46      0.00
   -6  -12    1      3.29      0.00
   -5  -12    1      2.13      0.00
   -4  -12    1     -4.48      0.00
   -3  -12    1     -4.07      0.00
   -2  -12    1      8.59      0.00
   -1  -12    1     -0.33      0.00
    0  -12    1     -4.82      0.00
    1  -12    1      2.09      0.00
    2  -12    1     -1.28      0.00
    3  -12    1      4.10      0.00
    4  -12    1     -3.43      0.00
    5  -12    1     -1.36      0.00
  -12  -11    1     -1.36      0.00
  -11  -11    1     -0.15      0.00
  -10  -11    1      3.80      0.00
   -9  -11    1     -2.83      0.00
   -8  -11    1     -3.47      0.00
   -7  -11    1      4.56      0.00
   -6  -11    1      2.15      0.00
   -5  -11    1     -4.73      0.00
   -4  -11    1     -3.13      0.00
   -3  -11    1      2.91      0.00
   -2  -11    1      7.60      0.00
   -1  -11    1     -7.76      0.00
    0  -11    1     -3.51      0.00
    1  -11    1      7.17      0.00
    2  -11    1     -2.21      0.00
    3  -11    1      2.34      0.00
    4  -11    1     -5.28      0.00
    5  -11    1      1.58      0.00
    6  -11    1      2.48      0.00
  -12  -10    1     -0.11      0.00
  -11  -10    1      2.02      0.00
  -10  -10    1      0.47      0.00
   -9  -10    1     -5.74      0.00
   -8  -10    1      2.81      0.00
   -7  -10    1      5.94      0.00
   -6  -10    1     -5.36      0.00
   -5  -10    1     -5.31      0.00
   -4  -10    1      6.06      0.00
   -3  -10    1      3.46      0.00
   -2  -10    1     -1.51      0.00
   -1  -10    1    -10.05      0.00
    0  -10    1      4.73      0.00
    1  -10    1      8.53      0.00
    2  -10    1     -7.87      0.00
    3  -10    1      2.23      0.00
    4  -10    1     -3.02      0.00
    5  -10    1      4.53      0.00
    6  -10    1      0.58      0.00
    7  -10    1     -3.78      0.00
  -13   -9    1     -0.19      0.00
  -12   -9    1      1.03      0.00
  -11   -9    1      0.39      0.00
  -10   -9    1     -3.25      0.00
   -9   -9    1     -1.42      0.00
   -8   -9    1      7.43      0.00
   -7   -9    1     -1.40      0.00
   -6   -9    1     -8.25      0.00
   -5   -9    1      3.59      0.00
   -4   -9    1     10.30      0.00
   -3   -9    1     -7.39      0.00
   -2   -9    1     -5.25      0.00
   -1   -9    1     -0.43      0.00
    0   -9    1      9.72      0.00
    1   -9    1      0.39      0.00
    2   -9    1    -12.06      0.00
    3   -9    1      7.78      0.00
    4   -9    1     -1.21      0.00
    5   -9    1      3.03      0.00
    6   -9    1     -2.07      0.00
    7   -9    1     -2.99      0.00
    8   -9    1      4.19      0.00
  -13   -8    1      0.19      0.00
  -12   -8    1      0.28      0.00
  -11   -8    1     -1.90      0.00
  -10   -8    1     -1.28      0.00
   -9   -8    1      4.69      0.00
   -8   -8    1      2.31      0.00
   -7   -8    1     -8.55      0.00
   -6   -8    1      0.68      0.00
   -5   -8    1      9.33      0.00
   -4   -8    1      0.88      0.00
   -3   -8    1    -15.51      0.00
   -2   -8    1      6.52      0.00
   -1   -8    1      7.34      0.00
    0   -8    1      1.10      0.00
    1   -8    1     -7.34      0.00
    2   -8    1     -6.18      0.00
    3   -8    1     13.45      0.00
    4   -8    1     -5.80      0.00
    5   -8    1     -0.24      0.00
    6   -8    1     -1.75      0.00
    7   -8    1     -0.54      0.00
    8   -8    1      5.24      0.00
    9   -8    1     -3.29      0.00
  -13   -7    1     -0.82      0.00
  -12   -7    1     -0.31      0.00
  -11   -7    1     -0.79      0.00
  -10   -7    1      2.97      0.00
   -9   -7    1      3.40      0.00
   -8   -7    1     -6.89      0.00
   -7   -7    1     -4.02      0.00
   -6   -7    1     12.05      0.00
   -5   -7    1     -1.01      0.00
   -4   -7    1     -9.45      0.00
   -3   -7    1     -6.48      0.00
   -2   -7    1     18.68      0.00
   -1   -7    1     -2.26      0.00
    0   -7    1     -9.47      0.00
    1   -7    1     -0.67      0.00
    2   -7    1      2.99      0.00
    3   -7    1      9.93      0.00
    4   -7    1    -12.89      0.00
    5   -7    1      1.41      0.00
    6   -7    1      1.43      0.00
    7   -7    1      0.28      0.00
    8   -7    1      3.16      0.00
    9   -7    1     -5.44      0.00
  -13   -6    1     -1.69      0.00
  -12   -6    1      0.68      0.00
  -11   -6    1      1.91      0.00
  -10   -6    1      2.00      0.00
   -9   -6    1     -2.36      0.00
   -8   -6    1     -7.46      0.00
   -7   -6    1      8.18      0.00
   -6   -6    1      8.68      0.00
   -5   -6    1    -18.44      0.00
   -4   -6    1     -0.53      0.00
   -3   -6    1      8.08      0.00
   -2   -6    1     11.29      0.00
   -1   -6    1    -18.10      0.00
    0   -6    1     -3.75      0.00
    1   -6    1     12.71      0.00
    2   -6    1     -0.36      0.00
    3   -6    1      0.76      0.00
    4   -6    1    -12.22      0.00
    5   -6    1      8.34      0.00
    6   -6    1      2.05      0.00
    7   -6    1     -2.84      0.00
    8   -6    1      0.85      0.00
    9   -6    1     -3.59      0.00
   10   -6    1      4.21      0.00
  -13   -5    1     -1.52      0.00
  -12   -5    1      2.32      0.00
  -11   -5    1      1.78      0.00
  -10   -5    1     -3.42      0.00
   -9   -5    1     -1.90      0.00
   -8   -5    1      0.05      0.00
   -7   -5    1     11.40      0.00
   -6   -5    1     -8.23      0.00
   -5   -5    1    -17.92      0.00
   -4   -5    1     22.36      0.00
   -3   -5    1      2.81      0.00
   -2   -5    1     -7.46      0.00
   -1   -5    1    -16.01      0.00
    0   -5    1     14.18      0.00
    1   -5    1     11.43      0.00
    2   -5    1    -15.16      0.00
    3   -5    1      1.14      0.00
    4   -5    1     -3.17      0.00
    5   -5    1     11.34      0.00
    6   -5    1     -3.32      0.00
    7   -5    1     -5.09      0.00
    8   -5    1      2.91      0.00
    9   -5    1     -0.40      0.00
   10   -5    1      2.82      0.00
  -13   -4    1     -0.71      0.00
  -12   -4    1      2.99      0.00
  -11   -4    1     -2.22      0.00
  -10   -4    1     -5.45      0.00
   -9   -4    1      5.63      0.00
   -8   -4    1      2.41      0.00
   -7   -4    1      2.11      0.00
   -6   -4    1    -15.89      0.00
   -5   -4    1      3.98      0.00
   -4   -4    1     28.75      0.00
   -3   -4    1    -24.09      0.00
   -2   -4    1     -6.52      0.00
   -1   -4    1      7.22      0.00
    0   -4    1     18.11      0.00
    1   -4    1     -9.18      0.00
    2   -4    1    -19.00      0.00
    3   -4    1     15.48      0.00
    4   -4    1     -0.06      0.00
    5   -4    1      4.52      0.00
    6   -4    1     -7.77      0.00
    7   -4    1     -0.88      0.00
    8   -4    1      5.87      0.00
    9   -4    1     -1.06      0.00
   10   -4    1      0.17      0.00
   11   -4    1     -1.71      0.00
  -13   -3    1     -0.01      0.00
  -12   -3    1      1.70      0.00
  -11   -3    1     -5.81      0.00
  -10   -3    1     -0.61      0.00
   -9   -3    1     10.10      0.00
   -8   -3    1     -5.12      0.00
   -7   -3    1     -3.82      0.00
   -6   -3    1     -4.62      0.00
   -5   -3    1     18.67      0.00
   -4   -3    1      6.50      0.00
   -3   -3    1    -41.19      0.00
   -2   -3    1     29.53      0.00
   -1   -3    1     16.61      0.00
    0   -3    1     -9.97      0.00
    1   -3    1    -20.03      0.00
    2   -3    1      2.14      0.00
    3   -3    1     23.99      0.00
    4   -3    1    -11.75      0.00
    5   -3    1     -1.35      0.00
    6   -3    1     -3.33      0.00
    7   -3    1      4.53      0.00
    8   -3    1      3.46      0.00
    9   -3    1     -3.51      0.00
   10   -3    1      0.28      0.00
   11   -3    1      0.45      0.00
  -13   -2    1      0.00      0.00
  -12   -2    1     -0.06      0.00
  -11   -2    1     -4.67      0.00
  -10   -2    1      5.22      0.00
   -9   -2    1      5.51      0.00
   -8   -2    1    -12.56      0.00
   -7   -2    1      3.63      0.00
   -6   -2    1      6.51      0.00
   -5   -2    1      8.02      0.00
   -4   -2    1    -16.19      0.00
   -3   -2    1    -22.83      0.00
   -2   -2    1     66.30      0.00
   -1   -2    1    -26.76      0.00
    0   -2    1    -34.87      0.00
    1   -2    1     10.01      0.00
    2   -2    1     20.03      0.00
    3   -2    1      8.33      0.00
    4   -2    1    -22.02      0.00
    5   -2    1      6.03      0.00
    6   -2    1      3.13      0.00
    7   -2    1      2.52      0.00
    8   -2    1     -1.47      0.00
    9   -2    1     -2.77      0.00
   10   -2    1      1.87      0.00
   11   -2    1      0.66      0.00
   12   -2    1     -0.35      0.00
  -13   -1    1     -0.46      0.00
  -12   -1    1     -0.10      0.00
  -11   -1    1     -1.11      0.00
  -10   -1    1      5.24      0.00
   -9   -1    1     -2.25      0.00
   -8   -1    1    -10.57      0.00
   -7   -1    1     14.75      0.00
   -6   -1    1      0.00      0.00
   -5   -1    1     -8.63      0.00
   -4   -1    1    -10.42      0.00
   -3   -1    1      8.81      0.00
   -2   -1    1     52.97      0.00
   -1   -1    1    -88.84      0.00
    1   -1    1     46.45      0.00
    2   -1    1     -5.04      0.00
    3   -1    1    -10.70      0.00
    4   -1    1    -11.80      0.00
    5   -1    1     16.66      0.00
    6   -1    1     -0.39      0.00
    7   -1    1     -3.46      0.00
    8   -1    1     -1.85      0.00
    9   -1    1      0.31      0.00
   10   -1    1      1.52      0.00
   11   -1    1     -0.33      0.00
   12   -1    1     -0.67      0.00
  -12    0    1      1.11      0.00
  -11    0    1     -0.05      0.00
  -10    0    1      1.35      0.00
   -9    0    1     -4.23      0.00
   -8    0    1     -2.24      0.00
   -7    0    1     15.52      0.00
   -6    0    1    -15.73      0.00
   -5    0    1     -5.61      0.00
   -4    0    1     10.74      0.00
   -3    0    1     10.82      0.00
   -2    0    1      5.22      0.00
   -1    0    1    -87.31      0.00
    2    0    1    -47.32      0.00
    3    0    1      2.15      0.00
    4    0    1      5.29      0.00
    5    0    1     12.09      0.00
    6    0    1     -9.51      0.00
    7    0    1     -3.51      0.00
    8    0    1      2.14      0.00
    9    0    1      1.15      0.00
   10    0    1     -0.96      0.00
   11    0    1     -0.30      0.00
   12    0    1     -0.40      0.00
  -12    1    1      2.03      0.00
  -11    1    1     -1.62      0.00
  -10    1    1     -0.39      0.00
   -9    1    1     -0.41      0.00
   -8    1    1      1.96      0.00
   -7    1    1      6.06      0.00
   -6    1    1    -20.78      0.00
   -5    1    1     12.82      0.00
   -4    1    1     13.58      0.00
   -3    1    1    -13.71      0.00
   -2    1    1    -10.47      0.00
   -1    1    1    -25.86      0.00
    1    1    1    -47.66      0.00
    2    1    1    -41.33      0.00
    3    1    1     33.48      0.00
    4    1    1      0.94      0.00
    5    1    1     -2.78      0.00
    6    1    1     -9.31      0.00
    7    1    1      2.36      0.00
    8    1    1      4.21      0.00
    9    1    1     -1.63      0.00
   10    1    1     -2.35      0.00
   11    1    1      1.63      0.00
   12    1    1     -0.37      0.00
   13    1    1      0.36      0.00
  -12    2    1      1.89      0.00
  -11    2    1     -3.05      0.00
  -10    2    1      1.05      0.00
   -9    2    1      2.17      0.00
   -8    2    1     -1.24      0.00
   -7    2    1     -0.43      0.00
   -6    2    1    -11.07      0.00
   -5    2    1     22.15      0.00
   -4    2    1     -5.68      0.00
   -3    2    1    -22.84      0.00
   -2    2    1     15.21      0.00
   -1    2    1      8.65      0.00
    0    2    1     33.84      0.00
    1    2    1    -67.06      0.00
    2    2    1      6.84      0.00
    3    2    1     37.26      0.00
    4    2    1    -20.72      0.00
    5    2    1     -5.40      0.00
    6    2    1      1.59      0.00
    7    2    1      4.26      0.00
    8    2    1      1.71      0.00
    9    2    1     -4.20      0.00
   10    2    1     -0.21      0.00
   11    2    1      3.31      0.00
   12    2    1     -1.31      0.00
   13    2    1      0.49      0.00
  -11    3    1     -2.74      0.00
  -10    3    1      2.53      0.00
   -9    3    1      0.67      0.00
   -8    3    1     -4.16      0.00
   -7    3    1      2.70      0.00
   -6    3    1     -2.02      0.00
   -5    3    1     13.42      0.00
   -4    3    1    -19.59      0.00
   -3    3    1     -4.40      0.00
   -2    3    1     29.99      0.00
   -1    3    1     -8.90      0.00
    0    3    1     -2.19      0.00
    1    3    1    -28.84      0.00
    2    3    1     31.31      0.00
    3    3    1      9.61      0.00
    4    3    1    -28.70      0.00
    5    3    1      9.42      0.00
    6    3    1      7.40      0.00
    7    3    1     -1.94      0.00
    8    3    1     -0.53      0.00
    9    3    1     -2.97      0.00
   10    3    1      2.67      0.00
   11    3    1      2.42      0.00
   12    3    1     -2.38      0.00
   13    3    1      0.29      0.00
  -11    4    1     -1.08      0.00
  -10    4    1      1.97      0.00
   -9    4    1     -0.97      0.00
   -8    4    1     -2.10      0.00
   -7    4    1      6.65      0.00
   -6    4    1     -3.82      0.00
   -5    4    1      2.77      0.00
   -4    4    1    -13.15      0.00
   -3    4    1     13.17      0.00
   -2    4    1     13.59      0.00
   -1    4    1    -26.17      0.00
    0    4    1      7.29      0.00
    1    4    1      0.14      0.00
    2    4    1     15.98      0.00
    3    4    1    -11.87      0.00
    4    4    1    -12.72      0.00
    5    4    1     20.78      0.00
    6    4    1     -1.12      0.00
    7    4    1     -6.98      0.00
    8    4    1      1.95      0.00
    9    4    1     -0.62      0.00
   10    4    1      2.44      0.00
   11    4    1      0.61      0.00
   12    4    1     -2.62      0.00
   13    4    1     -0.15      0.00
  -10    5    1      0.25      0.00
   -9    5    1     -0.12      0.00
   -8    5    1     -0.07      0.00
   -7    5    1      4.88      0.00
   -6    5    1     -8.01      0.00
   -5    5    1      3.23      0.00
   -4    5    1     -1.12      0.00
   -3    5    1     10.62      0.00
   -2    5    1     -5.71      0.00
   -1    5    1    -16.33      0.00
    0    5    1     21.35      0.00
    1    5    1     -4.36      0.00
    2    5    1     -1.32      0.00
    3    5    1     -9.56      0.00
    4    5    1      5.45      0.00
    5    5    1     13.23      0.00
    6    5    1    -11.27      0.00
    7    5    1     -2.70      0.00
    8    5    1      4.92      0.00
    9    5    1     -1.47      0.00
   10    5    1      0.80      0.00
   11    5    1     -0.05      0.00
   12    5    1     -2.69      0.00
   13    5    1      0.07      0.00
  -10    6    1     -0.19      0.00
   -9    6    1      0.96      0.00
   -8    6    1     -1.22      0.00
   -7    6    1      2.71      0.00
   -6    6    1     -6.85      0.00
   -5    6    1      7.84      0.00
   -4    6    1      0.11      0.00
   -3    6    1     -0.92      0.00
   -2    6    1     -6.55      0.00
   -1    6    1      0.88      0.00
    0    6    1     16.37      0.00
    1    6    1    -15.70      0.00
    2    6    1      0.12      0.00
    3    6    1      0.93      0.00
    4    6    1      6.96      0.00
    5    6    1     -0.82      0.00
    6    6    1     -8.98      0.00
    7    6    1      3.79      0.00
    8    6    1      2.70      0.00
   10    6    1      1.01      0.00
   11    6    1     -0.81      0.00
   12    6    1     -1.93      0.00
   13    6    1      1.44      0.00
   -9    7    1      0.20      0.00
   -8    7    1     -2.21      0.00
   -7    7    1      3.14      0.00
   -6    7    1     -4.45      0.00
   -5    7    1      7.76      0.00
   -4    7    1     -5.77      0.00
   -3    7    1     -4.09      0.00
   -2    7    1      3.63      0.00
   -1    7    1      4.73      0.00
    0    7    1      2.00      0.00
    1    7    1    -14.03      0.00
    2    7    1      9.88      0.00
    3    7    1      2.34      0.00
    4    7    1     -1.24      0.00
    5    7    1     -3.29      0.00
    6    7    1     -0.92      0.00
    7    7    1      2.91      0.00
    8    7    1     -1.08      0.00
    9    7    1     -2.35      0.00
   10    7    1      1.83      0.00
   11    7    1     -1.94      0.00
   12    7    1      0.79      0.00
   13    7    1      1.91      0.00
   -9    8    1     -0.98      0.00
   -8    8    1     -1.66      0.00
   -7    8    1      3.11      0.00
   -6    8    1     -3.60      0.00
   -5    8    1      4.95      0.00
   -4    8    1     -7.92      0.00
   -3    8    1      1.69      0.00
   -2    8    1      7.46      0.00
   -1    8    1     -4.02      0.00
    0    8    1     -4.49      0.00
    1    8    1     -1.48      0.00
    2    8    1     11.11      0.00
    3    8    1     -4.60      0.00
    4    8    1     -2.89      0.00
    5    8    1      2.50      0.00
    6    8    1      0.50      0.00
    7    8    1     -1.34      0.00
    8    8    1     -0.31      0.00
    9    8    1      0.10      0.00
   10    8    1      0.88      0.00
   11    8    1     -1.61      0.00
   12    8    1      2.99      0.00
   13    8    1      0.10      0.00
   -8    9    1     -1.07      0.00
   -7    9    1      2.68      0.00
   -6    9    1     -2.88      0.00
   -5    9    1      2.79      0.00
   -4    9    1     -4.90      0.00
   -3    9    1      5.47      0.00
   -2    9    1      1.58      0.00
   -1    9    1     -9.09      0.00
    0    9    1      2.11      0.00
    1    9    1      6.06      0.00
    2    9    1      0.48      0.00
    3    9    1     -6.64      0.00
    4    9    1      2.96      0.00
    5    9    1      3.12      0.00
    6    9    1     -2.38      0.00
    7    9    1     -1.39      0.00
    8    9    1      2.72      0.00
    9    9    1     -0.48      0.00
   10    9    1     -0.37      0.00
   12    9    1      2.15      0.00
   13    9    1     -1.49      0.00
   -7   10    1      2.78      0.00
   -6   10    1     -3.13      0.00
   -5   10    1      1.88      0.00
   -4   10    1     -1.62      0.00
   -3   10    1      3.20      0.00
   -2   10    1     -3.07      0.00
   -1   10    1     -3.85      0.00
    0   10    1      8.20      0.00
    1   10    1      0.72      0.00
    2   10    1     -7.15      0.00
    3   10    1      0.62      0.00
    4   10    1      4.75      0.00
    5   10    1     -2.13      0.00
    6   10    1     -1.53      0.00
    7   10    1      0.85      0.00
    8   10    1      2.61      0.00
    9   10    1     -2.87      0.00
   10   10    1      0.85      0.00
   11   10    1      0.80      0.00
   12   10    1      0.04      0.00
   -6   11    1     -3.71      0.00
   -5   11    1      2.48      0.00
   -4   11    1     -1.05      0.00
   -3   11    1     -0.18      0.00
   -2   11    1     -1.82      0.00
   -1   11    1      1.29      0.00
    0   11    1      5.22      0.00
    1   11    1     -5.32      0.00
    2   11    1     -3.13      0.00
    3   11    1      5.92      0.00
    4   11    1     -0.53      0.00
    5   11    1     -4.48      0.00
    6   11    1      2.50      0.00
    7   11    1      0.26      0.00
    8   11    1      0.07      0.00
    9   11    1     -2.73      0.00
   10   11    1      3.27      0.00
   11   11    1     -0.53      0.00
   12   11    1     -0.84      0.00
   -5   12    1      2.80      0.00
   -4   12    1     -2.36      0.00
   -3   12    1     -1.02      0.00
   -2   12    1      0.61      0.00
   -1   12    1      0.94      0.00
    0   12    1      1.05      0.00
    1   12    1     -4.07      0.00
    2   12    1      2.32      0.00
    3   12    1      3.37      0.00
    4   12    1     -4.29      0.00
    5   12    1     -1.47      0.00
    6   12    1      4.06      0.00
    7   12    1     -2.72      0.00
    8   12    1     -0.79      0.00
    9   12    1     -0.32      0.00
   10   12    1      3.08      0.00
   11   12    1     -2.67      0.00
   -4   13    1     -2.72      0.00
   -3   13    1      0.33      0.00
   -2   13    1      1.60      0.00
   -1   13    1     -1.05      0.00
    0   13    1      0.35      0.00
    1   13    1     -1.70      0.00
    2   13    1      2.46      0.00
    3   13    1      0.23      0.00
    4   13    1     -2.80      0.00
    5   13    1      1.22      0.00
    6   13    1      1.77      0.00
    7   13    1     -4.03      0.00
    8   13    1      0.66      0.00
    9   13    1      0.65      0.00
   10   13    1      0.43      0.00
   11   13    1     -2.96      0.00
   -2   14    1      0.82      0.00
   -1   14    1     -2.42      0.00
    0   14    1      1.21      0.00
    1   14    1     -1.33      0.00
    2   14    1      1.61      0.00
    3   14    1      0.30      0.00
    4   14    1     -1.15      0.00
    5   14    1      0.69      0.00
    6   14    1     -0.25      0.00
    7   14    1     -2.20      0.00
    8   14    1      1.73      0.00
    9   14    1     -0.31      0.00
   10   14    1     -1.17      0.00
    0   15    1      2.41      0.00
    1   15    1     -1.51      0.00
    2   15    1      1.76      0.00
    3   15    1      0.40      0.00
    4   15    1     -1.46      0.00
    5   15    1      0.15      0.00
    6   15    1      0.35      0.00
    7   15    1     -0.24      0.00
    8   15    1      1.17      0.00
    9   15    1     -0.95      0.00
    3   16    1     -0.23      0.00
    4   16    1     -1.16      0.00
    5   16    1      0.89      0.00
    6   16    1      0.92      0.00
   -4  -16    2      0.60      0.00
   -8  -15    2      0.04      0.00
   -7  -15    2      1.75      0.00
   -6  -15    2      0.46      0.00
   -5  -15    2     -2.62      0.00
   -4  -15    2      1.34      0.00
   -3  -15    2      0.06      0.00
   -2  -15    2      1.14      0.00
   -1  -15    2     -0.47      0.00
    0  -15    2     -1.78      0.00
   -9  -14    2     -1.28      0.00
   -8  -14    2      2.54      0.00
   -7  -14    2      1.23      0.00
   -6  -14    2     -2.79      0.00
   -5  -14    2     -2.09      0.00
   -4  -14    2      4.42      0.00
   -3  -14    2     -0.82      0.00
   -2  -14    2     -1.67      0.00
   -1  -14    2      0.20      0.00
    0  -14    2     -0.37      0.00
    1  -14    2      2.21      0.00
    2  -14    2     -2.52      0.00
  -10  -13    2     -2.64      0.00
   -9  -13    2      2.39      0.00
   -8  -13    2      2.68      0.00
   -7  -13    2     -2.65      0.00
   -6  -13    2     -3.13      0.00
   -5  -13    2      2.42      0.00
   -4  -13    2      4.54      0.00
   -3  -13    2     -5.37      0.00
   -2  -13    2     -1.34      0.00
   -1  -13    2      3.54      0.00
    0  -13    2     -1.28      0.00
    1  -13    2      1.65      0.00
    2  -13    2     -2.99      0.00
    3  -13    2      1.71      0.00
    4  -13    2      1.92      0.00
  -11  -12    2     -2.75      0.00
  -10  -12    2      0.55      0.00
   -9  -12    2      4.49      0.00
   -8  -12    2     -2.11      0.00
   -7  -12    2     -3.81      0.00
   -6  -12    2      2.45      0.00
   -5  -12    2      3.59      0.00
   -4  -12    2     -0.51      0.00
   -3  -12    2     -6.72      0.00
   -2  -12    2      3.90      0.00
   -1  -12    2      4.22      0.00
    0  -12    2     -5.24      0.00
    1  -12    2      2.13      0.00
    2  -12    2     -2.51      0.00
    3  -12    2      4.13      0.00
    4  -12    2      1.06      0.00
    5  -12    2     -4.03      0.00
  -12  -11    2     -2.14      0.00
  -11  -11    2     -0.92      0.00
  -10  -11    2      3.98      0.00
   -9  -11    2      0.74      0.00
   -8  -11    2     -5.82      0.00
   -7  -11    2      2.09      0.00
   -6  -11    2      5.65      0.00
   -5  -11    2     -3.11      0.00
   -4  -11    2     -2.58      0.00
   -3  -11    2     -1.40      0.00
   -2  -11    2      7.38      0.00
   -1  -11    2     -0.49      0.00
    0  -11    2     -8.49      0.00
    1  -11    2      5.55      0.00
    2  -11    2     -1.98      0.00
    3  -11    2      4.06      0.00
    4  -11    2     -2.69      0.00
    5  -11    2     -3.73      0.00
    6  -11    2      5.14      0.00
  -12  -10    2     -1.04      0.00
  -11  -10    2      1.94      0.00
  -10  -10    2      2.58      0.00
   -9  -10    2     -4.72      0.00
   -8  -10    2     -1.94      0.00
   -7  -10    2      7.74      0.00
   -6  -10    2     -0.42      0.00
   -5  -10    2     -8.79      0.00
   -4  -10    2      4.48      0.00
   -3  -10    2      2.97      0.00
   -2  -10    2      3.09      0.00
   -1  -10    2     -5.98      0.00
    0  -10    2     -5.69      0.00
    1  -10    2     10.92      0.00
    2  -10    2     -4.86      0.00
    3  -10    2      1.36      0.00
    4  -10    2     -3.77      0.00
    5  -10    2      0.27      0.00
    6  -10    2      5.63      0.00
    7  -10    2     -4.65      0.00
  -12   -9    2      1.21      0.00
  -11   -9    2      1.11      0.00
  -10   -9    2     -1.70      0.00
   -9   -9    2     -4.00      0.00
   -8   -9    2      5.42      0.00
   -7   -9    2      4.03      0.00
   -6   -9    2     -8.31      0.00
   -5   -9    2     -3.90      0.00
   -4   -9    2     12.97      0.00
   -3   -9    2     -3.03      0.00
   -2   -9    2     -4.09      0.00
   -1   -9    2     -3.45      0.00
    0   -9    2      1.89      0.00
    1   -9    2     11.07      0.00
    2   -9    2    -11.50      0.00
    3   -9    2      2.33      0.00
    4   -9    2     -0.13      0.00
    5   -9    2      1.91      0.00
    6   -9    2      2.07      0.00
    7   -9    2     -6.75      0.00
    8   -9    2      2.93      0.00
  -13   -8    2      2.89      0.00
  -12   -8    2      0.27      0.00
  -11   -8    2     -2.11      0.00
  -10   -8    2     -2.01      0.00
   -9   -8    2      2.31      0.00
   -8   -8    2      5.93      0.00
   -7   -8    2     -5.64      0.00
   -6   -8    2     -5.80      0.00
   -5   -8    2      6.26      0.00
   -4   -8    2      9.97      0.00
   -3   -8    2    -14.70      0.00
   -2   -8    2     -0.96      0.00
   -1   -8    2      5.56      0.00
    0   -8    2      2.38      0.00
    1   -8    2      3.49      0.00
    2   -8    2    -13.66      0.00
    3   -8    2      9.48      0.00
    4   -8    2      1.39      0.00
    5   -8    2     -1.61      0.00
    6   -8    2     -0.33      0.00
    7   -8    2     -5.28      0.00
    8   -8    2      5.61      0.00
    9   -8    2     -0.93      0.00
  -13   -7    2      1.77      0.00
  -12   -7    2     -2.48      0.00
  -11   -7    2     -2.19      0.00
  -10   -7    2      2.14      0.00
   -9   -7    2      4.83      0.00
   -8   -7    2     -1.73      0.00
   -7   -7    2     -8.50      0.00
   -6   -7    2      6.78      0.00
   -5   -7    2      6.13      0.00
   -4   -7    2     -2.87      0.00
   -3   -7    2    -14.60      0.00
   -2   -7    2     12.39      0.00
   -1   -7    2      5.47      0.00
    0   -7    2     -7.22      0.00
    1   -7    2      0.18      0.00
    2   -7    2     -7.04      0.00
    3   -7    2     14.33      0.00
    4   -7    2     -4.07      0.00
    5   -7    2     -4.53      0.00
    6   -7    2      2.57      0.00
    7   -7    2     -2.15      0.00
    8   -7    2      5.88      0.00
    9   -7    2     -4.12      0.00
  -13   -6    2     -1.12      0.00
  -12   -6    2     -2.68      0.00
  -11   -6    2      1.60      0.00
  -10   -6    2      3.43      0.00
   -9   -6    2     -0.01      0.00
   -8   -6    2     -6.57      0.00
   -7   -6    2      0.11      0.00
   -6   -6    2     14.01      0.00
   -5   -6    2     -8.95      0.00
   -4   -6    2     -6.27      0.00
   -3   -6    2      0.50      0.00
   -2   -6    2     16.18      0.00
   -1   -6    2     -7.41      0.00
    0   -6    2    -10.55      0.00
    1   -6    2      8.74      0.00
    2   -6    2     -2.20      0.00
    3   -6    2      9.87      0.00
    4   -6    2    -10.90      0.00
    5   -6    2     -1.01      0.00
    6   -6    2      7.10      0.00
    7   -6    2     -2.48      0.00
    8   -6    2      2.87      0.00
    9   -6    2     -5.27      0.00
   10   -6    2      2.26      0.00
  -12   -5    2      0.13      0.00
  -11   -5    2      4.71      0.00
  -10   -5    2     -1.98      0.00
   -9   -5    2     -3.67      0.00
   -8   -5    2     -1.94      0.00
   -7   -5    2      7.96      0.00
   -6   -5    2      5.18      0.00
   -5   -5    2    -21.18      0.00
   -4   -5    2      9.89      0.00
   -3   -5    2      8.19      0.00
   -2   -5    2      1.45      0.00
   -1   -5    2    -13.90      0.00
    0   -5    2      1.83      0.00
    1   -5    2     16.01      0.00
    2   -5    2     -9.18      0.00
    3   -5    2      3.56      0.00
    4   -5    2    -10.19      0.00
    5   -5    2      6.30      0.00
    6   -5    2      5.90      0.00
    7   -5    2     -6.61      0.00
    8   -5    2      1.53      0.00
    9   -5    2     -2.13      0.00
   10   -5    2      3.71      0.00
  -13   -4    2     -1.26      0.00
  -12   -4    2      3.09      0.00
  -11   -4    2      3.42      0.00
  -10   -4    2     -8.52      0.00
   -9   -4    2      1.28      0.00
   -8   -4    2      3.50      0.00
   -7   -4    2      3.55      0.00
   -6   -4    2     -7.25      0.00
   -5   -4    2    -13.12      0.00
   -4   -4    2     26.57      0.00
   -3   -4    2     -8.28      0.00
   -2   -4    2    -11.53      0.00
   -1   -4    2      0.08      0.00
    0   -4    2     13.48      0.00
    1   -4    2      6.32      0.00
    2   -4    2    -18.89      0.00
    3   -4    2      7.64      0.00
    4   -4    2     -3.89      0.00
    5   -4    2      8.33      0.00
    6   -4    2     -1.67      0.00
    7   -4    2     -7.83      0.00
    8   -4    2      4.35      0.00
    9   -4    2      0.27      0.00
   10   -4    2      0.77      0.00
   11   -4    2     -2.66      0.00
  -13   -3    2     -0.15      0.00
  -12   -3    2      3.57      0.00
  -11   -3    2     -0.93      0.00
  -10   -3    2     -8.47      0.00
   -9   -3    2      9.85      0.00
   -8   -3    2     -0.31      0.00
   -7   -3    2     -5.32      0.00
   -6   -3    2     -5.02      0.00
   -5   -3    2      3.41      0.00
   -4   -3    2     21.07      0.00
   -3   -3    2    -32.12      0.00
   -2   -3    2      1.66      0.00
   -1   -3    2     19.46      0.00
    0   -3    2      0.91      0.00
    1   -3    2    -11.01      0.00
    2   -3    2    -12.71      0.00
    3   -3    2     17.40      0.00
    4   -3    2     -4.34      0.00
    5   -3    2      3.00      0.00
    6   -3    2     -6.49      0.00
    7   -3    2     -2.48      0.00
    8   -3    2      6.38      0.00
    9   -3    2     -1.54      0.00
   10   -3    2     -2.11      0.00
   11   -3    2     -1.03      0.00
  -12   -2    2      1.78      0.00
  -11   -2    2     -3.29      0.00
  -10   -2    2     -2.33      0.00
   -9   -2    2     12.12      0.00
   -8   -2    2     -9.64      0.00
   -7   -2    2     -4.16      0.00
   -6   -2    2      6.78      0.00
   -5   -2    2      4.26      0.00
   -4   -2    2      2.47      0.00
   -3   -2    2    -33.71      0.00
   -2   -2    2     34.09      0.00
   -1   -2    2     11.29      0.00
    0   -2    2    -28.99      0.00
    1   -2    2     -4.43      0.00
    2   -2    2      6.29      0.00
    3   -2    2     13.59      0.00
    4   -2    2    -12.81      0.00
    5   -2    2      0.56      0.00
    6   -2    2     -3.02      0.00
    7   -2    2      3.44      0.00
    8   -2    2      3.53      0.00
    9   -2    2     -3.86      0.00
   10   -2    2     -1.32      0.00
   11   -2    2      1.19      0.00
   12   -2    2      0.44      0.00
  -12   -1    2      0.48      0.00
  -11   -1    2     -1.87      0.00
  -10   -1    2      2.07      0.00
   -9   -1    2      6.74      0.00
   -8   -1    2    -13.95      0.00
   -7   -1    2      6.57      0.00
   -6   -1    2      9.13      0.00
   -5   -1    2     -9.36      0.00
   -4   -1    2     -1.77      0.00
   -3   -1    2    -12.89      0.00
   -2   -1    2     48.39      0.00
   -1   -1    2    -29.27      0.00
    0   -1    2    -31.38      0.00
    1   -1    2     31.35      0.00
    2   -1    2      7.29      0.00
    3   -1    2     -4.22      0.00
    4   -1    2    -13.23      0.00
    5   -1    2      6.02      0.00
    6   -1    2      1.49      0.00
    7   -1    2      3.28      0.00
    8   -1    2     -1.33      0.00
    9   -1    2     -2.65      0.00
   10   -1    2      1.08      0.00
   11   -1    2      1.42      0.00
   12   -1    2     -0.66      0.00
  -12    0    2      0.86      0.00
  -11    0    2     -0.04      0.00
  -10    0    2      1.05      0.00
   -9    0    2      1.22      0.00
   -8    0    2    -10.05      0.00
   -7    0    2     14.77      0.00
   -6    0    2     -2.00      0.00
   -5    0    2    -15.21      0.00
   -4    0    2     12.48      0.00
   -3    0    2     -0.74      0.00
   -2    0    2     27.41      0.00
   -1    0    2    -56.23      0.00
    0    0    2     11.96      0.00
    1    0    2     49.07      0.00
    2    0    2    -19.88      0.00
    3    0    2     -9.03      0.00
    4    0    2     -0.30      0.00
    5    0    2      8.79      0.00
    6    0    2     -0.26      0.00
    7    0    2     -0.55      0.00
    8    0    2     -3.09      0.00
    9    0    2      1.33      0.00
   10    0    2      1.25      0.00
   11    0    2      0.02      0.00
   12    0    2     -1.11      0.00
  -12    1    2      1.93      0.00
  -11    1    2      0.09      0.00
  -10    1    2     -1.39      0.00
   -9    1    2      0.89      0.00
   -8    1    2     -4.26      0.00
   -7    1    2     13.32      0.00
   -6    1    2    -13.16      0.00
   -5    1    2     -4.29      0.00
   -4    1    2     22.03      0.00
   -3    1    2    -12.61      0.00
   -2    1    2      4.19      0.00
   -1    1    2    -37.58      0.00
    0    1    2     48.33      0.00
    1    1    2     19.06      0.00
    2    1    2    -38.27      0.00
    3    1    2      9.84      0.00
    4    1    2      7.91      0.00
    5    1    2      1.42      0.00
    6    1    2     -3.14      0.00
    7    1    2     -1.81      0.00
    8    1    2     -0.89      0.00
    9    1    2      3.94      0.00
   10    1    2     -1.77      0.00
   11    1    2     -0.39      0.00
   12    1    2     -0.46      0.00
   13    1    2      1.11      0.00
  -12    2    2      2.81      0.00
  -11    2    2     -0.76      0.00
  -10    2    2     -1.78      0.00
   -9    2    2      3.24      0.00
   -8    2    2     -3.21      0.00
   -7    2    2      7.18      0.00
   -6    2    2    -13.42      0.00
   -5    2    2      9.62      0.00
   -4    2    2     12.73      0.00
   -3    2    2    -25.99      0.00
   -2    2    2      9.07      0.00
   -1    2    2     -8.60      0.00
    0    2    2     35.17      0.00
    1    2    2    -16.40      0.00
    2    2    2    -23.00      0.00
    3    2    2     26.07      0.00
    4    2    2     -0.63      0.00
    5    2    2     -6.70      0.00
    6    2    2      0.47      0.00
    7    2    2     -0.56      0.00
    8    2    2      1.48      0.00
    9    2    2      2.71      0.00
   10    2    2     -4.61      0.00
   11    2    2      1.72      0.00
   12    2    2      0.14      0.00
   13    2    2      1.02      0.00
  -11    3    2     -1.90      0.00
  -10    3    2     -0.61      0.00
   -9    3    2      3.85      0.00
   -8    3    2     -5.49      0.00
   -7    3    2      5.02      0.00
   -6    3    2     -7.12      0.00
   -5    3    2     11.91      0.00
   -4    3    2     -2.71      0.00
   -3    3    2    -19.52      0.00
   -2    3    2     23.78      0.00
   -1    3    2     -7.99      0.00
    0    3    2      6.79      0.00
    1    3    2    -16.65      0.00
    2    3    2     -0.86      0.00
    3    3    2     20.18      0.00
    4    3    2    -13.10      0.00
    5    3    2     -4.61      0.00
    6    3    2      6.86      0.00
    7    3    2     -1.74      0.00
    8    3    2      1.71      0.00
    9    3    2      0.15      0.00
   10    3    2     -4.23      0.00
   11    3    2      4.10      0.00
   12    3    2     -0.53      0.00
   13    3    2      0.33      0.00
  -11    4    2     -1.96      0.00
  -10    4    2      0.68      0.00
   -9    4    2      2.45      0.00
   -8    4    2     -5.82      0.00
   -7    4    2      6.48      0.00
   -6    4    2     -4.69      0.00
   -5    4    2      5.73      0.00
   -4    4    2     -7.25      0.00
   -3    4    2     -3.64      0.00
   -2    4    2     21.53      0.00
   -1    4    2    -20.18      0.00
    0    4    2      3.65      0.00
    1    4    2     -2.50      0.00
    2    4    2      2.46      0.00
    3    4    2      6.44      0.00
    4    4    2    -13.92      0.00
    5    4    2      3.46      0.00
    6    4    2      7.07      0.00
    7    4    2     -5.04      0.00
    8    4    2      1.81      0.00
    9    4    2     -0.65      0.00
   10    4    2     -2.16      0.00
   11    4    2      4.66      0.00
   12    4    2     -1.66      0.00
   13    4    2     -0.36      0.00
  -10    5    2      0.83      0.00
   -9    5    2      1.29      0.00
   -8    5    2     -4.15      0.00
   -7    5    2      5.76      0.00
   -6    5    2     -6.24      0.00
   -5    5    2      2.78      0.00
   -4    5    2     -2.20      0.00
   -3    5    2      2.40      0.00
   -2    5    2      7.70      0.00
   -1    5    2    -19.18      0.00
    0    5    2     13.78      0.00
    1    5    2     -2.05      0.00
    2    5    2     -2.11      0.00
    3    5    2      2.12      0.00
    4    5    2     -6.36      0.00
    5    5    2      6.06      0.00
    6    5    2      2.36      0.00
    7    5    2     -5.33      0.00
    8    5    2      2.61      0.00
    9    5    2     -0.38      0.00
   10    5    2     -0.51      0.00
   11    5    2      4.03      0.00
   12    5    2     -2.89      0.00
   13    5    2     -0.63      0.00
  -10    6    2      0.16      0.00
   -9    6    2      1.36      0.00
   -8    6    2     -3.42      0.00
   -7    6    2      3.67      0.00
   -6    6    2     -5.73      0.00
   -5    6    2      4.50      0.00
   -4    6    2      0.89      0.00
   -3    6    2     -2.05      0.00
   -2    6    2      0.43      0.00
   -1    6    2     -7.97      0.00
    0    6    2     14.43      0.00
    1    6    2     -9.61      0.00
    2    6    2     -0.11      0.00
    3    6    2      4.09      0.00
    4    6    2     -2.86      0.00
    5    6    2      2.94      0.00
    6    6    2      1.09      0.00
    7    6    2     -3.38      0.00
    8    6    2      2.28      0.00
    9    6    2     -0.02      0.00
   10    6    2      0.63      0.00
   11    6    2      2.05      0.00
   12    6    2     -3.96      0.00
   13    6    2      0.51      0.00
   -9    7    2      1.60      0.00
   -8    7    2     -3.21      0.00
   -7    7    2      3.44      0.00
   -6    7    2     -3.98      0.00
   -5    7    2      5.05      0.00
   -4    7    2     -1.11      0.00
   -3    7    2     -5.15      0.00
   -2    7    2      3.65      0.00
   -1    7    2     -0.86      0.00
    0    7    2      5.34      0.00
    1    7    2    -10.98      0.00
    2    7    2      5.86      0.00
    3    7    2      2.32      0.00
    4    7    2     -5.01      0.00
    5    7    2      2.99      0.00
    6    7    2      2.43      0.00
    7    7    2     -4.00      0.00
    8    7    2      1.96      0.00
    9    7    2      0.64      0.00
   10    7    2      0.47      0.00
   11    7    2     -0.85      0.00
   12    7    2     -2.55      0.00
   13    7    2      2.35      0.00
   -8    8    2     -2.31      0.00
   -7    8    2      3.33      0.00
   -6    8    2     -3.58      0.00
   -5    8    2      3.84      0.00
   -4    8    2     -2.94      0.00
   -3    8    2     -1.92      0.00
   -2    8    2      7.19      0.00
   -1    8    2     -3.09      0.00
    0    8    2     -1.84      0.00
    1    8    2     -3.27      0.00
    2    8    2      7.17      0.00
    3    8    2     -3.82      0.00
    4    8    2     -3.86      0.00
    5    8    2      5.97      0.00
    6    8    2     -0.61      0.00
    7    8    2     -5.02      0.00
    8    8    2      3.79      0.00
    9    8    2      0.24      0.00
   10    8    2     -1.02      0.00
   11    8    2     -1.40      0.00
   12    8    2      0.82      0.00
   13    8    2      1.72      0.00
   -8    9    2     -1.49      0.00
   -7    9    2      2.45      0.00
   -6    9    2     -2.64      0.00
   -5    9    2      2.81      0.00
   -4    9    2     -2.17      0.00
   -3    9    2      1.62      0.00
   -2    9    2      3.86      0.00
   -1    9    2     -6.69      0.00
    0    9    2      0.28      0.00
    1    9    2      4.36      0.00
    2    9    2      0.57      0.00
    3    9    2     -5.75      0.00
    4    9    2      2.51      0.00
    5    9    2      3.41      0.00
    6    9    2     -5.18      0.00
    7    9    2     -1.68      0.00
    8    9    2      5.12      0.00
    9    9    2     -2.23      0.00
   10    9    2     -1.43      0.00
   11    9    2      0.90      0.00
   12    9    2      1.60      0.00
   13    9    2     -0.88      0.00
   -7   10    2      2.44      0.00
   -6   10    2     -1.46      0.00
   -5   10    2      1.59      0.00
   -4   10    2     -0.53      0.00
   -3   10    2      1.04      0.00
   -2   10    2     -0.54      0.00
   -1   10    2     -4.00      0.00
    0   10    2      4.55      0.00
    1   10    2      2.59      0.00
    2   10    2     -5.74      0.00
    3   10    2      0.22      0.00
    4   10    2      5.26      0.00
    5   10    2     -3.80      0.00
    6   10    2     -3.23      0.00
    7   10    2      2.69      0.00
    8   10    2      2.64      0.00
    9   10    2     -4.48      0.00
   10   10    2      0.57      0.00
   11   10    2      2.33      0.00
   12   10    2     -0.73      0.00
   -6   11    2     -1.93      0.00
   -5   11    2      1.08      0.00
   -4   11    2      0.63      0.00
   -3   11    2     -0.85      0.00
   -2   11    2     -0.24      0.00
   -1   11    2     -0.24      0.00
    0   11    2      2.72      0.00
    1   11    2     -2.33      0.00
    2   11    2     -3.87      0.00
    3   11    2      5.31      0.00
    4   11    2      1.13      0.00
    5   11    2     -6.25      0.00
    6   11    2      3.26      0.00
    7   11    2      2.19      0.00
    8   11    2     -1.22      0.00
    9   11    2     -3.46      0.00
   10   11    2      3.17      0.00
   11   11    2      1.04      0.00
   12   11    2     -2.35      0.00
   -5   12    2      1.87      0.00
   -4   12    2      0.45      0.00
   -3   12    2     -1.52      0.00
   -2   12    2      1.64      0.00
   -1   12    2     -0.25      0.00
    0   12    2      0.10      0.00
    1   12    2     -1.81      0.00
    2   12    2      0.04      0.00
    3   12    2      3.44      0.00
    4   12    2     -2.13      0.00
    5   12    2     -2.31      0.00
    6   12    2      5.96      0.00
    7   12    2     -1.81      0.00
    8   12    2     -1.84      0.00
    9   12    2      0.21      0.00
   10   12    2      3.62      0.00
   11   12    2     -1.34      0.00
   12   12    2     -1.71      0.00
   -4   13    2     -0.67      0.00
   -3   13    2     -0.98      0.00
   -2   13    2      2.61      0.00
   -1   13    2     -0.97      0.00
    0   13    2      0.82      0.00
    1   13    2     -0.03      0.00
    2   13    2     -0.44      0.00
    3   13    2      0.73      0.00
    4   13    2     -0.60      0.00
    5   13    2      0.71      0.00
    6   13    2      3.11      0.00
    7   13    2     -3.71      0.00
    8   13    2      0.79      0.00
    9   13    2      2.60      0.00
   10   13    2      1.42      0.00
   11   13    2     -2.27      0.00
   -2   14    2      2.44      0.00
   -1   14    2     -1.70      0.00
    0   14    2      1.49      0.00
    1   14    2     -0.59      0.00
    2   14    2     -1.55      0.00
    3   14    2      1.46      0.00
    4   14    2      0.68      0.00
    5   14    2     -0.46      0.00
    6   14    2      0.15      0.00
    7   14    2     -1.89      0.00
    8   14    2      2.65      0.00
    9   14    2      1.72      0.00
   10   14    2     -0.69      0.00
    0   15    2      1.82      0.00
    1   15    2     -1.31      0.00
    2   15    2     -0.95      0.00
    3   15    2      2.10      0.00
    4   15    2     -0.75      0.00
    5   15    2     -1.75      0.00
    6   15    2      0.45      0.00
    7   15    2      0.22      0.00
    8   15    2      1.65      0.00
    9   15    2     -0.07      0.00
    3   16    2      1.19      0.00
    4   16    2     -1.61      0.00
    5   16    2     -0.77      0.00
    6   16    2      1.49      0.00
   -8  -15    3     -0.98      0.00
   -6  -15    3      1.60      0.00
   -5  -15    3     -2.13      0.00
   -4  -15    3     -0.73      0.00
   -3  -15    3     -0.15      0.00
   -2  -15    3      1.02      0.00
   -1  -15    3      1.35      0.00
    0  -15    3     -2.67      0.00
   -9  -14    3     -3.19      0.00
   -8  -14    3      1.44      0.00
   -7  -14    3      2.55      0.00
   -6  -14    3     -0.48      0.00
   -5  -14    3     -3.40      0.00
   -4  -14    3      1.16      0.00
   -3  -14    3      1.96      0.00
   -2  -14    3     -0.83      0.00
   -1  -14    3      0.03      0.00
    0  -14    3     -2.14      0.00
    1  -14    3      2.07      0.00
    2  -14    3     -0.97      0.00
  -10  -13    3     -3.09      0.00
   -9  -13    3     -0.83      0.00
   -8  -13    3      4.02      0.00
   -7  -13    3     -0.22      0.00
   -6  -13    3     -2.82      0.00
   -5  -13    3     -0.75      0.00
   -4  -13    3      3.80      0.00
   -3  -13    3     -0.08      0.00
   -2  -13    3     -3.30      0.00
   -1  -13    3      2.44      0.00
    0  -13    3     -1.67      0.00
    1  -13    3      1.75      0.00
    2  -13    3     -1.77      0.00
    3  -13    3     -1.39      0.00
  -11  -12    3     -1.78      0.00
  -10  -12    3     -2.08      0.00
   -9  -12    3      3.12      0.00
   -8  -12    3      1.46      0.00
   -7  -12    3     -4.25      0.00
   -6  -12    3      0.29      0.00
   -5  -12    3      2.59      0.00
   -4  -12    3      1.82      0.00
   -3  -12    3     -3.36      0.00
   -2  -12    3     -1.64      0.00
   -1  -12    3      5.77      0.00
    1  -12    3      1.77      0.00
    2  -12    3     -2.65      0.00
    3  -12    3     -0.47      0.00
    4  -12    3      4.37      0.00
    5  -12    3     -3.73      0.00
  -11  -11    3     -1.85      0.00
  -10  -11    3      1.61      0.00
   -9  -11    3      2.63      0.00
   -8  -11    3     -3.71      0.00
   -7  -11    3     -2.49      0.00
   -6  -11    3      5.93      0.00
   -5  -11    3     -0.62      0.00
   -4  -11    3     -1.82      0.00
   -3  -11    3     -2.20      0.00
   -2  -11    3      1.48      0.00
   -1  -11    3      6.21      0.00
    0  -11    3     -6.92      0.00
    1  -11    3      2.76      0.00
    2  -11    3     -2.15      0.00
    3  -11    3      1.64      0.00
    4  -11    3      2.50      0.00
    5  -11    3     -6.84      0.00
    6  -11    3      3.21      0.00
  -12  -10    3     -1.01      0.00
  -11  -10    3      0.39      0.00
  -10  -10    3      2.69      0.00
   -9  -10    3     -1.64      0.00
   -8  -10    3     -4.10      0.00
   -7  -10    3      3.42      0.00
   -6  -10    3      5.38      0.00
   -5  -10    3     -7.89      0.00
   -4  -10    3      0.49      0.00
   -3  -10    3      1.61      0.00
   -2  -10    3      1.22      0.00
   -1  -10    3      3.71      0.00
    0  -10    3    -10.09      0.00
    1  -10    3      6.44      0.00
    2  -10    3     -0.73      0.00
    3  -10    3      1.00      0.00
    4  -10    3     -0.78      0.00
    5  -10    3     -5.16      0.00
    6  -10    3      7.01      0.00
    7  -10    3     -1.95      0.00
  -12   -9    3      1.19      0.00
  -11   -9    3      0.55      0.00
  -10   -9    3      0.13      0.00
   -9   -9    3     -3.49      0.00
   -8   -9    3      0.74      0.00
   -7   -9    3      5.00      0.00
   -6   -9    3     -0.94      0.00
   -5   -9    3     -9.37      0.00
   -4   -9    3      8.26      0.00
   -3   -9    3      1.12      0.00
   -2   -9    3     -2.94      0.00
   -1   -9    3      1.78      0.00
    0   -9    3     -9.12      0.00
    1   -9    3     11.84      0.00
    2   -9    3     -3.35      0.00
    3   -9    3     -2.17      0.00
    4   -9    3      0.19      0.00
    5   -9    3     -0.84      0.00
    6   -9    3      7.07      0.00
    7   -9    3     -4.79      0.00
    8   -9    3      0.16      0.00
  -12   -8    3      1.38      0.00
  -11   -8    3     -2.38      0.00
  -10   -8    3     -1.40      0.00
   -9   -8    3     -0.44      0.00
   -8   -8    3      3.86      0.00
   -7   -8    3     -0.12      0.00
   -6   -8    3     -3.82      0.00
   -5   -8    3     -3.02      0.00
   -4   -8    3     12.03      0.00
   -3   -8    3     -6.32      0.00
   -2   -8    3     -4.64      0.00
   -1   -8    3      5.09      0.00
    0   -8    3     -5.36      0.00
    1   -8    3     12.31      0.00
    2   -8    3    -10.20      0.00
    3   -8    3     -1.51      0.00
    4   -8    3      4.70      0.00
    5   -8    3     -0.88      0.00
    6   -8    3      3.56      0.00
    7   -8    3     -5.93      0.00
    8   -8    3      2.37      0.00
  -13   -7    3      3.54      0.00
  -12   -7    3     -1.69      0.00
  -11   -7    3     -3.71      0.00
  -10   -7    3      1.14      0.00
   -9   -7    3      2.85      0.00
   -8   -7    3      0.70      0.00
   -7   -7    3     -5.20      0.00
   -6   -7    3      1.53      0.00
   -5   -7    3      1.87      0.00
   -4   -7    3      6.08      0.00
   -3   -7    3    -12.26      0.00
   -2   -7    3      2.13      0.00
   -1   -7    3      8.64      0.00
    0   -7    3     -6.81      0.00
    1   -7    3      8.01      0.00
    2   -7    3    -13.02      0.00
    3   -7    3      4.90      0.00
    4   -7    3      5.76      0.00
    5   -7    3     -6.07      0.00
    6   -7    3      1.80      0.00
    7   -7    3     -4.00      0.00
    8   -7    3      4.71      0.00
    9   -7    3      0.78      0.00
  -13   -6    3      1.49      0.00
  -12   -6    3     -3.75      0.00
  -11   -6    3     -0.62      0.00
  -10   -6    3      4.29      0.00
   -9   -6    3      0.96      0.00
   -8   -6    3     -4.13      0.00
   -7   -6    3     -3.37      0.00
   -6   -6    3      8.94      0.00
   -5   -6    3     -3.43      0.00
   -4   -6    3     -1.16      0.00
   -3   -6    3     -7.34      0.00
   -2   -6    3      9.05      0.00
   -1   -6    3      2.92      0.00
    0   -6    3    -11.31      0.00
    1   -6    3      8.20      0.00
    2   -6    3     -9.68      0.00
    3   -6    3     10.05      0.00
    4   -6    3      0.17      0.00
    5   -6    3     -9.70      0.00
    6   -6    3      5.06      0.00
    7   -6    3     -1.71      0.00
    8   -6    3      3.73      0.00
    9   -6    3     -2.31      0.00
   10   -6    3     -1.26      0.00
  -13   -5    3     -1.15      0.00
  -12   -5    3     -2.51      0.00
  -11   -5    3      3.81      0.00
  -10   -5    3      2.63      0.00
   -9   -5    3     -3.58      0.00
   -8   -5    3     -2.58      0.00
   -7   -5    3      2.18      0.00
   -6   -5    3      8.39      0.00
   -5   -5    3    -13.78      0.00
   -4   -5    3      3.17      0.00
   -3   -5    3      1.03      0.00
   -2   -5    3      4.30      0.00
   -1   -5    3     -5.09      0.00
    0   -5    3     -8.38      0.00
    1   -5    3     12.72      0.00
    2   -5    3     -8.82      0.00
    3   -5    3      9.13      0.00
    4   -5    3     -6.68      0.00
    5   -5    3     -5.75      0.00
    6   -5    3      9.88      0.00
    7   -5    3     -3.28      0.00
    8   -5    3      0.27      0.00
    9   -5    3     -2.51      0.00
   10   -5    3      1.76      0.00
  -13   -4    3     -1.62      0.00
  -12   -4    3     -0.19      0.00
  -11   -4    3      5.29      0.00
  -10   -4    3     -3.56      0.00
   -9   -4    3     -3.03      0.00
   -8   -4    3      3.79      0.00
   -7   -4    3      1.59      0.00
   -6   -4    3      1.30      0.00
   -5   -4    3    -14.86      0.00
   -4   -4    3     15.44      0.00
   -3   -4    3     -1.75      0.00
   -2   -4    3     -4.57      0.00
   -1   -4    3     -1.25      0.00
    0   -4    3     -0.67      0.00
    1   -4    3     11.29      0.00
    2   -4    3    -13.11      0.00
    3   -4    3      7.34      0.00
    4   -4    3     -7.91      0.00
    5   -4    3      2.68      0.00
    6   -4    3      8.91      0.00
    7   -4    3     -7.78      0.00
    9   -4    3      1.07      0.00
   10   -4    3      2.34      0.00
   11   -4    3     -1.47      0.00
  -13   -3    3     -0.49      0.00
  -12   -3    3      0.92      0.00
  -11   -3    3      3.11      0.00
  -10   -3    3     -8.24      0.00
   -9   -3    3      3.62      0.00
   -8   -3    3      5.11      0.00
   -7   -3    3     -5.25      0.00
   -6   -3    3      0.38      0.00
   -5   -3    3     -5.59      0.00
   -4   -3    3     18.66      0.00
   -3   -3    3    -13.39      0.00
   -2   -3    3     -1.99      0.00
   -1   -3    3     10.71      0.00
    0   -3    3     -1.21      0.00
    1   -3    3      2.76      0.00
    2   -3    3    -13.09      0.00
    3   -3    3     10.01      0.00
    4   -3    3     -5.36      0.00
    5   -3    3      6.29      0.00
    6   -3    3      1.31      0.00
    7   -3    3     -8.64      0.00
    8   -3    3      4.19      0.00
    9   -3    3      2.61      0.00
   10   -3    3     -0.72      0.00
   11   -3    3     -1.84      0.00
  -13   -2    3      0.28      0.00
  -12   -2    3      0.58      0.00
  -11   -2    3      0.32      0.00
  -10   -2    3     -7.43      0.00
   -9   -2    3      9.13      0.00
   -8   -2    3     -0.97      0.00
   -7   -2    3     -7.79      0.00
   -6   -2    3      8.32      0.00
   -5   -2    3     -1.74      0.00
   -4   -2    3      9.30      0.00
   -3   -2    3    -18.15      0.00
   -2   -2    3     11.16      0.00
   -1   -2    3     13.99      0.00
    0   -2    3    -13.38      0.00
    1   -2    3     -1.07      0.00
    2   -2    3     -3.54      0.00
    3   -2    3     11.56      0.00
    4   -2    3     -5.42      0.00
    5   -2    3      3.52      0.00
    6   -2    3     -4.57      0.00
    7   -2    3     -3.03      0.00
    8   -2    3      6.93      0.00
    9   -2    3     -0.52      0.00
   10   -2    3     -2.68      0.00
   11   -2    3      0.53      0.00
   12   -2    3      1.60      0.00
  -12   -1    3      0.07      0.00
  -11   -1    3     -0.14      0.00
  -10   -1    3     -3.90      0.00
   -9   -1    3      9.04      0.00
   -8   -1    3     -7.11      0.00
   -7   -1    3     -2.62      0.00
   -6   -1    3     12.95      0.00
   -5   -1    3     -9.84      0.00
   -4   -1    3      3.40      0.00
   -3   -1    3    -11.01      0.00
   -2   -1    3     19.55      0.00
   -1   -1    3      1.07      0.00
    0   -1    3    -23.87      0.00
    1   -1    3      8.13      0.00
    2   -1    3      4.61      0.00
    3   -1    3      4.89      0.00
    4   -1    3     -6.39      0.00
    5   -1    3      1.57      0.00
    6   -1    3     -3.68      0.00
    7   -1    3      3.50      0.00
    8   -1    3      3.82      0.00
    9   -1    3     -4.13      0.00
   10   -1    3     -0.98      0.00
   11   -1    3      2.36      0.00
   12   -1    3      0.34      0.00
  -12    0    3      0.10      0.00
  -11    0    3      0.93      0.00
  -10    0    3     -2.12      0.00
   -9    0    3      6.28      0.00
   -8    0    3     -8.66      0.00
   -7    0    3      3.52      0.00
   -6    0    3      8.05      0.00
   -5    0    3    -17.09      0.00
   -4    0    3     10.53      0.00
   -3    0    3     -4.74      0.00
   -2    0    3     14.11      0.00
   -1    0    3    -14.60      0.00
    0    0    3    -17.20      0.00
    1    0    3     20.00      0.00
    2    0    3     -0.88      0.00
    3    0    3     -4.09      0.00
    4    0    3     -2.84      0.00
    5    0    3      2.43      0.00
    6    0    3     -0.64      0.00
    7    0    3      4.89      0.00
    8    0    3     -2.59      0.00
    9    0    3     -3.45      0.00
   10    0    3      1.73      0.00
   11    0    3      1.46      0.00
   12    0    3     -1.49      0.00
  -12    1    3      0.17      0.00
  -11    1    3      1.59      0.00
  -10    1    3     -2.56      0.00
   -9    1    3      4.75      0.00
   -8    1    3     -7.35      0.00
   -7    1    3      6.14      0.00
   -6    1    3      0.42      0.00
   -5    1    3    -13.66      0.00
   -4    1    3     19.33      0.00
   -3    1    3    -10.23      0.00
   -2    1    3      5.35      0.00
   -1    1    3    -14.41      0.00
    0    1    3     -0.61      0.00
    1    1    3     18.27      0.00
    2    1    3    -12.52      0.00
    3    1    3     -5.39      0.00
    4    1    3      2.62      0.00
    5    1    3      1.55      0.00
    6    1    3     -0.07      0.00
    7    1    3      1.95      0.00
    8    1    3     -6.28      0.00
    9    1    3      1.50      0.00
   10    1    3      1.55      0.00
   11    1    3     -0.75      0.00
   12    1    3     -1.83      0.00
   13    1    3      0.31      0.00
  -11    2    3      1.68      0.00
  -10    2    3     -3.67      0.00
   -9    2    3      4.86      0.00
   -8    2    3     -6.09      0.00
   -7    2    3      6.20      0.00
   -6    2    3     -3.40      0.00
   -5    2    3     -5.67      0.00
   -4    2    3     17.35      0.00
   -3    2    3    -19.23      0.00
   -2    2    3      7.93      0.00
   -1    2    3     -4.22      0.00
    0    2    3      4.86      0.00
    1    2    3      8.42      0.00
    2    2    3    -15.16      0.00
    3    2    3     -0.99      0.00
    4    2    3      4.86      0.00
    5    2    3     -1.74      0.00
    6    2    3     -0.43      0.00
    7    2    3     -0.75      0.00
    8    2    3     -4.74      0.00
    9    2    3      5.93      0.00
   10    2    3     -2.04      0.00
   11    2    3     -0.94      0.00
   12    2    3     -0.19      0.00
   13    2    3      1.20      0.00
  -11    3    3      0.90      0.00
  -10    3    3     -4.44      0.00
   -9    3    3      5.34      0.00
   -8    3    3     -5.92      0.00
   -7    3    3      5.98      0.00
   -6    3    3     -3.91      0.00
   -5    3    3     -1.76      0.00
   -4    3    3      9.20      0.00
   -3    3    3    -18.55      0.00
   -2    3    3     16.12      0.00
   -1    3    3     -3.85      0.00
    0    3    3      0.54      0.00
    1    3    3      6.49      0.00
    2    3    3    -11.39      0.00
    3    3    3      1.94      0.00
    4    3    3      4.93      0.00
    5    3    3     -4.28      0.00
    6    3    3      0.57      0.00
    7    3    3     -1.18      0.00
    8    3    3     -1.14      0.00
    9    3    3      6.00      0.00
   10    3    3     -5.48      0.00
   11    3    3      1.57      0.00
   12    3    3      1.09      0.00
   13    3    3      0.75      0.00
  -11    4    3     -0.62      0.00
  -10    4    3     -3.68      0.00
   -9    4    3      5.29      0.00
   -8    4    3     -5.69      0.00
   -7    4    3      6.28      0.00
   -6    4    3     -4.36      0.00
   -5    4    3     -1.52      0.00
   -4    4    3      5.30      0.00
   -3    4    3    -10.98      0.00
   -2    4    3     15.55      0.00
   -1    4    3    -11.38      0.00
    0    4    3      2.56      0.00
    1    4    3      8.29      0.00
    2    4    3    -11.48      0.00
    3    4    3      4.05      0.00
    4    4    3      5.17      0.00
    5    4    3     -5.73      0.00
    6    4    3      2.32      0.00
    7    4    3     -0.20      0.00
    8    4    3      0.40      0.00
    9    4    3      3.04      0.00
   10    4    3     -6.05      0.00
   11    4    3      4.08      0.00
   12    4    3      0.59      0.00
   13    4    3     -0.45      0.00
  -10    5    3     -1.74      0.00
   -9    5    3      4.37      0.00
   -8    5    3     -4.53      0.00
   -7    5    3      5.54      0.00
   -6    5    3     -5.19      0.00
   -5    5    3     -0.28      0.00
   -4    5    3      5.82      0.00
   -3    5    3     -7.03      0.00
   -2    5    3      8.34      0.00
   -1    5    3    -11.66      0.00
    0    5    3      9.02      0.00
    1    5    3      2.33      0.00
    2    5    3    -11.89      0.00
    3    5    3      8.14      0.00
    4    5    3      3.54      0.00
    5    5    3     -7.86      0.00
    6    5    3      4.76      0.00
    7    5    3      0.73      0.00
    8    5    3     -1.26      0.00
    9    5    3      0.74      0.00
   10    5    3     -4.21      0.00
   11    5    3      4.89      0.00
   12    5    3     -0.96      0.00
   13    5    3     -1.54      0.00
   -9    6    3      3.05      0.00
   -8    6    3     -3.65      0.00
   -7    6    3      3.71      0.00
   -6    6    3     -3.94      0.00
   -5    6    3      2.06      0.00
   -4    6    3      4.68      0.00
   -3    6    3     -7.88      0.00
   -2    6    3      5.19      0.00
   -1    6    3     -4.70      0.00
    0    6    3      8.49      0.00
    1    6    3     -5.97      0.00
    2    6    3     -5.34      0.00
    3    6    3     10.59      0.00
    4    6    3     -2.40      0.00
    5    6    3     -8.46      0.00
    6    6    3      8.97      0.00
    7    6    3     -1.09      0.00
    8    6    3     -4.04      0.00
    9    6    3      1.50      0.00
   10    6    3     -1.71      0.00
   11    6    3      3.63      0.00
   12    6    3     -2.99      0.00
   13    6    3     -1.69      0.00
   -9    7    3      1.91      0.00
   -8    7    3     -3.67      0.00
   -7    7    3      3.28      0.00
   -6    7    3     -1.45      0.00
   -5    7    3      2.01      0.00
   -4    7    3      0.90      0.00
   -3    7    3     -7.42      0.00
   -2    7    3      7.43      0.00
   -1    7    3     -0.86      0.00
    0    7    3      1.48      0.00
    1    7    3     -6.30      0.00
    2    7    3      3.76      0.00
    3    7    3      6.24      0.00
    4    7    3     -8.53      0.00
    5    7    3     -2.49      0.00
    6    7    3     11.39      0.00
    7    7    3     -6.92      0.00
    8    7    3     -3.49      0.00
    9    7    3      4.31      0.00
   10    7    3     -1.12      0.00
   11    7    3      0.52      0.00
   12    7    3     -3.51      0.00
   13    7    3      0.24      0.00
   -8    8    3     -3.30      0.00
   -7    8    3      3.87      0.00
   -6    8    3     -1.32      0.00
   -5    8    3      0.05      0.00
   -4    8    3     -1.11      0.00
   -3    8    3     -3.14      0.00
   -2    8    3      8.21      0.00
   -1    8    3     -3.72      0.00
    0    8    3     -3.24      0.00
    1    8    3      0.73      0.00
    2    8    3      6.00      0.00
    3    8    3     -2.45      0.00
    4    8    3     -6.60      0.00
    5    8    3      6.68      0.00
    6    8    3      5.99      0.00
    7    8    3    -11.24      0.00
    8    8    3      2.10      0.00
    9    8    3      4.75      0.00
   10    8    3     -3.29      0.00
   11    8    3     -1.20      0.00
   12    8    3     -0.78      0.00
   13    8    3      2.19      0.00
   -8    9    3     -2.06      0.00
   -7    9    3      3.03      0.00
   -6    9    3     -2.53      0.00
   -5    9    3     -0.30      0.00
   -4    9    3      0.11      0.00
   -3    9    3      0.56      0.00
   -2    9    3      3.69      0.00
   -1    9    3     -6.50      0.00
    0    9    3     -0.53      0.00
    1    9    3      6.21      0.00
    2    9    3     -0.48      0.00
    3    9    3     -6.16      0.00
    4    9    3      2.73      0.00
    5    9    3      7.62      0.00
    6    9    3     -3.43      0.00
    7    9    3     -7.33      0.00
    8    9    3      7.31      0.00
    9    9    3      0.62      0.00
   10    9    3     -4.62      0.00
   11    9    3      0.96      0.00
   12    9    3      1.67      0.00
   13    9    3      1.23      0.00
   -7   10    3      1.55      0.00
   -6   10    3     -2.10      0.00
   -5   10    3      0.55      0.00
   -4   10    3      1.24      0.00
   -3   10    3     -0.01      0.00
   -2   10    3     -0.91      0.00
   -1   10    3     -2.85      0.00
    0   10    3      3.92      0.00
    1   10    3      3.57      0.00
    2   10    3     -6.64      0.00
    3   10    3     -1.05      0.00
    4   10    3      7.67      0.00
    5   10    3     -1.03      0.00
    6   10    3     -5.51      0.00
    7   10    3      1.15      0.00
    8   10    3      6.01      0.00
    9   10    3     -4.08      0.00
   10   10    3     -2.17      0.00
   11   10    3      3.74      0.00
   12   10    3      0.24      0.00
   -6   11    3     -1.10      0.00
   -5   11    3      0.45      0.00
   -4   11    3      0.80      0.00
   -3   11    3     -1.97      0.00
   -2   11    3     -0.48      0.00
   -1   11    3      1.76      0.00
    0   11    3      2.00      0.00
    1   11    3     -1.49      0.00
    2   11    3     -4.41      0.00
    3   11    3      4.33      0.00
    4   11    3      3.09      0.00
    5   11    3     -7.01      0.00
    6   11    3      1.06      0.00
    7   11    3      4.27      0.00
    8   11    3      0.09      0.00
    9   11    3     -4.60      0.00
   10   11    3      1.80      0.00
   11   11    3      3.44      0.00
   12   11    3     -2.38      0.00
   -5   12    3      0.23      0.00
   -4   12    3      0.20      0.00
   -3   12    3     -2.30      0.00
   -2   12    3      1.34      0.00
   -1   12    3      0.86      0.00
    0   12    3     -2.05      0.00
    1   12    3     -0.52      0.00
    2   12    3      0.60      0.00
    3   12    3      2.63      0.00
    4   12    3     -2.00      0.00
    5   12    3     -4.20      0.00
    6   12    3      5.85      0.00
    7   12    3      0.10      0.00
    8   12    3     -3.67      0.00
    9   12    3     -1.26      0.00
   10   12    3      3.43      0.00
   11   12    3      0.89      0.00
   12   12    3     -2.75      0.00
   -3   13    3     -1.83      0.00
   -2   13    3      1.48      0.00
   -1   13    3     -1.38      0.00
    0   13    3     -1.69      0.00
    1   13    3      2.66      0.00
    2   13    3      0.18      0.00
    3   13    3     -0.95      0.00
    4   13    3     -0.86      0.00
    6   13    3      3.53      0.00
    7   13    3     -4.11      0.00
    8   13    3     -2.32      0.00
    9   13    3      1.85      0.00
   10   13    3      1.61      0.00
   11   13    3     -1.30      0.00
   -2   14    3      1.55      0.00
   -1   14    3     -1.66      0.00
    0   14    3      0.04      0.00
    1   14    3      2.36      0.00
    2   14    3     -2.52      0.00
    3   14    3     -0.28      0.00
    4   14    3      1.78      0.00
    5   14    3     -0.57      0.00
    6   14    3     -0.40      0.00
    7   14    3     -3.25      0.00
    8   14    3      0.84      0.00
    9   14    3      1.75      0.00
   10   14    3     -1.25      0.00
    0   15    3      0.81      0.00
    1   15    3      0.84      0.00
    2   15    3     -2.60      0.00
    3   15    3      1.89      0.00
    4   15    3      1.24      0.00
    5   15    3     -2.49      0.00
    6   15    3     -0.61      0.00
    7   15    3     -0.02      0.00
    8   15    3      1.68      0.00
    3   16    3      2.12      0.00
    4   16    3     -0.24      0.00
    5   16    3     -1.99      0.00
    6   16    3      1.05      0.00
   -7  -15    4     -0.72      0.00
   -6  -15    4      2.09      0.00
   -5  -15    4      0.21      0.00
   -4  -15    4     -0.21      0.00
   -3  -15    4     -0.64      0.00
   -2  -15    4     -0.91      0.00
   -1  -15    4      3.57      0.00
   -9  -14    4     -2.20      0.00
   -8  -14    4     -0.33      0.00
   -7  -14    4      1.14      0.00
   -6  -14    4      1.13      0.00
   -5  -14    4     -1.30      0.00
   -4  -14    4     -1.13      0.00
   -3  -14    4      1.19      0.00
   -2  -14    4     -0.11      0.00
   -1  -14    4      1.98      0.00
    0  -14    4     -2.09      0.00
    1  -14    4      0.94      0.00
    2  -14    4      0.61      0.00
  -10  -13    4     -0.61      0.00
   -9  -13    4     -2.79      0.00
   -8  -13    4      2.67      0.00
   -7  -13    4      0.66      0.00
   -6  -13    4     -1.69      0.00
   -5  -13    4     -1.68      0.00
   -4  -13    4      0.18      0.00
   -3  -13    4      2.62      0.00
   -2  -13    4     -2.34      0.00
   -1  -13    4      1.28      0.00
    0  -13    4     -1.40      0.00
    1  -13    4      1.30      0.00
    2  -13    4      1.25      0.00
    3  -13    4     -2.67      0.00
  -11  -12    4      0.37      0.00
  -10  -12    4     -1.83      0.00
   -9  -12    4     -0.02      0.00
   -8  -12    4      3.49      0.00
   -7  -12    4     -2.76      0.00
   -6  -12    4     -1.82      0.00
   -5  -12    4      0.48      0.00
   -4  -12    4      0.91      0.00
   -3  -12    4      1.57      0.00
   -2  -12    4     -4.17      0.00
   -1  -12    4      2.90      0.00
    0  -12    4     -1.38      0.00
    1  -12    4      1.47      0.00
    2  -12    4      0.89      0.00
    3  -12    4     -3.13      0.00
    4  -12    4      5.11      0.00
  -11  -11    4     -1.09      0.00
  -10  -11    4     -0.45      0.00
   -9  -11    4      1.54      0.00
   -8  -11    4      1.02      0.00
   -7  -11    4     -4.05      0.00
   -6  -11    4      2.24      0.00
   -5  -11    4      0.83      0.00
   -4  -11    4     -0.81      0.00
   -3  -11    4      1.14      0.00
   -2  -11    4     -4.33      0.00
   -1  -11    4      5.09      0.00
    0  -11    4     -2.47      0.00
    1  -11    4      0.65      0.00
    2  -11    4     -0.11      0.00
    3  -11    4     -1.53      0.00
    4  -11    4      6.59      0.00
    5  -11    4     -4.79      0.00
    6  -11    4     -0.40      0.00
  -12  -10    4     -0.32      0.00
  -11  -10    4     -0.83      0.00
  -10  -10    4      0.66      0.00
   -9  -10    4      0.26      0.00
   -8  -10    4     -0.28      0.00
   -7  -10    4     -1.90      0.00
   -6  -10    4      5.08      0.00
   -5  -10    4     -2.87      0.00
   -4  -10    4     -1.20      0.00
   -3  -10    4      2.72      0.00
   -2  -10    4     -4.59      0.00
   -1  -10    4      7.29      0.00
    0  -10    4     -5.60      0.00
    1  -10    4     -0.41      0.00
    2  -10    4      1.36      0.00
    3  -10    4      0.04      0.00
    4  -10    4      3.93      0.00
    5  -10    4     -7.18      0.00
    6  -10    4      2.96      0.00
    7  -10    4      1.53      0.00
  -12   -9    4      1.29      0.00
  -11   -9    4     -0.18      0.00
  -10   -9    4     -0.15      0.00
   -9   -9    4     -0.54      0.00
   -8   -9    4      0.84      0.00
   -7   -9    4     -0.80      0.00
   -6   -9    4      4.06      0.00
   -5   -9    4     -6.04      0.00
   -4   -9    4      1.90      0.00
   -3   -9    4      3.53      0.00
   -2   -9    4     -5.52      0.00
   -1   -9    4      8.31      0.00
    0   -9    4    -10.11      0.00
    1   -9    4      2.61      0.00
    2   -9    4      4.32      0.00
    3   -9    4     -2.55      0.00
    4   -9    4      0.84      0.00
    5   -9    4     -5.03      0.00
    6   -9    4      5.72      0.00
    7   -9    4     -0.60      0.00
    8   -9    4     -1.76      0.00
  -12   -8    4      3.03      0.00
  -11   -8    4     -1.51      0.00
  -10   -8    4     -0.88      0.00
   -9   -8    4      0.84      0.00
   -8   -8    4      1.37      0.00
   -7   -8    4     -2.25      0.00
   -6   -8    4      3.14      0.00
   -5   -8    4     -5.78      0.00
   -4   -8    4      4.93      0.00
   -3   -8    4      1.43      0.00
   -2   -8    4     -6.27      0.00
   -1   -8    4      8.11      0.00
    0   -8    4    -11.79      0.00
    1   -8    4      8.97      0.00
    2   -8    4      2.61      0.00
    3   -8    4     -7.31      0.00
    4   -8    4      2.98      0.00
    5   -8    4     -1.35      0.00
    6   -8    4      4.60      0.00
    7   -8    4     -3.58      0.00
    8   -8    4     -2.07      0.00
  -12   -7    4      1.08      0.00
  -11   -7    4     -3.18      0.00
  -10   -7    4      0.56      0.00
   -9   -7    4      2.58      0.00
   -8   -7    4     -0.24      0.00
   -7   -7    4     -3.19      0.00
   -6   -7    4      4.87      0.00
   -5   -7    4     -5.37      0.00
   -4   -7    4      4.94      0.00
   -3   -7    4     -1.25      0.00
   -2   -7    4     -4.72      0.00
   -1   -7    4      8.16      0.00
    0   -7    4    -10.83      0.00
    1   -7    4     12.10      0.00
    2   -7    4     -4.08      0.00
    3   -7    4     -7.22      0.00
    4   -7    4      9.10      0.00
    5   -7    4     -1.92      0.00
    6   -7    4      1.11      0.00
    7   -7    4     -4.18      0.00
    8   -7    4     -0.38      0.00
    9   -7    4      2.10      0.00
  -13   -6    4      2.22      0.00
  -12   -6    4     -2.26      0.00
  -11   -6    4     -2.05      0.00
  -10   -6    4      2.88      0.00
   -9   -6    4      1.80      0.00
   -8   -6    4     -2.43      0.00
   -7   -6    4     -1.31      0.00
   -6   -6    4      6.89      0.00
   -5   -6    4     -7.81      0.00
   -4   -6    4      4.83      0.00
   -3   -6    4     -0.74      0.00
   -2   -6    4     -2.29      0.00
   -1   -6    4      6.89      0.00
    0   -6    4    -10.14      0.00
    1   -6    4     11.56      0.00
    2   -6    4     -9.23      0.00
    3   -6    4     -0.83      0.00
    4   -6    4     11.52      0.00
    5   -6    4     -7.67      0.00
    6   -6    4      0.38      0.00
    7   -6    4     -0.97      0.00
    8   -6    4      1.77      0.00
    9   -6    4      1.23      0.00
   10   -6    4     -1.68      0.00
  -13   -5    4     -0.23      0.00
  -12   -5    4     -2.62      0.00
  -11   -5    4      0.81      0.00
  -10   -5    4      2.98      0.00
   -9   -5    4     -1.76      0.00
   -8   -5    4     -1.61      0.00
   -7   -5    4      1.66      0.00
   -6   -5    4      5.57      0.00
   -5   -5    4    -11.00      0.00
   -4   -5    4      8.57      0.00
   -3   -5    4     -0.19      0.00
   -2   -5    4     -3.92      0.00
   -1   -5    4      5.91      0.00
    0   -5    4     -8.06      0.00
    1   -5    4     10.89      0.00
    2   -5    4    -10.30      0.00
    3   -5    4      5.98      0.00
    4   -5    4      6.08      0.00
    5   -5    4    -12.16      0.00
    6   -5    4      5.18      0.00
    7   -5    4      1.85      0.00
    8   -5    4      0.31      0.00
    9   -5    4     -1.05      0.00
   10   -5    4     -0.58      0.00
  -13   -4    4     -1.01      0.00
  -12   -4    4     -0.99      0.00
  -11   -4    4      2.63      0.00
  -10   -4    4      0.26      0.00
   -9   -4    4     -3.86      0.00
   -8   -4    4      2.79      0.00
   -7   -4    4      0.27      0.00
   -6   -4    4      1.61      0.00
   -5   -4    4     -9.83      0.00
   -4   -4    4     13.11      0.00
   -3   -4    4     -5.70      0.00
   -2   -4    4     -5.80      0.00
   -1   -4    4      9.95      0.00
    0   -4    4     -6.68      0.00
    1   -4    4      9.18      0.00
    2   -4    4     -9.19      0.00
    3   -4    4      8.61      0.00
    4   -4    4     -2.02      0.00
    5   -4    4     -8.75      0.00
    6   -4    4     10.56      0.00
    7   -4    4     -1.11      0.00
    8   -4    4     -3.02      0.00
    9   -4    4     -0.04      0.00
   10   -4    4      1.91      0.00
   11   -4    4     -0.74      0.00
  -12   -3    4     -0.13      0.00
  -11   -3    4      3.15      0.00
  -10   -3    4     -2.68      0.00
   -9   -3    4     -1.64      0.00
   -8   -3    4      5.05      0.00
   -7   -3    4     -6.04      0.00
   -6   -3    4      1.88      0.00
   -5   -3    4     -4.42      0.00
   -4   -3    4     11.07      0.00
   -3   -3    4    -12.50      0.00
   -2   -3    4      0.06      0.00
   -1   -3    4     12.93      0.00
    0   -3    4    -11.25      0.00
    1   -3    4      7.33      0.00
    2   -3    4     -6.84      0.00
    3   -3    4      7.38      0.00
    4   -3    4     -5.58      0.00
    5   -3    4     -0.47      0.00
    6   -3    4      9.04      0.00
    7   -3    4     -7.23      0.00
    8   -3    4     -2.17      0.00
    9   -3    4      3.21      0.00
   10   -3    4      0.87      0.00
   11   -3    4     -3.00      0.00
  -12   -2    4     -0.33      0.00
  -11   -2    4      3.05      0.00
  -10   -2    4     -4.02      0.00
   -9   -2    4      1.74      0.00
   -8   -2    4      2.42      0.00
   -7   -2    4     -8.94      0.00
   -6   -2    4      8.42      0.00
   -5   -2    4     -3.20      0.00
   -4   -2    4      3.36      0.00
   -3   -2    4    -10.04      0.00
   -2   -2    4      8.04      0.00
   -1   -2    4      6.00      0.00
    0   -2    4    -15.82      0.00
    1   -2    4      8.89      0.00
    2   -2    4     -4.98      0.00
    3   -2    4      4.18      0.00
    4   -2    4     -4.30      0.00
    5   -2    4      4.17      0.00
    6   -2    4      1.62      0.00
    7   -2    4     -8.48      0.00
    8   -2    4      3.01      0.00
    9   -2    4      3.28      0.00
   10   -2    4     -2.47      0.00
   11   -2    4     -2.31      0.00
   12   -2    4      1.43      0.00
  -12   -1    4     -0.93      0.00
  -11   -1    4      2.45      0.00
  -10   -1    4     -4.39      0.00
   -9   -1    4      3.24      0.00
   -8   -1    4      0.04      0.00
   -7   -1    4     -5.27      0.00
   -6   -1    4     12.05      0.00
   -5   -1    4     -9.79      0.00
   -4   -1    4      0.82      0.00
   -3   -1    4     -0.14      0.00
   -2   -1    4      6.44      0.00
   -1   -1    4     -3.67      0.00
    0   -1    4    -10.92      0.00
    1   -1    4     10.76      0.00
    2   -1    4     -5.19      0.00
    3   -1    4      1.78      0.00
    4   -1    4     -1.89      0.00
    5   -1    4      3.02      0.00
    6   -1    4     -3.87      0.00
    7   -1    4     -2.67      0.00
    8   -1    4      6.29      0.00
    9   -1    4     -0.41      0.00
   10   -1    4     -3.06      0.00
   11   -1    4      0.77      0.00
   12   -1    4      1.59      0.00
  -11    0    4      1.73      0.00
  -10    0    4     -4.47      0.00
   -9    0    4      4.02      0.00
   -8    0    4      0.04      0.00
   -7    0    4     -2.61      0.00
   -6    0    4      8.37      0.00
   -5    0    4    -14.54      0.00
   -4    0    4      8.04      0.00
   -3    0    4      3.70      0.00
   -2    0    4     -2.91      0.00
   -1    0    4     -3.43      0.00
    0    0    4     -1.40      0.00
    1    0    4      7.16      0.00
    2    0    4     -3.88      0.00
    3    0    4      2.53      0.00
    4    0    4     -1.04      0.00
    5    0    4      0.28      0.00
    6    0    4     -3.60      0.00
    7    0    4      4.35      0.00
    8    0    4      3.45      0.00
    9    0    4     -3.49      0.00
   10    0    4     -0.26      0.00
   11    0    4      2.47      0.00
   12    0    4      0.30      0.00
  -12    1    4     -1.37      0.00
  -11    1    4      1.68      0.00
  -10    1    4     -4.02      0.00
   -9    1    4      4.82      0.00
   -8    1    4     -1.29      0.00
   -7    1    4     -3.66      0.00
   -6    1    4      5.46      0.00
   -5    1    4    -10.85      0.00
   -4    1    4     14.52      0.00
   -3    1    4     -4.24      0.00
   -2    1    4     -6.76      0.00
   -1    1    4      5.45      0.00
    0    1    4     -0.10      0.00
    1    1    4      0.80      0.00
    2    1    4      2.94      0.00
    3    1    4      2.99      0.00
    4    1    4     -2.75      0.00
    5    1    4     -0.02      0.00
    6    1    4     -0.32      0.00
    7    1    4      6.47      0.00
    8    1    4     -3.15      0.00
    9    1    4     -2.26      0.00
   10    1    4      2.35      0.00
   11    1    4      1.23      0.00
   12    1    4     -1.22      0.00
   13    1    4     -0.77      0.00
  -11    2    4      2.66      0.00
  -10    2    4     -3.49      0.00
   -9    2    4      4.76      0.00
   -8    2    4     -4.05      0.00
   -7    2    4     -2.85      0.00
   -6    2    4      7.35      0.00
   -5    2    4     -6.54      0.00
   -4    2    4     11.41      0.00
   -3    2    4    -12.60      0.00
   -2    2    4      1.39      0.00
   -1    2    4      9.58      0.00
    0    2    4     -9.15      0.00
    1    2    4      1.01      0.00
    2    2    4     10.36      0.00
    3    2    4     -3.12      0.00
    4    2    4     -3.82      0.00
    5    2    4      3.03      0.00
    6    2    4      1.19      0.00
    7    2    4      3.40      0.00
    8    2    4     -7.18      0.00
    9    2    4      2.55      0.00
   10    2    4      1.63      0.00
   11    2    4     -1.01      0.00
   12    2    4     -1.19      0.00
   13    2    4      0.23      0.00
  -11    3    4      3.56      0.00
  -10    3    4     -3.89      0.00
   -9    3    4      4.42      0.00
   -8    3    4     -5.15      0.00
   -7    3    4      1.04      0.00
   -6    3    4      7.85      0.00
   -5    3    4     -8.31      0.00
   -4    3    4      5.99      0.00
   -3    3    4     -9.80      0.00
   -2    3    4     10.99      0.00
   -1    3    4      1.33      0.00
    0    3    4    -15.13      0.00
    1    3    4     10.24      0.00
    2    3    4      8.00      0.00
    3    3    4    -12.92      0.00
    4    3    4      1.41      0.00
    5    3    4      5.58      0.00
    6    3    4     -1.75      0.00
    7    3    4      0.16      0.00
    8    3    4     -5.46      0.00
    9    3    4      6.20      0.00
   10    3    4     -1.89      0.00
   11    3    4     -1.29      0.00
   12    3    4      0.16      0.00
   13    3    4      0.47      0.00
  -10    4    4     -4.55      0.00
   -9    4    4      4.72      0.00
   -8    4    4     -4.35      0.00
   -7    4    4      3.90      0.00
   -6    4    4      3.61      0.00
   -5    4    4    -10.66      0.00
   -4    4    4      7.72      0.00
   -3    4    4     -2.52      0.00
   -2    4    4      8.75      0.00
   -1    4    4     -8.83      0.00
    0    4    4     -6.89      0.00
    1    4    4     16.80      0.00
    2    4    4     -4.91      0.00
    3    4    4    -14.66      0.00
    4    4    4     11.60      0.00
    5    4    4      1.58      0.00
    6    4    4     -6.38      0.00
    7    4    4      1.80      0.00
    8    4    4     -1.73      0.00
    9    4    4      5.41      0.00
   10    4    4     -4.62      0.00
   11    4    4      0.74      0.00
   12    4    4      0.90      0.00
   13    4    4     -0.27      0.00
  -10    5    4     -3.76      0.00
   -9    5    4      5.08      0.00
   -8    5    4     -3.24      0.00
   -7    5    4      3.43      0.00
   -6    5    4     -1.33      0.00
   -5    5    4     -7.34      0.00
   -4    5    4     12.24      0.00
   -3    5    4     -3.37      0.00
   -2    5    4     -0.45      0.00
   -1    5    4     -6.67      0.00
    0    5    4      5.98      0.00
    1    5    4      9.71      0.00
    2    5    4    -14.86      0.00
    3    5    4     -3.88      0.00
    4    5    4     16.92      0.00
    5    5    4     -9.02      0.00
    6    5    4     -5.65      0.00
    7    5    4      7.36      0.00
    8    5    4     -1.97      0.00
    9    5    4      2.29      0.00
   10    5    4     -4.13      0.00
   11    5    4      3.13      0.00
   12    5    4      0.57      0.00
   13    5    4     -0.71      0.00
   -9    6    4      4.66      0.00
   -8    6    4     -2.95      0.00
   -7    6    4      0.81      0.00
   -6    6    4     -2.34      0.00
   -5    6    4     -1.14      0.00
   -4    6    4     10.76      0.00
   -3    6    4    -10.01      0.00
   -2    6    4     -2.25      0.00
   -1    6    4      3.68      0.00
    0    6    4      6.74      0.00
    1    6    4     -3.56      0.00
    2    6    4    -10.50      0.00
    3    6    4      8.65      0.00
    4    6    4     10.17      0.00
    5    6    4    -17.34      0.00
    6    6    4      3.64      0.00
    7    6    4      9.56      0.00
    8    6    4     -6.91      0.00
    9    6    4      1.62      0.00
   10    6    4     -1.26      0.00
   11    6    4      4.05      0.00
   12    6    4     -0.55      0.00
   13    6    4     -0.83      0.00
   -9    7    4      3.56      0.00
   -8    7    4     -3.61      0.00
   -7    7    4     -0.40      0.00
   -6    7    4      0.38      0.00
   -5    7    4      1.34      0.00
   -4    7    4      3.95      0.00
   -3    7    4    -11.40      0.00
   -2    7    4      4.58      0.00
   -1    7    4      7.45      0.00
    0    7    4     -3.45      0.00
    1    7    4     -7.20      0.00
    2    7    4      2.16      0.00
    3    7    4      9.26      0.00
    4    7    4     -3.02      0.00
    5    7    4    -13.84      0.00
    6    7    4     14.01      0.00
    7    7    4      2.93      0.00
    8    7    4    -10.10      0.00
    9    7    4      5.22      0.00
   10    7    4      0.52      0.00
   11    7    4      2.26      0.00
   12    7    4     -2.03      0.00
   13    7    4     -0.43      0.00
   -8    8    4     -3.69      0.00
   -7    8    4      1.45      0.00
   -6    8    4      1.95      0.00
   -5    8    4     -1.20      0.00
   -4    8    4     -0.69      0.00
   -3    8    4     -5.03      0.00
   -2    8    4      9.05      0.00
   -1    8    4      0.96      0.00
    0    8    4     -9.74      0.00
    1    8    4      1.11      0.00
    2    8    4      8.06      0.00
    3    8    4     -1.42      0.00
    4    8    4     -8.23      0.00
    5    8    4     -1.11      0.00
    6    8    4     13.73      0.00
    7    8    4     -7.27      0.00
    8    8    4     -5.51      0.00
    9    8    4      8.66      0.00
   10    8    4     -1.82      0.00
   11    8    4     -0.51      0.00
   12    8    4     -1.64      0.00
   13    8    4      0.82      0.00
   -7    9    4      3.14      0.00
   -6    9    4     -0.08      0.00
   -5    9    4     -3.37      0.00
   -4    9    4      0.53      0.00
   -3    9    4      1.35      0.00
   -2    9    4      4.73      0.00
   -1    9    4     -5.83      0.00
    0    9    4     -4.87      0.00
    1    9    4      9.06      0.00
    2    9    4      2.02      0.00
    3    9    4     -9.01      0.00
    4    9    4     -0.49      0.00
    5    9    4      6.20      0.00
    6    9    4      2.74      0.00
    7    9    4     -9.88      0.00
    8    9    4      3.24      0.00
    9    9    4      6.16      0.00
   10    9    4     -5.83      0.00
   11    9    4      0.05      0.00
   12    9    4      0.64      0.00
   13    9    4      0.93      0.00
   -7   10    4      2.18      0.00
   -6   10    4     -2.00      0.00
   -5   10    4     -1.56      0.00
   -4   10    4      3.27      0.00
   -3   10    4      1.32      0.00
   -2   10    4     -2.09      0.00
   -1   10    4     -3.97      0.00
    0   10    4      2.95      0.00
    1   10    4      6.57      0.00
    2   10    4     -6.11      0.00
    3   10    4     -4.88      0.00
    4   10    4      7.91      0.00
    5   10    4      0.83      0.00
    6   10    4     -5.39      0.00
    7   10    4     -3.02      0.00
    8   10    4      6.77      0.00
    9   10    4     -0.55      0.00
   10   10    4     -5.95      0.00
   11   10    4      3.51      0.00
   12   10    4      0.88      0.00
   -6   11    4     -1.30      0.00
   -5   11    4      0.84      0.00
   -4   11    4      2.76      0.00
   -3   11    4     -1.69      0.00
   -2   11    4     -2.67      0.00
   -1   11    4      2.12      0.00
    0   11    4      2.80      0.00
    1   11    4     -1.19      0.00
    2   11    4     -5.68      0.00
    3   11    4      2.72      0.00
    4   11    4      6.16      0.00
    5   11    4     -6.68      0.00
    6   11    4     -2.35      0.00
    7   11    4      3.51      0.00
    8   11    4      2.72      0.00
    9   11    4     -4.33      0.00
   10   11    4     -2.02      0.00
   11   11    4      4.86      0.00
   12   11    4     -1.59      0.00
   -5   12    4      0.88      0.00
   -4   12    4      0.84      0.00
   -3   12    4     -1.92      0.00
   -2   12    4      0.64      0.00
   -1   12    4      3.17      0.00
    0   12    4     -2.47      0.00
    1   12    4     -2.62      0.00
    2   12    4      0.28      0.00
    3   12    4      3.11      0.00
    4   12    4      0.18      0.00
    5   12    4     -5.63      0.00
    6   12    4      4.23      0.00
    7   12    4      2.60      0.00
    8   12    4     -2.32      0.00
    9   12    4     -2.37      0.00
   10   12    4      1.31      0.00
   11   12    4      2.89      0.00
   -3   13    4     -0.69      0.00
   -2   13    4      1.51      0.00
   -1   13    4      0.68      0.00
    0   13    4     -3.59      0.00
    1   13    4      1.91      0.00
    2   13    4      2.12      0.00
    3   13    4     -1.24      0.00
    4   13    4     -0.38      0.00
    5   13    4     -0.33      0.00
    6   13    4      4.71      0.00
    7   13    4     -1.86      0.00
    8   13    4     -2.73      0.00
    9   13    4      1.66      0.00
   10   13    4      1.61      0.00
   11   13    4      0.61      0.00
   -2   14    4      0.99      0.00
   -1   14    4     -0.15      0.00
    0   14    4     -1.33      0.00
    1   14    4      4.12      0.00
    2   14    4     -0.80      0.00
    3   14    4     -2.46      0.00
    4   14    4      2.69      0.00
    5   14    4      0.75      0.00
    6   14    4      0.81      0.00
    7   14    4     -3.13      0.00
    8   14    4      0.17      0.00
    9   14    4      3.27      0.00
   10   14    4      0.05      0.00
    0   15    4     -0.16      0.00
    1   15    4      2.83      0.00
    2   15    4     -2.74      0.00
    3   15    4     -0.39      0.00
    4   15    4      3.12      0.00
    5   15    4     -1.56      0.00
    6   15    4     -0.85      0.00
    7   15    4     -0.97      0.00
    8   15    4      1.86      0.00
    3   16    4      0.81      0.00
    4   16    4      1.09      0.00
    5   16    4     -2.17      0.00
   -6  -15    5      1.09      0.00
   -5  -15    5      0.30      0.00
   -3  -15    5      0.88      0.00
   -2  -15    5     -3.12      0.00
   -1  -15    5      1.95      0.00
   -8  -14    5     -0.65      0.00
   -7  -14    5     -0.03      0.00
   -6  -14    5      1.64      0.00
   -5  -14    5      0.55      0.00
   -4  -14    5     -1.96      0.00
   -3  -14    5      0.05      0.00
   -2  -14    5     -1.61      0.00
   -1  -14    5      2.50      0.00
    0  -14    5     -1.16      0.00
    1  -14    5     -1.47      0.00
   -9  -13    5     -2.19      0.00
   -8  -13    5      0.62      0.00
   -7  -13    5      1.03      0.00
   -6  -13    5      0.76      0.00
   -5  -13    5      0.25      0.00
   -4  -13    5     -3.03      0.00
   -3  -13    5      1.62      0.00
   -2  -13    5     -0.62      0.00
   -1  -13    5      1.60      0.00
    0  -13    5     -1.45      0.00
    1  -13    5     -1.34      0.00
    2  -13    5      2.51      0.00
    3  -13    5     -3.52      0.00
  -10  -12    5      0.37      0.00
   -9  -12    5     -2.29      0.00
   -8  -12    5      1.90      0.00
   -7  -12    5     -0.25      0.00
   -6  -12    5     -0.08      0.00
   -5  -12    5      0.61      0.00
   -4  -12    5     -2.45      0.00
   -3  -12    5      3.49      0.00
   -2  -12    5     -1.62      0.00
   -1  -12    5      1.08      0.00
    0  -12    5     -0.77      0.00
    1  -12    5     -0.68      0.00
    2  -12    5      2.33      0.00
    3  -12    5     -5.01      0.00
    4  -12    5      2.68      0.00
  -11  -11    5      0.75      0.00
  -10  -11    5     -0.10      0.00
   -9  -11    5     -2.17      0.00
   -8  -11    5      1.72      0.00
   -7  -11    5     -1.56      0.00
   -6  -11    5      0.70      0.00
   -5  -11    5      1.12      0.00
   -4  -11    5     -1.96      0.00
   -3  -11    5      4.34      0.00
   -2  -11    5     -3.57      0.00
   -1  -11    5      1.61      0.00
    0  -11    5      0.59      0.00
    1  -11    5     -0.66      0.00
    2  -11    5      1.00      0.00
    3  -11    5     -4.83      0.00
    4  -11    5      4.76      0.00
    5  -11    5     -1.22      0.00
  -11  -10    5      0.26      0.00
  -10  -10    5     -0.25      0.00
   -9  -10    5     -2.62      0.00
   -8  -10    5      2.78      0.00
   -7  -10    5     -1.90      0.00
   -6  -10    5      1.17      0.00
   -5  -10    5      0.48      0.00
   -4  -10    5     -1.85      0.00
   -3  -10    5      4.72      0.00
   -2  -10    5     -6.17      0.00
   -1  -10    5      4.00      0.00
    0  -10    5      1.36      0.00
    1  -10    5     -2.99      0.00
    2  -10    5      0.76      0.00
    3  -10    5     -2.38      0.00
    4  -10    5      4.65      0.00
    5  -10    5     -4.51      0.00
    6  -10    5     -1.55      0.00
    7  -10    5      2.84      0.00
  -12   -9    5      0.90      0.00
  -11   -9    5      0.09      0.00
  -10   -9    5     -1.05      0.00
   -9   -9    5     -1.47      0.00
   -8   -9    5      5.04      0.00
   -7   -9    5     -4.28      0.00
   -6   -9    5      1.14      0.00
   -5   -9    5      0.62      0.00
   -4   -9    5     -1.57      0.00
   -3   -9    5      3.95      0.00
   -2   -9    5     -7.98      0.00
   -1   -9    5      8.28      0.00
    0   -9    5     -1.50      0.00
    1   -9    5     -5.36      0.00
    2   -9    5      4.41      0.00
    3   -9    5     -1.07      0.00
    4   -9    5      1.78      0.00
    5   -9    5     -5.05      0.00
    6   -9    5      1.84      0.00
    7   -9    5      3.08      0.00
  -12   -8    5      1.36      0.00
  -11   -8    5     -1.06      0.00
  -10   -8    5     -1.59      0.00
   -9   -8    5      1.35      0.00
   -8   -8    5      4.20      0.00
   -7   -8    5     -7.97      0.00
   -6   -8    5      4.44      0.00
   -5   -8    5      1.64      0.00
   -4   -8    5     -3.25      0.00
   -3   -8    5      2.79      0.00
   -2   -8    5     -6.75      0.00
   -1   -8    5     10.95      0.00
    0   -8    5     -7.40      0.00
    1   -8    5     -2.78      0.00
    2   -8    5      8.76      0.00
    3   -8    5     -4.70      0.00
    4   -8    5     -0.18      0.00
    5   -8    5     -1.70      0.00
    6   -8    5      3.82      0.00
    7   -8    5      1.44      0.00
    8   -8    5     -2.32      0.00
  -12   -7    5      0.57      0.00
  -11   -7    5     -2.71      0.00
  -10   -7    5     -0.32      0.00
   -9   -7    5      2.67      0.00
   -8   -7    5      0.01      0.00
   -7   -7    5     -7.79      0.00
   -6   -7    5     10.50      0.00
   -5   -7    5     -1.55      0.00
   -4   -7    5     -6.42      0.00
   -3   -7    5      5.01      0.00
   -2   -7    5     -4.18      0.00
   -1   -7    5      9.07      0.00
    0   -7    5    -11.12      0.00
    1   -7    5      4.23      0.00
    2   -7    5      7.68      0.00
    3   -7    5    -10.57      0.00
    4   -7    5      2.92      0.00
    5   -7    5      1.59      0.00
    6   -7    5      1.51      0.00
    7   -7    5     -0.68      0.00
    8   -7    5     -2.11      0.00
    9   -7    5      0.64      0.00
  -12   -6    5     -1.51      0.00
  -11   -6    5     -1.84      0.00
  -10   -6    5      1.60      0.00
   -9   -6    5      1.06      0.00
   -8   -6    5     -2.98      0.00
   -7   -6    5     -2.81      0.00
   -6   -6    5     12.52      0.00
   -5   -6    5    -10.12      0.00
   -4   -6    5     -4.41      0.00
   -3   -6    5     10.68      0.00
   -2   -6    5     -6.07      0.00
   -1   -6    5      4.60      0.00
    0   -6    5     -9.39      0.00
    1   -6    5      9.82      0.00
    2   -6    5      0.75      0.00
    3   -6    5    -11.70      0.00
    4   -6    5      9.41      0.00
    5   -6    5     -0.40      0.00
    6   -6    5     -2.84      0.00
    7   -6    5     -0.32      0.00
    8   -6    5     -0.64      0.00
    9   -6    5      1.65      0.00
   10   -6    5      1.67      0.00
  -12   -5    5     -1.52      0.00
  -11   -5    5      0.68      0.00
  -10   -5    5      1.56      0.00
   -9   -5    5     -1.50      0.00
   -8   -5    5     -1.58      0.00
   -7   -5    5      1.90      0.00
   -6   -5    5      7.00      0.00
   -5   -5    5    -16.05      0.00
   -4   -5    5      6.10      0.00
   -3   -5    5     11.23      0.00
   -2   -5    5    -14.66      0.00
   -1   -5    5      4.61      0.00
    0   -5    5     -4.09      0.00
    1   -5    5      9.28      0.00
    2   -5    5     -6.57      0.00
    3   -5    5     -5.77      0.00
    4   -5    5     12.27      0.00
    5   -5    5     -7.01      0.00
    6   -5    5     -3.06      0.00
    7   -5    5      3.07      0.00
    8   -5    5     -0.22      0.00
    9   -5    5      0.30      0.00
   10   -5    5      0.39      0.00
  -12   -4    5      0.00      0.00
  -11   -4    5      0.99      0.00
  -10   -4    5      0.04      0.00
   -9   -4    5     -1.96      0.00
   -8   -4    5      2.86      0.00
   -7   -4    5      0.73      0.00
   -6   -4    5     -0.62      0.00
   -5   -4    5    -11.70      0.00
   -4   -4    5     16.02      0.00
   -3   -4    5     -0.20      0.00
   -2   -4    5    -19.77      0.00
   -1   -4    5     14.52      0.00
    0   -4    5     -2.66      0.00
    1   -4    5      2.94      0.00
    2   -4    5     -8.27      0.00
    3   -4    5      2.19      0.00
    4   -4    5      7.66      0.00
    5   -4    5    -10.96      0.00
    6   -4    5      2.60      0.00
    7   -4    5      4.87      0.00
    8   -4    5     -2.80      0.00
    9   -4    5     -0.89      0.00
   10   -4    5      1.63      0.00
   11   -4    5     -0.44      0.00
  -12   -3    5      0.09      0.00
  -10   -3    5     -0.24      0.00
   -9   -3    5     -0.25      0.00
   -8   -3    5      4.75      0.00
   -7   -3    5     -5.82      0.00
   -6   -3    5     -0.73      0.00
   -5   -3    5     -1.24      0.00
   -4   -3    5     13.32      0.00
   -3   -3    5    -14.07      0.00
   -2   -3    5     -8.73      0.00
   -1   -3    5     24.81      0.00
    0   -3    5    -11.94      0.00
    1   -3    5     -1.08      0.00
    2   -3    5     -2.79      0.00
    3   -3    5      5.19      0.00
    4   -3    5     -0.03      0.00
    5   -3    5     -7.69      0.00
    6   -3    5      7.71      0.00
    7   -3    5      1.55      0.00
    8   -3    5     -5.05      0.00
    9   -3    5      1.23      0.00
   10   -3    5      2.84      0.00
   11   -3    5     -1.94      0.00
  -12   -2    5     -0.50      0.00
  -11   -2    5      0.74      0.00
  -10   -2    5      0.34      0.00
   -9   -2    5     -0.01      0.00
   -8   -2    5      1.73      0.00
   -7   -2    5     -8.88      0.00
   -6   -2    5      7.88      0.00
   -5   -2    5      2.09      0.00
   -4   -2    5      0.61      0.00
   -3   -2    5    -13.30      0.00
   -2   -2    5     10.28      0.00
   -1   -2    5     17.82      0.00
    0   -2    5    -23.47      0.00
    1   -2    5      6.04      0.00
    2   -2    5      2.83      0.00
    3   -2    5      1.27      0.00
    4   -2    5     -3.62      0.00
    5   -2    5     -1.05      0.00
    6   -2    5      6.31      0.00
    7   -2    5     -3.54      0.00
    8   -2    5     -3.32      0.00
    9   -2    5      3.83      0.00
   10   -2    5      0.76      0.00
   11   -2    5     -3.10      0.00
   12   -2    5      1.28      0.00
  -12   -1    5     -0.38      0.00
  -11   -1    5      2.49      0.00
  -10   -1    5     -0.77      0.00
   -9   -1    5     -2.09      0.00
   -8   -1    5      0.09      0.00
   -7   -1    5     -3.90      0.00
   -6   -1    5     12.93      0.00
   -5   -1    5     -6.28      0.00
   -4   -1    5     -5.66      0.00
   -3   -1    5      1.53      0.00
   -2   -1    5     14.12      0.00
   -1   -1    5     -3.10      0.00
    0   -1    5    -18.89      0.00
    1   -1    5     17.34      0.00
    2   -1    5     -1.09      0.00
    3   -1    5     -3.33      0.00
    4   -1    5     -0.79      0.00
    5   -1    5      2.68      0.00
    6   -1    5      0.30      0.00
    7   -1    5     -4.68      0.00
    8   -1    5      0.89      0.00
    9   -1    5      3.18      0.00
   10   -1    5     -2.13      0.00
   11   -1    5     -1.72      0.00
   12   -1    5      2.34      0.00
  -12    0    5     -0.27      0.00
  -11    0    5      2.92      0.00
  -10    0    5     -2.90      0.00
   -9    0    5     -2.14      0.00
   -8    0    5      3.78      0.00
   -7    0    5     -0.23      0.00
   -6    0    5      6.67      0.00
   -5    0    5    -13.24      0.00
   -4    0    5      2.58      0.00
   -3    0    5     10.62      0.00
   -2    0    5     -1.49      0.00
   -1    0    5    -12.66      0.00
    0    0    5      1.12      0.00
    1    0    5     14.50      0.00
    2    0    5    -10.90      0.00
    3    0    5     -0.19      0.00
    4    0    5      3.17      0.00
    5    0    5      1.18      0.00
    6    0    5     -4.35      0.00
    7    0    5     -0.58      0.00
    8    0    5      3.06      0.00
    9    0    5     -0.02      0.00
   10    0    5     -2.66      0.00
   11    0    5      0.29      0.00
   12    0    5      1.90      0.00
  -11    1    5      2.32      0.00
  -10    1    5     -3.43      0.00
   -9    1    5      1.08      0.00
   -8    1    5      6.44      0.00
   -7    1    5     -4.81      0.00
   -6    1    5      0.12      0.00
   -5    1    5     -7.54      0.00
   -4    1    5     12.13      0.00
   -3    1    5      2.17      0.00
   -2    1    5    -14.29      0.00
   -1    1    5      0.04      0.00
    0    1    5     12.81      0.00
    1    1    5     -4.04      0.00
    2    1    5    -10.26      0.00
    3    1    5      8.32      0.00
    4    1    5      0.18      0.00
    5    1    5     -2.16      0.00
    6    1    5     -3.88      0.00
    7    1    5      4.54      0.00
    8    1    5      0.57      0.00
    9    1    5     -2.30      0.00
   10    1    5     -1.00      0.00
   11    1    5      0.87      0.00
   12    1    5      0.63      0.00
   13    1    5     -1.66      0.00
  -11    2    5      2.05      0.00
  -10    2    5     -2.61      0.00
   -9    2    5      3.30      0.00
   -8    2    5      3.41      0.00
   -7    2    5     -9.65      0.00
   -6    2    5      4.17      0.00
   -5    2    5      1.01      0.00
   -4    2    5      7.88      0.00
   -3    2    5    -10.59      0.00
   -2    2    5     -7.03      0.00
   -1    2    5     15.09      0.00
    0    2    5      2.35      0.00
    1    2    5    -16.14      0.00
    2    2    5      5.79      0.00
    3    2    5      8.49      0.00
    4    2    5     -8.91      0.00
    5    2    5     -0.31      0.00
    6    2    5     -0.19      0.00
    7    2    5      5.24      0.00
    8    2    5     -4.05      0.00
    9    2    5     -0.98      0.00
   10    2    5      0.71      0.00
   11    2    5      0.08      0.00
   12    2    5     -0.03      0.00
   13    2    5     -1.60      0.00
  -11    3    5      2.52      0.00
  -10    3    5     -2.58      0.00
   -9    3    5      2.55      0.00
   -8    3    5     -0.94      0.00
   -7    3    5     -7.04      0.00
   -6    3    5     11.32      0.00
   -5    3    5     -1.76      0.00
   -4    3    5     -3.05      0.00
   -3    3    5     -8.64      0.00
   -2    3    5      8.34      0.00
   -1    3    5     10.39      0.00
    0    3    5    -13.88      0.00
    1    3    5     -6.18      0.00
    2    3    5     19.46      0.00
    3    3    5     -5.51      0.00
    4    3    5    -11.42      0.00
    5    3    5      8.31      0.00
    6    3    5     -0.11      0.00
    7    3    5      1.54      0.00
    8    3    5     -5.32      0.00
    9    3    5      2.52      0.00
   10    3    5      0.42      0.00
   11    3    5     -0.72      0.00
   12    3    5      0.63      0.00
   13    3    5     -0.88      0.00
  -10    4    5     -3.75      0.00
   -9    4    5      1.30      0.00
   -8    4    5     -2.10      0.00
   -7    4    5     -1.06      0.00
   -6    4    5     10.40      0.00
   -5    4    5    -11.01      0.00
   -4    4    5     -3.31      0.00
   -3    4    5      4.20      0.00
   -2    4    5      8.93      0.00
   -1    4    5     -6.61      0.00
    0    4    5    -12.60      0.00
    1    4    5     11.73      0.00
    2    4    5     13.47      0.00
    3    4    5    -19.95      0.00
    4    4    5      0.62      0.00
    5    4    5     13.80      0.00
    6    4    5     -7.10      0.00
    7    4    5      0.15      0.00
    8    4    5     -2.19      0.00
    9    4    5      3.88      0.00
   10    4    5     -1.42      0.00
   11    4    5     -0.43      0.00
   12    4    5      1.29      0.00
   13    4    5     -0.79      0.00
  -10    5    5     -4.43      0.00
   -9    5    5      1.60      0.00
   -8    5    5     -0.74      0.00
   -7    5    5      1.51      0.00
   -6    5    5      3.42      0.00
   -5    5    5    -13.02      0.00
   -4    5    5      6.65      0.00
   -3    5    5      8.35      0.00
   -2    5    5     -5.03      0.00
   -1    5    5    -11.03      0.00
    0    5    5      3.31      0.00
    1    5    5     13.50      0.00
    2    5    5     -3.99      0.00
    3    5    5    -18.20      0.00
    4    5    5     16.80      0.00
    5    5    5      6.06      0.00
    6    5    5    -13.96      0.00
    7    5    5      5.74      0.00
    8    5    5     -0.17      0.00
    9    5    5      1.78      0.00
   10    5    5     -2.53      0.00
   11    5    5      0.42      0.00
   12    5    5      0.76      0.00
   13    5    5     -0.84      0.00
   -9    6    5      2.82      0.00
   -8    6    5      0.20      0.00
   -7    6    5     -0.29      0.00
   -6    6    5     -0.80      0.00
   -5    6    5     -6.18      0.00
   -4    6    5     11.96      0.00
   -3    6    5     -0.79      0.00
   -2    6    5    -12.76      0.00
   -1    6    5      2.22      0.00
    0    6    5     10.85      0.00
    1    6    5     -1.40      0.00
    2    6    5    -10.32      0.00
    3    6    5     -3.10      0.00
    4    6    5     19.68      0.00
    5    6    5     -9.50      0.00
    6    6    5    -10.29      0.00
    7    6    5     12.92      0.00
    8    6    5     -4.04      0.00
    9    6    5     -0.40      0.00
   10    6    5     -1.62      0.00
   11    6    5      1.10      0.00
   12    6    5     -0.30      0.00
   13    6    5     -0.49      0.00
   -9    7    5      3.02      0.00
   -8    7    5     -0.93      0.00
   -6    7    5      1.19      0.00
   -5    7    5      0.24      0.00
   -4    7    5      6.73      0.00
   -3    7    5     -9.25      0.00
   -2    7    5     -5.17      0.00
   -1    7    5     13.58      0.00
    0    7    5      1.10      0.00
    1    7    5    -11.77      0.00
    2    7    5      0.41      0.00
    3    7    5      6.40      0.00
    4    7    5      7.22      0.00
    5    7    5    -16.15      0.00
    6    7    5      2.39      0.00
    7    7    5     11.81      0.00
    8    7    5    -10.66      0.00
    9    7    5      1.38      0.00
   10    7    5      0.48      0.00
   11    7    5      0.83      0.00
   12    7    5     -1.38      0.00
   13    7    5     -0.32      0.00
   -8    8    5     -2.50      0.00
   -7    8    5     -1.34      0.00
   -6    8    5      4.65      0.00
   -5    8    5     -0.09      0.00
   -4    8    5     -0.95      0.00
   -3    8    5     -6.95      0.00
   -2    8    5      5.49      0.00
   -1    8    5      9.36      0.00
    0    8    5    -10.98      0.00
    1    8    5     -5.82      0.00
    2    8    5     11.50      0.00
    3    8    5      0.41      0.00
    4    8    5     -4.12      0.00
    5    8    5     -7.46      0.00
    6    8    5     10.48      0.00
    7    8    5      1.91      0.00
    8    8    5    -11.68      0.00
    9    8    5      6.47      0.00
   10    8    5      0.51      0.00
   11    8    5     -1.02      0.00
   12    8    5     -1.68      0.00
   13    8    5      0.20      0.00
   -6    9    5      3.84      0.00
   -5    9    5     -3.84      0.00
   -4    9    5     -2.23      0.00
   -3    9    5      0.96      0.00
   -2    9    5      6.12      0.00
   -1    9    5     -1.74      0.00
    0    9    5    -10.10      0.00
    1    9    5      5.69      0.00
    2    9    5      8.80      0.00
    3    9    5     -9.69      0.00
    4    9    5     -1.73      0.00
    5    9    5      3.64      0.00
    6    9    5      6.23      0.00
    7    9    5     -6.00      0.00
    8    9    5     -4.69      0.00
    9    9    5      8.69      0.00
   10    9    5     -3.23      0.00
   11    9    5     -1.92      0.00
   12    9    5      0.06      0.00
   13    9    5      0.81      0.00
   -6   10    5      0.30      0.00
   -4   10    5      1.66      0.00
   -3   10    5      3.75      0.00
   -2   10    5     -0.77      0.00
   -1   10    5     -4.45      0.00
    0   10    5     -0.33      0.00
    1   10    5      7.71      0.00
    2   10    5     -1.28      0.00
    3   10    5     -9.57      0.00
    4   10    5      6.77      0.00
    5   10    5      3.51      0.00
    6   10    5     -1.98      0.00
    7   10    5     -4.33      0.00
    8   10    5      2.56      0.00
    9   10    5      4.55      0.00
   10   10    5     -6.22      0.00
   11   10    5      0.86      0.00
   12   10    5      1.66      0.00
   -5   11    5     -1.14      0.00
   -4   11    5      3.15      0.00
   -3   11    5      0.19      0.00
   -2   11    5     -3.85      0.00
   -1   11    5      1.39      0.00
    0   11    5      3.84      0.00
    1   11    5      0.89      0.00
    2   11    5     -4.72      0.00
    3   11    5     -1.87      0.00
    4   11    5      7.85      0.00
    5   11    5     -3.71      0.00
    6   11    5     -2.87      0.00
    7   11    5      1.76      0.00
    8   11    5      2.91      0.00
    9   11    5     -0.81      0.00
   10   11    5     -4.32      0.00
   11   11    5      4.05      0.00
   12   11    5      0.43      0.00
   -4   12    5      0.92      0.00
   -3   12    5     -2.08      0.00
   -2   12    5     -1.05      0.00
   -1   12    5      4.29      0.00
    0   12    5     -0.54      0.00
    1   12    5     -3.19      0.00
    2   12    5     -0.13      0.00
    3   12    5      1.76      0.00
    4   12    5      2.23      0.00
    5   12    5     -5.91      0.00
    6   12    5      2.14      0.00
    7   12    5      3.41      0.00
    8   12    5     -1.21      0.00
    9   12    5     -1.69      0.00
   10   12    5     -0.85      0.00
   11   12    5      3.80      0.00
   -3   13    5     -0.90      0.00
   -2   13    5      0.60      0.00
   -1   13    5      1.73      0.00
    0   13    5     -4.04      0.00
    1   13    5     -0.71      0.00
    2   13    5      3.33      0.00
    3   13    5     -1.05      0.00
    4   13    5     -0.56      0.00
    5   13    5     -1.97      0.00
    6   13    5      4.14      0.00
    7   13    5      0.12      0.00
    8   13    5     -3.39      0.00
    9   13    5      0.56      0.00
   10   13    5     -0.08      0.00
   11   13    5      1.86      0.00
   -2   14    5     -0.05      0.00
   -1   14    5      0.22      0.00
    0   14    5     -3.09      0.00
    1   14    5      2.18      0.00
    2   14    5      1.69      0.00
    3   14    5     -3.63      0.00
    4   14    5      1.62      0.00
    5   14    5      0.38      0.00
    6   14    5      1.17      0.00
    7   14    5     -2.21      0.00
    8   14    5     -1.93      0.00
    9   14    5      1.99      0.00
   10   14    5     -1.12      0.00
    0   15    5     -1.69      0.00
    1   15    5      2.30      0.00
    2   15    5     -0.91      0.00
    3   15    5     -2.46      0.00
    4   15    5      3.32      0.00
    5   15    5     -1.27      0.00
    6   15    5     -1.14      0.00
    7   15    5     -1.08      0.00
    8   15    5      0.19      0.00
   -5  -15    6      1.17      0.00
   -4  -15    6     -0.41      0.00
   -3  -15    6      2.53      0.00
   -8  -14    6      0.49      0.00
   -7  -14    6     -0.88      0.00
   -6  -14    6      0.02      0.00
   -5  -14    6      1.75      0.00
   -4  -14    6     -0.21      0.00
   -3  -14    6      1.32      0.00
   -2  -14    6     -2.51      0.00
   -1  -14    6      0.78      0.00
    0  -14    6      1.95      0.00
    1  -14    6     -2.28      0.00
   -9  -13    6      0.06      0.00
   -8  -13    6      0.39      0.00
   -7  -13    6     -0.26      0.00
   -6  -13    6     -0.39      0.00
   -5  -13    6      1.89      0.00
   -4  -13    6     -2.17      0.00
   -3  -13    6      0.46      0.00
   -2  -13    6     -1.41      0.00
   -1  -13    6      1.40      0.00
    0  -13    6      1.04      0.00
    1  -13    6     -2.55      0.00
    2  -13    6      3.76      0.00
    3  -13    6     -2.21      0.00
  -10  -12    6      1.69      0.00
   -9  -12    6     -0.49      0.00
   -8  -12    6      0.45      0.00
   -7  -12    6     -0.51      0.00
   -6  -12    6     -0.62      0.00
   -5  -12    6      1.22      0.00
   -4  -12    6     -4.12      0.00
   -3  -12    6      1.98      0.00
   -2  -12    6     -0.20      0.00
   -1  -12    6      0.65      0.00
    0  -12    6     -0.02      0.00
    1  -12    6     -1.87      0.00
    2  -12    6      3.98      0.00
    3  -12    6     -3.24      0.00
    4  -12    6      1.42      0.00
  -11  -11    6      0.95      0.00
  -10  -11    6      2.05      0.00
   -9  -11    6     -1.87      0.00
   -8  -11    6      0.08      0.00
   -7  -11    6      0.22      0.00
   -6  -11    6     -0.08      0.00
   -5  -11    6      0.07      0.00
   -4  -11    6     -4.26      0.00
   -3  -11    6      4.45      0.00
   -2  -11    6     -0.62      0.00
   -1  -11    6     -0.86      0.00
    0  -11    6      0.34      0.00
    1  -11    6     -0.62      0.00
    2  -11    6      3.08      0.00
    3  -11    6     -3.25      0.00
    4  -11    6      3.17      0.00
    5  -11    6      1.44      0.00
  -11  -10    6      0.62      0.00
  -10  -10    6      1.15      0.00
   -9  -10    6     -4.50      0.00
   -8  -10    6      1.91      0.00
   -7  -10    6      2.28      0.00
   -6  -10    6     -1.35      0.00
   -5  -10    6     -0.61      0.00
   -4  -10    6     -2.50      0.00
   -3  -10    6      6.15      0.00
   -2  -10    6     -3.30      0.00
   -1  -10    6     -1.51      0.00
    0  -10    6      2.62      0.00
    1  -10    6     -1.07      0.00
    2  -10    6      1.32      0.00
    3  -10    6     -2.16      0.00
    4  -10    6      3.61      0.00
    5  -10    6     -0.31      0.00
  -11   -9    6     -0.04      0.00
  -10   -9    6     -0.79      0.00
   -9   -9    6     -5.35      0.00
   -8   -9    6      6.86      0.00
   -7   -9    6      0.45      0.00
   -6   -9    6     -4.76      0.00
   -5   -9    6      2.22      0.00
   -4   -9    6     -0.29      0.00
   -3   -9    6      5.05      0.00
   -2   -9    6     -6.97      0.00
   -1   -9    6      1.38      0.00
    0   -9    6      4.33      0.00
    1   -9    6     -4.58      0.00
    2   -9    6      1.20      0.00
    3   -9    6     -0.28      0.00
    4   -9    6      2.27      0.00
    5   -9    6     -1.66      0.00
    6   -9    6     -1.17      0.00
    7   -9    6      3.29      0.00
  -12   -8    6      1.33      0.00
  -11   -8    6     -0.73      0.00
  -10   -8    6     -1.98      0.00
   -9   -8    6     -1.95      0.00
   -8   -8    6      9.13      0.00
   -7   -8    6     -7.03      0.00
   -6   -8    6     -3.84      0.00
   -5   -8    6      8.56      0.00
   -4   -8    6     -2.65      0.00
   -3   -8    6      1.37      0.00
   -2   -8    6     -6.84      0.00
   -1   -8    6      6.86      0.00
    0   -8    6      1.25      0.00
    1   -8    6     -8.04      0.00
    2   -8    6      4.82      0.00
    3   -8    6      0.17      0.00
    4   -8    6     -0.45      0.00
    5   -8    6     -1.15      0.00
    6   -8    6      0.61      0.00
    7   -8    6      2.16      0.00
    8   -8    6     -1.43      0.00
  -12   -7    6      0.90      0.00
  -11   -7    6     -1.81      0.00
  -10   -7    6     -0.08      0.00
   -9   -7    6      1.77      0.00
   -8   -7    6      4.67      0.00
   -7   -7    6    -12.11      0.00
   -6   -7    6      5.06      0.00
   -5   -7    6     10.20      0.00
   -4   -7    6    -11.63      0.00
   -3   -7    6      1.99      0.00
   -2   -7    6     -1.25      0.00
   -1   -7    6      7.96      0.00
    0   -7    6     -5.74      0.00
    1   -7    6     -6.08      0.00
    2   -7    6      9.60      0.00
    3   -7    6     -3.17      0.00
    4   -7    6     -1.97      0.00
    5   -7    6      1.59      0.00
    6   -7    6      0.59      0.00
    7   -7    6      0.50      0.00
    8   -7    6     -1.31      0.00
    9   -7    6     -1.38      0.00
  -12   -6    6     -1.19      0.00
  -11   -6    6     -1.18      0.00
  -10   -6    6      3.07      0.00
   -9   -6    6      0.64      0.00
   -8   -6    6     -1.03      0.00
   -7   -6    6     -7.95      0.00
   -6   -6    6     13.91      0.00
   -5   -6    6      0.42      0.00
   -4   -6    6    -17.67      0.00
   -3   -6    6     12.44      0.00
   -2   -6    6      1.26      0.00
   -1   -6    6      1.22      0.00
    0   -6    6     -8.52      0.00
    1   -6    6      1.40      0.00
    2   -6    6      9.53      0.00
    3   -6    6     -8.60      0.00
    4   -6    6      0.73      0.00
    5   -6    6      4.01      0.00
    6   -6    6     -1.89      0.00
    7   -6    6      0.06      0.00
    8   -6    6     -0.99      0.00
    9   -6    6     -1.58      0.00
  -12   -5    6     -2.05      0.00
  -11   -5    6      1.35      0.00
  -10   -5    6      2.68      0.00
   -9   -5    6     -3.37      0.00
   -8   -5    6     -0.73      0.00
   -7   -5    6      0.42      0.00
   -6   -5    6     12.27      0.00
   -5   -5    6    -13.23      0.00
   -4   -5    6     -8.96      0.00
   -3   -5    6     23.49      0.00
   -2   -5    6     -8.82      0.00
   -1   -5    6     -4.40      0.00
    0   -5    6     -1.62      0.00
    1   -5    6      6.48      0.00
    2   -5    6      2.78      0.00
    3   -5    6    -10.25      0.00
    4   -5    6      6.21      0.00
    5   -5    6      2.46      0.00
    6   -5    6     -4.80      0.00
    7   -5    6      1.73      0.00
    8   -5    6     -0.34      0.00
    9   -5    6     -0.93      0.00
   10   -5    6      2.28      0.00
  -12   -4    6     -0.51      0.00
  -11   -4    6      1.85      0.00
  -10   -4    6     -0.86      0.00
   -9   -4    6     -3.98      0.00
   -8   -4    6      4.45      0.00
   -7   -4    6      2.38      0.00
   -6   -4    6      1.94      0.00
   -5   -4    6    -15.54      0.00
   -4   -4    6      9.17      0.00
   -3   -4    6     18.33      0.00
   -2   -4    6    -24.45      0.00
   -1   -4    6      3.89      0.00
    0   -4    6      7.31      0.00
    1   -4    6      1.90      0.00
    2   -4    6     -3.77      0.00
    3   -4    6     -5.02      0.00
    4   -4    6      8.83      0.00
    5   -4    6     -2.25      0.00
    6   -4    6     -4.77      0.00
    7   -4    6      4.44      0.00
    8   -4    6     -0.56      0.00
    9   -4    6     -1.10      0.00
   10   -4    6      2.20      0.00
   11   -4    6     -0.84      0.00
  -12   -3    6      0.41      0.00
  -11   -3    6     -0.25      0.00
  -10   -3    6     -1.88      0.00
   -9   -3    6     -0.19      0.00
   -8   -3    6      6.77      0.00
   -7   -3    6     -4.63      0.00
   -6   -3    6     -3.60      0.00
   -5   -3    6     -4.02      0.00
   -4   -3    6     16.62      0.00
   -3   -3    6     -2.27      0.00
   -2   -3    6    -25.00      0.00
   -1   -3    6     22.39      0.00
    0   -3    6      3.21      0.00
    1   -3    6     -7.68      0.00
    2   -3    6     -1.70      0.00
    3   -3    6      1.99      0.00
    4   -3    6      5.52      0.00
    5   -3    6     -5.06      0.00
    6   -3    6     -1.64      0.00
    7   -3    6      5.49      0.00
    8   -3    6     -2.48      0.00
    9   -3    6     -1.24      0.00
   10   -3    6      2.94      0.00
   11   -3    6     -1.40      0.00
  -12   -2    6     -0.20      0.00
  -11   -2    6     -0.90      0.00
  -10   -2    6      0.96      0.00
   -9   -2    6      2.11      0.00
   -8   -2    6      2.38      0.00
   -7   -2    6    -10.59      0.00
   -6   -2    6      3.52      0.00
   -5   -2    6      5.36      0.00
   -4   -2    6      5.25      0.00
   -3   -2    6    -15.35      0.00
   -2   -2    6     -4.77      0.00
   -1   -2    6     28.68      0.00
    0   -2    6    -15.26      0.00
    1   -2    6     -7.91      0.00
    2   -2    6      6.80      0.00
    3   -2    6      2.44      0.00
    4   -2    6     -0.34      0.00
    5   -2    6     -3.19      0.00
    6   -2    6      1.26      0.00
    7   -2    6      3.76      0.00
    8   -2    6     -4.36      0.00
    9   -2    6      0.06      0.00
   10   -2    6      2.93      0.00
   11   -2    6     -3.11      0.00
  -12   -1    6     -0.79      0.00
  -11   -1    6      0.80      0.00
  -10   -1    6      2.61      0.00
   -9   -1    6     -0.92      0.00
   -8   -1    6     -2.28      0.00
   -7   -1    6     -6.12      0.00
   -6   -1    6     12.64      0.00
   -5   -1    6     -0.70      0.00
   -4   -1    6     -7.97      0.00
   -3   -1    6     -6.11      0.00
   -2   -1    6     13.72      0.00
   -1   -1    6     10.62      0.00
    0   -1    6    -26.92      0.00
    1   -1    6      6.47      0.00
    2   -1    6      8.88      0.00
    3   -1    6     -4.09      0.00
    4   -1    6     -2.36      0.00
    5   -1    6      1.27      0.00
    6   -1    6      1.17      0.00
    7   -1    6      1.08      0.00
    8   -1    6     -3.96      0.00
    9   -1    6      1.91      0.00
   10   -1    6      1.76      0.00
   11   -1    6     -3.37      0.00
   12   -1    6      1.00      0.00
  -11    0    6      1.99      0.00
  -10    0    6      0.30      0.00
   -9    0    6     -4.90      0.00
   -8    0    6      0.31      0.00
   -7    0    6      2.16      0.00
   -6    0    6      9.04      0.00
   -5    0    6    -12.43      0.00
   -4    0    6     -4.22      0.00
   -3    0    6      9.91      0.00
   -2    0    6      8.80      0.00
   -1    0    6    -11.84      0.00
    0    0    6    -13.90      0.00
    1    0    6     19.00      0.00
    2    0    6     -2.23      0.00
    3    0    6     -6.94      0.00
    4    0    6      1.50      0.00
    5    0    6      3.56      0.00
    6    0    6     -1.72      0.00
    7    0    6      0.39      0.00
    8    0    6     -1.62      0.00
    9    0    6      2.63      0.00
   10    0    6      0.82      0.00
   11    0    6     -2.14      0.00
   12    0    6      2.14      0.00
  -10    1    6     -2.58      0.00
   -9    1    6     -4.27      0.00
   -8    1    6      6.37      0.00
   -7    1    6      1.28      0.00
   -6    1    6     -2.35      0.00
   -5    1    6    -10.83      0.00
   -4    1    6      9.55      0.00
   -3    1    6      8.71      0.00
   -2    1    6     -8.64      0.00
   -1    1    6    -11.65      0.00
    0    1    6      9.35      0.00
    1    1    6     10.62      0.00
    2    1    6    -13.73      0.00
    3    1    6      2.04      0.00
    4    1    6      4.15      0.00
    5    1    6      0.91      0.00
    6    1    6     -3.91      0.00
    7    1    6      2.61      0.00
    8    1    6     -0.18      0.00
    9    1    6      1.74      0.00
   10    1    6      0.44      0.00
   11    1    6     -1.32      0.00
   12    1    6      2.45      0.00
  -11    2    6      0.97      0.00
  -10    2    6     -2.62      0.00
   -9    2    6     -0.67      0.00
   -8    2    6      7.20      0.00
   -7    2    6     -7.02      0.00
   -6    2    6     -4.49      0.00
   -5    2    6      2.47      0.00
   -4    2    6     11.22      0.00
   -3    2    6     -7.03      0.00
   -2    2    6    -10.90      0.00
   -1    2    6      6.11      0.00
    0    2    6     13.36      0.00
    1    2    6    -10.41      0.00
    2    2    6     -7.96      0.00
    3    2    6     13.32      0.00
    4    2    6     -2.65      0.00
    5    2    6     -2.11      0.00
    6    2    6     -1.91      0.00
    7    2    6      4.71      0.00
    8    2    6     -1.39      0.00
    9    2    6      0.64      0.00
   10    2    6      0.25      0.00
   11    2    6     -1.28      0.00
   12    2    6      2.40      0.00
   13    2    6     -0.99      0.00
  -10    3    6     -0.96      0.00
   -9    3    6      1.14      0.00
   -8    3    6      2.84      0.00
   -7    3    6    -10.41      0.00
   -6    3    6      4.57      0.00
   -5    3    6      8.09      0.00
   -4    3    6     -2.27      0.00
   -3    3    6    -12.64      0.00
   -2    3    6      5.18      0.00
   -1    3    6     12.31      0.00
    0    3    6     -2.98      0.00
    1    3    6    -16.98      0.00
    2    3    6     10.44      0.00
    3    3    6      9.79      0.00
    4    3    6    -13.73      0.00
    5    3    6      2.32      0.00
    6    3    6      1.35      0.00
    7    3    6      3.00      0.00
    8    3    6     -2.95      0.00
    9    3    6      0.57      0.00
   10    3    6     -0.06      0.00
   11    3    6     -1.26      0.00
   12    3    6      2.27      0.00
   13    3    6     -1.59      0.00
  -10    4    6     -0.43      0.00
   -9    4    6      0.44      0.00
   -8    4    6     -0.14      0.00
   -7    4    6     -5.43      0.00
   -6    4    6     10.86      0.00
   -5    4    6     -0.32      0.00
   -4    4    6    -11.12      0.00
   -3    4    6      0.35      0.00
   -2    4    6     14.69      0.00
   -1    4    6     -1.93      0.00
    0    4    6    -11.76      0.00
    1    4    6     -2.94      0.00
    2    4    6     18.48      0.00
    3    4    6     -7.52      0.00
    4    4    6    -13.84      0.00
    5    4    6     12.17      0.00
    6    4    6     -1.60      0.00
    7    4    6     -0.45      0.00
    8    4    6     -1.90      0.00
    9    4    6      0.61      0.00
   10    4    6     -0.24      0.00
   11    4    6     -0.60      0.00
   12    4    6      1.92      0.00
   13    4    6     -2.23      0.00
  -10    5    6     -1.48      0.00
   -9    5    6     -0.13      0.00
   -8    5    6      0.97      0.00
   -7    5    6      0.04      0.00
   -6    5    6      7.10      0.00
   -5    5    6     -8.97      0.00
   -4    5    6     -4.40      0.00
   -3    5    6     12.88      0.00
   -2    5    6      3.67      0.00
   -1    5    6    -14.26      0.00
    0    5    6      0.38      0.00
    1    5    6      8.64      0.00
    2    5    6      7.73      0.00
    3    5    6    -18.27      0.00
    4    5    6      0.34      0.00
    5    5    6     14.79      0.00
    6    5    6    -10.60      0.00
    7    5    6      0.86      0.00
    8    5    6      0.48      0.00
    9    5    6     -0.27      0.00
   10    5    6      0.20      0.00
   11    5    6      0.17      0.00
   12    5    6      0.98      0.00
   13    5    6     -2.25      0.00
   -9    6    6      0.86      0.00
   -8    6    6      2.89      0.00
   -7    6    6     -0.22      0.00
   -5    6    6     -7.22      0.00
   -4    6    6      6.22      0.00
   -3    6    6      9.49      0.00
   -2    6    6    -11.87      0.00
   -1    6    6     -7.34      0.00
    0    6    6     14.81      0.00
    1    6    6      1.33      0.00
    2    6    6     -4.40      0.00
    3    6    6    -10.89      0.00
    4    6    6     12.77      0.00
    5    6    6      4.65      0.00
    6    6    6    -14.91      0.00
    7    6    6      7.91      0.00
    8    6    6      0.09      0.00
    9    6    6     -1.45      0.00
   10    6    6      0.78      0.00
   11    6    6      0.35      0.00
   12    6    6      0.21      0.00
   13    6    6     -0.91      0.00
   -7    7    6     -3.47      0.00
   -6    7    6     -0.73      0.00
   -5    7    6     -0.26      0.00
   -4    7    6      7.44      0.00
   -3    7    6     -1.79      0.00
   -2    7    6    -12.76      0.00
   -1    7    6      7.90      0.00
    0    7    6     12.05      0.00
    1    7    6    -12.58      0.00
    2    7    6     -1.33      0.00
    3    7    6      1.76      0.00
    4    7    6      9.67      0.00
    5    7    6     -6.66      0.00
    6    7    6     -8.17      0.00
    7    7    6     12.80      0.00
    8    7    6     -4.24      0.00
    9    7    6     -1.40      0.00
   10    7    6      1.37      0.00
   11    7    6      0.44      0.00
   12    7    6      0.07      0.00
   13    7    6      0.44      0.00
   -8    8    6      0.10      0.00
   -7    8    6     -3.85      0.00
   -6    8    6      2.50      0.00
   -5    8    6      2.30      0.00
   -4    8    6      0.80      0.00
   -3    8    6     -5.96      0.00
   -2    8    6     -1.95      0.00
   -1    8    6     11.93      0.00
    0    8    6     -1.80      0.00
    1    8    6    -13.67      0.00
    2    8    6     10.18      0.00
    3    8    6      2.47      0.00
    4    8    6     -1.23      0.00
    5    8    6     -6.43      0.00
    6    8    6      1.40      0.00
    7    8    6      9.23      0.00
    8    8    6     -8.12      0.00
    9    8    6      1.36      0.00
   10    8    6      2.11      0.00
   11    8    6     -0.15      0.00
   12    8    6     -0.15      0.00
   13    8    6      0.73      0.00
   -7    9    6     -1.39      0.00
   -6    9    6      3.79      0.00
   -5    9    6     -0.68      0.00
   -4    9    6     -3.92      0.00
   -3    9    6     -0.70      0.00
   -2    9    6      4.64      0.00
   -1    9    6      3.19      0.00
    0    9    6     -8.08      0.00
    1    9    6     -2.72      0.00
    2    9    6     13.24      0.00
    3    9    6     -6.17      0.00
    4    9    6     -3.70      0.00
    5    9    6      1.26      0.00
    6    9    6      3.01      0.00
    7    9    6      1.64      0.00
    8    9    6     -6.54      0.00
    9    9    6      5.18      0.00
   10    9    6      0.83      0.00
   11    9    6     -1.75      0.00
   12    9    6      0.31      0.00
   -6   10    6      1.82      0.00
   -5   10    6     -3.10      0.00
   -4   10    6     -2.15      0.00
   -3   10    6      4.69      0.00
   -2   10    6      0.75      0.00
   -1   10    6     -3.84      0.00
    0   10    6     -2.35      0.00
    1   10    6      4.29      0.00
    2   10    6      5.66      0.00
    3   10    6     -9.74      0.00
    4   10    6      2.90      0.00
    5   10    6      3.75      0.00
    6   10    6     -1.75      0.00
    7   10    6     -1.45      0.00
    8   10    6     -1.36      0.00
    9   10    6      5.34      0.00
   10   10    6     -2.57      0.00
   11   10    6     -1.55      0.00
   12   10    6      1.77      0.00
   -5   11    6     -1.85      0.00
   -4   11    6      1.31      0.00
   -3   11    6      3.55      0.00
   -2   11    6     -4.52      0.00
   -1   11    6     -1.14      0.00
    0   11    6      3.06      0.00
    1   11    6      1.04      0.00
    2   11    6     -0.74      0.00
    3   11    6     -5.03      0.00
    4   11    6      6.68      0.00
    5   11    6     -0.86      0.00
    6   11    6     -3.81      0.00
    7   11    6      0.86      0.00
    8   11    6      1.02      0.00
    9   11    6      1.86      0.00
   10   11    6     -3.66      0.00
   11   11    6      0.85      0.00
   12   11    6      1.70      0.00
   -4   12    6      1.36      0.00
   -3   12    6      0.13      0.00
   -2   12    6     -3.33      0.00
   -1   12    6      3.36      0.00
    0   12    6      0.74      0.00
    1   12    6     -3.27      0.00
    2   12    6      0.14      0.00
    3   12    6     -0.69      0.00
    4   12    6      3.56      0.00
    5   12    6     -4.04      0.00
    6   12    6     -0.60      0.00
    7   12    6      2.81      0.00
    8   12    6     -0.88      0.00
    9   12    6      0.18      0.00
   10   12    6     -1.75      0.00
   11   12    6      1.69      0.00
   -3   13    6     -0.20      0.00
   -2   13    6     -0.30      0.00
   -1   13    6      2.61      0.00
    0   13    6     -2.66      0.00
    1   13    6     -1.88      0.00
    2   13    6      3.07      0.00
    3   13    6     -1.20      0.00
    4   13    6      0.14      0.00
    5   13    6     -1.66      0.00
    6   13    6      2.28      0.00
    7   13    6      1.31      0.00
    8   13    6     -2.74      0.00
    9   13    6      1.65      0.00
   10   13    6     -0.78      0.00
   -1   14    6      0.76      0.00
    0   14    6     -2.09      0.00
    1   14    6      1.04      0.00
    2   14    6      3.08      0.00
    3   14    6     -2.96      0.00
    4   14    6      0.81      0.00
    5   14    6      1.44      0.00
    6   14    6      0.93      0.00
    7   14    6     -0.69      0.00
    8   14    6     -2.03      0.00
    9   14    6      2.71      0.00
    1   15    6      1.54      0.00
    2   15    6      1.38      0.00
    3   15    6     -2.59      0.00
    4   15    6      2.64      0.00
    5   15    6      0.81      0.00
    6   15    6     -1.39      0.00
    7   15    6     -0.26      0.00
    8   15    6     -0.63      0.00
   -7  -14    7     -0.59      0.00
   -6  -14    7      0.00      0.00
   -5  -14    7      0.94      0.00
   -4  -14    7     -0.35      0.00
   -3  -14    7      1.21      0.00
   -2  -14    7     -0.73      0.00
   -1  -14    7     -1.93      0.00
    0  -14    7      1.89      0.00
   -8  -13    7      0.21      0.00
   -7  -13    7     -0.11      0.00
   -6  -13    7     -0.11      0.00
   -5  -13    7      2.35      0.00
   -4  -13    7     -0.65      0.00
   -3  -13    7     -0.26      0.00
   -2  -13    7     -1.75      0.00
   -1  -13    7     -0.54      0.00
    0  -13    7      2.75      0.00
    1  -13    7     -3.11      0.00
    2  -13    7      1.98      0.00
   -9  -12    7      0.76      0.00
   -8  -12    7      0.13      0.00
   -7  -12    7     -0.60      0.00
   -6  -12    7      0.08      0.00
   -5  -12    7      3.41      0.00
   -4  -12    7     -2.69      0.00
   -3  -12    7     -0.73      0.00
   -1  -12    7      1.05      0.00
    0  -12    7      1.80      0.00
    1  -12    7     -3.45      0.00
    2  -12    7      2.64      0.00
    3  -12    7     -1.97      0.00
    4  -12    7     -0.31      0.00
  -10  -11    7      1.61      0.00
   -9  -11    7      0.34      0.00
   -8  -11    7     -1.86      0.00
   -7  -11    7     -0.57      0.00
   -6  -11    7      1.32      0.00
   -5  -11    7      2.44      0.00
   -4  -11    7     -4.48      0.00
   -3  -11    7      1.33      0.00
   -2  -11    7      1.00      0.00
   -1  -11    7      0.30      0.00
    0  -11    7      0.15      0.00
    1  -11    7     -2.32      0.00
    2  -11    7      2.88      0.00
    3  -11    7     -1.88      0.00
    4  -11    7      0.83      0.00
    5  -11    7      0.63      0.00
  -11  -10    7      1.01      0.00
  -10  -10    7      2.84      0.00
   -9  -10    7     -2.63      0.00
   -8  -10    7     -2.97      0.00
   -7  -10    7      2.81      0.00
   -6  -10    7      0.52      0.00
   -5  -10    7     -0.63      0.00
   -4  -10    7     -3.55      0.00
   -3  -10    7      4.49      0.00
   -2  -10    7      0.37      0.00
   -1  -10    7     -2.32      0.00
    0  -10    7      0.66      0.00
    1  -10    7     -0.64      0.00
    2  -10    7      1.98      0.00
    3  -10    7     -1.75      0.00
    4  -10    7      0.28      0.00
    5  -10    7     -0.83      0.00
    6  -10    7     -2.08      0.00
  -11   -9    7      1.26      0.00
  -10   -9    7      1.96      0.00
   -9   -9    7     -6.04      0.00
   -8   -9    7      1.46      0.00
   -7   -9    7      5.61      0.00
   -6   -9    7     -5.40      0.00
   -5   -9    7     -0.99      0.00
   -4   -9    7      0.53      0.00
   -3   -9    7      5.07      0.00
   -2   -9    7     -3.41      0.00
   -1   -9    7     -3.05      0.00
    0   -9    7      3.92      0.00
    1   -9    7     -0.79      0.00
    2   -9    7      0.24      0.00
    3   -9    7     -1.58      0.00
    4   -9    7     -0.38      0.00
    5   -9    7     -0.88      0.00
    6   -9    7     -1.15      0.00
    7   -9    7      1.49      0.00
  -11   -8    7     -0.29      0.00
  -10   -8    7     -0.49      0.00
   -9   -8    7     -4.94      0.00
   -8   -8    7      8.15      0.00
   -7   -8    7      0.96      0.00
   -6   -8    7    -10.77      0.00
   -5   -8    7      6.17      0.00
   -4   -8    7      2.48      0.00
   -3   -8    7      0.23      0.00
   -2   -8    7     -6.16      0.00
   -1   -8    7      1.09      0.00
    0   -8    7      5.98      0.00
    1   -8    7     -3.96      0.00
    2   -8    7     -0.37      0.00
    3   -8    7     -0.11      0.00
    4   -8    7     -0.08      0.00
    5   -8    7     -0.07      0.00
    6   -8    7     -0.26      0.00
    7   -8    7      0.57      0.00
    8   -8    7     -0.67      0.00
  -12   -7    7      0.52      0.00
  -11   -7    7     -3.05      0.00
  -10   -7    7     -0.33      0.00
   -9   -7    7     -0.18      0.00
   -8   -7    7      8.13      0.00
   -7   -7    7     -7.82      0.00
   -6   -7    7     -6.48      0.00
   -5   -7    7     15.35      0.00
   -4   -7    7     -4.79      0.00
   -3   -7    7     -4.95      0.00
   -2   -7    7     -1.64      0.00
   -1   -7    7      5.81      0.00
    0   -7    7      2.24      0.00
    1   -7    7     -7.04      0.00
    2   -7    7      2.36      0.00
    3   -7    7      1.66      0.00
    4   -7    7     -0.71      0.00
    5   -7    7      0.36      0.00
    6   -7    7     -0.16      0.00
    7   -7    7     -0.28      0.00
    8   -7    7      1.27      0.00
    9   -7    7     -0.35      0.00
  -12   -6    7     -1.38      0.00
  -11   -6    7     -3.62      0.00
  -10   -6    7      3.56      0.00
   -9   -6    7      0.66      0.00
   -8   -6    7      1.52      0.00
   -7   -6    7     -9.69      0.00
   -6   -6    7      5.18      0.00
   -5   -6    7     14.20      0.00
   -4   -6    7    -17.75      0.00
   -3   -6    7      0.27      0.00
   -2   -6    7      6.86      0.00
   -1   -6    7      2.32      0.00
    0   -6    7     -4.11      0.00
    1   -6    7     -4.60      0.00
    2   -6    7      6.56      0.00
    3   -6    7      0.34      0.00
    4   -6    7     -2.59      0.00
    5   -6    7      1.37      0.00
    6   -6    7     -0.25      0.00
    7   -6    7     -0.03      0.00
    8   -6    7      2.19      0.00
    9   -6    7     -2.66      0.00
  -12   -5    7     -2.13      0.00
  -11   -5    7     -0.55      0.00
  -10   -5    7      5.51      0.00
   -9   -5    7     -4.19      0.00
   -8   -5    7     -1.45      0.00
   -7   -5    7     -2.59      0.00
   -6   -5    7     11.05      0.00
   -5   -5    7      0.70      0.00
   -4   -5    7    -21.41      0.00
   -3   -5    7     15.98      0.00
   -2   -5    7      5.55      0.00
   -1   -5    7     -8.62      0.00
    0   -5    7     -3.07      0.00
    1   -5    7      2.21      0.00
    2   -5    7      6.28      0.00
    3   -5    7     -3.83      0.00
    4   -5    7     -2.72      0.00
    5   -5    7      3.28      0.00
    6   -5    7     -1.02      0.00
    7   -5    7     -0.12      0.00
    8   -5    7      1.00      0.00
    9   -5    7     -3.69      0.00
   10   -5    7      1.85      0.00
  -12   -4    7     -1.03      0.00
  -11   -4    7      2.13      0.00
  -10   -4    7      2.36      0.00
   -9   -4    7     -7.26      0.00
   -8   -4    7      3.47      0.00
   -7   -4    7      2.85      0.00
   -6   -4    7      4.54      0.00
   -5   -4    7    -10.79      0.00
   -4   -4    7     -8.28      0.00
   -3   -4    7     25.23      0.00
   -2   -4    7    -10.76      0.00
   -1   -4    7    -12.29      0.00
    0   -4    7      7.54      0.00
    1   -4    7      3.81      0.00
    2   -4    7      0.24      0.00
    3   -4    7     -5.41      0.00
    4   -4    7     -0.09      0.00
    5   -4    7      4.32      0.00
    6   -4    7     -2.83      0.00
    7   -4    7     -0.30      0.00
    8   -4    7      0.71      0.00
    9   -4    7     -2.56      0.00
   10   -4    7      2.84      0.00
  -12   -3    7     -0.04      0.00
  -11   -3    7      1.44      0.00
  -10   -3    7     -1.36      0.00
   -9   -3    7     -4.03      0.00
   -8   -3    7      8.63      0.00
   -7   -3    7     -1.47      0.00
   -6   -3    7     -4.30      0.00
   -5   -3    7     -7.12      0.00
   -4   -3    7      7.77      0.00
   -3   -3    7     14.56      0.00
   -2   -3    7    -25.68      0.00
   -1   -3    7      1.56      0.00
    0   -3    7     14.92      0.00
    1   -3    7     -4.70      0.00
    2   -3    7     -3.87      0.00
    3   -3    7     -1.40      0.00
    4   -3    7      1.98      0.00
    5   -3    7      3.40      0.00
    6   -3    7     -4.62      0.00
    7   -3    7      1.10      0.00
    8   -3    7      1.84      0.00
    9   -3    7     -2.07      0.00
   10   -3    7      2.95      0.00
   11   -3    7     -0.19      0.00
  -12   -2    7     -0.07      0.00
  -11   -2    7     -0.28      0.00
  -10   -2    7     -1.06      0.00
   -9   -2    7      0.85      0.00
   -8   -2    7      6.44      0.00
   -7   -2    7     -9.56      0.00
   -6   -2    7     -1.97      0.00
   -5   -2    7      4.47      0.00
   -4   -2    7      7.99      0.00
   -3   -2    7     -4.62      0.00
   -2   -2    7    -19.88      0.00
   -1   -2    7     20.48      0.00
    0   -2    7      5.96      0.00
    1   -2    7    -13.74      0.00
    2   -2    7      0.81      0.00
    3   -2    7      3.42      0.00
    4   -2    7      0.24      0.00
    5   -2    7      1.53      0.00
    6   -2    7     -5.10      0.00
    7   -2    7      3.56      0.00
    8   -2    7      1.67      0.00
    9   -2    7     -3.08      0.00
   10   -2    7      3.09      0.00
   11   -2    7     -1.38      0.00
  -11   -1    7     -0.12      0.00
  -10   -1    7      1.75      0.00
   -9   -1    7      1.16      0.00
   -8   -1    7     -0.30      0.00
   -7   -1    7     -9.69      0.00
   -6   -1    7      8.72      0.00
   -5   -1    7      5.62      0.00
   -4   -1    7     -4.48      0.00
   -3   -1    7     -9.18      0.00
   -2   -1    7      0.48      0.00
   -1   -1    7     21.41      0.00
    0   -1    7    -12.52      0.00
    1   -1    7     -9.35      0.00
    2   -1    7      9.07      0.00
    3   -1    7      2.13      0.00
    4   -1    7     -3.61      0.00
    5   -1    7      1.20      0.00
    6   -1    7     -4.06      0.00
    7   -1    7      4.84      0.00
    8   -1    7     -0.55      0.00
    9   -1    7     -3.83      0.00
   10   -1    7      3.40      0.00
   11   -1    7     -2.37      0.00
  -11    0    7      1.72      0.00
  -10    0    7      2.75      0.00
   -9    0    7     -2.77      0.00
   -8    0    7     -2.56      0.00
   -7    0    7     -1.15      0.00
   -6    0    7     12.05      0.00
   -5    0    7     -5.85      0.00
   -4    0    7     -8.59      0.00
   -3    0    7      3.03      0.00
   -2    0    7      9.75      0.00
   -1    0    7      2.92      0.00
    0    0    7    -18.07      0.00
    1    0    7      6.44      0.00
    2    0    7      8.09      0.00
    3    0    7     -3.73      0.00
    4    0    7     -4.01      0.00
    5    0    7      3.19      0.00
    6    0    7     -3.13      0.00
    7    0    7      4.08      0.00
    8    0    7     -2.77      0.00
    9    0    7     -3.02      0.00
   10    0    7      3.92      0.00
   11    0    7     -2.92      0.00
   12    0    7      0.90      0.00
  -11    1    7      2.94      0.00
  -10    1    7      0.68      0.00
   -9    1    7     -5.01      0.00
   -8    1    7      2.38      0.00
   -7    1    7      4.61      0.00
   -6    1    7      2.79      0.00
   -5    1    7    -12.36      0.00
   -4    1    7      2.99      0.00
   -3    1    7     10.20      0.00
   -2    1    7     -0.70      0.00
   -1    1    7     -9.93      0.00
    0    1    7     -3.46      0.00
    1    1    7     13.94      0.00
    2    1    7     -3.75      0.00
    3    1    7     -3.99      0.00
    4    1    7     -0.02      0.00
    5    1    7      4.01      0.00
    6    1    7     -3.83      0.00
    7    1    7      2.70      0.00
    8    1    7     -3.34      0.00
    9    1    7     -0.92      0.00
   10    1    7      3.96      0.00
   11    1    7     -4.00      0.00
   12    1    7      0.83      0.00
  -11    2    7      2.12      0.00
  -10    2    7     -1.28      0.00
   -9    2    7     -2.59      0.00
   -8    2    7      7.16      0.00
   -7    2    7      0.64      0.00
   -6    2    7     -6.11      0.00
   -5    2    7     -3.64      0.00
   -4    2    7     12.83      0.00
   -3    2    7     -0.25      0.00
   -2    2    7    -10.04      0.00
   -1    2    7     -2.29      0.00
    0    2    7     10.13      0.00
    1    2    7      3.18      0.00
    2    2    7    -10.73      0.00
    3    2    7      4.93      0.00
    4    2    7      0.96      0.00
    5    2    7      1.39      0.00
    6    2    7     -4.25      0.00
    7    2    7      2.28      0.00
    8    2    7     -2.44      0.00
    9    2    7      1.07      0.00
   10    2    7      2.59      0.00
   11    2    7     -4.91      0.00
   12    2    7      1.69      0.00
  -10    3    7     -0.67      0.00
   -9    3    7      0.31      0.00
   -8    3    7      5.32      0.00
   -7    3    7     -6.08      0.00
   -6    3    7     -3.36      0.00
   -5    3    7      8.01      0.00
   -4    3    7      5.96      0.00
   -3    3    7    -12.69      0.00
   -2    3    7     -1.21      0.00
   -1    3    7      8.22      0.00
    0    3    7      4.93      0.00
    1    3    7     -9.43      0.00
    2    3    7     -2.31      0.00
    3    3    7     11.65      0.00
    4    3    7     -5.51      0.00
    5    3    7      0.26      0.00
    6    3    7     -2.09      0.00
    7    3    7      2.13      0.00
    8    3    7     -1.03      0.00
    9    3    7      1.53      0.00
   10    3    7      0.46      0.00
   11    3    7     -4.11      0.00
   12    3    7      3.26      0.00
   13    3    7     -0.29      0.00
  -10    4    7      0.49      0.00
   -9    4    7     -0.47      0.00
   -8    4    7      0.29      0.00
   -7    4    7     -6.09      0.00
   -6    4    7      4.98      0.00
   -5    4    7      7.34      0.00
   -4    4    7     -7.62      0.00
   -3    4    7     -8.61      0.00
   -2    4    7     12.88      0.00
   -1    4    7      1.61      0.00
    0    4    7     -6.26      0.00
    1    4    7     -6.74      0.00
    2    4    7      9.48      0.00
    3    4    7      5.94      0.00
    4    4    7    -11.69      0.00
    5    4    7      5.47      0.00
    6    4    7     -0.37      0.00
    7    4    7      0.93      0.00
    8    4    7      0.30      0.00
    9    4    7      0.16      0.00
   10    4    7     -0.60      0.00
   11    4    7     -1.81      0.00
   12    4    7      3.79      0.00
   13    4    7     -1.17      0.00
   -9    5    7     -2.74      0.00
   -8    5    7     -0.97      0.00
   -7    5    7     -0.95      0.00
   -6    5    7      6.58      0.00
   -5    5    7     -1.91      0.00
   -4    5    7    -10.10      0.00
   -3    5    7      5.37      0.00
   -2    5    7     11.96      0.00
   -1    5    7    -13.04      0.00
    0    5    7     -3.30      0.00
    1    5    7      3.12      0.00
    2    5    7      8.65      0.00
    3    5    7     -4.96      0.00
    4    5    7     -8.31      0.00
    5    5    7     11.81      0.00
    6    5    7     -3.55      0.00
    7    5    7      0.22      0.00
    8    5    7      1.10      0.00
    9    5    7     -1.61      0.00
   10    5    7      0.52      0.00
   11    5    7      0.09      0.00
   12    5    7      2.22      0.00
   13    5    7     -2.01      0.00
   -9    6    7     -2.63      0.00
   -8    6    7      1.57      0.00
   -7    6    7      1.12      0.00
   -6    6    7      1.06      0.00
   -5    6    7     -5.90      0.00
   -4    6    7     -1.96      0.00
   -3    6    7     10.74      0.00
   -2    6    7     -1.05      0.00
   -1    6    7    -15.21      0.00
    0    6    7     10.00      0.00
    1    6    7      2.83      0.00
    2    6    7     -0.80      0.00
    3    6    7     -6.90      0.00
    4    6    7      0.62      0.00
    5    6    7     10.51      0.00
    6    6    7     -8.71      0.00
    7    6    7      2.27      0.00
    8    6    7      0.76      0.00
    9    6    7     -1.94      0.00
   10    6    7      2.28      0.00
   11    6    7     -0.16      0.00
   12    6    7     -0.24      0.00
   13    6    7     -1.58      0.00
   -8    7    7      2.73      0.00
   -7    7    7     -1.47      0.00
   -6    7    7     -2.30      0.00
   -5    7    7     -1.55      0.00
   -4    7    7      3.67      0.00
   -3    7    7      4.23      0.00
   -2    7    7     -8.89      0.00
   -1    7    7     -3.83      0.00
    0    7    7     15.51      0.00
    1    7    7     -7.54      0.00
    2    7    7     -3.54      0.00
    3    7    7      0.29      0.00
    4    7    7      3.37      0.00
    5    7    7      3.33      0.00
    6    7    7     -8.93      0.00
    7    7    7      5.31      0.00
    8    7    7     -0.91      0.00
    9    7    7     -1.27      0.00
   10    7    7      2.30      0.00
   11    7    7     -1.37      0.00
   12    7    7     -1.17      0.00
   13    7    7     -0.11      0.00
   -7    8    7     -3.02      0.00
   -6    8    7     -0.30      0.00
   -5    8    7      3.13      0.00
   -4    8    7      1.36      0.00
   -3    8    7     -3.11      0.00
   -2    8    7     -5.05      0.00
   -1    8    7      5.60      0.00
    0    8    7      7.77      0.00
    1    8    7    -13.86      0.00
    2    8    7      3.59      0.00
    3    8    7      4.06      0.00
    4    8    7     -1.73      0.00
    5    8    7      0.01      0.00
    6    8    7     -4.31      0.00
    7    8    7      5.49      0.00
    8    8    7     -3.01      0.00
    9    8    7     -0.86      0.00
   10    8    7      1.53      0.00
   11    8    7     -1.34      0.00
   12    8    7     -0.62      0.00
   -7    9    7     -1.60      0.00
   -6    9    7      1.72      0.00
   -5    9    7      3.14      0.00
   -4    9    7     -3.64      0.00
   -3    9    7     -3.05      0.00
   -2    9    7      2.22      0.00
   -1    9    7      3.85      0.00
    0    9    7     -1.39      0.00
    1    9    7     -9.28      0.00
    2    9    7      9.39      0.00
    3    9    7     -0.76      0.00
    4    9    7     -4.88      0.00
    5    9    7      2.73      0.00
    6    9    7     -1.32      0.00
    7    9    7      2.90      0.00
    8    9    7     -3.66      0.00
    9    9    7     -0.08      0.00
   10    9    7      1.46      0.00
   11    9    7     -1.05      0.00
   12    9    7     -0.23      0.00
   -6   10    7      1.03      0.00
   -5   10    7      0.99      0.00
   -4   10    7     -5.14      0.00
   -3   10    7      2.17      0.00
   -2   10    7      3.23      0.00
   -1   10    7     -2.24      0.00
    0   10    7     -1.15      0.00
    1   10    7     -2.04      0.00
    2   10    7      6.89      0.00
    3   10    7     -5.78      0.00
    4   10    7     -1.45      0.00
    5   10    7      4.34      0.00
    6   10    7     -2.18      0.00
    7   10    7      1.14      0.00
    8   10    7     -2.20      0.00
    9   10    7      0.81      0.00
   10   10    7      0.75      0.00
   11   10    7     -1.35      0.00
   12   10    7      0.18      0.00
   -5   11    7      0.01      0.00
   -4   11    7     -2.79      0.00
   -3   11    7      4.84      0.00
   -2   11    7     -1.29      0.00
   -1   11    7     -2.18      0.00
    0   11    7      3.60      0.00
    1   11    7     -1.26      0.00
    2   11    7      2.24      0.00
    3   11    7     -4.61      0.00
    4   11    7      2.37      0.00
    5   11    7      1.42      0.00
    6   11    7     -3.08      0.00
    7   11    7      1.80      0.00
    8   11    7     -0.81      0.00
    9   11    7      0.37      0.00
   10   11    7     -0.30      0.00
   11   11    7     -0.75      0.00
   12   11    7      0.53      0.00
   -4   12    7     -0.55      0.00
   -3   12    7      2.65      0.00
   -2   12    7     -3.45      0.00
   -1   12    7      2.24      0.00
    0   12    7      2.93      0.00
    1   12    7     -3.70      0.00
    2   12    7      1.89      0.00
    3   12    7     -1.41      0.00
    4   12    7      1.81      0.00
    5   12    7     -1.51      0.00
    6   12    7     -1.42      0.00
    7   12    7      2.86      0.00
    8   12    7     -1.48      0.00
    9   12    7      0.01      0.00
   10   12    7     -0.01      0.00
   11   12    7     -0.01      0.00
   -2   13    7     -1.59      0.00
   -1   13    7      3.05      0.00
    0   13    7     -1.13      0.00
    1   13    7     -2.79      0.00
    2   13    7      3.05      0.00
    3   13    7     -0.99      0.00
    4   13    7     -0.36      0.00
    5   13    7     -0.66      0.00
    6   13    7      0.67      0.00
    7   13    7      2.08      0.00
    8   13    7     -2.62      0.00
    9   13    7      1.38      0.00
   10   13    7     -0.10      0.00
   -1   14    7      0.97      0.00
    0   14    7     -1.78      0.00
    1   14    7     -0.38      0.00
    2   14    7      1.92      0.00
    3   14    7     -1.92      0.00
    4   14    7     -0.59      0.00
    5   14    7      1.82      0.00
    6   14    7      0.10      0.00
    7   14    7      0.36      0.00
    8   14    7     -1.95      0.00
    9   14    7      2.42      0.00
    2   15    7      0.30      0.00
    3   15    7     -1.67      0.00
    4   15    7      0.51      0.00
    5   15    7      1.98      0.00
    6   15    7     -2.04      0.00
    7   15    7      0.22      0.00
   -6  -14    8     -0.18      0.00
   -5  -14    8     -0.35      0.00
   -4  -14    8      0.39      0.00
   -3  -14    8      1.25      0.00
   -2  -14    8      1.17      0.00
   -1  -14    8     -1.44      0.00
   -8  -13    8      0.20      0.00
   -7  -13    8     -0.03      0.00
   -6  -13    8     -0.51      0.00
   -5  -13    8      0.46      0.00
   -4  -13    8      0.80      0.00
   -3  -13    8      0.97      0.00
   -2  -13    8     -0.34      0.00
   -1  -13    8     -2.24      0.00
    0  -13    8      2.21      0.00
    1  -13    8     -0.67      0.00
   -9  -12    8      0.44      0.00
   -8  -12    8      0.84      0.00
   -7  -12    8     -0.18      0.00
   -6  -12    8     -1.13      0.00
   -5  -12    8      1.75      0.00
   -4  -12    8     -0.64      0.00
   -3  -12    8     -0.47      0.00
   -2  -12    8     -0.94      0.00
   -1  -12    8     -0.69      0.00
    0  -12    8      2.82      0.00
    1  -12    8     -2.47      0.00
    2  -12    8     -0.02      0.00
    3  -12    8     -0.20      0.00
  -10  -11    8     -0.01      0.00
   -9  -11    8      2.08      0.00
   -8  -11    8     -0.15      0.00
   -7  -11    8     -1.10      0.00
   -6  -11    8      0.14      0.00
   -5  -11    8      2.24      0.00
   -4  -11    8     -3.38      0.00
   -3  -11    8     -0.55      0.00
   -2  -11    8      0.81      0.00
   -1  -11    8      0.74      0.00
    0  -11    8      1.46      0.00
    1  -11    8     -3.33      0.00
    2  -11    8      1.00      0.00
    3  -11    8      0.14      0.00
    4  -11    8      1.18      0.00
  -10  -10    8      1.94      0.00
   -9  -10    8      1.35      0.00
   -8  -10    8     -3.28      0.00
   -7  -10    8      1.13      0.00
   -6  -10    8      2.35      0.00
   -5  -10    8     -0.11      0.00
   -4  -10    8     -4.70      0.00
   -3  -10    8      1.83      0.00
   -2  -10    8      2.41      0.00
   -1  -10    8     -0.50      0.00
    0  -10    8      0.21      0.00
    1  -10    8     -2.09      0.00
    2  -10    8      2.39      0.00
    3  -10    8      0.77      0.00
    4  -10    8      0.65      0.00
    5  -10    8     -0.95      0.00
  -11   -9    8      0.55      0.00
  -10   -9    8      2.24      0.00
   -9   -9    8     -2.97      0.00
   -8   -9    8     -3.45      0.00
   -7   -9    8      6.45      0.00
   -6   -9    8     -0.12      0.00
   -5   -9    8     -3.38      0.00
   -4   -9    8     -1.63      0.00
   -3   -9    8      4.38      0.00
   -2   -9    8      0.87      0.00
   -1   -9    8     -2.81      0.00
    0   -9    8      1.05      0.00
    1   -9    8     -0.35      0.00
    2   -9    8      2.75      0.00
    3   -9    8     -0.04      0.00
    4   -9    8     -1.19      0.00
    5   -9    8     -0.93      0.00
    6   -9    8      1.46      0.00
    7   -9    8      0.86      0.00
  -11   -8    8      0.17      0.00
  -10   -8    8     -0.18      0.00
   -9   -8    8     -5.56      0.00
   -8   -8    8      1.89      0.00
   -7   -8    8      7.36      0.00
   -6   -8    8     -7.57      0.00
   -5   -8    8     -1.14      0.00
   -4   -8    8      3.94      0.00
   -3   -8    8      2.61      0.00
   -2   -8    8     -2.82      0.00
   -1   -8    8     -2.31      0.00
    0   -8    8      3.23      0.00
    1   -8    8     -0.03      0.00
    2   -8    8      0.98      0.00
    3   -8    8     -1.84      0.00
    4   -8    8     -1.10      0.00
    5   -8    8      1.04      0.00
    6   -8    8      2.50      0.00
    7   -8    8     -0.63      0.00
  -11   -7    8     -2.40      0.00
  -10   -7    8     -1.36      0.00
   -9   -7    8     -2.23      0.00
   -8   -7    8      5.83      0.00
   -7   -7    8      0.65      0.00
   -6   -7    8    -11.08      0.00
   -5   -7    8      7.87      0.00
   -4   -7    8      4.21      0.00
   -3   -7    8     -4.15      0.00
   -2   -7    8     -3.02      0.00
   -1   -7    8      2.03      0.00
    0   -7    8      3.61      0.00
    1   -7    8     -1.97      0.00
    2   -7    8     -1.56      0.00
    3   -7    8     -1.19      0.00
    4   -7    8      1.12      0.00
    5   -7    8      1.17      0.00
    6   -7    8      0.94      0.00
    7   -7    8     -2.69      0.00
    8   -7    8      1.27      0.00
  -11   -6    8     -4.64      0.00
  -10   -6    8      2.18      0.00
   -9   -6    8      1.35      0.00
   -8   -6    8      2.50      0.00
   -7   -6    8     -5.40      0.00
   -6   -6    8     -5.08      0.00
   -5   -6    8     14.73      0.00
   -4   -6    8     -5.13      0.00
   -3   -6    8     -8.09      0.00
   -2   -6    8      4.11      0.00
   -1   -6    8      4.63      0.00
    0   -6    8     -0.44      0.00
    1   -6    8     -3.81      0.00
    2   -6    8     -1.28      0.00
    3   -6    8      2.26      0.00
    4   -6    8      1.37      0.00
    5   -6    8     -1.43      0.00
    6   -6    8     -0.10      0.00
    7   -6    8     -1.88      0.00
    8   -6    8      4.14      0.00
    9   -6    8     -0.43      0.00
  -11   -5    8     -3.59      0.00
  -10   -5    8      6.34      0.00
   -9   -5    8     -1.33      0.00
   -8   -5    8     -2.23      0.00
   -7   -5    8     -2.98      0.00
   -6   -5    8      3.31      0.00
   -5   -5    8     10.84      0.00
   -4   -5    8    -16.06      0.00
   -3   -5    8     -0.70      0.00
   -2   -5    8     11.89      0.00
   -1   -5    8     -1.41      0.00
    0   -5    8     -4.97      0.00
    1   -5    8     -1.25      0.00
    2   -5    8      1.38      0.00
    3   -5    8      4.03      0.00
    4   -5    8     -1.91      0.00
    5   -5    8     -2.77      0.00
    6   -5    8      1.83      0.00
    7   -5    8     -0.45      0.00
    8   -5    8      3.51      0.00
    9   -5    8     -3.87      0.00
   10   -5    8     -1.25      0.00
  -11   -4    8     -0.89      0.00
  -10   -4    8      5.84      0.00
   -9   -4    8     -6.37      0.00
   -8   -4    8     -0.38      0.00
   -7   -4    8      3.11      0.00
   -6   -4    8      3.57      0.00
   -5   -4    8      0.39      0.00
   -4   -4    8    -15.94      0.00
   -3   -4    8     13.13      0.00
   -2   -4    8      8.36      0.00
   -1   -4    8    -11.98      0.00
    0   -4    8     -1.68      0.00
    1   -4    8      4.24      0.00
    2   -4    8      1.10      0.00
    3   -4    8      2.02      0.00
    4   -4    8     -5.21      0.00
    5   -4    8     -0.10      0.00
    6   -4    8      3.86      0.00
    7   -4    8     -2.16      0.00
    8   -4    8      1.33      0.00
    9   -4    8     -3.97      0.00
   10   -4    8      1.46      0.00
  -11   -3    8      0.62      0.00
  -10   -3    8      2.36      0.00
   -9   -3    8     -6.84      0.00
   -8   -3    8      5.49      0.00
   -7   -3    8      2.99      0.00
   -6   -3    8     -3.26      0.00
   -5   -3    8     -3.64      0.00
   -4   -3    8     -4.75      0.00
   -3   -3    8     17.97      0.00
   -2   -3    8     -5.97      0.00
   -1   -3    8    -13.36      0.00
    0   -3    8      9.04      0.00
    1   -3    8      4.69      0.00
    2   -3    8     -3.62      0.00
    3   -3    8      0.35      0.00
    4   -3    8     -4.96      0.00
    5   -3    8      4.46      0.00
    6   -3    8      2.24      0.00
    7   -3    8     -5.12      0.00
    8   -3    8      2.32      0.00
    9   -3    8     -2.01      0.00
   10   -3    8      2.56      0.00
   11   -3    8      1.36      0.00
  -11   -2    8      0.58      0.00
  -10   -2    8      0.05      0.00
   -9   -2    8     -3.03      0.00
   -8   -2    8      7.68      0.00
   -7   -2    8     -3.77      0.00
   -6   -2    8     -5.72      0.00
   -5   -2    8      2.65      0.00
   -4   -2    8      3.15      0.00
   -3   -2    8      8.56      0.00
   -2   -2    8    -15.28      0.00
   -1   -2    8     -1.13      0.00
    0   -2    8     14.65      0.00
    1   -2    8     -3.02      0.00
    2   -2    8     -6.65      0.00
    3   -2    8      2.98      0.00
    4   -2    8     -2.51      0.00
    5   -2    8      6.41      0.00
    6   -2    8     -2.46      0.00
    7   -2    8     -4.97      0.00
    8   -2    8      5.64      0.00
    9   -2    8     -2.23      0.00
   10   -2    8      1.72      0.00
   11   -2    8     -0.48      0.00
  -11   -1    8     -0.30      0.00
  -10   -1    8      0.47      0.00
   -9   -1    8      0.30      0.00
   -8   -1    8      4.02      0.00
   -7   -1    8     -8.38      0.00
   -6   -1    8      1.23      0.00
   -5   -1    8      7.81      0.00
   -4   -1    8     -1.11      0.00
   -3   -1    8     -1.82      0.00
   -2   -1    8     -9.32      0.00
   -1   -1    8     10.99      0.00
    0   -1    8      6.62      0.00
    1   -1    8    -10.19      0.00
    2   -1    8     -2.79      0.00
    3   -1    8      6.94      0.00
    4   -1    8     -2.52      0.00
    5   -1    8      4.48      0.00
    6   -1    8     -5.80      0.00
    7   -1    8     -0.95      0.00
    8   -1    8      7.08      0.00
    9   -1    8     -5.10      0.00
   10   -1    8      1.39      0.00
   11   -1    8     -0.98      0.00
  -11    0    8     -0.41      0.00
  -10    0    8      2.23      0.00
   -9    0    8     -0.48      0.00
   -8    0    8     -0.78      0.00
   -7    0    8     -5.21      0.00
   -6    0    8      8.63      0.00
   -5    0    8      2.11      0.00
   -4    0    8     -8.09      0.00
   -3    0    8     -0.32      0.00
   -2    0    8      1.67      0.00
   -1    0    8      8.97      0.00
    0    0    8     -5.56      0.00
    1    0    8     -7.12      0.00
    2    0    8      3.25      0.00
    3    0    8      6.43      0.00
    4    0    8     -5.45      0.00
    5    0    8      2.62      0.00
    6    0    8     -4.78      0.00
    7    0    8      3.49      0.00
    8    0    8      4.58      0.00
    9    0    8     -7.57      0.00
   10    0    8      3.68      0.00
   11    0    8     -0.02      0.00
   12    0    8      0.18      0.00
  -11    1    8      1.01      0.00
  -10    1    8      1.83      0.00
   -9    1    8     -3.98      0.00
   -8    1    8     -0.97      0.00
   -7    1    8      1.13      0.00
   -6    1    8      6.59      0.00
   -5    1    8     -7.56      0.00
   -4    1    8     -4.73      0.00
   -3    1    8      6.85      0.00
   -2    1    8      2.07      0.00
   -1    1    8     -0.97      0.00
    0    1    8     -6.69      0.00
    1    1    8      1.56      0.00
    2    1    8      2.96      0.00
    3    1    8      2.58      0.00
    4    1    8     -6.81      0.00
    5    1    8      3.76      0.00
    6    1    8     -1.79      0.00
    7    1    8      4.40      0.00
    8    1    8     -0.05      0.00
    9    1    8     -6.45      0.00
   10    1    8      7.07      0.00
   11    1    8     -0.67      0.00
   12    1    8     -0.26      0.00
  -10    2    8     -1.01      0.00
   -9    2    8     -4.43      0.00
   -8    2    8      3.00      0.00
   -7    2    8      2.28      0.00
   -6    2    8     -1.85      0.00
   -5    2    8     -8.13      0.00
   -4    2    8      5.55      0.00
   -3    2    8      4.81      0.00
   -2    2    8     -5.24      0.00
   -1    2    8     -2.40      0.00
    0    2    8      0.85      0.00
    1    2    8      3.20      0.00
    2    2    8     -2.21      0.00
    3    2    8      1.49      0.00
    4    2    8     -5.35      0.00
    5    2    8      5.54      0.00
    6    2    8     -0.96      0.00
    7    2    8      1.85      0.00
    8    2    8     -2.50      0.00
    9    2    8     -2.17      0.00
   10    2    8      7.36      0.00
   11    2    8     -3.59      0.00
   12    2    8     -0.05      0.00
  -10    3    8     -1.62      0.00
   -9    3    8     -0.67      0.00
   -8    3    8      4.49      0.00
   -7    3    8     -2.47      0.00
   -6    3    8     -5.48      0.00
   -5    3    8      0.54      0.00
   -4    3    8      8.38      0.00
   -3    3    8     -5.87      0.00
   -2    3    8     -4.45      0.00
   -1    3    8      4.41      0.00
    0    3    8      2.34      0.00
    1    3    8     -1.95      0.00
    2    3    8     -3.52      0.00
    3    3    8      3.57      0.00
    4    3    8     -4.63      0.00
    5    3    8      5.38      0.00
    6    3    8     -2.56      0.00
    7    3    8     -0.34      0.00
    8    3    8     -0.90      0.00
    9    3    8      1.00      0.00
   10    3    8      3.73      0.00
   11    3    8     -5.22      0.00
   12    3    8      1.76      0.00
   -9    4    8      1.47      0.00
   -8    4    8      1.13      0.00
   -7    4    8     -5.11      0.00
   -6    4    8     -0.70      0.00
   -5    4    8      6.26      0.00
   -4    4    8      0.66      0.00
   -3    4    8    -10.35      0.00
   -2    4    8      6.05      0.00
   -1    4    8      4.49      0.00
    0    4    8     -3.30      0.00
    1    4    8     -2.67      0.00
    2    4    8     -0.12      0.00
    3    4    8      3.94      0.00
    4    4    8     -5.80      0.00
    5    4    8      4.51      0.00
    6    4    8     -4.05      0.00
    7    4    8      0.10      0.00
    8    4    8      1.84      0.00
    9    4    8      0.19      0.00
   10    4    8     -0.05      0.00
   11    4    8     -3.69      0.00
   12    4    8      3.33      0.00
   -9    5    8     -0.41      0.00
   -8    5    8     -1.34      0.00
   -7    5    8     -1.29      0.00
   -6    5    8      4.12      0.00
   -5    5    8      2.87      0.00
   -4    5    8     -5.90      0.00
   -3    5    8     -3.66      0.00
   -2    5    8     11.77      0.00
   -1    5    8     -5.12      0.00
    0    5    8     -3.89      0.00
    1    5    8      2.52      0.00
    2    5    8      0.98      0.00
    3    5    8      1.81      0.00
    4    5    8     -6.04      0.00
    5    5    8      4.57      0.00
    6    5    8     -4.41      0.00
    7    5    8      1.94      0.00
    8    5    8      2.19      0.00
    9    5    8     -2.80      0.00
   10    5    8     -0.75      0.00
   11    5    8     -0.65      0.00
   12    5    8      3.14      0.00
   13    5    8     -1.70      0.00
   -8    6    8      0.60      0.00
   -7    6    8      3.00      0.00
   -6    6    8      2.07      0.00
   -5    6    8     -2.28      0.00
   -4    6    8     -3.78      0.00
   -3    6    8      3.61      0.00
   -2    6    8      6.51      0.00
   -1    6    8    -12.12      0.00
    0    6    8      3.61      0.00
    1    6    8      4.46      0.00
    2    6    8     -2.17      0.00
    3    6    8      1.15      0.00
    4    6    8     -4.17      0.00
    5    6    8      4.68      0.00
    6    6    8     -3.99      0.00
    7    6    8      3.19      0.00
    8    6    8      0.09      0.00
    9    6    8     -3.97      0.00
   10    6    8      1.35      0.00
   11    6    8      1.08      0.00
   12    6    8      1.06      0.00
   13    6    8     -2.11      0.00
   -8    7    8      2.87      0.00
   -7    7    8      2.06      0.00
   -6    7    8     -2.35      0.00
   -5    7    8     -1.61      0.00
   -4    7    8      1.49      0.00
   -3    7    8      3.70      0.00
   -2    7    8     -0.94      0.00
   -1    7    8     -9.46      0.00
    0    7    8     10.13      0.00
    1    7    8     -0.53      0.00
    2    7    8     -4.25      0.00
    3    7    8      3.44      0.00
    4    7    8     -2.94      0.00
    5    7    8      3.82      0.00
    6    7    8     -2.91      0.00
    7    7    8      2.75      0.00
    8    7    8     -1.59      0.00
    9    7    8     -1.79      0.00
   10    7    8      2.79      0.00
   11    7    8     -0.07      0.00
   12    7    8     -1.03      0.00
   -7    8    8     -0.60      0.00
   -6    8    8     -2.77      0.00
   -5    8    8      2.22      0.00
   -4    8    8      2.81      0.00
   -3    8    8     -0.42      0.00
   -2    8    8     -2.44      0.00
   -1    8    8     -2.59      0.00
    0    8    8      9.24      0.00
    1    8    8     -6.39      0.00
    2    8    8     -1.44      0.00
    3    8    8      4.98      0.00
    4    8    8     -4.11      0.00
    5    8    8      3.39      0.00
    6    8    8     -2.01      0.00
    7    8    8      1.05      0.00
    8    8    8     -0.67      0.00
    9    8    8      0.73      0.00
   10    8    8      1.29      0.00
   11    8    8     -1.62      0.00
   12    8    8     -0.89      0.00
   -6    9    8     -1.07      0.00
   -5    9    8      3.77      0.00
   -4    9    8     -0.07      0.00
   -3    9    8     -3.04      0.00
   -2    9    8      1.19      0.00
   -1    9    8      0.27      0.00
    0    9    8      4.05      0.00
    1    9    8     -6.67      0.00
    2    9    8      3.06      0.00
    3    9    8      2.81      0.00
    4    9    8     -4.64      0.00
    5    9    8      4.18      0.00
    6    9    8     -2.43      0.00
    7    9    8      0.06      0.00
    8    9    8      1.53      0.00
    9    9    8      0.54      0.00
   10    9    8     -0.55      0.00
   11    9    8     -0.70      0.00
   12    9    8      0.22      0.00
   -5   10    8      2.90      0.00
   -4   10    8     -3.41      0.00
   -3   10    8     -1.44      0.00
   -2   10    8      4.02      0.00
   -1   10    8     -2.36      0.00
    0   10    8      1.87      0.00
    1   10    8     -3.09      0.00
    2   10    8      3.91      0.00
    3   10    8     -0.20      0.00
    4   10    8     -2.14      0.00
    5   10    8      4.06      0.00
    6   10    8     -3.27      0.00
    7   10    8      0.75      0.00
    8   10    8      2.19      0.00
    9   10    8     -1.10      0.00
   10   10    8     -0.08      0.00
   11   10    8      0.95      0.00
   12   10    8      0.05      0.00
   -4   11    8     -3.99      0.00
   -3   11    8      2.26      0.00
   -2   11    8      2.13      0.00
   -1   11    8     -4.28      0.00
    0   11    8      3.81      0.00
    1   11    8     -2.36      0.00
    2   11    8      1.97      0.00
    3   11    8     -0.43      0.00
    4   11    8      0.18      0.00
    5   11    8      2.00      0.00
    6   11    8     -2.79      0.00
    7   11    8      1.77      0.00
    8   11    8      0.89      0.00
    9   11    8     -1.81      0.00
   10   11    8      1.30      0.00
   11   11    8      1.03      0.00
   -3   12    8      3.38      0.00
   -2   12    8     -1.39      0.00
   -1   12    8     -1.62      0.00
    0   12    8      3.70      0.00
    1   12    8     -4.52      0.00
    3   12    8      0.36      0.00
    4   12    8     -0.54      0.00
    5   12    8      0.27      0.00
    6   12    8     -1.22      0.00
    7   12    8      1.93      0.00
    8   12    8     -0.98      0.00
    9   12    8     -1.11      0.00
   10   12    8      2.05      0.00
   11   12    8      0.15      0.00
   -2   13    8     -1.84      0.00
   -1   13    8      1.26      0.00
    0   13    8      0.10      0.00
    1   13    8     -3.67      0.00
    2   13    8      2.97      0.00
    3   13    8     -0.31      0.00
    4   13    8     -2.06      0.00
    5   13    8      0.66      0.00
    6   13    8      0.03      0.00
    7   13    8      1.20      0.00
    8   13    8     -2.19      0.00
    9   13    8      0.69      0.00
   10   13    8      1.77      0.00
    0   14    8     -1.68      0.00
    1   14    8     -0.19      0.00
    2   14    8      2.01      0.00
    3   14    8     -0.82      0.00
    4   14    8     -1.80      0.00
    5   14    8      2.14      0.00
    6   14    8     -0.08      0.00
    7   14    8      0.05      0.00
    8   14    8     -1.92      0.00
    9   14    8      2.10      0.00
    2   15    8      0.11      0.00
    3   15    8      0.24      0.00
    4   15    8     -0.61      0.00
    5   15    8      2.52      0.00
    6   15    8     -1.29      0.00
    7   15    8     -0.28      0.00
   -7  -13    9     -0.67      0.00
   -6  -13    9      0.17      0.00
   -5  -13    9      0.45      0.00
   -4  -13    9      0.51      0.00
   -3  -13    9      0.37      0.00
   -2  -13    9      0.16      0.00
   -1  -13    9     -1.08      0.00
    0  -13    9     -0.12      0.00
    1  -13    9      1.07      0.00
   -8  -12    9      0.03      0.00
   -7  -12    9      0.21      0.00
   -6  -12    9     -0.47      0.00
   -5  -12    9      1.66      0.00
   -4  -12    9      0.50      0.00
   -3  -12    9     -0.16      0.00
   -1  -12    9     -1.69      0.00
    0  -12    9      1.76      0.00
    1  -12    9      0.70      0.00
    2  -12    9     -1.57      0.00
   -9  -11    9      0.79      0.00
   -8  -11    9      0.38      0.00
   -7  -11    9     -0.80      0.00
   -6  -11    9     -0.65      0.00
   -5  -11    9      2.84      0.00
   -4  -11    9     -0.62      0.00
   -3  -11    9     -0.75      0.00
   -2  -11    9     -0.73      0.00
   -1  -11    9     -1.08      0.00
    0  -11    9      2.72      0.00
    1  -11    9     -1.04      0.00
    2  -11    9     -1.25      0.00
    3  -11    9      1.66      0.00
    4  -11    9      0.75      0.00
  -10  -10    9      0.10      0.00
   -9  -10    9      1.81      0.00
   -8  -10    9     -1.82      0.00
   -7  -10    9     -1.40      0.00
   -6  -10    9      1.08      0.00
   -5  -10    9      2.24      0.00
   -4  -10    9     -2.28      0.00
   -3  -10    9     -0.31      0.00
   -2  -10    9      0.25      0.00
   -1  -10    9     -0.82      0.00
    0  -10    9      2.11      0.00
    1  -10    9     -2.88      0.00
    2  -10    9     -0.46      0.00
    3  -10    9      2.54      0.00
    4  -10    9      1.04      0.00
    5  -10    9     -1.17      0.00
  -10   -9    9      2.04      0.00
   -9   -9    9      0.30      0.00
   -8   -9    9     -3.93      0.00
   -7   -9    9      1.72      0.00
   -6   -9    9      1.87      0.00
   -5   -9    9     -1.11      0.00
   -4   -9    9     -2.56      0.00
   -3   -9    9      1.38      0.00
   -2   -9    9      0.87      0.00
   -1   -9    9     -1.30      0.00
    0   -9    9      1.01      0.00
    1   -9    9     -3.71      0.00
    2   -9    9      1.40      0.00
    3   -9    9      2.59      0.00
    4   -9    9     -1.04      0.00
    5   -9    9     -2.90      0.00
    6   -9    9      0.41      0.00
  -10   -8    9      1.44      0.00
   -9   -8    9     -2.45      0.00
   -8   -8    9     -1.82      0.00
   -7   -8    9      5.40      0.00
   -6   -8    9     -1.61      0.00
   -5   -8    9     -3.67      0.00
   -4   -8    9      0.36      0.00
   -3   -8    9      2.75      0.00
   -2   -8    9     -0.27      0.00
   -1   -8    9     -1.94      0.00
    0   -8    9      0.15      0.00
    1   -8    9     -2.00      0.00
    2   -8    9      3.51      0.00
    3   -8    9     -0.19      0.00
    4   -8    9     -3.20      0.00
    5   -8    9     -1.55      0.00
    6   -8    9      2.77      0.00
    7   -8    9     -0.52      0.00
  -11   -7    9     -0.17      0.00
  -10   -7    9     -1.08      0.00
   -9   -7    9     -2.00      0.00
   -8   -7    9      2.29      0.00
   -7   -7    9      4.26      0.00
   -6   -7    9     -6.29      0.00
   -5   -7    9     -1.07      0.00
   -4   -7    9      4.31      0.00
   -3   -7    9      0.91      0.00
   -2   -7    9     -2.90      0.00
   -1   -7    9     -1.35      0.00
    0   -7    9      0.64      0.00
    1   -7    9      1.21      0.00
    2   -7    9      2.07      0.00
    3   -7    9     -3.86      0.00
    4   -7    9     -0.74      0.00
    5   -7    9      1.55      0.00
    6   -7    9      2.63      0.00
    7   -7    9     -3.76      0.00
    8   -7    9     -1.37      0.00
  -11   -6    9     -3.84      0.00
  -10   -6    9     -0.72      0.00
   -9   -6    9      1.29      0.00
   -8   -6    9      2.45      0.00
   -7   -6    9     -0.06      0.00
   -6   -6    9     -6.51      0.00
   -5   -6    9      5.02      0.00
   -4   -6    9      3.98      0.00
   -3   -6    9     -4.25      0.00
   -2   -6    9     -3.03      0.00
   -1   -6    9      2.11      0.00
    0   -6    9      1.20      0.00
    1   -6    9      1.65      0.00
    2   -6    9     -2.54      0.00
    3   -6    9     -3.02      0.00
    4   -6    9      4.53      0.00
    5   -6    9      0.66      0.00
    6   -6    9      0.00      0.00
    7   -6    9     -4.56      0.00
    8   -6    9      2.52      0.00
    9   -6    9      2.69      0.00
  -11   -5    9     -5.37      0.00
  -10   -5    9      3.27      0.00
   -9   -5    9      1.83      0.00
   -8   -5    9     -1.16      0.00
   -7   -5    9     -1.24      0.00
   -6   -5    9     -2.30      0.00
   -5   -5    9      8.22      0.00
   -4   -5    9     -2.10      0.00
   -3   -5    9     -7.08      0.00
   -2   -5    9      2.66      0.00
   -1   -5    9      4.94      0.00
    0   -5    9     -2.01      0.00
    1   -5    9     -0.36      0.00
    2   -5    9     -4.31      0.00
    3   -5    9      2.37      0.00
    4   -5    9      5.47      0.00
    5   -5    9     -4.63      0.00
    6   -5    9      0.19      0.00
    7   -5    9     -1.58      0.00
    8   -5    9      4.58      0.00
    9   -5    9     -0.74      0.00
  -11   -4    9     -3.76      0.00
  -10   -4    9      5.87      0.00
   -9   -4    9     -1.56      0.00
   -8   -4    9     -2.56      0.00
   -7   -4    9      2.08      0.00
   -6   -4    9      0.46      0.00
   -5   -4    9      5.41      0.00
   -4   -4    9     -8.07      0.00
   -3   -4    9     -2.77      0.00
   -2   -4    9      9.13      0.00
   -1   -4    9      0.88      0.00
    0   -4    9     -7.07      0.00
    1   -4    9      1.13      0.00
    2   -4    9     -1.59      0.00
    3   -4    9      5.88      0.00
    4   -4    9      0.07      0.00
    5   -4    9     -7.71      0.00
    6   -4    9      5.13      0.00
    7   -4    9     -0.33      0.00
    8   -4    9      2.11      0.00
    9   -4    9     -3.59      0.00
   10   -4    9     -2.27      0.00
  -11   -3    9     -1.57      0.00
  -10   -3    9      4.97      0.00
   -9   -3    9     -4.39      0.00
   -8   -3    9      0.21      0.00
   -7   -3    9      4.38      0.00
   -6   -3    9     -2.02      0.00
   -5   -3    9      1.21      0.00
   -4   -3    9     -7.71      0.00
   -3   -3    9      4.54      0.00
   -2   -3    9      8.22      0.00
   -1   -3    9     -7.75      0.00
    0   -3    9     -6.33      0.00
    1   -3    9      7.09      0.00
    2   -3    9     -0.55      0.00
    3   -3    9      3.86      0.00
    4   -3    9     -5.53      0.00
    5   -3    9     -3.83      0.00
    6   -3    9      9.54      0.00
    7   -3    9     -4.21      0.00
    8   -3    9      0.08      0.00
    9   -3    9     -2.18      0.00
   10   -3    9      0.82      0.00
  -11   -2    9     -0.16      0.00
  -10   -2    9      2.68      0.00
   -9   -2    9     -4.34      0.00
   -8   -2    9      3.30      0.00
   -7   -2    9      1.62      0.00
   -6   -2    9     -5.63      0.00
   -5   -2    9      1.83      0.00
   -4   -2    9     -3.19      0.00
   -3   -2    9      6.95      0.00
   -2   -2    9      0.92      0.00
   -1   -2    9    -11.27      0.00
    0   -2    9      1.55      0.00
    1   -2    9     10.15      0.00
    2   -2    9     -5.41      0.00
    3   -2    9      0.91      0.00
    4   -2    9     -5.09      0.00
    5   -2    9      3.09      0.00
    6   -2    9      7.63      0.00
    7   -2    9     -9.23      0.00
    8   -2    9      2.85      0.00
    9   -2    9      0.45      0.00
   10   -2    9      1.43      0.00
   11   -2    9      1.35      0.00
  -11   -1    9     -0.03      0.00
  -10   -1    9      1.07      0.00
   -9   -1    9     -2.41      0.00
   -8   -1    9      3.60      0.00
   -7   -1    9     -3.18      0.00
   -6   -1    9     -3.99      0.00
   -5   -1    9      5.52      0.00
   -4   -1    9     -1.61      0.00
   -3   -1    9      3.64      0.00
   -2   -1    9     -4.33      0.00
   -1   -1    9     -6.43      0.00
    0   -1    9      8.27      0.00
    1   -1    9      5.48      0.00
    2   -1    9    -11.33      0.00
    3   -1    9      3.22      0.00
    4   -1    9     -0.91      0.00
    5   -1    9      5.09      0.00
    6   -1    9      0.82      0.00
    7   -1    9     -9.47      0.00
    8   -1    9      8.12      0.00
    9   -1    9     -0.72      0.00
   10   -1    9     -0.91      0.00
   11   -1    9     -0.23      0.00
  -11    0    9     -0.78      0.00
  -10    0    9      1.73      0.00
   -9    0    9     -0.72      0.00
   -8    0    9      1.46      0.00
   -7    0    9     -4.55      0.00
   -6    0    9      1.78      0.00
   -5    0    9      5.21      0.00
   -4    0    9     -4.15      0.00
   -3    0    9      0.83      0.00
   -2    0    9     -3.47      0.00
   -1    0    9     -0.20      0.00
    0    0    9      7.63      0.00
    1    0    9     -1.93      0.00
    2    0    9    -11.22      0.00
    3    0    9      9.46      0.00
    4    0    9     -0.43      0.00
    5    0    9      1.00      0.00
    6    0    9     -3.53      0.00
    7    0    9     -4.05      0.00
    8    0    9     10.17      0.00
    9    0    9     -5.98      0.00
   10    0    9     -1.71      0.00
   11    0    9      1.01      0.00
  -10    1    9      3.26      0.00
   -9    1    9     -1.70      0.00
   -8    1    9     -0.09      0.00
   -7    1    9     -1.54      0.00
   -6    1    9      4.83      0.00
   -5    1    9     -0.08      0.00
   -4    1    9     -4.83      0.00
   -3    1    9      2.22      0.00
   -2    1    9     -1.03      0.00
   -1    1    9      1.34      0.00
    0    1    9      3.33      0.00
    1    1    9     -5.03      0.00
    2    1    9     -5.36      0.00
    3    1    9     12.99      0.00
    4    1    9     -5.62      0.00
    5    1    9     -2.27      0.00
    6    1    9     -1.33      0.00
    7    1    9      1.36      0.00
    8    1    9      6.07      0.00
    9    1    9     -9.64      0.00
   10    1    9      2.15      0.00
   11    1    9      1.93      0.00
   12    1    9     -1.00      0.00
  -10    2    9      1.83      0.00
   -9    2    9     -3.47      0.00
   -8    2    9      1.69      0.00
   -7    2    9      1.39      0.00
   -6    2    9      2.43      0.00
   -5    2    9     -3.94      0.00
   -4    2    9     -0.39      0.00
   -3    2    9      3.66      0.00
   -2    2    9     -1.75      0.00
   -1    2    9      0.96      0.00
    0    2    9      0.93      0.00
    1    2    9     -3.79      0.00
    2    2    9      0.70      0.00
    3    2    9     10.55      0.00
    4    2    9    -11.22      0.00
    5    2    9      0.55      0.00
    6    2    9      2.95      0.00
    7    2    9      0.81      0.00
    8    2    9      0.11      0.00
    9    2    9     -6.90      0.00
   10    2    9      6.25      0.00
   11    2    9     -0.79      0.00
   12    2    9     -2.14      0.00
  -10    3    9     -0.94      0.00
   -9    3    9     -1.72      0.00
   -8    3    9      4.04      0.00
   -7    3    9      0.05      0.00
   -6    3    9     -1.18      0.00
   -5    3    9     -2.18      0.00
   -4    3    9      4.29      0.00
   -3    3    9      0.42      0.00
   -2    3    9     -2.52      0.00
   -1    3    9      2.69      0.00
    0    3    9     -0.85      0.00
    1    3    9     -1.36      0.00
    2    3    9      3.33      0.00
    3    3    9      4.56      0.00
    4    3    9    -11.61      0.00
    5    3    9      6.98      0.00
    6    3    9      2.52      0.00
    7    3    9     -3.67      0.00
    8    3    9     -0.87      0.00
    9    3    9     -1.26      0.00
   10    3    9      5.48      0.00
   11    3    9     -3.86      0.00
   12    3    9     -0.45      0.00
   -9    4    9      1.36      0.00
   -8    4    9      1.99      0.00
   -7    4    9     -3.32      0.00
   -6    4    9     -0.87      0.00
   -5    4    9      1.74      0.00
   -4    4    9      3.79      0.00
   -3    4    9     -4.14      0.00
   -2    4    9      1.04      0.00
   -1    4    9      3.16      0.00
    0    4    9     -3.86      0.00
    1    4    9      1.78      0.00
    2    4    9      1.75      0.00
    3    4    9     -0.10      0.00
    4    4    9     -6.41      0.00
    5    4    9     10.27      0.00
    6    4    9     -2.87      0.00
    7    4    9     -4.85      0.00
    8    4    9      2.88      0.00
    9    4    9      0.77      0.00
   10    4    9      2.02      0.00
   11    4    9     -3.93      0.00
   12    4    9      1.90      0.00
   -9    5    9      0.79      0.00
   -8    5    9     -2.45      0.00
   -7    5    9     -2.93      0.00
   -6    5    9      2.20      0.00
   -5    5    9      2.09      0.00
   -4    5    9      0.26      0.00
   -3    5    9     -4.43      0.00
   -2    5    9      5.43      0.00
   -1    5    9     -0.75      0.00
    0    5    9     -4.47      0.00
    1    5    9      4.65      0.00
    2    5    9     -2.54      0.00
    3    5    9     -0.07      0.00
    4    5    9     -0.97      0.00
    5    5    9      7.20      0.00
    6    5    9     -7.10      0.00
    7    5    9     -0.49      0.00
    8    5    9      5.21      0.00
    9    5    9     -1.38      0.00
   10    5    9      0.06      0.00
   11    5    9     -2.22      0.00
   12    5    9      2.95      0.00
   -8    6    9     -3.24      0.00
   -7    6    9      0.98      0.00
   -6    6    9      2.31      0.00
   -5    6    9     -0.96      0.00
   -4    6    9     -0.91      0.00
   -3    6    9     -1.95      0.00
   -2    6    9      5.81      0.00
   -1    6    9     -4.77      0.00
    0    6    9     -0.84      0.00
    1    6    9      4.69      0.00
    2    6    9     -5.71      0.00
    3    6    9      3.28      0.00
    4    6    9     -0.23      0.00
    5    6    9      1.68      0.00
    6    6    9     -5.67      0.00
    7    6    9      4.45      0.00
    8    6    9      2.62      0.00
    9    6    9     -3.77      0.00
   10    6    9      0.70      0.00
   11    6    9     -0.02      0.00
   12    6    9      2.49      0.00
   -7    7    9      2.57      0.00
   -6    7    9     -1.33      0.00
   -5    7    9     -2.24      0.00
   -4    7    9      0.76      0.00
   -3    7    9     -0.92      0.00
   -2    7    9      3.64      0.00
   -1    7    9     -5.11      0.00
    0    7    9      3.17      0.00
    1    7    9      2.15      0.00
    2    7    9     -5.23      0.00
    3    7    9      5.81      0.00
    4    7    9     -3.21      0.00
    5    7    9     -0.49      0.00
    6    7    9     -0.69      0.00
    7    7    9      4.42      0.00
    8    7    9     -2.33      0.00
    9    7    9     -2.94      0.00
   10    7    9      2.81      0.00
   11    7    9      1.03      0.00
   12    7    9      0.25      0.00
   -7    8    9      0.79      0.00
   -6    8    9     -3.34      0.00
   -5    8    9     -0.02      0.00
   -4    8    9      2.12      0.00
   -3    8    9     -1.97      0.00
   -2    8    9      1.81      0.00
   -1    8    9     -3.44      0.00
    0    8    9      4.26      0.00
    1    8    9     -0.49      0.00
    2    8    9     -2.55      0.00
    3    8    9      5.22      0.00
    4    8    9     -5.66      0.00
    5    8    9      1.66      0.00
    6    8    9      2.12      0.00
    7    8    9     -0.25      0.00
    8    8    9     -3.98      0.00
    9    8    9      0.75      0.00
   10    8    9      2.84      0.00
   11    8    9     -0.47      0.00
   12    8    9     -1.30      0.00
   -6    9    9     -2.05      0.00
   -5    9    9      2.27      0.00
   -4    9    9      1.43      0.00
   -3    9    9     -3.79      0.00
   -2    9    9      1.46      0.00
   -1    9    9     -2.26      0.00
    0    9    9      2.90      0.00
    1    9    9     -1.55      0.00
    2    9    9     -0.62      0.00
    3    9    9      2.32      0.00
    4    9    9     -4.94      0.00
    5    9    9      4.24      0.00
    6    9    9      0.33      0.00
    7    9    9     -3.62      0.00
    8    9    9     -0.46      0.00
    9    9    9      2.50      0.00
   10    9    9     -0.66      0.00
   11    9    9     -1.30      0.00
   12    9    9     -0.11      0.00
   -5   10    9      2.47      0.00
   -4   10    9     -0.72      0.00
   -3   10    9     -4.21      0.00
   -1   10    9     -2.62      0.00
    0   10    9      2.06      0.00
    1   10    9     -1.02      0.00
    2   10    9     -0.94      0.00
    3   10    9      0.30      0.00
    4   10    9     -1.91      0.00
    5   10    9      3.43      0.00
    6   10    9     -2.55      0.00
    7   10    9     -2.05      0.00
    8   10    9      3.19      0.00
    9   10    9     -0.17      0.00
   10   10    9     -3.14      0.00
   11   10    9      0.89      0.00
   -4   11    9     -2.28      0.00
   -3   11    9     -1.75      0.00
   -2   11    9      3.41      0.00
   -1   11    9     -3.40      0.00
    0   11    9      3.73      0.00
    1   11    9     -1.21      0.00
    2   11    9     -1.92      0.00
    3   11    9      1.38      0.00
    4   11    9     -0.28      0.00
    5   11    9      0.24      0.00
    6   11    9     -2.43      0.00
    7   11    9      0.96      0.00
    8   11    9      2.66      0.00
    9   11    9     -3.20      0.00
   10   11    9     -1.58      0.00
   11   11    9      2.55      0.00
   -3   12    9      1.04      0.00
   -2   12    9      1.36      0.00
   -1   12    9     -2.10      0.00
    0   12    9      4.89      0.00
    1   12    9     -3.17      0.00
    2   12    9     -0.70      0.00
    3   12    9      3.03      0.00
    4   12    9     -1.64      0.00
    5   12    9     -1.11      0.00
    6   12    9     -0.30      0.00
    7   12    9      1.40      0.00
    8   12    9      0.19      0.00
    9   12    9     -2.97      0.00
   10   12    9      0.91      0.00
   -1   13    9      0.46      0.00
    0   13    9      2.39      0.00
    1   13    9     -3.58      0.00
    2   13    9      1.62      0.00
    3   13    9      2.03      0.00
    4   13    9     -3.00      0.00
    5   13    9      0.39      0.00
    6   13    9      0.78      0.00
    7   13    9      0.32      0.00
    8   13    9     -0.89      0.00
    9   13    9     -0.82      0.00
    1   14    9     -0.97      0.00
    2   14    9      1.38      0.00
    3   14    9     -0.04      0.00
    4   14    9     -2.30      0.00
    5   14    9      1.96      0.00
    6   14    9      0.43      0.00
    7   14    9     -0.28      0.00
    8   14    9     -0.51      0.00
    5   15    9      1.95      0.00
   -5  -13   10     -0.03      0.00
   -4  -13   10     -0.09      0.00
   -3  -13   10      0.51      0.00
   -2  -13   10      0.32      0.00
   -1  -13   10      1.03      0.00
   -7  -12   10      0.29      0.00
   -6  -12   10     -0.47      0.00
   -3  -12   10      0.19      0.00
   -1  -12   10     -0.66      0.00
    0  -12   10     -1.26      0.00
    1  -12   10      1.59      0.00
    2  -12   10     -2.39      0.00
   -8  -11   10     -0.32      0.00
   -7  -11   10      0.44      0.00
   -6  -11   10     -0.96      0.00
   -5  -11   10      0.61      0.00
   -4  -11   10     -0.96      0.00
   -3  -11   10      0.46      0.00
   -2  -11   10      1.23      0.00
   -1  -11   10     -2.39      0.00
    0  -11   10      0.60      0.00
    1  -11   10      1.72      0.00
    2  -11   10     -3.10      0.00
    3  -11   10      0.94      0.00
   -9  -10   10      0.96      0.00
   -8  -10   10     -0.63      0.00
   -7  -10   10      0.12      0.00
   -6  -10   10     -0.32      0.00
   -5  -10   10      1.25      0.00
   -4  -10   10     -0.89      0.00
   -3  -10   10      0.25      0.00
   -2  -10   10      0.24      0.00
   -1  -10   10     -2.14      0.00
    0  -10   10      3.70      0.00
    1  -10   10      0.75      0.00
    2  -10   10     -3.57      0.00
    3  -10   10      1.41      0.00
    4  -10   10     -0.49      0.00
    5  -10   10     -0.11      0.00
  -10   -9   10      0.84      0.00
   -9   -9   10      0.42      0.00
   -8   -9   10     -1.67      0.00
   -7   -9   10      0.92      0.00
   -6   -9   10      0.86      0.00
   -5   -9   10      1.31      0.00
   -4   -9   10     -1.29      0.00
   -3   -9   10     -0.63      0.00
   -2   -9   10     -0.03      0.00
   -1   -9   10     -0.08      0.00
    0   -9   10      4.90      0.00
    1   -9   10     -2.56      0.00
    2   -9   10     -2.33      0.00
    3   -9   10      3.76      0.00
    4   -9   10      0.20      0.00
    5   -9   10     -1.66      0.00
    6   -9   10     -0.19      0.00
  -10   -8   10      1.12      0.00
   -9   -8   10     -1.18      0.00
   -8   -8   10     -1.71      0.00
   -7   -8   10      2.11      0.00
   -6   -8   10      0.67      0.00
   -5   -8   10      0.23      0.00
   -4   -8   10     -2.14      0.00
   -3   -8   10     -0.29      0.00
   -2   -8   10      1.21      0.00
   -1   -8   10      1.39      0.00
    0   -8   10      1.98      0.00
    1   -8   10     -4.99      0.00
    2   -8   10      2.41      0.00
    3   -8   10      4.29      0.00
    4   -8   10     -2.06      0.00
    5   -8   10     -2.90      0.00
    6   -8   10      2.08      0.00
    7   -8   10      2.00      0.00
  -10   -7   10     -0.27      0.00
   -9   -7   10     -2.14      0.00
   -8   -7   10     -0.43      0.00
   -7   -7   10      2.12      0.00
   -6   -7   10     -0.60      0.00
   -5   -7   10     -0.97      0.00
   -4   -7   10     -1.64      0.00
   -3   -7   10      2.08      0.00
   -2   -7   10      1.39      0.00
   -1   -7   10     -0.10      0.00
    0   -7   10     -1.62      0.00
    1   -7   10     -2.02      0.00
    2   -7   10      5.93      0.00
    3   -7   10     -0.96      0.00
    4   -7   10     -3.65      0.00
    5   -7   10     -0.51      0.00
    6   -7   10      4.63      0.00
    7   -7   10     -0.09      0.00
    8   -7   10     -3.03      0.00
  -10   -6   10     -2.22      0.00
   -9   -6   10     -0.67      0.00
   -8   -6   10      0.64      0.00
   -7   -6   10      1.19      0.00
   -6   -6   10     -1.63      0.00
   -5   -6   10     -0.99      0.00
   -4   -6   10      0.82      0.00
   -3   -6   10      3.16      0.00
   -2   -6   10     -2.15      0.00
   -1   -6   10     -1.42      0.00
    0   -6   10     -0.41      0.00
    2   -6   10      2.74      0.00
    3   -6   10     -6.34      0.00
    4   -6   10      0.81      0.00
    5   -6   10      2.02      0.00
    6   -6   10      2.68      0.00
    7   -6   10     -3.74      0.00
    8   -6   10     -0.95      0.00
  -11   -5   10     -3.95      0.00
  -10   -5   10     -1.13      0.00
   -9   -5   10      1.68      0.00
   -8   -5   10     -0.11      0.00
   -7   -5   10      0.29      0.00
   -6   -5   10     -1.92      0.00
   -5   -5   10      0.56      0.00
   -4   -5   10      2.77      0.00
   -3   -5   10      0.07      0.00
   -2   -5   10     -5.54      0.00
   -1   -5   10      2.55      0.00
    0   -5   10      2.51      0.00
    1   -5   10      2.54      0.00
    2   -5   10     -3.31      0.00
    3   -5   10     -4.37      0.00
    4   -5   10      7.44      0.00
    5   -5   10     -1.30      0.00
    6   -5   10     -1.28      0.00
    7   -5   10     -3.25      0.00
    8   -5   10      3.29      0.00
    9   -5   10      3.34      0.00
  -11   -4   10     -4.88      0.00
  -10   -4   10      2.19      0.00
   -9   -4   10      1.50      0.00
   -8   -4   10     -1.83      0.00
   -7   -4   10      0.44      0.00
   -6   -4   10     -1.46      0.00
   -5   -4   10      2.10      0.00
   -4   -4   10      1.78      0.00
   -3   -4   10     -4.26      0.00
   -2   -4   10     -2.99      0.00
   -1   -4   10      8.47      0.00
    0   -4   10     -1.00      0.00
    1   -4   10     -1.89      0.00
    2   -4   10     -4.01      0.00
    3   -4   10      2.33      0.00
    4   -4   10      7.83      0.00
    5   -4   10     -8.44      0.00
    6   -4   10      0.05      0.00
    7   -4   10      0.65      0.00
    8   -4   10      3.73      0.00
    9   -4   10     -0.47      0.00
  -11   -3   10     -3.10      0.00
  -10   -3   10      3.59      0.00
   -9   -3   10     -0.45      0.00
   -8   -3   10     -2.03      0.00
   -7   -3   10      1.69      0.00
   -6   -3   10     -1.47      0.00
   -5   -3   10      2.00      0.00
   -4   -3   10     -0.83      0.00
   -3   -3   10     -5.24      0.00
   -2   -3   10      3.79      0.00
   -1   -3   10      8.04      0.00
    0   -3   10     -9.75      0.00
    1   -3   10     -0.83      0.00
    2   -3   10      0.95      0.00
    3   -3   10      4.64      0.00
    4   -3   10      1.33      0.00
    5   -3   10    -10.98      0.00
    6   -3   10      6.93      0.00
    7   -3   10      0.81      0.00
    8   -3   10     -0.04      0.00
    9   -3   10     -2.31      0.00
   10   -3   10     -1.66      0.00
  -10   -2   10      2.90      0.00
   -9   -2   10     -1.38      0.00
   -8   -2   10     -0.61      0.00
   -7   -2   10      2.17      0.00
   -6   -2   10     -2.61      0.00
   -5   -2   10      1.62      0.00
   -4   -2   10     -2.33      0.00
   -3   -2   10     -2.41      0.00
   -2   -2   10      8.31      0.00
   -1   -2   10      0.33      0.00
    0   -2   10    -13.50      0.00
    1   -2   10      8.50      0.00
    2   -2   10      2.67      0.00
    3   -2   10     -0.43      0.00
    4   -2   10     -3.51      0.00
    5   -2   10     -5.65      0.00
    6   -2   10     11.42      0.00
    7   -2   10     -4.81      0.00
    8   -2   10     -1.77      0.00
    9   -2   10      0.09      0.00
   10   -2   10      0.72      0.00
  -10   -1   10      1.89      0.00
   -9   -1   10     -1.33      0.00
   -8   -1   10      0.63      0.00
   -7   -1   10      0.97      0.00
   -6   -1   10     -2.61      0.00
   -5   -1   10      2.40      0.00
   -4   -1   10     -2.22      0.00
   -3   -1   10      1.44      0.00
   -2   -1   10      6.89      0.00
   -1   -1   10     -7.52      0.00
    0   -1   10     -7.17      0.00
    1   -1   10     16.73      0.00
    2   -1   10     -4.88      0.00
    3   -1   10     -4.93      0.00
    4   -1   10     -0.21      0.00
    5   -1   10      0.71      0.00
    6   -1   10      8.18      0.00
    7   -1   10    -10.27      0.00
    8   -1   10      2.06      0.00
    9   -1   10      2.82      0.00
   10   -1   10     -0.38      0.00
   11   -1   10     -0.14      0.00
  -10    0   10      1.33      0.00
   -9    0   10     -1.05      0.00
   -8    0   10      0.94      0.00
   -7    0   10     -0.36      0.00
   -6    0   10     -0.53      0.00
   -5    0   10      2.47      0.00
   -4    0   10     -1.39      0.00
   -3    0   10      3.06      0.00
   -2    0   10      1.41      0.00
   -1    0   10     -8.79      0.00
    0    0   10      3.07      0.00
    1    0   10     14.35      0.00
    2    0   10    -15.54      0.00
    3    0   10     -0.09      0.00
    4    0   10      6.15      0.00
    5    0   10      0.00      0.00
    6    0   10      1.48      0.00
    7    0   10     -9.34      0.00
    8    0   10      7.88      0.00
    9    0   10      0.86      0.00
   10    0   10     -3.21      0.00
   11    0   10      0.23      0.00
  -10    1   10      1.95      0.00
   -9    1   10     -1.21      0.00
   -8    1   10      0.52      0.00
   -7    1   10     -0.67      0.00
   -6    1   10      0.92      0.00
   -5    1   10      0.78      0.00
   -4    1   10     -0.49      0.00
   -3    1   10      1.39      0.00
   -2    1   10     -2.71      0.00
   -1    1   10     -3.66      0.00
    0    1   10      7.94      0.00
    1    1   10      3.63      0.00
    2    1   10    -18.01      0.00
    3    1   10     11.35      0.00
    4    1   10      5.29      0.00
    5    1   10     -6.09      0.00
    6    1   10     -0.09      0.00
    7    1   10     -3.07      0.00
    8    1   10      8.85      0.00
    9    1   10     -4.68      0.00
   10    1   10     -2.11      0.00
   11    1   10      3.11      0.00
  -10    2   10      2.14      0.00
   -9    2   10     -2.61      0.00
   -8    2   10      0.61      0.00
   -7    2   10     -0.42      0.00
   -6    2   10      0.40      0.00
   -5    2   10     -0.69      0.00
   -4    2   10     -0.12      0.00
   -3    2   10     -1.13      0.00
   -2    2   10     -2.53      0.00
   -1    2   10      2.13      0.00
    0    2   10      4.90      0.00
    1    2   10     -5.17      0.00
    2    2   10     -9.79      0.00
    3    2   10     17.84      0.00
    4    2   10     -4.52      0.00
    5    2   10     -8.17      0.00
    6    2   10      5.23      0.00
    7    2   10      0.56      0.00
    8    2   10      3.58      0.00
    9    2   10     -6.80      0.00
   10    2   10      2.48      0.00
   11    2   10      2.56      0.00
   12    2   10     -1.16      0.00
   -9    3   10     -2.91      0.00
   -8    3   10      2.23      0.00
   -7    3   10     -0.75      0.00
   -6    3   10     -0.54      0.00
   -5    3   10     -0.90      0.00
   -4    3   10     -0.32      0.00
   -3    3   10     -1.94      0.00
   -2    3   10     -0.09      0.00
   -1    3   10      4.21      0.00
    0    3   10     -1.54      0.00
    1    3   10     -5.43      0.00
    2    3   10      0.63      0.00
    3    3   10     12.84      0.00
    4    3   10    -13.78      0.00
    5    3   10     -1.35      0.00
    6    3   10      9.46      0.00
    7    3   10     -3.03      0.00
    8    3   10     -0.56      0.00
    9    3   10     -3.23      0.00
   10    3   10      4.15      0.00
   11    3   10     -0.88      0.00
   12    3   10     -0.38      0.00
   -9    4   10     -0.17      0.00
   -8    4   10      2.98      0.00
   -7    4   10     -2.14      0.00
   -6    4   10     -0.34      0.00
   -5    4   10     -0.66      0.00
   -4    4   10     -0.13      0.00
   -3    4   10     -1.06      0.00
   -2    4   10      1.69      0.00
   -1    4   10      2.52      0.00
    0    4   10     -5.63      0.00
    1    4   10      0.86      0.00
    2    4   10      3.76      0.00
    3    4   10      2.36      0.00
    4    4   10    -13.06      0.00
    5    4   10      7.97      0.00
    6    4   10      5.35      0.00
    7    4   10     -7.94      0.00
    8    4   10      1.73      0.00
    9    4   10     -0.03      0.00
   10    4   10      2.09      0.00
   11    4   10     -2.19      0.00
   12    4   10      1.31      0.00
   -8    5   10      0.61      0.00
   -7    5   10     -2.55      0.00
   -6    5   10      1.35      0.00
   -5    5   10     -0.67      0.00
   -4    5   10      0.99      0.00
   -3    5   10     -0.32      0.00
   -2    5   10      1.47      0.00
   -1    5   10     -0.50      0.00
    0    5   10     -4.76      0.00
    1    5   10      6.34      0.00
    2    5   10     -1.03      0.00
    3    5   10     -2.59      0.00
    4    5   10     -4.50      0.00
    5    5   10      9.94      0.00
    6    5   10     -3.45      0.00
    7    5   10     -6.37      0.00
    8    5   10      6.05      0.00
    9    5   10     -1.07      0.00
   10    5   10      0.52      0.00
   11    5   10     -1.97      0.00
   12    5   10      1.75      0.00
   -8    6   10     -1.83      0.00
   -7    6   10      0.06      0.00
   -6    6   10      2.64      0.00
   -5    6   10     -1.40      0.00
   -4    6   10      2.21      0.00
   -3    6   10     -1.25      0.00
   -2    6   10      0.13      0.00
   -1    6   10     -1.73      0.00
    0    6   10     -1.39      0.00
    1    6   10      5.92      0.00
    2    6   10     -6.24      0.00
    3    6   10      0.73      0.00
    4    6   10      1.65      0.00
    5    6   10      3.93      0.00
    6    6   10     -7.28      0.00
    7    6   10      0.67      0.00
    8    6   10      6.07      0.00
    9    6   10     -3.75      0.00
   10    6   10      0.29      0.00
   11    6   10     -1.89      0.00
   12    6   10      2.42      0.00
   -7    7   10      2.93      0.00
   -6    7   10      1.10      0.00
   -5    7   10     -2.11      0.00
   -4    7   10      2.89      0.00
   -3    7   10     -2.80      0.00
   -2    7   10      0.33      0.00
   -1    7   10     -0.79      0.00
    0    7   10      0.07      0.00
    1    7   10      1.96      0.00
    2    7   10     -6.23      0.00
    3    7   10      5.48      0.00
    4    7   10      0.47      0.00
    5    7   10     -1.81      0.00
    6    7   10     -3.04      0.00
    7    7   10      5.45      0.00
    8    7   10      1.28      0.00
    9    7   10     -4.50      0.00
   10    7   10      0.94      0.00
   11    7   10     -0.80      0.00
   12    7   10      2.37      0.00
   -6    8   10     -1.50      0.00
   -5    8   10     -1.02      0.00
   -4    8   10      3.26      0.00
   -3    8   10     -2.92      0.00
   -2    8   10      2.10      0.00
   -1    8   10     -0.33      0.00
    0    8   10     -0.74      0.00
    1    8   10     -0.17      0.00
    2    8   10     -2.69      0.00
    3    8   10      5.65      0.00
    4    8   10     -3.75      0.00
    5    8   10     -1.48      0.00
    6    8   10      2.76      0.00
    7    8   10      3.06      0.00
    8    8   10     -3.30      0.00
    9    8   10     -1.46      0.00
   10    8   10      2.17      0.00
   11    8   10     -0.45      0.00
   12    8   10      0.16      0.00
   -5    9   10      1.09      0.00
   -4    9   10      2.88      0.00
   -3    9   10     -2.36      0.00
   -2    9   10      2.94      0.00
   -1    9   10     -1.04      0.00
    0    9   10     -1.10      0.00
    1    9   10      0.81      0.00
    2    9   10     -0.25      0.00
    3    9   10      1.96      0.00
    4    9   10     -4.72      0.00
    5    9   10      2.53      0.00
    6    9   10      3.03      0.00
    7    9   10     -2.52      0.00
    8    9   10     -2.44      0.00
    9    9   10      2.97      0.00
   10    9   10      1.10      0.00
   11    9   10     -1.69      0.00
   -5   10   10      1.56      0.00
   -4   10   10      1.21      0.00
   -3   10   10     -2.37      0.00
   -2   10   10      2.83      0.00
   -1   10   10     -1.87      0.00
    0   10   10     -0.06      0.00
    1   10   10      2.54      0.00
    2   10   10     -1.04      0.00
    3   10   10     -0.67      0.00
    4   10   10     -1.02      0.00
    5   10   10      3.96      0.00
    6   10   10     -0.84      0.00
    7   10   10     -3.67      0.00
    8   10   10      1.94      0.00
    9   10   10      3.30      0.00
   10   10   10     -1.99      0.00
   11   10   10     -0.73      0.00
   -3   11   10     -1.73      0.00
   -2   11   10      2.62      0.00
   -1   11   10     -2.59      0.00
    0   11   10      1.90      0.00
    1   11   10      2.25      0.00
    2   11   10     -3.30      0.00
    3   11   10      0.92      0.00
    4   11   10      2.23      0.00
    5   11   10      0.84      0.00
    6   11   10     -2.10      0.00
    7   11   10     -0.37      0.00
    8   11   10      3.13      0.00
    9   11   10     -0.20      0.00
   10   11   10     -2.31      0.00
   11   11   10      2.16      0.00
   -2   12   10      1.56      0.00
   -1   12   10     -2.24      0.00
    0   12   10      3.34      0.00
    1   12   10     -0.69      0.00
    2   12   10     -3.47      0.00
    3   12   10      3.88      0.00
    4   12   10      0.61      0.00
    5   12   10     -2.07      0.00
    6   12   10      0.57      0.00
    7   12   10      1.12      0.00
    8   12   10      0.60      0.00
    9   12   10     -1.81      0.00
   10   12   10      0.22      0.00
   -1   13   10     -0.42      0.00
    0   13   10      2.22      0.00
    1   13   10     -3.12      0.00
    2   13   10     -0.92      0.00
    3   13   10      3.76      0.00
    4   13   10     -2.63      0.00
    5   13   10     -1.31      0.00
    6   13   10      2.30      0.00
    7   13   10     -0.42      0.00
    8   13   10     -0.80      0.00
    9   13   10     -0.49      0.00
    2   14   10      1.02      0.00
    3   14   10      1.48      0.00
    4   14   10     -2.80      0.00
    5   14   10      0.50      0.00
    6   14   10      1.35      0.00
    7   14   10     -1.36      0.00
   -6  -12   11      0.14      0.00
   -5  -12   11      0.97      0.00
   -4  -12   11     -0.13      0.00
   -3  -12   11     -1.24      0.00
   -2  -12   11      1.31      0.00
    0  -12   11     -1.88      0.00
    1  -12   11      1.04      0.00
   -7  -11   11      0.34      0.00
   -6  -11   11      0.12      0.00
   -5  -11   11      0.45      0.00
   -4  -11   11     -0.52      0.00
   -3  -11   11      0.21      0.00
   -2  -11   11      2.48      0.00
   -1  -11   11     -2.09      0.00
    0  -11   11     -2.48      0.00
    1  -11   11      2.61      0.00
    2  -11   11     -1.32      0.00
    3  -11   11      3.02      0.00
   -8  -10   11     -2.07      0.00
   -7  -10   11      0.70      0.00
   -6  -10   11     -0.20      0.00
   -5  -10   11     -0.24      0.00
   -4  -10   11      0.50      0.00
   -3  -10   11      1.46      0.00
   -2  -10   11      0.61      0.00
   -1  -10   11     -4.52      0.00
    0  -10   11      0.04      0.00
    1  -10   11      3.93      0.00
    2  -10   11     -2.42      0.00
    4  -10   11     -0.13      0.00
   -9   -9   11     -0.05      0.00
   -8   -9   11     -2.18      0.00
   -7   -9   11      1.98      0.00
   -6   -9   11     -1.13      0.00
   -5   -9   11      0.07      0.00
   -4   -9   11      1.69      0.00
   -3   -9   11      0.24      0.00
   -2   -9   11     -1.70      0.00
   -1   -9   11     -3.22      0.00
    0   -9   11      3.70      0.00
    1   -9   11      1.21      0.00
    2   -9   11     -5.33      0.00
    3   -9   11      1.40      0.00
    4   -9   11      1.57      0.00
    5   -9   11      0.37      0.00
   -9   -8   11      0.07      0.00
   -8   -8   11     -0.90      0.00
   -7   -8   11      2.28      0.00
   -6   -8   11     -2.24      0.00
   -5   -8   11      1.84      0.00
   -4   -8   11      0.62      0.00
   -3   -8   11     -2.15      0.00
   -2   -8   11     -1.05      0.00
   -1   -8   11      0.54      0.00
    0   -8   11      3.92      0.00
    1   -8   11     -4.26      0.00
    2   -8   11     -3.71      0.00
    3   -8   11      3.70      0.00
    4   -8   11      1.38      0.00
    5   -8   11     -2.41      0.00
    6   -8   11     -0.81      0.00
  -10   -7   11      1.77      0.00
   -9   -7   11     -0.22      0.00
   -8   -7   11     -0.53      0.00
   -7   -7   11      0.91      0.00
   -6   -7   11     -1.47      0.00
   -5   -7   11      3.05      0.00
   -4   -7   11     -2.87      0.00
   -3   -7   11     -1.61      0.00
   -2   -7   11      2.43      0.00
   -1   -7   11      1.57      0.00
    0   -7   11     -0.31      0.00
    1   -7   11     -5.68      0.00
    2   -7   11      2.86      0.00
    3   -7   11      2.69      0.00
    4   -7   11     -1.95      0.00
    5   -7   11     -3.40      0.00
    6   -7   11      1.78      0.00
    7   -7   11      2.34      0.00
  -10   -6   11     -0.49      0.00
   -9   -6   11     -0.94      0.00
   -8   -6   11     -0.74      0.00
   -7   -6   11      0.52      0.00
   -6   -6   11      0.57      0.00
   -5   -6   11      1.17      0.00
   -4   -6   11     -4.97      0.00
   -3   -6   11      3.11      0.00
   -2   -6   11      3.18      0.00
   -1   -6   11     -2.44      0.00
    0   -6   11     -2.89      0.00
    1   -6   11     -0.94      0.00
    2   -6   11      5.96      0.00
    3   -6   11     -3.25      0.00
    4   -6   11     -2.05      0.00
    5   -6   11      0.27      0.00
    6   -6   11      3.88      0.00
    7   -6   11     -0.83      0.00
  -10   -5   11     -2.87      0.00
   -9   -5   11      0.55      0.00
   -8   -5   11     -0.05      0.00
   -7   -5   11      1.42      0.00
   -6   -5   11      0.68      0.00
   -5   -5   11     -1.91      0.00
   -4   -5   11     -2.51      0.00
   -3   -5   11      6.80      0.00
   -2   -5   11     -2.36      0.00
   -1   -5   11     -4.72      0.00
    0   -5   11      1.15      0.00
    1   -5   11      2.92      0.00
    2   -5   11      1.70      0.00
    3   -5   11     -7.03      0.00
    4   -5   11      3.39      0.00
    5   -5   11      2.27      0.00
    6   -5   11      0.95      0.00
    7   -5   11     -3.97      0.00
    8   -5   11     -1.58      0.00
    9   -5   11      3.71      0.00
  -10   -4   11     -1.08      0.00
   -9   -4   11      2.57      0.00
   -8   -4   11      0.34      0.00
   -7   -4   11      1.40      0.00
   -6   -4   11     -0.78      0.00
   -5   -4   11     -2.20      0.00
   -4   -4   11      1.92      0.00
   -3   -4   11      4.47      0.00
   -2   -4   11     -8.57      0.00
   -1   -4   11      1.60      0.00
    0   -4   11      5.56      0.00
    1   -4   11     -0.64      0.00
    2   -4   11     -3.24      0.00
    3   -4   11     -3.95      0.00
    4   -4   11      8.03      0.00
    5   -4   11     -2.35      0.00
    6   -4   11     -2.31      0.00
    7   -4   11     -1.76      0.00
    8   -4   11      2.28      0.00
    9   -4   11      1.78      0.00
  -10   -3   11      1.27      0.00
   -9   -3   11      1.98      0.00
   -8   -3   11     -0.02      0.00
   -7   -3   11      0.43      0.00
   -6   -3   11     -1.15      0.00
   -5   -3   11     -0.03      0.00
   -4   -3   11      3.71      0.00
   -3   -3   11     -1.73      0.00
   -2   -3   11     -7.82      0.00
   -1   -3   11     11.30      0.00
    0   -3   11      0.44      0.00
    1   -3   11     -6.75      0.00
    2   -3   11     -0.58      0.00
    3   -3   11      1.63      0.00
    4   -3   11      6.26      0.00
    5   -3   11     -8.55      0.00
    6   -3   11      0.48      0.00
    7   -3   11      2.12      0.00
    8   -3   11      1.65      0.00
    9   -3   11     -1.32      0.00
   10   -3   11     -2.88      0.00
  -10   -2   11      0.71      0.00
   -9   -2   11      0.99      0.00
   -8   -2   11     -0.47      0.00
   -7   -2   11     -0.59      0.00
   -6   -2   11     -0.51      0.00
   -5   -2   11      1.64      0.00
   -4   -2   11      1.76      0.00
   -3   -2   11     -5.78      0.00
   -2   -2   11     -0.35      0.00
   -1   -2   11     13.41      0.00
    0   -2   11    -11.80      0.00
    1   -2   11     -3.97      0.00
    2   -2   11      7.32      0.00
    3   -2   11      0.98      0.00
    4   -2   11      0.76      0.00
    5   -2   11     -8.66      0.00
    6   -2   11      6.69      0.00
    7   -2   11      1.32      0.00
    8   -2   11     -1.47      0.00
    9   -2   11     -1.37      0.00
   10   -2   11     -0.36      0.00
  -10   -1   11      0.25      0.00
   -9   -1   11      1.07      0.00
   -8   -1   11     -1.50      0.00
   -7   -1   11     -1.17      0.00
   -6   -1   11      0.42      0.00
   -5   -1   11      1.40      0.00
   -4   -1   11     -1.55      0.00
   -3   -1   11     -3.86      0.00
   -2   -1   11      6.47      0.00
   -1   -1   11      5.33      0.00
    0   -1   11    -18.02      0.00
    1   -1   11      8.85      0.00
    2   -1   11      8.13      0.00
    3   -1   11     -6.96      0.00
    4   -1   11     -0.11      0.00
    5   -1   11     -3.16      0.00
    6   -1   11      8.86      0.00
    7   -1   11     -3.54      0.00
    8   -1   11     -2.03      0.00
    9   -1   11      1.26      0.00
   10   -1   11      0.79      0.00
  -10    0   11      0.93      0.00
   -9    0   11      0.30      0.00
   -8    0   11     -2.01      0.00
   -7    0   11     -0.28      0.00
   -6    0   11      1.36      0.00
   -5    0   11     -0.78      0.00
   -4    0   11     -2.37      0.00
   -3    0   11      1.74      0.00
   -2    0   11      5.48      0.00
   -1    0   11     -4.49      0.00
    0    0   11    -11.51      0.00
    1    0   11     18.89      0.00
    2    0   11     -3.37      0.00
    3    0   11    -11.30      0.00
    4    0   11      6.57      0.00
    5    0   11     -0.20      0.00
    6    0   11      4.89      0.00
    7    0   11     -6.81      0.00
    8    0   11      1.32      0.00
    9    0   11      2.71      0.00
   10    0   11     -1.41      0.00
   11    0   11     -0.18      0.00
   -9    1   11     -0.54      0.00
   -8    1   11     -0.58      0.00
   -7    1   11      1.13      0.00
   -6    1   11      0.87      0.00
   -5    1   11     -2.87      0.00
   -4    1   11      0.95      0.00
   -3    1   11      3.95      0.00
   -2    1   11     -1.81      0.00
   -1    1   11     -6.09      0.00
    0    1   11      0.18      0.00
    1    1   11     15.92      0.00
    2    1   11    -16.16      0.00
    3    1   11     -3.34      0.00
    4    1   11     12.49      0.00
    5    1   11     -4.86      0.00
    6    1   11      0.55      0.00
    7    1   11     -4.62      0.00
    8    1   11      5.08      0.00
    9    1   11      0.33      0.00
   10    1   11     -3.44      0.00
   11    1   11      0.87      0.00
   -9    2   11     -0.54      0.00
   -8    2   11      0.79      0.00
   -7    2   11      0.98      0.00
   -6    2   11     -0.73      0.00
   -5    2   11     -1.73      0.00
   -4    2   11      4.35      0.00
   -3    2   11     -0.06      0.00
   -2    2   11     -6.06      0.00
   -1    2   11      0.80      0.00
    0    2   11      5.12      0.00
    1    2   11      4.56      0.00
    2    2   11    -17.18      0.00
    3    2   11     10.19      0.00
    4    2   11      8.28      0.00
    5    2   11    -11.67      0.00
    6    2   11      2.45      0.00
    7    2   11     -0.10      0.00
    8    2   11      4.13      0.00
    9    2   11     -3.12      0.00
   10    2   11     -1.55      0.00
   11    2   11      1.67      0.00
   -9    3   11     -1.12      0.00
   -8    3   11      0.97      0.00
   -7    3   11     -0.11      0.00
   -6    3   11     -0.99      0.00
   -5    3   11      1.18      0.00
   -4    3   11      2.96      0.00
   -3    3   11     -4.31      0.00
   -2    3   11     -2.50      0.00
   -1    3   11      6.99      0.00
    0    3   11      0.26      0.00
    1    3   11     -2.85      0.00
    2    3   11     -7.28      0.00
    3    3   11     15.51      0.00
    4    3   11     -3.39      0.00
    5    3   11    -11.06      0.00
    6    3   11      8.72      0.00
    7    3   11     -0.57      0.00
    8    3   11     -0.25      0.00
    9    3   11     -2.51      0.00
   10    3   11      1.16      0.00
   11    3   11     -0.05      0.00
   -8    4   11      1.31      0.00
   -7    4   11     -1.06      0.00
   -6    4   11      0.01      0.00
   -5    4   11      1.47      0.00
   -4    4   11     -0.89      0.00
   -3    4   11     -2.89      0.00
   -2    4   11      3.07      0.00
   -1    4   11      5.67      0.00
    0    4   11     -6.69      0.00
    1    4   11     -0.43      0.00
    2    4   11      1.49      0.00
    3    4   11      9.00      0.00
    4    4   11    -10.67      0.00
    5    4   11     -2.16      0.00
    6    4   11     10.57      0.00
    7    4   11     -6.31      0.00
    8    4   11     -0.87      0.00
    9    4   11      0.52      0.00
   10    4   11      0.72      0.00
   11    4   11     -0.77      0.00
   12    4   11      1.53      0.00
   -8    5   11      0.87      0.00
   -7    5   11     -2.11      0.00
   -6    5   11      0.82      0.00
   -5    5   11     -0.74      0.00
   -4    5   11     -1.34      0.00
   -3    5   11      1.56      0.00
   -2    5   11      3.34      0.00
   -1    5   11      0.03      0.00
    0    5   11     -7.21      0.00
    1    5   11      5.99      0.00
    2    5   11      0.95      0.00
    3    5   11      0.33      0.00
    4    5   11     -7.78      0.00
    5    5   11      5.56      0.00
    6    5   11      4.61      0.00
    7    5   11     -9.29      0.00
    8    5   11      3.31      0.00
    9    5   11      0.64      0.00
   10    5   11     -0.21      0.00
   11    5   11      0.34      0.00
   12    5   11      1.42      0.00
   -7    6   11     -1.96      0.00
   -6    6   11      1.45      0.00
   -5    6   11     -2.28      0.00
   -4    6   11      1.64      0.00
   -3    6   11      2.47      0.00
   -2    6   11     -0.79      0.00
   -1    6   11     -2.22      0.00
    0    6   11     -1.94      0.00
    1    6   11      7.38      0.00
    2    6   11     -4.50      0.00
    3    6   11     -1.25      0.00
    4    6   11     -1.13      0.00
    5    6   11      5.07      0.00
    6    6   11     -2.51      0.00
    7    6   11     -5.34      0.00
    8    6   11      6.10      0.00
    9    6   11     -1.71      0.00
   10    6   11      0.76      0.00
   11    6   11     -0.09      0.00
   12    6   11      0.38      0.00
   -7    7   11     -0.05      0.00
   -6    7   11      1.14      0.00
   -5    7   11     -2.63      0.00
   -4    7   11      3.61      0.00
   -3    7   11     -0.79      0.00
   -2    7   11     -2.85      0.00
   -1    7   11      0.55      0.00
    0    7   11      1.71      0.00
    1    7   11      3.29      0.00
    2    7   11     -6.00      0.00
    3    7   11      2.63      0.00
    4    7   11      1.15      0.00
    5    7   11     -0.17      0.00
    6    7   11     -3.56      0.00
    7    7   11      0.94      0.00
    8    7   11      4.01      0.00
    9    7   11     -3.16      0.00
   10    7   11      1.49      0.00
   11    7   11     -1.01      0.00
   -6    8   11     -0.59      0.00
   -5    8   11     -2.07      0.00
   -4    8   11      3.34      0.00
   -3    8   11     -3.45      0.00
   -2    8   11     -0.84      0.00
   -1    8   11      2.87      0.00
    0    8   11      0.51      0.00
    1    8   11     -0.02      0.00
    2    8   11     -2.34      0.00
    3    8   11      4.99      0.00
    4    8   11     -1.41      0.00
    5    8   11     -2.69      0.00
    6    8   11      0.67      0.00
    7    8   11      2.89      0.00
    8    8   11     -0.65      0.00
    9    8   11     -2.61      0.00
   10    8   11      1.45      0.00
   11    8   11     -0.32      0.00
   -5    9   11     -0.41      0.00
   -4    9   11      2.19      0.00
   -3    9   11     -3.55      0.00
   -2    9   11      1.28      0.00
   -1    9   11      1.51      0.00
    0    9   11     -2.06      0.00
    1    9   11      0.37      0.00
    2    9   11      1.10      0.00
    3    9   11      2.70      0.00
    4    9   11     -3.91      0.00
    5    9   11     -0.16      0.00
    6    9   11      3.40      0.00
    7    9   11     -0.38      0.00
    8    9   11     -2.80      0.00
    9    9   11     -0.23      0.00
   10    9   11      1.00      0.00
   11    9   11     -0.18      0.00
   -4   10   11      0.66      0.00
   -3   10   11     -2.67      0.00
   -2   10   11      1.42      0.00
   -1   10   11     -1.16      0.00
    0   10   11     -2.60      0.00
    1   10   11      2.45      0.00
    2   10   11      0.58      0.00
    3   10   11     -1.35      0.00
    4   10   11     -2.27      0.00
    5   10   11      2.83      0.00
    6   10   11      0.90      0.00
    7   10   11     -2.90      0.00
    8   10   11     -0.35      0.00
    9   10   11      1.39      0.00
   10   10   11     -0.82      0.00
   11   10   11     -0.69      0.00
   -3   11   11     -1.42      0.00
   -2   11   11      0.84      0.00
   -1   11   11     -2.65      0.00
    0   11   11     -0.59      0.00
    1   11   11      3.60      0.00
    2   11   11     -2.69      0.00
    3   11   11     -1.97      0.00
    4   11   11      1.83      0.00
    5   11   11      1.23      0.00
    6   11   11     -2.29      0.00
    7   11   11     -0.85      0.00
    8   11   11      1.98      0.00
    9   11   11      0.02      0.00
   10   11   11     -2.09      0.00
   -2   12   11      0.08      0.00
   -1   12   11     -2.22      0.00
    0   12   11      2.37      0.00
    1   12   11      2.23      0.00
    2   12   11     -4.65      0.00
    3   12   11      1.34      0.00
    4   12   11      2.76      0.00
    5   12   11     -2.62      0.00
    6   12   11     -1.08      0.00
    7   12   11      1.39      0.00
    8   12   11      0.49      0.00
    9   12   11     -1.36      0.00
    0   13   11      3.16      0.00
    1   13   11     -0.60      0.00
    2   13   11     -3.14      0.00
    3   13   11      3.56      0.00
    4   13   11      0.10      0.00
    5   13   11     -3.02      0.00
    6   13   11      1.78      0.00
    7   13   11      0.11      0.00
    8   13   11     -1.20      0.00
    3   14   11      2.32      0.00
    4   14   11     -1.53      0.00
    5   14   11     -0.73      0.00
    6   14   11      1.99      0.00
   -4  -12   12     -0.14      0.00
   -3  -12   12     -2.31      0.00
   -2  -12   12      1.19      0.00
   -1  -12   12      2.37      0.00
   -6  -11   12      0.61      0.00
   -5  -11   12     -0.32      0.00
   -4  -11   12     -1.43      0.00
   -3  -11   12     -1.17      0.00
   -2  -11   12      3.05      0.00
   -1  -11   12      0.80      0.00
    0  -11   12     -2.61      0.00
    1  -11   12      0.33      0.00
    2  -11   12     -2.05      0.00
   -7  -10   12     -0.70      0.00
   -6  -10   12      1.49      0.00
   -5  -10   12     -1.42      0.00
   -4  -10   12     -0.81      0.00
   -3  -10   12      0.86      0.00
   -2  -10   12      1.83      0.00
   -1  -10   12     -1.35      0.00
    0  -10   12     -2.41      0.00
    1  -10   12      2.70      0.00
    2  -10   12      0.02      0.00
    3  -10   12      0.82      0.00
   -8   -9   12     -3.15      0.00
   -7   -9   12      1.70      0.00
   -6   -9   12      1.18      0.00
   -5   -9   12     -2.08      0.00
   -4   -9   12      1.30      0.00
   -3   -9   12      1.04      0.00
   -2   -9   12     -0.72      0.00
   -1   -9   12     -1.65      0.00
    0   -9   12      0.44      0.00
    1   -9   12      4.54      0.00
    2   -9   12     -0.83      0.00
    3   -9   12     -1.64      0.00
    4   -9   12     -0.55      0.00
    5   -9   12     -0.59      0.00
   -9   -8   12      0.79      0.00
   -8   -8   12     -2.20      0.00
   -7   -8   12      3.37      0.00
   -6   -8   12     -1.63      0.00
   -5   -8   12     -0.72      0.00
   -4   -8   12      2.93      0.00
   -3   -8   12     -1.21      0.00
   -2   -8   12     -2.15      0.00
   -1   -8   12      0.00      0.00
    0   -8   12      3.07      0.00
    1   -8   12      1.74      0.00
    2   -8   12     -2.85      0.00
    3   -8   12     -0.50      0.00
    4   -8   12      2.98      0.00
    5   -8   12     -0.57      0.00
    6   -8   12     -1.78      0.00
   -9   -7   12      1.17      0.00
   -8   -7   12     -1.33      0.00
   -7   -7   12      1.85      0.00
   -6   -7   12     -3.46      0.00
   -5   -7   12      2.81      0.00
   -4   -7   12      1.18      0.00
   -3   -7   12     -4.21      0.00
   -2   -7   12     -0.28      0.00
   -1   -7   12      2.30      0.00
    0   -7   12      2.33      0.00
    1   -7   12     -3.15      0.00
    2   -7   12     -1.03      0.00
    3   -7   12      1.94      0.00
    4   -7   12      2.77      0.00
    5   -7   12     -2.93      0.00
    6   -7   12     -1.80      0.00
    7   -7   12      3.60      0.00
   -9   -6   12     -0.03      0.00
   -8   -6   12     -1.78      0.00
   -7   -6   12      0.26      0.00
   -6   -6   12     -1.28      0.00
   -5   -6   12      4.49      0.00
   -4   -6   12     -3.70      0.00
   -3   -6   12     -3.25      0.00
   -2   -6   12      4.22      0.00
   -1   -6   12      1.18      0.00
    0   -6   12     -1.13      0.00
    1   -6   12     -3.94      0.00
    2   -6   12      3.22      0.00
    3   -6   12      0.51      0.00
    4   -6   12     -0.04      0.00
    5   -6   12     -2.75      0.00
    6   -6   12      1.26      0.00
    7   -6   12      4.26      0.00
   -9   -5   12     -0.79      0.00
   -8   -5   12     -1.46      0.00
   -7   -5   12      1.16      0.00
   -6   -5   12      1.33      0.00
   -5   -5   12      1.78      0.00
   -4   -5   12     -6.16      0.00
   -3   -5   12      2.92      0.00
   -2   -5   12      4.65      0.00
   -1   -5   12     -4.36      0.00
    0   -5   12     -1.26      0.00
    1   -5   12      0.28      0.00
    2   -5   12      4.48      0.00
    3   -5   12     -3.18      0.00
    4   -5   12      0.41      0.00
    5   -5   12      0.23      0.00
    6   -5   12      2.10      0.00
    7   -5   12      0.63      0.00
    8   -5   12     -3.36      0.00
  -10   -4   12     -3.34      0.00
   -9   -4   12      0.55      0.00
   -8   -4   12     -0.39      0.00
   -7   -4   12      2.12      0.00
   -6   -4   12      0.42      0.00
   -5   -4   12     -1.66      0.00
   -4   -4   12     -3.13      0.00
   -3   -4   12      7.82      0.00
   -2   -4   12     -2.36      0.00
   -1   -4   12     -6.31      0.00
    0   -4   12      4.67      0.00
    1   -4   12      2.19      0.00
    2   -4   12      0.87      0.00
    3   -4   12     -4.28      0.00
    4   -4   12      4.05      0.00
    5   -4   12      0.73      0.00
    6   -4   12     -0.62      0.00
    7   -4   12     -1.71      0.00
    8   -4   12     -0.18      0.00
    9   -4   12      3.02      0.00
  -10   -3   12     -0.60      0.00
   -9   -3   12      0.75      0.00
   -8   -3   12      0.63      0.00
   -7   -3   12      0.96      0.00
   -6   -3   12     -2.11      0.00
   -5   -3   12     -1.82      0.00
   -4   -3   12      1.49      0.00
   -3   -3   12      5.98      0.00
   -2   -3   12     -9.75      0.00
   -1   -3   12      1.27      0.00
    0   -3   12      8.17      0.00
    1   -3   12     -3.82      0.00
    2   -3   12     -1.91      0.00
    3   -3   12     -1.25      0.00
    4   -3   12      5.80      0.00
    5   -3   12     -2.60      0.00
    6   -3   12     -1.73      0.00
    7   -3   12     -0.23      0.00
    9   -3   12      1.07      0.00
   -9   -2   12      0.26      0.00
   -8   -2   12      1.87      0.00
   -7   -2   12     -1.67      0.00
   -6   -2   12     -2.41      0.00
   -5   -2   12      0.76      0.00
   -4   -2   12      2.61      0.00
   -3   -2   12     -0.15      0.00
   -2   -2   12     -9.41      0.00
   -1   -2   12     11.41      0.00
    0   -2   12      0.97      0.00
    1   -2   12    -10.15      0.00
    2   -2   12      3.13      0.00
    3   -2   12      1.28      0.00
    4   -2   12      2.91      0.00
    5   -2   12     -5.32      0.00
    6   -2   12      0.87      0.00
    7   -2   12      1.10      0.00
    8   -2   12      1.04      0.00
    9   -2   12     -0.47      0.00
   10   -2   12     -1.17      0.00
   -9   -1   12      1.84      0.00
   -8   -1   12      1.27      0.00
   -7   -1   12     -3.60      0.00
   -6   -1   12      0.65      0.00
   -5   -1   12      2.72      0.00
   -4   -1   12     -0.67      0.00
   -3   -1   12     -3.47      0.00
   -2   -1   12     -2.18      0.00
   -1   -1   12     13.28      0.00
    0   -1   12    -11.01      0.00
    1   -1   12     -5.56      0.00
    2   -1   12     11.19      0.00
    3   -1   12     -3.06      0.00
    4   -1   12     -0.54      0.00
    5   -1   12     -3.86      0.00
    6   -1   12      3.62      0.00
    7   -1   12      0.01      0.00
    8   -1   12     -0.21      0.00
    9   -1   12     -0.49      0.00
   10   -1   12     -0.55      0.00
   -9    0   12      2.23      0.00
   -8    0   12     -1.47      0.00
   -7    0   12     -2.31      0.00
   -6    0   12      4.36      0.00
   -5    0   12      1.00      0.00
   -4    0   12     -4.14      0.00
   -3    0   12      0.24      0.00
   -2    0   12      3.32      0.00
   -1    0   12      5.81      0.00
    0    0   12    -15.40      0.00
    1    0   12      6.79      0.00
    2    0   12     10.20      0.00
    3    0   12    -11.31      0.00
    4    0   12      2.01      0.00
    5    0   12     -0.60      0.00
    6    0   12      3.20      0.00
    7    0   12     -2.16      0.00
    8    0   12     -0.48      0.00
    9    0   12      0.55      0.00
   10    0   12     -0.09      0.00
   -9    1   12     -0.04      0.00
   -8    1   12     -1.94      0.00
   -7    1   12      0.90      0.00
   -6    1   12      4.42      0.00
   -5    1   12     -3.27      0.00
   -4    1   12     -2.46      0.00
   -3    1   12      6.03      0.00
   -2    1   12      0.24      0.00
   -1    1   12     -1.70      0.00
    0    1   12     -9.21      0.00
    1    1   12     13.90      0.00
    2    1   12     -0.82      0.00
    3    1   12    -12.92      0.00
    4    1   12      9.48      0.00
    5    1   12     -1.08      0.00
    6    1   12      0.40      0.00
    7    1   12     -2.82      0.00
    8    1   12      0.91      0.00
    9    1   12      1.47      0.00
   10    1   12     -0.59      0.00
   11    1   12      1.03      0.00
   -9    2   12     -0.70      0.00
   -8    2   12      0.11      0.00
   -7    2   12      1.72      0.00
   -6    2   12      0.90      0.00
   -5    2   12     -4.89      0.00
   -4    2   12      2.96      0.00
   -3    2   12      5.14      0.00
   -2    2   12     -7.00      0.00
   -1    2   12     -0.55      0.00
    0    2   12     -0.64      0.00
    1    2   12     10.14      0.00
    2    2   12    -10.55      0.00
    3    2   12     -4.58      0.00
    4    2   12     13.15      0.00
    5    2   12     -6.46      0.00
    6    2   12     -0.34      0.00
    7    2   12     -0.37      0.00
    8    2   12      2.05      0.00
    9    2   12      0.27      0.00
   10    2   12     -1.13      0.00
   11    2   12      1.17      0.00
   -8    3   12      0.63      0.00
   -7    3   12      0.28      0.00
   -6    3   12     -1.47      0.00
   -5    3   12     -2.06      0.00
   -4    3   12      4.93      0.00
   -3    3   12     -1.70      0.00
   -2    3   12     -8.03      0.00
   -1    3   12      6.61      0.00
    0    3   12      0.75      0.00
    1    3   12      1.75      0.00
    2    3   12    -10.33      0.00
    3    3   12      5.45      0.00
    4    3   12      8.08      0.00
    5    3   12    -10.86      0.00
    6    3   12      3.72      0.00
    7    3   12      1.72      0.00
    8    3   12     -0.03      0.00
    9    3   12     -0.93      0.00
   10    3   12     -0.51      0.00
   11    3   12     -0.05      0.00
   -8    4   12      0.17      0.00
   -7    4   12     -0.30      0.00
   -6    4   12     -0.73      0.00
   -5    4   12      0.80      0.00
   -4    4   12      1.43      0.00
   -3    4   12     -5.09      0.00
   -2    4   12     -1.50      0.00
   -1    4   12      9.37      0.00
    0    4   12     -5.15      0.00
    1    4   12     -1.14      0.00
    2    4   12     -3.17      0.00
    3    4   12      7.89      0.00
    4    4   12     -0.45      0.00
    5    4   12     -8.72      0.00
    6    4   12      8.37      0.00
    7    4   12     -0.84      0.00
    8    4   12     -2.16      0.00
    9    4   12      0.85      0.00
   10    4   12     -0.83      0.00
   11    4   12     -1.16      0.00
   -7    5   12     -0.28      0.00
   -6    5   12      0.86      0.00
   -5    5   12      0.29      0.00
   -4    5   12     -1.64      0.00
   -3    5   12     -1.38      0.00
   -2    5   12      3.55      0.00
   -1    5   12      4.01      0.00
    0    5   12     -8.91      0.00
    1    5   12      3.51      0.00
    2    5   12      0.76      0.00
    3    5   12      3.26      0.00
    4    5   12     -3.85      0.00
    5    5   12     -2.57      0.00
    6    5   12      7.85      0.00
    7    5   12     -5.02      0.00
    8    5   12     -0.17      0.00
    9    5   12      2.16      0.00
   10    5   12     -2.43      0.00
   11    5   12      0.48      0.00
   -7    6   12     -0.59      0.00
   -6    6   12      1.75      0.00
   -5    6   12     -1.72      0.00
   -4    6   12     -0.20      0.00
   -3    6   12      2.80      0.00
   -2    6   12      1.59      0.00
   -1    6   12     -1.99      0.00
    0    6   12     -5.15      0.00
    1    6   12      7.07      0.00
    2    6   12     -2.23      0.00
    3    6   12     -0.11      0.00
    4    6   12     -1.35      0.00
    5    6   12      0.90      0.00
    6    6   12      3.32      0.00
    7    6   12     -5.36      0.00
    8    6   12      2.87      0.00
    9    6   12      0.43      0.00
   10    6   12     -1.81      0.00
   11    6   12      2.17      0.00
   -6    7   12      1.76      0.00
   -5    7   12     -2.61      0.00
   -4    7   12      2.78      0.00
   -3    7   12      1.80      0.00
   -2    7   12     -2.52      0.00
   -1    7   12     -2.00      0.00
    0    7   12      0.18      0.00
    1    7   12      3.98      0.00
    2    7   12     -5.29      0.00
    3    7   12      1.25      0.00
    4    7   12      1.00      0.00
    5    7   12      0.02      0.00
    6    7   12      0.20      0.00
    7    7   12     -2.20      0.00
    8    7   12      3.09      0.00
    9    7   12     -0.76      0.00
   10    7   12      0.35      0.00
   11    7   12      0.61      0.00
   -5    8   12     -1.99      0.00
   -4    8   12      3.64      0.00
   -3    8   12     -1.50      0.00
   -2    8   12     -2.52      0.00
   -1    8   12      1.24      0.00
    0    8   12      0.87      0.00
    1    8   12     -0.55      0.00
    2    8   12     -3.59      0.00
    3    8   12      3.01      0.00
    4    8   12      0.03      0.00
    5    8   12     -1.65      0.00
    6    8   12      0.73      0.00
    7    8   12      0.37      0.00
    8    8   12      1.43      0.00
    9    8   12      0.03      0.00
   10    8   12      0.38      0.00
   -4    9   12      2.68      0.00
   -3    9   12     -2.52      0.00
   -2    9   12      0.51      0.00
   -1    9   12      2.42      0.00
    0    9   12     -1.22      0.00
    1    9   12     -1.13      0.00
    2    9   12     -0.25      0.00
    3    9   12      1.94      0.00
    4    9   12     -2.18      0.00
    5    9   12     -0.98      0.00
    6    9   12      2.48      0.00
    7    9   12     -0.17      0.00
    8    9   12      0.05      0.00
    9    9   12      0.77      0.00
   10    9   12     -0.82      0.00
   -3   10   12     -1.50      0.00
   -2   10   12      2.43      0.00
   -1   10   12      1.02      0.00
    0   10   12     -2.30      0.00
    1   10   12      1.16      0.00
    2   10   12      1.07      0.00
    3   10   12     -0.78      0.00
    4   10   12     -2.32      0.00
    5   10   12      1.65      0.00
    6   10   12      1.87      0.00
    7   10   12     -2.11      0.00
    8   10   12      0.41      0.00
    9   10   12      0.63      0.00
   10   10   12     -1.07      0.00
   -2   11   12      2.20      0.00
   -1   11   12     -0.99      0.00
    0   11   12     -1.48      0.00
    1   11   12      3.43      0.00
    2   11   12     -0.22      0.00
    3   11   12     -2.37      0.00
    4   11   12      0.59      0.00
    5   11   12      2.53      0.00
    6   11   12     -0.76      0.00
    7   11   12     -1.44      0.00
    8   11   12      1.51      0.00
    9   11   12     -0.51      0.00
   -1   12   12     -1.91      0.00
    0   12   12      0.67      0.00
    1   12   12      3.52      0.00
    2   12   12     -2.63      0.00
    3   12   12     -1.09      0.00
    4   12   12      3.11      0.00
    5   12   12     -0.10      0.00
    6   12   12     -1.27      0.00
    7   12   12      1.12      0.00
    8   12   12      0.59      0.00
    1   13   12      1.10      0.00
    2   13   12     -3.40      0.00
    3   13   12      1.29      0.00
    4   13   12      2.10      0.00
    5   13   12     -2.51      0.00
    6   13   12      0.79      0.00
    7   13   12      1.29      0.00
   -5  -11   13      0.62      0.00
   -4  -11   13     -0.22      0.00
   -3  -11   13     -0.96      0.00
   -2  -11   13      1.24      0.00
   -1  -11   13      0.83      0.00
    0  -11   13     -0.50      0.00
   -6  -10   13      1.86      0.00
   -5  -10   13     -0.37      0.00
   -4  -10   13     -0.34      0.00
   -3  -10   13      1.14      0.00
   -2  -10   13      0.37      0.00
   -1  -10   13      0.06      0.00
    0  -10   13     -1.40      0.00
    1  -10   13     -1.55      0.00
    2  -10   13      0.11      0.00
   -7   -9   13     -1.65      0.00
   -6   -9   13      2.97      0.00
   -5   -9   13     -1.85      0.00
   -4   -9   13      0.26      0.00
   -3   -9   13      1.72      0.00
   -2   -9   13     -1.03      0.00
   -1   -9   13      0.19      0.00
    0   -9   13     -1.82      0.00
    1   -9   13     -0.28      0.00
    2   -9   13      2.50      0.00
    3   -9   13     -0.43      0.00
   -8   -8   13     -2.09      0.00
   -7   -8   13      1.00      0.00
   -6   -8   13      2.11      0.00
   -5   -8   13     -2.99      0.00
   -4   -8   13      1.82      0.00
   -3   -8   13      1.48      0.00
   -2   -8   13     -1.71      0.00
   -1   -8   13      0.21      0.00
    0   -8   13     -0.46      0.00
    1   -8   13      1.21      0.00
    2   -8   13      1.23      0.00
    3   -8   13     -4.41      0.00
    4   -8   13      0.39      0.00
    5   -8   13      2.52      0.00
   -8   -7   13     -1.38      0.00
   -7   -7   13      2.09      0.00
   -6   -7   13     -0.57      0.00
   -5   -7   13     -1.38      0.00
   -4   -7   13      3.70      0.00
   -3   -7   13     -0.73      0.00
   -2   -7   13     -2.13      0.00
   -1   -7   13      0.97      0.00
    0   -7   13      1.70      0.00
    1   -7   13      0.11      0.00
    2   -7   13     -0.44      0.00
    3   -7   13     -4.01      0.00
    4   -7   13      3.02      0.00
    5   -7   13      1.26      0.00
    6   -7   13     -3.76      0.00
   -8   -6   13     -1.58      0.00
   -7   -6   13      0.82      0.00
   -6   -6   13     -1.73      0.00
   -5   -6   13      2.09      0.00
   -4   -6   13      2.11      0.00
   -3   -6   13     -4.16      0.00
   -2   -6   13      0.43      0.00
   -1   -6   13      2.29      0.00
    0   -6   13      1.23      0.00
    1   -6   13     -2.48      0.00
    2   -6   13      0.49      0.00
    3   -6   13     -1.62      0.00
    4   -6   13      3.18      0.00
    5   -6   13     -1.22      0.00
    6   -6   13     -3.54      0.00
    7   -6   13      4.09      0.00
   -9   -5   13      0.10      0.00
   -8   -5   13     -1.97      0.00
   -7   -5   13      0.24      0.00
   -6   -5   13     -0.44      0.00
   -5   -5   13      3.01      0.00
   -4   -5   13     -2.77      0.00
   -3   -5   13     -3.35      0.00
   -2   -5   13      5.07      0.00
   -1   -5   13      0.01      0.00
    0   -5   13     -1.48      0.00
    1   -5   13     -2.66      0.00
    2   -5   13      2.70      0.00
    3   -5   13     -1.06      0.00
    4   -5   13      1.81      0.00
    5   -5   13     -1.62      0.00
    6   -5   13     -0.96      0.00
    7   -5   13      3.87      0.00
   -9   -4   13      0.31      0.00
   -8   -4   13     -1.34      0.00
   -7   -4   13      1.90      0.00
   -6   -4   13      0.32      0.00
   -5   -4   13      0.68      0.00
   -4   -4   13     -5.27      0.00
   -3   -4   13      2.30      0.00
   -2   -4   13      4.69      0.00
   -1   -4   13     -5.13      0.00
    0   -4   13     -0.34      0.00
    1   -4   13      0.21      0.00
    2   -4   13      2.76      0.00
    3   -4   13     -2.41      0.00
    4   -4   13      1.34      0.00
    5   -4   13     -1.05      0.00
    6   -4   13      0.16      0.00
    7   -4   13      1.44      0.00
    8   -4   13     -3.12      0.00
   -9   -3   13      0.24      0.00
   -8   -3   13      0.31      0.00
   -7   -3   13      3.52      0.00
   -6   -3   13     -1.60      0.00
   -5   -3   13     -0.90      0.00
   -4   -3   13     -2.91      0.00
   -3   -3   13      6.32      0.00
   -2   -3   13     -2.14      0.00
   -1   -3   13     -5.29      0.00
    0   -3   13      5.30      0.00
    1   -3   13      0.12      0.00
    2   -3   13      0.02      0.00
    3   -3   13     -2.56      0.00
    4   -3   13      2.09      0.00
    5   -3   13     -1.63      0.00
    6   -3   13     -0.01      0.00
    7   -3   13     -0.18      0.00
    9   -3   13      0.32      0.00
   -9   -2   13     -1.27      0.00
   -8   -2   13      2.81      0.00
   -7   -2   13      1.65      0.00
   -6   -2   13     -4.20      0.00
   -5   -2   13      1.16      0.00
   -4   -2   13      0.51      0.00
   -3   -2   13      4.67      0.00
   -2   -2   13     -7.94      0.00
   -1   -2   13      1.66      0.00
    0   -2   13      6.99      0.00
    1   -2   13     -5.51      0.00
    2   -2   13     -0.03      0.00
    3   -2   13     -0.12      0.00
    4   -2   13      2.13      0.00
    5   -2   13     -2.53      0.00
    6   -2   13      0.54      0.00
    7   -2   13     -0.91      0.00
    8   -2   13     -0.45      0.00
    9   -2   13      1.00      0.00
   -9   -1   13     -0.56      0.00
   -8   -1   13      3.58      0.00
   -7   -1   13     -3.12      0.00
   -6   -1   13     -3.33      0.00
   -5   -1   13      4.58      0.00
   -4   -1   13     -0.09      0.00
   -3   -1   13      0.51      0.00
   -2   -1   13     -6.77      0.00
   -1   -1   13      8.31      0.00
    0   -1   13      0.94      0.00
    1   -1   13     -9.06      0.00
    2   -1   13      5.59      0.00
    3   -1   13      0.33      0.00
    4   -1   13      0.53      0.00
    5   -1   13     -1.97      0.00
    6   -1   13      1.31      0.00
    7   -1   13     -1.21      0.00
    8   -1   13      1.18      0.00
    9   -1   13      1.11      0.00
   10   -1   13     -1.68      0.00
   -9    0   13      1.67      0.00
   -8    0   13      0.53      0.00
   -7    0   13     -5.08      0.00
   -6    0   13      1.05      0.00
   -5    0   13      4.31      0.00
   -4    0   13     -4.29      0.00
   -3    0   13      0.23      0.00
   -2    0   13     -1.37      0.00
   -1    0   13      8.07      0.00
    0    0   13     -6.11      0.00
    1    0   13     -5.00      0.00
    2    0   13     10.39      0.00
    3    0   13     -4.37      0.00
    4    0   13      0.00      0.00
    5    0   13     -0.23      0.00
    6    0   13      1.20      0.00
    7    0   13     -0.87      0.00
    8    0   13      1.58      0.00
    9    0   13     -0.51      0.00
   10    0   13     -1.90      0.00
   -8    1   13     -2.00      0.00
   -7    1   13     -1.89      0.00
   -6    1   13      3.88      0.00
   -5    1   13     -0.09      0.00
   -4    1   13     -5.92      0.00
   -3    1   13      4.83      0.00
   -2    1   13      0.25      0.00
   -1    1   13      2.60      0.00
    0    1   13     -7.37      0.00
    1    1   13      2.20      0.00
    2    1   13      8.65      0.00
    3    1   13     -9.58      0.00
    4    1   13      2.90      0.00
    5    1   13      0.60      0.00
    6    1   13      0.14      0.00
    7    1   13     -0.64      0.00
    8    1   13      0.67      0.00
    9    1   13     -0.91      0.00
   10    1   13     -0.52      0.00
   -8    2   13     -0.50      0.00
   -7    2   13      1.27      0.00
   -6    2   13      2.77      0.00
   -5    2   13     -3.57      0.00
   -4    2   13     -2.12      0.00
   -3    2   13      7.68      0.00
   -2    2   13     -4.50      0.00
   -1    2   13     -0.55      0.00
    0    2   13     -3.15      0.00
    1    2   13      5.90      0.00
    2    2   13      2.38      0.00
    3    2   13     -9.74      0.00
    4    2   13      7.23      0.00
    5    2   13     -1.10      0.00
    6    2   13     -1.01      0.00
    7    2   13     -0.01      0.00
    8    2   13      0.70      0.00
    9    2   13      0.18      0.00
   10    2   13      0.11      0.00
   -8    3   13      1.08      0.00
   -7    3   13      0.99      0.00
   -6    3   13      0.53      0.00
   -5    3   13     -3.29      0.00
   -4    3   13      2.33      0.00
   -3    3   13      4.50      0.00
   -2    3   13     -8.70      0.00
   -1    3   13      2.98      0.00
    0    3   13      0.56      0.00
    1    3   13      3.67      0.00
    2    3   13     -2.80      0.00
    3    3   13     -4.79      0.00
    4    3   13      8.80      0.00
    5    3   13     -4.50      0.00
    6    3   13     -0.32      0.00
    7    3   13      1.44      0.00
    8    3   13      0.28      0.00
    9    3   13      0.30      0.00
   10    3   13      0.04      0.00
   11    3   13     -0.51      0.00
   -7    4   13     -0.28      0.00
   -6    4   13     -0.56      0.00
   -5    4   13     -1.32      0.00
   -4    4   13      2.74      0.00
   -3    4   13     -0.49      0.00
   -2    4   13     -6.33      0.00
   -1    4   13      8.07      0.00
    0    4   13     -1.67      0.00
    1    4   13     -0.29      0.00
    2    4   13     -2.63      0.00
    3    4   13      0.31      0.00
    4    4   13      5.94      0.00
    5    4   13     -6.35      0.00
    6    4   13      2.24      0.00
    7    4   13      1.21      0.00
    8    4   13     -1.71      0.00
    9    4   13      0.87      0.00
   10    4   13     -0.14      0.00
   11    4   13     -1.60      0.00
   -7    5   13     -0.84      0.00
   -6    5   13     -0.42      0.00
   -5    5   13     -0.35      0.00
   -4    5   13      0.23      0.00
   -3    5   13     -1.66      0.00
   -2    5   13     -0.79      0.00
   -1    5   13      7.32      0.00
    0    5   13     -6.57      0.00
    1    5   13      0.71      0.00
    2    5   13      0.20      0.00
    3    5   13      0.78      0.00
    4    5   13      2.17      0.00
    5    5   13     -5.11      0.00
    6    5   13      3.56      0.00
    7    5   13     -0.89      0.00
    8    5   13     -2.08      0.00
    9    5   13      2.07      0.00
   10    5   13     -1.87      0.00
   11    5   13     -1.16      0.00
   -6    6   13      0.59      0.00
   -5    6   13     -1.18      0.00
   -4    6   13     -0.98      0.00
   -3    6   13      0.67      0.00
   -2    6   13      1.25      0.00
   -1    6   13      2.08      0.00
    0    6   13     -6.55      0.00
    1    6   13      4.73      0.00
    2    6   13     -0.58      0.00
    3    6   13     -0.82      0.00
    4    6   13      1.26      0.00
    5    6   13     -3.47      0.00
    6    6   13      2.65      0.00
    7    6   13     -1.58      0.00
    8    6   13     -0.89      0.00
    9    6   13      1.03      0.00
   10    6   13     -2.80      0.00
   11    6   13      1.62      0.00
   -5    7   13     -2.41      0.00
   -4    7   13      0.81      0.00
   -3    7   13      1.92      0.00
   -2    7   13     -0.74      0.00
   -1    7   13     -0.80      0.00
    0    7   13     -2.24      0.00
    1    7   13      4.65      0.00
    2    7   13     -3.01      0.00
    3    7   13      0.50      0.00
    4    7   13      1.27      0.00
    5    7   13     -3.23      0.00
    6    7   13      1.91      0.00
    7    7   13     -0.77      0.00
    8    7   13     -1.20      0.00
    9    7   13     -0.08      0.00
   10    7   13     -0.25      0.00
   11    7   13      2.75      0.00
   -5    8   13     -2.13      0.00
   -4    8   13      2.79      0.00
   -3    8   13      0.09      0.00
   -2    8   13     -2.17      0.00
   -1    8   13      0.33      0.00
    0    8   13      0.04      0.00
    1    8   13      1.58      0.00
    2    8   13     -1.78      0.00
    3    8   13      2.50      0.00
    4    8   13     -0.19      0.00
    5    8   13     -2.69      0.00
    6    8   13      2.07      0.00
    7    8   13     -0.63      0.00
    8    8   13     -1.76      0.00
    9    8   13      1.59      0.00
   10    8   13      1.38      0.00
   -4    9   13      2.35      0.00
   -3    9   13     -2.00      0.00
   -2    9   13     -0.92      0.00
   -1    9   13      1.53      0.00
    0    9   13     -0.94      0.00
    1    9   13      0.56      0.00
    2    9   13      0.74      0.00
    3    9   13      1.69      0.00
    4    9   13     -1.38      0.00
    5    9   13     -1.22      0.00
    6    9   13      2.07      0.00
    7    9   13     -1.10      0.00
    8    9   13     -0.61      0.00
    9    9   13      2.80      0.00
   10    9   13     -0.97      0.00
   -3   10   13     -2.05      0.00
   -2   10   13      0.69      0.00
   -1   10   13      0.62      0.00
    0   10   13     -2.30      0.00
    1   10   13      1.26      0.00
    2   10   13      0.89      0.00
    3   10   13     -0.16      0.00
    4   10   13     -1.29      0.00
    5   10   13      0.15      0.00
    6   10   13      1.46      0.00
    7   10   13     -1.52      0.00
    8   10   13      1.02      0.00
    9   10   13      1.30      0.00
   -1   11   13     -1.08      0.00
    0   11   13     -2.44      0.00
    1   11   13      1.97      0.00
    2   11   13     -0.15      0.00
    3   11   13     -1.35      0.00
    4   11   13     -0.43      0.00
    5   11   13      1.04      0.00
    6   11   13      0.07      0.00
    7   11   13     -1.36      0.00
    8   11   13      1.92      0.00
    9   11   13     -0.65      0.00
    0   12   13     -1.06      0.00
    1   12   13      2.45      0.00
    2   12   13     -1.21      0.00
    3   12   13     -1.62      0.00
    4   12   13      1.18      0.00
    5   12   13      0.68      0.00
    6   12   13     -1.20      0.00
    7   12   13     -0.18      0.00
    4   13   13      2.03      0.00
    5   13   13     -0.74      0.00
   -5  -10   14     -0.09      0.00
   -4  -10   14     -0.98      0.00
   -3  -10   14      0.48      0.00
   -2  -10   14     -0.04      0.00
   -1  -10   14     -0.47      0.00
    0  -10   14      1.83      0.00
    1  -10   14     -1.28      0.00
   -6   -9   14      1.62      0.00
   -5   -9   14      0.06      0.00
   -4   -9   14     -0.58      0.00
   -3   -9   14      0.52      0.00
   -2   -9   14     -0.98      0.00
   -1   -9   14     -0.15      0.00
    0   -9   14      0.97      0.00
    1   -9   14     -1.69      0.00
    2   -9   14      0.94      0.00
    3   -9   14      3.58      0.00
   -7   -8   14     -2.76      0.00
   -6   -8   14      3.14      0.00
   -5   -8   14     -0.89      0.00
   -4   -8   14     -0.89      0.00
   -3   -8   14      0.86      0.00
   -2   -8   14     -0.79      0.00
   -1   -8   14     -0.45      0.00
    0   -8   14      0.94      0.00
    1   -8   14     -0.64      0.00
    2   -8   14      2.51      0.00
    3   -8   14      0.84      0.00
    4   -8   14     -3.51      0.00
   -7   -7   14     -1.13      0.00
   -6   -7   14      2.68      0.00
   -5   -7   14     -2.62      0.00
   -4   -7   14      0.23      0.00
   -3   -7   14      1.61      0.00
   -2   -7   14     -1.52      0.00
   -1   -7   14     -0.73      0.00
    0   -7   14      1.75      0.00
    1   -7   14     -1.51      0.00
    2   -7   14      1.26      0.00
    3   -7   14     -2.25      0.00
    4   -7   14     -0.98      0.00
   -8   -6   14     -0.37      0.00
   -7   -6   14      0.19      0.00
   -6   -6   14      0.81      0.00
   -5   -6   14     -2.20      0.00
   -4   -6   14      2.18      0.00
   -3   -6   14     -0.41      0.00
   -2   -6   14     -2.32      0.00
   -1   -6   14      0.34      0.00
    0   -6   14      1.81      0.00
    1   -6   14     -3.04      0.00
    2   -6   14      0.33      0.00
    3   -6   14     -3.31      0.00
    4   -6   14      2.24      0.00
    5   -6   14      3.54      0.00
    6   -6   14     -4.94      0.00
   -8   -5   14     -0.90      0.00
   -7   -5   14      0.62      0.00
   -6   -5   14     -0.11      0.00
   -5   -5   14      0.32      0.00
   -4   -5   14      1.49      0.00
   -3   -5   14     -3.25      0.00
   -2   -5   14     -0.14      0.00
   -1   -5   14      1.11      0.00
    0   -5   14      0.97      0.00
    1   -5   14     -3.14      0.00
    2   -5   14      0.64      0.00
    3   -5   14     -2.53      0.00
    4   -5   14      3.82      0.00
    5   -5   14      0.77      0.00
    6   -5   14     -4.75      0.00
    7   -5   14      3.65      0.00
   -8   -4   14     -2.34      0.00
   -6   -4   14      0.19      0.00
   -5   -4   14      1.77      0.00
   -3   -4   14     -2.12      0.00
   -1   -4   14     -0.51      0.00
    0   -4   14      0.49      0.00
    1   -4   14     -2.03      0.00
    2   -4   14      1.75      0.00
    3   -4   14     -1.25      0.00
    4   -4   14      3.62      0.00
    5   -4   14     -1.24      0.00
    6   -4   14     -2.67      0.00
    7   -4   14      4.52      0.00
    8   -4   14     -0.23      0.00
   -8   -3   14     -2.85      0.00
   -7   -3   14      4.08      0.00
   -6   -3   14     -0.97      0.00
   -5   -3   14      0.96      0.00
   -4   -3   14     -2.69      0.00
   -3   -3   14      1.90      0.00
   -2   -3   14      2.24      0.00
   -1   -3   14     -2.59      0.00
    0   -3   14      1.65      0.00
    1   -3   14     -1.05      0.00
    2   -3   14      2.05      0.00
    3   -3   14     -1.16      0.00
    4   -3   14      2.48      0.00
    5   -3   14     -2.01      0.00
    6   -3   14     -0.17      0.00
    7   -3   14      3.72      0.00
    8   -3   14     -1.95      0.00
   -8   -2   14     -0.43      0.00
   -7   -2   14      5.03      0.00
   -6   -2   14     -4.58      0.00
   -5   -2   14      0.85      0.00
   -4   -2   14     -1.70      0.00
   -3   -2   14      3.75      0.00
   -2   -2   14     -1.37      0.00
   -1   -2   14     -1.81      0.00
    0   -2   14      3.37      0.00
    1   -2   14     -2.06      0.00
    2   -2   14      1.32      0.00
    3   -2   14     -1.48      0.00
    4   -2   14      1.22      0.00
    5   -2   14     -1.83      0.00
    6   -2   14      1.78      0.00
    7   -2   14      1.28      0.00
    8   -2   14     -3.20      0.00
    9   -2   14      1.20      0.00
   -7   -1   14      1.77      0.00
   -6   -1   14     -6.23      0.00
   -5   -1   14      3.68      0.00
   -4   -1   14     -1.27      0.00
   -3   -1   14      1.90      0.00
   -2   -1   14     -3.43      0.00
   -1   -1   14      1.15      0.00
    0   -1   14      3.13      0.00
    1   -1   14     -4.09      0.00
    2   -1   14      2.11      0.00
    3   -1   14     -1.37      0.00
    4   -1   14      0.22      0.00
    5   -1   14     -0.79      0.00
    6   -1   14      2.04      0.00
    7   -1   14     -1.56      0.00
    8   -1   14     -1.66      0.00
    9   -1   14      3.30      0.00
   -8    0   14      2.33      0.00
   -7    0   14     -2.18      0.00
   -6    0   14     -2.76      0.00
   -5    0   14      5.99      0.00
   -4    0   14     -3.41      0.00
   -3    0   14      0.41      0.00
   -1    0   14      2.66      0.00
    0    0   14      1.08      0.00
    1    0   14     -4.62      0.00
    2    0   14      4.12      0.00
    3    0   14     -1.94      0.00
    4    0   14      0.09      0.00
    5    0   14      0.25      0.00
    6    0   14      0.64      0.00
    7    0   14     -2.26      0.00
    8    0   14      1.39      0.00
    9    0   14      2.37      0.00
   -8    1   14     -0.89      0.00
   -7    1   14     -2.14      0.00
   -6    1   14      1.46      0.00
   -5    1   14      4.32      0.00
   -4    1   14     -5.21      0.00
   -3    1   14      2.55      0.00
   -2    1   14      0.00      0.00
   -1    1   14      1.19      0.00
    0    1   14     -0.60      0.00
    1    1   14     -3.83      0.00
    2    1   14      5.07      0.00
    3    1   14     -3.06      0.00
    4    1   14      0.69      0.00
    5    1   14      0.33      0.00
    6    1   14     -0.58      0.00
    7    1   14     -1.03      0.00
    8    1   14      2.08      0.00
   10    1   14     -1.85      0.00
   -7    2   14      0.02      0.00
   -6    2   14      2.20      0.00
   -5    2   14      1.18      0.00
   -4    2   14     -4.26      0.00
   -3    2   14      5.29      0.00
   -2    2   14     -1.64      0.00
   -1    2   14     -0.64      0.00
    0    2   14     -0.60      0.00
    1    2   14     -2.36      0.00
    2    2   14      4.82      0.00
    3    2   14     -4.32      0.00
    4    2   14      1.18      0.00
    5    2   14     -0.06      0.00
    6    2   14     -0.84      0.00
    7    2   14     -0.04      0.00
    8    2   14      0.91      0.00
    9    2   14     -1.07      0.00
   10    2   14      0.41      0.00
   -7    3   14      0.74      0.00
   -6    3   14      1.27      0.00
   -5    3   14     -0.72      0.00
   -4    3   14     -2.51      0.00
   -3    3   14      5.14      0.00
   -2    3   14     -4.87      0.00
   -1    3   14      0.35      0.00
    0    3   14      0.66      0.00
    1    3   14     -0.82      0.00
    2    3   14      3.23      0.00
    3    3   14     -5.21      0.00
    4    3   14      2.06      0.00
    5    3   14     -0.42      0.00
    6    3   14     -0.63      0.00
    7    3   14      0.56      0.00
    8    3   14      0.19      0.00
    9    3   14     -0.31      0.00
   10    3   14      0.95      0.00
   -7    4   14      0.54      0.00
   -6    4   14      0.51      0.00
   -5    4   14     -1.46      0.00
   -4    4   14     -1.12      0.00
   -3    4   14      3.42      0.00
   -2    4   14     -5.92      0.00
   -1    4   14      3.46      0.00
    0    4   14      0.61      0.00
    1    4   14     -0.74      0.00
    2    4   14      1.48      0.00
    3    4   14     -4.19      0.00
    4    4   14      3.21      0.00
    5    4   14     -0.74      0.00
    6    4   14     -0.11      0.00
    7    4   14      0.83      0.00
    8    4   14     -0.26      0.00
    9    4   14      0.35      0.00
   10    4   14      0.50      0.00
   -6    5   14     -0.09      0.00
   -5    5   14     -0.65      0.00
   -4    5   14      0.06      0.00
   -3    5   14      2.07      0.00
   -2    5   14     -4.38      0.00
   -1    5   14      5.19      0.00
    0    5   14     -1.84      0.00
    1    5   14     -0.44      0.00
    2    5   14      1.47      0.00
    3    5   14     -2.64      0.00
    4    5   14      3.72      0.00
    5    5   14     -0.71      0.00
    6    5   14     -0.25      0.00
    7    5   14      0.57      0.00
    8    5   14     -0.04      0.00
    9    5   14      1.06      0.00
   10    5   14     -0.59      0.00
   -5    6   14      0.43      0.00
   -4    6   14      0.03      0.00
   -3    6   14      1.61      0.00
   -2    6   14     -2.18      0.00
   -1    6   14      4.25      0.00
    0    6   14     -3.41      0.00
    1    6   14      1.55      0.00
    2    6   14      0.62      0.00
    3    6   14     -2.14      0.00
    4    6   14      4.29      0.00
    5    6   14     -1.29      0.00
    6    6   14     -1.26      0.00
    7    6   14      1.43      0.00
    8    6   14      0.50      0.00
    9    6   14      0.15      0.00
   10    6   14     -1.87      0.00
   -5    7   14     -0.55      0.00
   -4    7   14     -0.18      0.00
   -3    7   14      1.88      0.00
   -2    7   14     -1.24      0.00
   -1    7   14      2.55      0.00
    0    7   14     -2.46      0.00
    1    7   14      1.77      0.00
    2    7   14     -1.78      0.00
    3    7   14     -0.26      0.00
    4    7   14      3.89      0.00
    5    7   14     -3.09      0.00
    6    7   14     -0.62      0.00
    7    7   14      2.95      0.00
    8    7   14     -1.20      0.00
    9    7   14     -1.36      0.00
   10    7   14     -0.38      0.00
   -4    8   14      1.00      0.00
   -3    8   14      1.18      0.00
   -2    8   14     -1.59      0.00
   -1    8   14      1.92      0.00
    0    8   14     -1.76      0.00
    1    8   14     -0.19      0.00
    2    8   14     -1.23      0.00
    3    8   14      1.98      0.00
    4    8   14      0.74      0.00
    5    8   14     -3.19      0.00
    6    8   14      1.74      0.00
    7    8   14      1.97      0.00
    8    8   14     -3.51      0.00
    9    8   14      0.45      0.00
   10    8   14      2.40      0.00
   -3    9   14     -0.58      0.00
   -2    9   14     -1.16      0.00
   -1    9   14      2.02      0.00
    0    9   14     -2.36      0.00
    1    9   14     -0.07      0.00
    2    9   14      1.41      0.00
    3    9   14      0.67      0.00
    4    9   14     -1.83      0.00
    5    9   14     -0.64      0.00
    6    9   14      2.30      0.00
    7    9   14     -0.60      0.00
    8    9   14     -2.54      0.00
    9    9   14      3.52      0.00
   -2   10   14      0.35      0.00
   -1   10   14      1.63      0.00
    0   10   14     -2.51      0.00
    1   10   14      1.95      0.00
    2   10   14      1.39      0.00
    3   10   14     -1.66      0.00
    4   10   14     -1.05      0.00
    5   10   14      0.88      0.00
    6   10   14      0.98      0.00
    7   10   14     -1.38      0.00
    8   10   14      0.01      0.00
    9   10   14      3.01      0.00
    0   11   14     -1.69      0.00
    1   11   14      2.79      0.00
    2   11   14     -0.17      0.00
    3   11   14     -1.46      0.00
    4   11   14      0.15      0.00
    5   11   14      0.50      0.00
    6   11   14      0.49      0.00
    7   11   14     -0.78      0.00
    8   11   14      0.92      0.00
    2   12   14     -0.61      0.00
    3   12   14     -0.60      0.00
    4   12   14      0.23      0.00
    5   12   14      0.41      0.00
    6   12   14      0.50      0.00
   -4   -9   15      0.92      0.00
   -3   -9   15     -0.32      0.00
   -2   -9   15      1.32      0.00
   -1   -9   15     -1.12      0.00
    0   -9   15     -2.15      0.00
    1   -9   15      3.03      0.00
   -6   -8   15      0.33      0.00
   -5   -8   15      1.50      0.00
   -4   -8   15     -0.07      0.00
   -3   -8   15     -1.21      0.00
   -2   -8   15      2.03      0.00
   -1   -8   15     -3.04      0.00
    0   -8   15     -0.14      0.00
    1   -8   15      6.45      0.00
    2   -8   15     -5.29      0.00
    3   -8   15      4.35      0.00
   -6   -7   15      2.48      0.00
   -4   -7   15     -1.79      0.00
   -3   -7   15      0.24      0.00
   -2   -7   15      1.84      0.00
   -1   -7   15     -2.81      0.00
    0   -7   15      4.62      0.00
    1   -7   15      3.72      0.00
    2   -7   15     -5.67      0.00
    3   -7   15      3.74      0.00
    4   -7   15     -5.54      0.00
   -7   -6   15     -1.44      0.00
   -6   -6   15      2.99      0.00
   -5   -6   15     -0.31      0.00
   -4   -6   15     -1.24      0.00
   -3   -6   15      2.23      0.00
   -2   -6   15      0.80      0.00
   -1   -6   15     -1.24      0.00
    0   -6   15      4.01      0.00
    1   -6   15     -1.60      0.00
    2   -6   15     -1.31      0.00
    3   -6   15      2.13      0.00
    4   -6   15     -3.46      0.00
    5   -6   15      4.87      0.00
   -7   -5   15     -0.53      0.00
   -5   -5   15     -1.20      0.00
   -4   -5   15      0.39      0.00
   -3   -5   15      1.96      0.00
   -2   -5   15     -0.40      0.00
   -1   -5   15     -1.70      0.00
    0   -5   15      1.32      0.00
    1   -5   15     -1.89      0.00
    2   -5   15      2.34      0.00
    3   -5   15     -0.99      0.00
    4   -5   15      0.74      0.00
    5   -5   15      4.11      0.00
    6   -5   15     -4.59      0.00
   -6   -4   15     -0.62      0.00
   -5   -4   15     -0.52      0.00
   -4   -4   15      0.55      0.00
   -3   -4   15      0.23      0.00
   -2   -4   15     -1.28      0.00
    0   -4   15      2.45      0.00
    1   -4   15     -1.35      0.00
    2   -4   15      1.36      0.00
    3   -4   15     -1.75      0.00
    4   -4   15      3.96      0.00
    5   -4   15      0.84      0.00
    6   -4   15     -5.59      0.00
    7   -4   15      2.23      0.00
   -7   -3   15      2.63      0.00
   -6   -3   15     -1.23      0.00
   -5   -3   15      0.55      0.00
   -4   -3   15     -0.61      0.00
   -3   -3   15     -0.70      0.00
   -2   -3   15     -1.18      0.00
   -1   -3   15      0.02      0.00
    0   -3   15      3.43      0.00
    1   -3   15     -3.76      0.00
    2   -3   15      1.14      0.00
    3   -3   15      0.14      0.00
    4   -3   15      3.36      0.00
    5   -3   15     -2.47      0.00
    6   -3   15     -4.15      0.00
    7   -3   15      4.48      0.00
   -7   -2   15      5.56      0.00
   -6   -2   15     -2.63      0.00
   -5   -2   15      1.05      0.00
   -4   -2   15     -1.22      0.00
   -3   -2   15     -0.25      0.00
   -2   -2   15     -0.41      0.00
   -1   -2   15      1.24      0.00
    0   -2   15      1.09      0.00
    1   -2   15     -4.82      0.00
    2   -2   15      3.42      0.00
    3   -2   15      0.54      0.00
    4   -2   15      0.61      0.00
    5   -2   15     -3.04      0.00
    6   -2   15     -0.93      0.00
    7   -2   15      4.36      0.00
    8   -2   15     -3.45      0.00
   -7   -1   15      5.02      0.00
   -6   -1   15     -5.19      0.00
   -5   -1   15      2.08      0.00
   -4   -1   15     -1.02      0.00
   -3   -1   15      0.21      0.00
   -2   -1   15      0.30      0.00
   -1   -1   15      0.42      0.00
    0   -1   15     -1.16      0.00
    1   -1   15     -2.80      0.00
    2   -1   15      4.44      0.00
    3   -1   15     -1.26      0.00
    4   -1   15     -0.84      0.00
    5   -1   15     -0.79      0.00
    6   -1   15      1.50      0.00
    7   -1   15      1.24      0.00
    8   -1   15     -4.58      0.00
   -7    0   15      1.14      0.00
   -6    0   15     -5.38      0.00
   -5    0   15      3.48      0.00
   -4    0   15     -1.83      0.00
   -3    0   15      0.38      0.00
   -2    0   15      1.30      0.00
   -1    0   15     -0.95      0.00
    0    0   15     -0.73      0.00
    1    0   15     -0.33      0.00
    2    0   15      2.81      0.00
    3    0   15     -3.00      0.00
    4    0   15      0.07      0.00
    5    0   15      1.44      0.00
    6    0   15      1.00      0.00
    7    0   15     -1.91      0.00
    8    0   15     -1.82      0.00
    9    0   15      3.74      0.00
   -7    1   15     -1.15      0.00
   -6    1   15     -2.63      0.00
   -5    1   15      3.23      0.00
   -4    1   15     -3.17      0.00
   -3    1   15      1.52      0.00
   -2    1   15      1.73      0.00
   -1    1   15     -2.08      0.00
    0    1   15      1.52      0.00
    1    1   15      0.03      0.00
    2    1   15      0.22      0.00
    3    1   15     -2.32      0.00
    4    1   15      1.84      0.00
    5    1   15      1.09      0.00
    6    1   15     -0.76      0.00
    7    1   15     -2.04      0.00
    8    1   15      1.55      0.00
    9    1   15      1.86      0.00
   -7    2   15     -0.33      0.00
   -6    2   15     -0.30      0.00
   -5    2   15      2.28      0.00
   -4    2   15     -3.08      0.00
   -3    2   15      2.66      0.00
   -2    2   15      0.20      0.00
   -1    2   15     -2.15      0.00
    0    2   15      3.11      0.00
    1    2   15     -1.94      0.00
    2    2   15      0.00      0.00
    3    2   15      0.52      0.00
    4    2   15      1.64      0.00
    5    2   15     -0.62      0.00
    6    2   15     -0.82      0.00
    7    2   15     -0.44      0.00
    8    2   15      1.98      0.00
    9    2   15     -0.90      0.00
   -6    3   15      0.74      0.00
   -5    3   15      2.06      0.00
   -4    3   15     -2.99      0.00
   -3    3   15      2.53      0.00
   -2    3   15     -1.41      0.00
   -1    3   15     -0.73      0.00
    0    3   15      2.44      0.00
    1    3   15     -3.40      0.00
    2    3   15      2.46      0.00
    3    3   15      1.31      0.00
    4    3   15     -0.65      0.00
    5    3   15     -0.66      0.00
    6    3   15      0.48      0.00
    7    3   15      0.17      0.00
    8    3   15      0.64      0.00
    9    3   15     -1.06      0.00
   -6    4   15      0.93      0.00
   -5    4   15      0.80      0.00
   -4    4   15     -3.67      0.00
   -3    4   15      3.01      0.00
   -2    4   15     -1.47      0.00
   -1    4   15      0.54      0.00
    0    4   15      0.62      0.00
    1    4   15     -2.73      0.00
    2    4   15      3.71      0.00
    3    4   15     -1.22      0.00
    4    4   15     -1.77      0.00
    5    4   15      1.15      0.00
    6    4   15      1.08      0.00
    7    4   15     -0.61      0.00
    8    4   15     -0.02      0.00
    9    4   15      0.23      0.00
   10    4   15      0.99      0.00
   -5    5   15     -0.86      0.00
   -4    5   15     -2.81      0.00
   -3    5   15      4.01      0.00
   -2    5   15     -2.02      0.00
   -1    5   15      0.62      0.00
    0    5   15     -0.42      0.00
    1    5   15     -1.15      0.00
    2    5   15      2.66      0.00
    3    5   15     -3.56      0.00
    4    5   15     -0.44      0.00
    5    5   15      2.75      0.00
    6    5   15     -0.19      0.00
    7    5   15     -1.65      0.00
    8    5   15      0.84      0.00
    9    5   15      0.67      0.00
   -5    6   15     -0.44      0.00
   -4    6   15     -1.33      0.00
   -3    6   15      3.06      0.00
   -2    6   15     -3.39      0.00
   -1    6   15      0.80      0.00
    0    6   15     -0.03      0.00
    1    6   15      0.24      0.00
    2    6   15      0.67      0.00
    3    6   15     -3.74      0.00
    4    6   15      2.01      0.00
    5    6   15      2.16      0.00
    6    6   15     -2.83      0.00
    7    6   15     -0.76      0.00
    8    6   15      2.28      0.00
    9    6   15     -0.93      0.00
   -4    7   15     -1.16      0.00
   -3    7   15      1.51      0.00
   -2    7   15     -3.34      0.00
   -1    7   15      1.77      0.00
    0    7   15      0.72      0.00
    1    7   15     -0.20      0.00
    2    7   15     -1.50      0.00
    3    7   15     -1.22      0.00
    4    7   15      3.28      0.00
    5    7   15     -1.01      0.00
    6    7   15     -3.53      0.00
    7    7   15      2.30      0.00
    8    7   15      1.41      0.00
    9    7   15     -3.32      0.00
   -3    8   15      1.25      0.00
   -2    8   15     -2.19      0.00
   -1    8   15      2.52      0.00
    0    8   15     -0.03      0.00
    1    8   15     -2.45      0.00
    2    8   15     -0.98      0.00
    3    8   15      2.45      0.00
    4    8   15      1.02      0.00
    5    8   15     -3.23      0.00
    6    8   15     -0.57      0.00
    7    8   15      3.36      0.00
    8    8   15     -1.73      0.00
    9    8   15     -2.82      0.00
   -2    9   15     -1.31      0.00
   -1    9   15      2.46      0.00
    0    9   15     -2.00      0.00
    1    9   15     -2.67      0.00
    2    9   15      2.44      0.00
    3    9   15      2.49      0.00
    4    9   15     -2.37      0.00
    5    9   15     -1.36      0.00
    6    9   15      1.74      0.00
    7    9   15      0.80      0.00
    8    9   15     -2.62      0.00
    0   10   15     -3.09      0.00
    1   10   15     -0.02      0.00
    2   10   15      3.44      0.00
    3   10   15     -0.90      0.00
    4   10   15     -2.12      0.00
    5   10   15      1.11      0.00
    6   10   15      0.51      0.00
    7   10   15     -1.07      0.00
    2   11   15      0.89      0.00
    3   11   15     -2.23      0.00
    4   11   15      0.24      0.00
    5   11   15      0.54      0.00
    6   11   15     -0.74      0.00
   -4   -8   16      2.52      0.00
   -3   -8   16     -3.20      0.00
   -1   -8   16     -0.52      0.00
    0   -8   16    -12.18      0.00
    1   -8   16     16.24      0.00
   -5   -7   16      2.42      0.00
   -4   -7   16      0.35      0.00
   -3   -7   16     -3.82      0.00
   -2   -7   16      3.03      0.00
   -1   -7   16     -4.00      0.00
    1   -7   16     16.05      0.00
    2   -7   16    -15.54      0.00
    3   -7   16      5.09      0.00
   -6   -6   16      0.59      0.00
   -5   -6   16      2.27      0.00
   -4   -6   16     -2.88      0.00
   -3   -6   16     -2.07      0.00
   -2   -6   16      3.41      0.00
   -1   -6   16     -1.74      0.00
    0   -6   16      3.03      0.00
    1   -6   16      3.20      0.00
    2   -6   16    -14.06      0.00
    3   -6   16      6.65      0.00
    4   -6   16     -3.87      0.00
   -6   -5   16      1.55      0.00
   -5   -5   16      0.58      0.00
   -4   -5   16     -3.68      0.00
   -3   -5   16      1.13      0.00
   -2   -5   16      3.62      0.00
   -1   -5   16     -2.24      0.00
    0   -5   16      0.33      0.00
    1   -5   16     -2.65      0.00
    2   -5   16     -4.02      0.00
    3   -5   16      1.84      0.00
    4   -5   16     -3.61      0.00
    5   -5   16      4.66      0.00
   -6   -4   16      0.89      0.00
   -4   -4   16     -1.55      0.00
   -3   -4   16      3.12      0.00
   -2   -4   16      0.55      0.00
   -1   -4   16     -5.58      0.00
    0   -4   16      2.17      0.00
    1   -4   16      0.24      0.00
    2   -4   16     -0.54      0.00
    3   -4   16     -3.11      0.00
    5   -4   16      4.39      0.00
    6   -4   16     -3.71      0.00
   -6   -3   16     -0.33      0.00
   -5   -3   16      0.50      0.00
   -4   -3   16      0.87      0.00
   -3   -3   16      1.95      0.00
   -2   -3   16     -3.17      0.00
   -1   -3   16     -3.22      0.00
    0   -3   16      7.43      0.00
    1   -3   16     -1.96      0.00
    2   -3   16     -1.72      0.00
    3   -3   16     -0.82      0.00
    4   -3   16      3.80      0.00
    5   -3   16      0.77      0.00
    6   -3   16     -4.84      0.00
    7   -3   16      2.35      0.00
   -7   -2   16      2.33      0.00
   -6   -2   16     -0.76      0.00
   -5   -2   16      1.69      0.00
   -4   -2   16      0.88      0.00
   -3   -2   16     -0.80      0.00
   -2   -2   16     -2.73      0.00
   -1   -2   16      2.53      0.00
    0   -2   16      5.72      0.00
    1   -2   16     -6.79      0.00
    2   -2   16      1.55      0.00
    3   -2   16      2.18      0.00
    4   -2   16      0.32      0.00
    5   -2   16     -1.95      0.00
    6   -2   16     -2.61      0.00
    7   -2   16      4.85      0.00
   -6   -1   16     -1.48      0.00
   -5   -1   16      1.50      0.00
   -4   -1   16     -0.50      0.00
   -3   -1   16     -2.26      0.00
   -2   -1   16      0.49      0.00
   -1   -1   16      3.99      0.00
    0   -1   16     -0.15      0.00
    1   -1   16     -5.44      0.00
    2   -1   16      5.83      0.00
    3   -1   16      0.22      0.00
    4   -1   16     -3.36      0.00
    5   -1   16     -0.81      0.00
    6   -1   16      0.72      0.00
    7   -1   16      3.75      0.00
    8   -1   16     -3.06      0.00
   -5    0   16      1.56      0.00
   -4    0   16     -1.16      0.00
   -3    0   16     -1.99      0.00
   -2    0   16      2.82      0.00
   -1    0   16      1.07      0.00
    0    0   16     -2.79      0.00
    1    0   16     -0.32      0.00
    2    0   16      5.91      0.00
    3    0   16     -3.22      0.00
    4    0   16     -2.59      0.00
    5    0   16      1.90      0.00
    6    0   16      1.51      0.00
    7    0   16     -0.18      0.00
    8    0   16     -3.44      0.00
   -6    1   16     -2.34      0.00
   -5    1   16      2.32      0.00
   -4    1   16     -1.23      0.00
   -3    1   16     -0.50      0.00
   -2    1   16      3.09      0.00
   -1    1   16     -2.52      0.00
    0    1   16     -1.29      0.00
    1    1   16      2.88      0.00
    2    1   16      2.15      0.00
    3    1   16     -4.48      0.00
    4    1   16      1.15      0.00
    5    1   16      2.17      0.00
    6    1   16     -0.34      0.00
    7    1   16     -2.33      0.00
    8    1   16     -0.17      0.00
   -6    2   16     -1.18      0.00
   -5    2   16      2.35      0.00
   -4    2   16     -0.94      0.00
   -3    2   16      0.97      0.00
   -2    2   16      1.27      0.00
   -1    2   16     -3.86      0.00
    0    2   16      1.96      0.00
    1    2   16      1.69      0.00
    2    2   16     -2.17      0.00
    3    2   16     -2.03      0.00
    4    2   16      3.51      0.00
    5    2   16     -0.83      0.00
    6    2   16     -1.22      0.00
    7    2   16     -1.03      0.00
    8    2   16      2.22      0.00
    9    2   16      0.68      0.00
   -5    3   16      2.18      0.00
   -4    3   16     -1.04      0.00
   -3    3   16      0.58      0.00
   -2    3   16     -0.63      0.00
    0    3   16      3.41      0.00
    1    3   16     -2.01      0.00
    2    3   16     -2.14      0.00
    3    3   16      1.87      0.00
    4    3   16      1.22      0.00
    5    3   16     -3.41      0.00
    6    3   16      0.50      0.00
    7    3   16      0.32      0.00
    8    3   16      1.20      0.00
    9    3   16     -1.12      0.00
   -5    4   16      1.88      0.00
   -4    4   16     -2.57      0.00
   -3    4   16     -0.02      0.00
   -2    4   16     -0.11      0.00
   -1    4   16      0.17      0.00
    0    4   16      1.61      0.00
    1    4   16     -3.21      0.00
    2    4   16      1.65      0.00
    3    4   16      2.04      0.00
    4    4   16     -2.74      0.00
    5    4   16     -1.97      0.00
    6    4   16      2.47      0.00
    7    4   16     -0.58      0.00
    8    4   16     -0.34      0.00
    9    4   16     -0.09      0.00
   -4    5   16     -3.15      0.00
   -3    5   16      1.77      0.00
   -2    5   16      0.90      0.00
   -1    5   16     -0.60      0.00
    0    5   16     -0.40      0.00
    1    5   16     -0.98      0.00
    2    5   16      3.43      0.00
    3    5   16     -0.94      0.00
    4    5   16     -2.82      0.00
    5    5   16      1.87      0.00
    6    5   16      2.13      0.00
    7    5   16     -2.46      0.00
    8    5   16      0.48      0.00
    9    5   16      1.43      0.00
   -4    6   16     -1.35      0.00
   -3    6   16      3.41      0.00
   -2    6   16     -0.30      0.00
   -1    6   16     -2.05      0.00
    0    6   16      0.26      0.00
    1    6   16      1.37      0.00
    2    6   16      1.55      0.00
    3    6   16     -2.39      0.00
    4    6   16      0.60      0.00
    5    6   16      3.48      0.00
    6    6   16     -0.57      0.00
    7    6   16     -2.89      0.00
    8    6   16      2.79      0.00
    9    6   16      0.56      0.00
   -3    7   16      2.48      0.00
   -2    7   16     -1.82      0.00
   -1    7   16     -1.13      0.00
    0    7   16      2.51      0.00
    1    7   16      1.29      0.00
    2    7   16     -1.58      0.00
    3    7   16     -0.90      0.00
    4    7   16      2.98      0.00
    5    7   16      1.12      0.00
    6    7   16     -2.63      0.00
    7    7   16     -0.79      0.00
    8    7   16      3.48      0.00
   -2    8   16     -1.69      0.00
   -1    8   16      0.98      0.00
    0    8   16      3.11      0.00
    1    8   16     -1.43      0.00
    2    8   16     -2.76      0.00
    3    8   16      2.22      0.00
    4    8   16      1.84      0.00
    5    8   16     -1.95      0.00
    6    8   16     -1.14      0.00
    7    8   16      1.33      0.00
    8    8   16      1.30      0.00
    0    9   16      1.01      0.00
    1    9   16     -3.53      0.00
    2    9   16      0.01      0.00
    3    9   16      3.75      0.00
    4    9   16     -1.43      0.00
    5    9   16     -1.68      0.00
    6    9   16      1.67      0.00
    7    9   16      0.54      0.00
    1   10   16     -2.08      0.00
    2   10   16      3.21      0.00
    3   10   16      1.42      0.00
    4   10   16     -2.75      0.00
    5   10   16      0.79      0.00
    6   10   16      1.72      0.00
   -3   -7   17     -3.68      0.00
   -2   -7   17      1.02      0.00
   -1   -7   17      1.67      0.00
    0   -7   17    -14.58      0.00
    1   -7   17     25.89      0.00
   -4   -6   17      1.28      0.00
   -3   -6   17     -4.72      0.00
   -1   -6   17      0.32      0.00
    0   -6   17     -2.09      0.00
    1   -6   17     17.49      0.00
    2   -6   17    -15.28      0.00
   -5   -5   17      2.80      0.00
   -4   -5   17     -1.65      0.00
   -3   -5   17     -2.66      0.00
   -2   -5   17      5.62      0.00
   -1   -5   17      0.13      0.00
    0   -5   17     -0.70      0.00
    1   -5   17      3.74      0.00
    2   -5   17     -7.50      0.00
    3   -5   17      6.89      0.00
    4   -5   17     -2.60      0.00
   -5   -4   17      0.43      0.00
   -3   -4   17      1.39      0.00
   -2   -4   17      5.80      0.00
   -1   -4   17     -5.32      0.00
    0   -4   17     -1.43      0.00
    1   -4   17      1.40      0.00
    2   -4   17     -1.26      0.00
    3   -4   17      1.20      0.00
    4   -4   17     -0.32      0.00
    5   -4   17      4.46      0.00
   -5   -3   17     -0.90      0.00
   -4   -3   17     -0.30      0.00
   -3   -3   17      2.97      0.00
   -2   -3   17      0.73      0.00
   -1   -3   17     -7.64      0.00
    0   -3   17      4.75      0.00
    1   -3   17      0.11      0.00
    2   -3   17     -3.31      0.00
    3   -3   17      1.07      0.00
    4   -3   17      3.86      0.00
    5   -3   17      2.68      0.00
    6   -3   17     -4.06      0.00
   -5   -2   17      0.65      0.00
   -4   -2   17      1.45      0.00
   -3   -2   17      0.36      0.00
   -2   -2   17     -3.20      0.00
   -1   -2   17     -2.48      0.00
    0   -2   17      7.56      0.00
    1   -2   17     -5.80      0.00
    2   -2   17     -1.91      0.00
    3   -2   17      5.52      0.00
    4   -2   17      1.50      0.00
    5   -2   17     -1.15      0.00
    6   -2   17     -3.95      0.00
   -5   -1   17      1.35      0.00
   -4   -1   17      0.64      0.00
   -3   -1   17     -2.55      0.00
   -2   -1   17     -1.89      0.00
   -1   -1   17      2.33      0.00
    0   -1   17      2.85      0.00
    1   -1   17     -7.71      0.00
    2   -1   17      3.15      0.00
    3   -1   17      4.37      0.00
    4   -1   17     -3.60      0.00
    5   -1   17     -0.85      0.00
    6   -1   17     -0.39      0.00
    7   -1   17      2.64      0.00
   -5    0   17      0.03      0.00
   -4    0   17     -0.25      0.00
   -3    0   17     -2.95      0.00
   -2    0   17      1.65      0.00
   -1    0   17      2.35      0.00
    0    0   17     -1.85      0.00
    1    0   17     -4.69      0.00
    2    0   17      4.78      0.00
    3    0   17     -0.56      0.00
    4    0   17     -4.24      0.00
    5    0   17      2.37      0.00
    6    0   17      1.95      0.00
    7    0   17      0.35      0.00
   -5    1   17     -0.01      0.00
   -4    1   17     -0.35      0.00
   -3    1   17     -2.02      0.00
   -2    1   17      3.84      0.00
   -1    1   17     -0.23      0.00
    0    1   17     -2.68      0.00
    1    1   17     -0.99      0.00
    2    1   17      3.74      0.00
    3    1   17     -4.02      0.00
    4    1   17     -1.02      0.00
    5    1   17      3.63      0.00
    6    1   17      0.36      0.00
    7    1   17     -2.61      0.00
   -5    2   17      1.02      0.00
   -4    2   17     -0.85      0.00
   -3    2   17     -0.76      0.00
   -2    2   17      3.38      0.00
   -1    2   17     -2.54      0.00
    0    2   17     -0.24      0.00
    1    2   17      1.37      0.00
    2    2   17      1.34      0.00
    3    2   17     -4.50      0.00
    4    2   17      3.08      0.00
    5    2   17      1.17      0.00
    6    2   17     -1.99      0.00
    7    2   17     -1.99      0.00
    8    2   17      1.30      0.00
   -4    3   17     -0.89      0.00
   -2    3   17      1.23      0.00
   -1    3   17     -2.23      0.00
    0    3   17      2.52      0.00
    1    3   17      0.23      0.00
    2    3   17     -0.86      0.00
    3    3   17     -1.21      0.00
    4    3   17      4.28      0.00
    5    3   17     -2.71      0.00
    6    3   17     -0.93      0.00
    7    3   17      0.69      0.00
    8    3   17      1.27      0.00
   -4    4   17     -0.71      0.00
   -3    4   17     -0.36      0.00
   -2    4   17      0.41      0.00
   -1    4   17     -0.03      0.00
    0    4   17      2.15      0.00
    1    4   17     -2.34      0.00
    2    4   17      0.11      0.00
    3    4   17      1.45      0.00
    4    4   17      0.72      0.00
    5    4   17     -3.43      0.00
    6    4   17      2.40      0.00
    7    4   17      1.05      0.00
    8    4   17     -0.81      0.00
   -3    5   17     -0.32      0.00
   -2    5   17      1.53      0.00
   -1    5   17      0.67      0.00
    0    5   17     -0.24      0.00
    1    5   17     -2.19      0.00
    2    5   17      1.74      0.00
    3    5   17     -0.46      0.00
    4    5   17     -2.25      0.00
    5    5   17     -0.19      0.00
    6    5   17      3.52      0.00
    7    5   17     -1.10      0.00
    8    5   17     -1.23      0.00
   -2    6   17      1.63      0.00
   -1    6   17     -0.91      0.00
    0    6   17     -1.22      0.00
    2    6   17      0.95      0.00
    3    6   17     -2.72      0.00
    4    6   17     -0.58      0.00
    5    6   17      2.06      0.00
    6    6   17      1.28      0.00
    7    6   17     -2.57      0.00
   -1    7   17     -2.16      0.00
    0    7   17      0.05      0.00
    1    7   17      1.86      0.00
    2    7   17     -1.13      0.00
    3    7   17     -1.93      0.00
    4    7   17      2.03      0.00
    5    7   17      0.38      0.00
    6    7   17     -0.98      0.00
    7    7   17     -1.71      0.00
    0    8   17      1.89      0.00
    1    8   17      1.10      0.00
    2    8   17     -3.10      0.00
    3    8   17      0.39      0.00
    4    8   17      2.14      0.00
    5    8   17     -2.28      0.00
    6    8   17     -0.50      0.00
    2    9   17     -2.90      0.00
    3    9   17      2.58      0.00
    4    9   17      0.42      0.00
    5    9   17     -2.75      0.00
   -3   -5   18     -4.75      0.00
   -2   -5   18      1.87      0.00
   -1   -5   18      2.66      0.00
    0   -5   18     -2.75      0.00
    1   -5   18      8.72      0.00
    2   -5   18    -10.78      0.00
   -3   -4   18     -3.06      0.00
   -2   -4   18      5.01      0.00
   -1   -4   18     -0.60      0.00
    0   -4   18     -1.72      0.00
    1   -4   18      4.25      0.00
    2   -4   18     -6.12      0.00
    3   -4   18     -1.39      0.00
   -4   -3   18     -0.26      0.00
   -3   -3   18      0.20      0.00
   -2   -3   18      3.87      0.00
   -1   -3   18     -5.29      0.00
    0   -3   18      1.49      0.00
    1   -3   18      3.46      0.00
    2   -3   18     -6.35      0.00
    3   -3   18     -0.30      0.00
    4   -3   18      1.03      0.00
   -4   -2   18      1.93      0.00
   -3   -2   18      0.94      0.00
   -2   -2   18     -0.05      0.00
   -1   -2   18     -4.79      0.00
    0   -2   18      5.06      0.00
    1   -2   18     -0.70      0.00
    2   -2   18     -5.32      0.00
    3   -2   18      5.98      0.00
    4   -2   18      0.73      0.00
    5   -2   18     -0.54      0.00
   -4   -1   18      1.90      0.00
   -3   -1   18     -0.93      0.00
   -2   -1   18     -1.80      0.00
   -1   -1   18     -0.69      0.00
    0   -1   18      4.33      0.00
    1   -1   18     -3.08      0.00
    2   -1   18     -0.11      0.00
    3   -1   18      6.99      0.00
    4   -1   18     -4.70      0.00
    5   -1   18     -2.25      0.00
   -4    0   18      1.06      0.00
   -3    0   18     -2.31      0.00
   -2    0   18     -0.52      0.00
   -1    0   18      1.79      0.00
    0    0   18      2.10      0.00
    1    0   18     -2.05      0.00
    2    0   18      2.34      0.00
    3    0   18      2.93      0.00
    4    0   18     -6.25      0.00
    5    0   18      0.33      0.00
    6    0   18      2.20      0.00
   -4    1   18      1.66      0.00
   -3    1   18     -2.66      0.00
   -2    1   18      1.48      0.00
   -1    1   18      1.10      0.00
    0    1   18      0.36      0.00
    1    1   18     -1.71      0.00
    2    1   18      2.74      0.00
    3    1   18      0.49      0.00
    4    1   18     -3.28      0.00
    5    1   18      3.24      0.00
    6    1   18      1.72      0.00
   -4    2   18      1.33      0.00
   -3    2   18     -2.44      0.00
   -2    2   18      2.40      0.00
   -1    2   18     -1.36      0.00
    0    2   18     -0.23      0.00
    1    2   18     -1.34      0.00
    2    2   18      3.31      0.00
    3    2   18     -1.30      0.00
    4    2   18      0.16      0.00
    5    2   18      3.18      0.00
    6    2   18     -1.44      0.00
    7    2   18     -2.29      0.00
   -3    3   18     -1.28      0.00
   -2    3   18      1.68      0.00
   -1    3   18     -2.53      0.00
    0    3   18      1.02      0.00
    1    3   18     -0.89      0.00
    2    3   18      2.13      0.00
    3    3   18     -2.16      0.00
    4    3   18      2.33      0.00
    5    3   18     -0.17      0.00
    6    3   18     -3.02      0.00
    7    3   18      0.59      0.00
   -3    4   18     -0.46      0.00
   -2    4   18      0.39      0.00
   -1    4   18     -1.39      0.00
    0    4   18      1.73      0.00
    1    4   18     -1.41      0.00
    2    4   18      1.29      0.00
    3    4   18     -0.72      0.00
    4    4   18      1.16      0.00
    5    4   18     -3.02      0.00
    6    4   18     -0.82      0.00
    7    4   18      2.44      0.00
   -2    5   18      0.20      0.00
   -1    5   18     -0.11      0.00
    0    5   18      0.73      0.00
    2    5   18      1.91      0.00
    3    5   18     -0.41      0.00
    4    5   18     -1.20      0.00
    5    5   18     -1.35      0.00
    6    5   18      1.73      0.00
   -1    6   18      0.00      0.00
    0    6   18     -0.50      0.00
    1    6   18     -0.32      0.00
    2    6   18      1.57      0.00
    3    6   18     -1.43      0.00
    4    6   18     -0.11      0.00
    5    6   18      1.78      0.00
    6    6   18      1.07      0.00
    0    7   18     -1.05      0.00
    1    7   18      0.65      0.00
    2    7   18      0.67      0.00
    3    7   18     -1.27      0.00
    4    7   18      2.35      0.00
    5    7   18      1.25      0.00
    3    8   18     -0.78      0.00
   -1   -3   19     -0.20      0.00
    0   -3   19     -1.33      0.00
    1   -3   19      4.06      0.00
    2   -3   19     -7.26      0.00
   -2   -2   19      1.88      0.00
   -1   -2   19     -1.51      0.00
    0   -2   19      0.22      0.00
    1   -2   19      0.88      0.00
    2   -2   19     -8.22      0.00
    3   -2   19      5.07      0.00
   -2   -1   19     -0.39      0.00
   -1   -1   19     -1.43      0.00
    0   -1   19      0.34      0.00
    1   -1   19     -0.45      0.00
    2   -1   19     -3.69      0.00
    3   -1   19      7.57      0.00
    4   -1   19     -0.95      0.00
   -2    0   19     -1.37      0.00
   -1    0   19     -0.35      0.00
    0    0   19      0.51      0.00
    1    0   19      0.43      0.00
    2    0   19     -1.66      0.00
    3    0   19      3.68      0.00
    4    0   19     -3.97      0.00
   -2    1   19     -0.34      0.00
   -1    1   19      0.64      0.00
    0    1   19      0.85      0.00
    1    1   19     -0.72      0.00
    2    1   19     -2.72      0.00
    3    1   19      1.12      0.00
    4    1   19     -3.24      0.00
    5    1   19      1.45      0.00
   -2    2   19      1.22      0.00
   -1    2   19      0.04      0.00
    0    2   19      0.74      0.00
    1    2   19     -2.29      0.00
    2    2   19     -1.04      0.00
    3    2   19      1.04      0.00
    4    2   19     -2.01      0.00
    5    2   19      2.44      0.00
   -1    3   19     -0.97      0.00
    0    3   19      1.40      0.00
    1    3   19     -1.93      0.00
    2    3   19      1.37      0.00
    3    3   19      0.29      0.00
    4    3   19     -0.60      0.00
    5    3   19      1.77      0.00
   -1    4   19     -0.55      0.00
    0    4   19      1.70      0.00
    1    4   19     -1.52      0.00
    2    4   19      1.75      0.00
    3    4   19     -0.08      0.00
    4    4   19      0.10      0.00
    5    4   19     -0.18      0.00
    1    5   19     -0.93      0.00
    2    5   19      1.27      0.00
    4    5   19     -1.17      0.00
    1    0    0    -42.16      0.00
   13    0    0      0.06      0.00
  -13    1    0      0.42      0.00
    0    1    0     75.35      0.00
    1    1    0    -96.93      0.00
  -13    2    0      0.54      0.00
  -12    3    0     -0.13      0.00
  -12    4    0      0.73      0.00
  -12    5    0      1.58      0.00
  -11    5    0     -1.37      0.00
  -11    6    0     -1.80      0.00
  -10    7    0      3.16      0.00
  -10    8    0      1.28      0.00
   13    8    0     -1.45      0.00
   -9    9    0     -1.48      0.00
   -8   10    0      1.52      0.00
   13   10    0     -1.16      0.00
   -7   11    0     -0.76      0.00
   13   11    0     -0.62      0.00
   -7   12    0     -0.88      0.00
   -6   12    0      0.22      0.00
   12   12    0      0.22      0.00
   13   12    0      0.05      0.00
   -5   13    0      0.70      0.00
   12   13    0      1.51      0.00
   -4   14    0     -0.72      0.00
   -3   14    0      2.47      0.00
   11   14    0     -0.92      0.00
   12   14    0      1.46      0.00
   -3   15    0      0.61      0.00
   -2   15    0     -1.97      0.00
   -1   15    0     -0.13      0.00
    9   15    0     -0.63      0.00
   10   15    0     -0.29      0.00
   11   15    0      0.04      0.00
   -1   16    0      0.65      0.00
    0   16    0      0.08      0.00
    1   16    0     -1.98      0.00
    2   16    0      1.69      0.00
    7   16    0      0.17      0.00
    8   16    0      0.37      0.00
    9   16    0     -0.73      0.00
   10   16    0      0.13      0.00
   -9  -16    1     -0.91      0.00
   -8  -16    1     -0.08      0.00
   -7  -16    1      0.62      0.00
   -6  -16    1     -0.07      0.00
   -2  -16    1      1.68      0.00
   -1  -16    1     -0.45      0.00
    0  -16    1     -0.52      0.00
    1  -16    1      1.47      0.00
  -11  -15    1      0.63      0.00
  -10  -15    1     -0.62      0.00
   -9  -15    1     -1.36      0.00
    1  -15    1      2.03      0.00
    2  -15    1     -1.58      0.00
    3  -15    1      0.64      0.00
  -12  -14    1      1.49      0.00
  -11  -14    1     -0.38      0.00
    3  -14    1      1.77      0.00
    4  -14    1      0.23      0.00
  -12  -13    1      1.41      0.00
    5  -13    1     -1.13      0.00
  -13  -12    1      0.59      0.00
  -12  -12    1     -0.27      0.00
    6  -12    1      1.78      0.00
  -13  -11    1     -0.39      0.00
    7  -11    1     -2.69      0.00
  -13  -10    1     -1.05      0.00
    8  -10    1      2.24      0.00
    9   -9    1     -0.87      0.00
   10   -8    1     -0.23      0.00
   10   -7    1      1.99      0.00
   11   -6    1     -1.63      0.00
   11   -5    1     -3.12      0.00
   12   -5    1      0.53      0.00
   12   -4    1      1.35      0.00
   12   -3    1      0.72      0.00
   13   -3    1     -0.33      0.00
   13   -2    1      0.06      0.00
    0   -1    1      2.86      0.00
   13   -1    1      0.22      0.00
  -13    0    1     -0.96      0.00
    0    0    1     75.59      0.00
    1    0    1     20.16      0.00
   13    0    1      0.20      0.00
  -13    1    1     -0.93      0.00
    0    1    1     87.74      0.00
  -13    2    1     -0.05      0.00
  -12    3    1      0.70      0.00
  -12    4    1     -0.10      0.00
  -12    5    1      0.40      0.00
  -11    5    1     -0.34      0.00
  -11    6    1     -1.19      0.00
    9    6    1     -3.46      0.00
  -10    7    1      0.72      0.00
  -10    8    1      0.77      0.00
   -9    9    1     -0.97      0.00
   11    9    1      0.02      0.00
   -8   10    1     -0.37      0.00
   13   10    1     -0.93      0.00
   -7   11    1      1.69      0.00
   13   11    1      0.25      0.00
   -6   12    1     -2.34      0.00
   12   12    1     -0.14      0.00
   13   12    1      0.60      0.00
   -5   13    1      1.38      0.00
   12   13    1      1.01      0.00
   13   13    1      0.26      0.00
   -4   14    1     -1.23      0.00
   -3   14    1      1.55      0.00
   11   14    1     -1.33      0.00
   12   14    1      1.20      0.00
   -3   15    1      0.95      0.00
   -2   15    1     -0.60      0.00
   -1   15    1     -1.68      0.00
   10   15    1     -0.84      0.00
   11   15    1      0.00      0.00
   -1   16    1      0.19      0.00
    0   16    1      1.81      0.00
    1   16    1     -1.61      0.00
    2   16    1      1.80      0.00
    7   16    1     -0.25      0.00
    8   16    1      0.32      0.00
    9   16    1     -0.66      0.00
   10   16    1     -0.21      0.00
   -9  -16    2     -0.28      0.00
   -8  -16    2     -0.59      0.00
   -7  -16    2      0.48      0.00
   -6  -16    2      1.26      0.00
   -5  -16    2     -0.88      0.00
   -3  -16    2     -1.34      0.00
   -2  -16    2      1.29      0.00
   -1  -16    2      1.04      0.00
    0  -16    2     -1.91      0.00
    1  -16    2      0.62      0.00
  -10  -15    2      0.41      0.00
   -9  -15    2     -1.75      0.00
    1  -15    2      1.90      0.00
    2  -15    2     -1.50      0.00
    3  -15    2     -0.10      0.00
  -11  -14    2      0.97      0.00
  -10  -14    2     -1.92      0.00
    3  -14    2      0.11      0.00
    4  -14    2      0.48      0.00
  -12  -13    2      1.53      0.00
  -11  -13    2     -1.15      0.00
    5  -13    2     -1.64      0.00
  -13  -12    2      1.42      0.00
  -12  -12    2     -0.17      0.00
    6  -12    2      2.13      0.00
  -13  -11    2      0.68      0.00
    7  -11    2     -1.71      0.00
  -13  -10    2     -0.41      0.00
    8  -10    2      1.06      0.00
  -13   -9    2      0.96      0.00
    9   -9    2      0.18      0.00
   10   -8    2     -1.36      0.00
   10   -7    2     -0.94      0.00
   11   -6    2      1.32      0.00
  -13   -5    2     -2.28      0.00
   11   -5    2     -1.15      0.00
   12   -5    2     -0.52      0.00
   12   -4    2      0.66      0.00
   12   -3    2      1.21      0.00
   13   -3    2     -0.08      0.00
  -13   -2    2     -0.42      0.00
   13   -2    2     -0.23      0.00
  -13   -1    2     -1.25      0.00
   13   -1    2      0.02      0.00
  -13    0    2     -1.54      0.00
   13    0    2      0.55      0.00
  -13    1    2     -1.58      0.00
  -13    2    2     -1.32      0.00
  -12    3    2      2.41      0.00
  -12    4    2      0.76      0.00
  -11    5    2     -0.51      0.00
  -11    6    2      0.24      0.00
  -10    7    2      0.40      0.00
  -10    8    2      0.98      0.00
   -9    8    2      0.93      0.00
   -9    9    2      0.11      0.00
   -8   10    2     -1.10      0.00
   13   10    2     -1.44      0.00
   -7   11    2      2.28      0.00
   13   11    2      0.19      0.00
   -6   12    2     -2.03      0.00
   13   12    2      1.10      0.00
   -5   13    2      1.70      0.00
   12   13    2     -0.10      0.00
   13   13    2      0.76      0.00
   -4   14    2     -0.71      0.00
   -3   14    2      0.28      0.00
   11   14    2     -0.99      0.00
   12   14    2      0.86      0.00
   -3   15    2      0.50      0.00
   -2   15    2      0.68      0.00
   -1   15    2     -2.21      0.00
   10   15    2     -0.74      0.00
   11   15    2      0.45      0.00
   -1   16    2     -0.80      0.00
    0   16    2      1.64      0.00
    1   16    2     -1.85      0.00
    2   16    2     -0.22      0.00
    7   16    2      0.12      0.00
    8   16    2     -0.01      0.00
    9   16    2     -0.51      0.00
   10   16    2     -0.02      0.00
   -9  -16    3      0.25      0.00
   -8  -16    3     -0.52      0.00
   -7  -16    3     -0.45      0.00
   -6  -16    3      0.89      0.00
   -5  -16    3     -0.74      0.00
   -4  -16    3      0.29      0.00
   -3  -16    3     -1.45      0.00
   -2  -16    3     -0.70      0.00
   -1  -16    3      2.44      0.00
    0  -16    3     -1.27      0.00
    1  -16    3      1.00      0.00
  -10  -15    3      1.40      0.00
   -9  -15    3     -1.45      0.00
   -7  -15    3      1.13      0.00
    1  -15    3      1.75      0.00
    2  -15    3     -0.42      0.00
  -11  -14    3      1.95      0.00
  -10  -14    3     -0.37      0.00
    3  -14    3     -0.61      0.00
    4  -14    3      1.18      0.00
  -12  -13    3      1.07      0.00
  -11  -13    3      0.76      0.00
    4  -13    3      2.88      0.00
    5  -13    3     -0.69      0.00
  -12  -12    3      0.67      0.00
    0  -12    3     -3.47      0.00
    6  -12    3      0.42      0.00
  -13  -11    3      1.12      0.00
  -12  -11    3     -1.01      0.00
    7  -11    3     -0.19      0.00
  -13  -10    3     -0.53      0.00
    8  -10    3     -0.53      0.00
  -13   -9    3     -0.66      0.00
    9   -9    3      0.93      0.00
  -13   -8    3      2.06      0.00
    9   -8    3      1.81      0.00
   10   -8    3     -0.41      0.00
   10   -7    3     -1.84      0.00
   11   -6    3      1.60      0.00
   11   -5    3      0.96      0.00
   12   -5    3     -1.07      0.00
    8   -4    3      0.03      0.00
   12   -4    3     -0.52      0.00
   12   -3    3      1.08      0.00
   13   -2    3      0.01      0.00
  -13   -1    3     -0.02      0.00
   13   -1    3     -0.38      0.00
  -13    0    3     -0.62      0.00
   13    0    3     -0.54      0.00
  -13    1    3     -1.07      0.00
  -13    2    3     -1.34      0.00
  -12    2    3      0.57      0.00
  -12    3    3      1.51      0.00
  -12    4    3      1.58      0.00
  -11    5    3     -1.09      0.00
  -11    6    3     -0.43      0.00
  -10    6    3     -0.67      0.00
  -10    7    3     -0.49      0.00
  -10    8    3      0.02      0.00
   -9    8    3      0.72      0.00
   -9    9    3     -0.32      0.00
   -8   10    3     -0.89      0.00
   13   10    3     -0.46      0.00
   -7   11    3      1.00      0.00
   13   11    3      0.12      0.00
   -6   12    3     -0.88      0.00
   13   12    3      1.38      0.00
   -5   13    3      0.42      0.00
   -4   13    3     -0.32      0.00
    5   13    3     -0.05      0.00
   12   13    3     -1.38      0.00
   13   13    3      1.28      0.00
   -4   14    3     -0.66      0.00
   -3   14    3     -0.85      0.00
   11   14    3     -1.46      0.00
   12   14    3     -0.11      0.00
   -3   15    3      0.15      0.00
   -2   15    3      1.07      0.00
   -1   15    3     -1.72      0.00
    9   15    3     -0.20      0.00
   10   15    3     -1.91      0.00
   11   15    3     -0.23      0.00
   -1   16    3     -0.86      0.00
    0   16    3      1.36      0.00
    1   16    3     -0.22      0.00
    2   16    3     -1.25      0.00
    7   16    3      1.06      0.00
    8   16    3      0.48      0.00
    9   16    3     -0.98      0.00
   10   16    3     -0.59      0.00
   -8  -16    4      0.35      0.00
   -7  -16    4     -1.20      0.00
   -6  -16    4      1.20      0.00
   -5  -16    4      0.39      0.00
   -4  -16    4      0.74      0.00
   -3  -16    4      0.07      0.00
   -2  -16    4     -2.54      0.00
   -1  -16    4      2.51      0.00
    0  -16    4     -0.48      0.00
  -10  -15    4      1.42      0.00
   -9  -15    4      0.38      0.00
   -8  -15    4     -0.88      0.00
    0  -15    4     -1.67      0.00
    1  -15    4      0.35      0.00
    2  -15    4      0.07      0.00
  -11  -14    4      0.91      0.00
  -10  -14    4      1.63      0.00
    3  -14    4     -1.63      0.00
    4  -14    4      0.28      0.00
  -12  -13    4     -0.03      0.00
  -11  -13    4      1.56      0.00
    4  -13    4      2.02      0.00
    5  -13    4      0.01      0.00
  -12  -12    4      0.58      0.00
    5  -12    4     -1.20      0.00
    6  -12    4     -1.13      0.00
  -13  -11    4      0.35      0.00
  -12  -11    4      0.20      0.00
    7  -11    4      1.42      0.00
  -13  -10    4     -0.32      0.00
    8  -10    4     -1.13      0.00
  -13   -9    4     -0.90      0.00
    9   -9    4      0.66      0.00
  -13   -8    4      0.95      0.00
    9   -8    4      0.89      0.00
   10   -8    4      0.33      0.00
  -13   -7    4      3.17      0.00
   10   -7    4     -0.15      0.00
   11   -6    4     -0.94      0.00
   11   -5    4      0.39      0.00
   12   -4    4     -0.39      0.00
  -13   -3    4     -0.32      0.00
   12   -3    4      0.21      0.00
  -13   -2    4      0.41      0.00
   13   -2    4     -0.24      0.00
  -13   -1    4      0.50      0.00
   13   -1    4     -0.54      0.00
  -13    0    4      0.09      0.00
  -12    0    4     -1.33      0.00
   13    0    4     -0.96      0.00
  -13    1    4     -0.17      0.00
  -12    2    4     -1.22      0.00
  -12    3    4     -0.61      0.00
  -12    4    4      0.27      0.00
  -11    4    4      2.69      0.00
  -11    5    4      0.66      0.00
  -11    6    4     -0.34      0.00
  -10    6    4     -1.82      0.00
  -10    7    4     -0.44      0.00
   -9    8    4      2.19      0.00
   -9    9    4      0.85      0.00
   -8    9    4     -2.20      0.00
   -8   10    4     -0.45      0.00
   13   10    4     -0.68      0.00
   -7   11    4      0.42      0.00
   13   11    4     -1.23      0.00
   -6   12    4     -0.21      0.00
   12   12    4     -3.10      0.00
   13   12    4     -0.05      0.00
   -5   13    4      0.36      0.00
   -4   13    4      0.27      0.00
   12   13    4     -2.28      0.00
   -4   14    4      0.09      0.00
   -3   14    4     -0.42      0.00
   11   14    4     -0.11      0.00
   12   14    4     -0.74      0.00
   -2   15    4      0.79      0.00
   -1   15    4     -0.48      0.00
    9   15    4      1.71      0.00
   10   15    4     -1.04      0.00
   11   15    4      0.40      0.00
   -1   16    4     -0.77      0.00
    0   16    4      0.50      0.00
    1   16    4      1.06      0.00
    2   16    4     -2.25      0.00
    6   16    4      0.33      0.00
    7   16    4      0.51      0.00
    8   16    4      1.03      0.00
    9   16    4     -0.25      0.00
   10   16    4     -0.57      0.00
   -8  -16    5      1.13      0.00
   -7  -16    5     -0.98      0.00
   -6  -16    5      0.12      0.00
   -5  -16    5      0.00      0.00
   -4  -16    5     -0.76      0.00
   -3  -16    5      2.03      0.00
   -2  -16    5     -2.41      0.00
   -1  -16    5      0.40      0.00
    0  -16    5      0.27      0.00
   -9  -15    5      0.14      0.00
   -8  -15    5      0.19      0.00
   -7  -15    5     -1.42      0.00
   -4  -15    5     -0.66      0.00
    0  -15    5     -0.08      0.00
    1  -15    5     -0.95      0.00
    2  -15    5      1.28      0.00
  -10  -14    5      1.07      0.00
   -9  -14    5     -0.71      0.00
    2  -14    5      2.07      0.00
    3  -14    5     -1.69      0.00
  -11  -13    5      0.31      0.00
  -10  -13    5      1.27      0.00
    4  -13    5      0.74      0.00
    5  -13    5      1.34      0.00
  -12  -12    5     -0.60      0.00
  -11  -12    5      0.92      0.00
    5  -12    5      1.17      0.00
    6  -12    5     -1.14      0.00
  -12  -11    5      0.70      0.00
    6  -11    5     -2.64      0.00
    7  -11    5      1.23      0.00
  -13  -10    5      0.03      0.00
  -12  -10    5      1.11      0.00
    8  -10    5     -1.29      0.00
  -13   -9    5     -0.78      0.00
    8   -9    5     -1.95      0.00
    9   -9    5      0.33      0.00
  -13   -8    5     -0.81      0.00
    9   -8    5     -0.13      0.00
   10   -8    5      0.65      0.00
  -13   -7    5      1.08      0.00
   10   -7    5      2.23      0.00
  -13   -6    5      1.94      0.00
   11   -6    5     -1.74      0.00
  -13   -5    5      0.78      0.00
   11   -5    5     -1.11      0.00
  -13   -4    5     -0.22      0.00
   12   -4    5      0.22      0.00
  -13   -3    5     -0.43      0.00
  -11   -3    5     -0.05      0.00
   12   -3    5      0.00      0.00
  -13   -2    5     -0.11      0.00
   13   -2    5      0.46      0.00
  -13   -1    5      0.77      0.00
   13   -1    5      0.19      0.00
  -13    0    5      1.00      0.00
   13    0    5     -0.67      0.00
  -13    1    5      0.31      0.00
  -12    1    5     -0.55      0.00
  -12    2    5     -0.94      0.00
  -12    3    5     -1.19      0.00
  -11    4    5      2.88      0.00
  -11    5    5      2.03      0.00
  -10    6    5     -3.33      0.00
  -10    7    5     -1.43      0.00
   -7    7    5     -2.41      0.00
   -9    8    5      1.81      0.00
   -9    9    5      0.62      0.00
   -8    9    5     -2.32      0.00
   -7    9    5      1.12      0.00
   -8   10    5     -1.00      0.00
   -7   10    5      1.49      0.00
   -5   10    5     -4.19      0.00
   13   10    5     -0.02      0.00
   -7   11    5      0.40      0.00
   -6   11    5     -1.03      0.00
   13   11    5     -1.17      0.00
   -6   12    5     -0.22      0.00
   -5   12    5      0.43      0.00
   12   12    5     -1.43      0.00
   13   12    5     -0.70      0.00
   -5   13    5      0.05      0.00
   -4   13    5     -0.31      0.00
   12   13    5     -1.51      0.00
   -4   14    5      0.05      0.00
   -3   14    5     -0.25      0.00
   11   14    5      0.65      0.00
   12   14    5     -0.92      0.00
   -2   15    5      0.20      0.00
   -1   15    5      0.38      0.00
    9   15    5      1.51      0.00
   10   15    5     -1.73      0.00
   11   15    5      0.17      0.00
    0   16    5     -0.73      0.00
    1   16    5      1.44      0.00
    2   16    5     -1.37      0.00
    3   16    5     -0.33      0.00
    4   16    5      2.05      0.00
    5   16    5     -2.39      0.00
    6   16    5     -0.27      0.00
    7   16    5      0.40      0.00
    8   16    5      0.65      0.00
    9   16    5      0.36      0.00
   10   16    5     -1.26      0.00
   -7  -16    6     -0.68      0.00
   -6  -16    6     -0.68      0.00
   -5  -16    6      0.99      0.00
   -4  -16    6     -1.18      0.00
   -3  -16    6      1.49      0.00
   -2  -16    6     -0.36      0.00
   -1  -16    6     -0.32      0.00
   -9  -15    6      0.13      0.00
   -8  -15    6      1.01      0.00
   -7  -15    6     -1.29      0.00
   -6  -15    6     -0.29      0.00
   -2  -15    6     -1.68      0.00
   -1  -15    6     -0.30      0.00
    0  -15    6      1.59      0.00
    1  -15    6     -1.49      0.00
  -10  -14    6     -0.20      0.00
   -9  -14    6      0.42      0.00
    2  -14    6      2.68      0.00
    3  -14    6     -0.50      0.00
  -11  -13    6     -0.42      0.00
  -10  -13    6      0.55      0.00
    4  -13    6     -0.53      0.00
    5  -13    6      1.02      0.00
  -12  -12    6     -1.01      0.00
  -11  -12    6      0.05      0.00
    5  -12    6      2.01      0.00
    6  -12    6     -0.88      0.00
  -12  -11    6     -0.54      0.00
    6  -11    6     -2.51      0.00
    7  -11    6      0.12      0.00
  -13  -10    6     -1.24      0.00
  -12  -10    6      0.59      0.00
    6  -10    6     -2.80      0.00
    7  -10    6      2.30      0.00
    8  -10    6      0.13      0.00
  -13   -9    6     -0.43      0.00
  -12   -9    6      0.97      0.00
    8   -9    6     -0.97      0.00
    9   -9    6      0.16      0.00
  -13   -8    6      0.46      0.00
    9   -8    6     -0.15      0.00
  -13   -7    6      1.41      0.00
   10   -7    6      0.87      0.00
  -13   -6    6      1.34      0.00
   10   -6    6      2.16      0.00
   11   -6    6     -0.86      0.00
  -13   -5    6      0.03      0.00
   11   -5    6     -1.36      0.00
  -13   -4    6     -0.64      0.00
   12   -4    6     -0.33      0.00
  -13   -3    6     -0.60      0.00
   12   -3    6     -1.09      0.00
  -13   -2    6     -0.76      0.00
   12   -2    6     -0.63      0.00
   13   -2    6      0.41      0.00
  -13   -1    6     -0.37      0.00
   13   -1    6      0.21      0.00
  -13    0    6      0.29      0.00
  -12    0    6     -1.13      0.00
   13    0    6     -0.08      0.00
  -12    1    6     -1.25      0.00
  -11    1    6      1.60      0.00
   13    1    6     -0.42      0.00
  -12    2    6     -0.92      0.00
  -12    3    6     -0.76      0.00
  -11    3    6      1.20      0.00
  -11    4    6      1.96      0.00
  -11    5    6      2.01      0.00
  -10    6    6     -2.19      0.00
   -6    6    6      0.43      0.00
  -10    7    6     -1.44      0.00
   -9    7    6      1.92      0.00
   -8    7    6      2.16      0.00
   -9    8    6      1.45      0.00
   -8    9    6     -0.40      0.00
   13    9    6      0.65      0.00
   -8   10    6      0.08      0.00
   -7   10    6      0.06      0.00
   13   10    6      0.06      0.00
   -7   11    6      0.03      0.00
   -6   11    6      0.14      0.00
   13   11    6     -0.97      0.00
   -6   12    6     -0.10      0.00
   -5   12    6     -0.09      0.00
   12   12    6      0.04      0.00
   13   12    6     -1.03      0.00
   -5   13    6      0.01      0.00
   -4   13    6      0.04      0.00
   11   13    6      0.86      0.00
   12   13    6     -0.49      0.00
   -3   14    6      0.46      0.00
   -2   14    6     -0.25      0.00
   10   14    6     -1.22      0.00
   11   14    6      0.89      0.00
   12   14    6     -0.19      0.00
   -2   15    6     -0.51      0.00
   -1   15    6      0.79      0.00
    0   15    6     -1.12      0.00
    9   15    6      1.93      0.00
   10   15    6     -1.06      0.00
   11   15    6      1.02      0.00
    0   16    6     -1.17      0.00
    1   16    6      1.10      0.00
    2   16    6      0.34      0.00
    3   16    6     -1.01      0.00
    4   16    6      2.05      0.00
    5   16    6     -1.11      0.00
    6   16    6     -0.89      0.00
    7   16    6      0.87      0.00
    8   16    6     -0.33      0.00
    9   16    6      0.72      0.00
   -6  -16    7     -0.13      0.00
   -5  -16    7      0.41      0.00
   -4  -16    7     -0.90      0.00
   -3  -16    7     -0.05      0.00
   -2  -16    7      0.54      0.00
   -8  -15    7      0.29      0.00
   -7  -15    7     -0.48      0.00
   -6  -15    7     -0.16      0.00
   -5  -15    7      0.34      0.00
   -4  -15    7     -1.20      0.00
   -3  -15    7      1.01      0.00
   -2  -15    7      0.80      0.00
   -1  -15    7     -1.23      0.00
    0  -15    7      0.75      0.00
    1  -15    7     -1.18      0.00
  -10  -14    7     -0.58      0.00
   -9  -14    7     -0.46      0.00
   -8  -14    7     -0.05      0.00
    1  -14    7     -2.16      0.00
    2  -14    7      1.15      0.00
    3  -14    7      0.47      0.00
  -10  -13    7     -0.88      0.00
   -9  -13    7      0.04      0.00
    3  -13    7     -1.01      0.00
    4  -13    7     -1.57      0.00
  -11  -12    7     -0.72      0.00
  -10  -12    7     -0.06      0.00
   -2  -12    7     -0.61      0.00
    5  -12    7      1.44      0.00
  -12  -11    7     -1.05      0.00
  -11  -11    7     -0.16      0.00
    6  -11    7     -1.30      0.00
    7  -11    7     -0.55      0.00
  -12  -10    7      0.29      0.00
    7  -10    7      0.56      0.00
    8  -10    7      0.57      0.00
  -12   -9    7      1.61      0.00
    8   -9    7     -0.47      0.00
  -13   -8    7      0.17      0.00
  -12   -8    7      1.68      0.00
    9   -8    7     -0.01      0.00
  -13   -7    7      1.04      0.00
   10   -7    7     -0.56      0.00
  -13   -6    7      1.38      0.00
   10   -6    7      0.02      0.00
  -13   -5    7      0.80      0.00
   11   -5    7      0.96      0.00
  -13   -4    7      0.19      0.00
   11   -4    7      0.45      0.00
   12   -4    7     -0.76      0.00
  -13   -3    7     -0.19      0.00
   12   -3    7     -1.26      0.00
  -13   -2    7     -0.68      0.00
   12   -2    7     -0.98      0.00
  -13   -1    7     -0.49      0.00
  -12   -1    7     -0.36      0.00
   12   -1    7      0.30      0.00
   13   -1    7      0.90      0.00
  -12    0    7     -0.71      0.00
   13    0    7      0.13      0.00
  -12    1    7     -0.81      0.00
   13    1    7     -0.20      0.00
  -12    2    7     -0.40      0.00
   13    2    7     -0.05      0.00
  -11    3    7      0.68      0.00
  -11    4    7      0.52      0.00
  -11    5    7      0.96      0.00
  -10    5    7      0.00      0.00
  -10    6    7     -1.01      0.00
   -9    7    7     -0.67      0.00
   -9    8    7      0.30      0.00
   -8    8    7      1.21      0.00
   13    8    7      0.76      0.00
   -8    9    7      0.10      0.00
   13    9    7      0.74      0.00
   -7   10    7     -0.50      0.00
   13   10    7      0.41      0.00
   -6   11    7      0.17      0.00
   13   11    7     -0.12      0.00
   -5   12    7      0.15      0.00
   12   12    7      0.19      0.00
   13   12    7     -0.10      0.00
   -4   13    7     -0.22      0.00
   -3   13    7      0.31      0.00
   11   13    7     -0.40      0.00
   12   13    7      0.20      0.00
   -3   14    7      0.16      0.00
   -2   14    7     -0.30      0.00
   10   14    7     -1.57      0.00
   11   14    7     -0.30      0.00
   -1   15    7      0.55      0.00
    0   15    7     -0.45      0.00
    1   15    7     -0.06      0.00
    8   15    7     -0.42      0.00
    9   15    7      1.56      0.00
   10   15    7     -1.94      0.00
    0   16    7     -0.42      0.00
    1   16    7     -0.27      0.00
    2   16    7      0.10      0.00
    3   16    7     -0.65      0.00
    4   16    7      0.71      0.00
    5   16    7      0.21      0.00
    6   16    7     -2.12      0.00
    7   16    7      1.10      0.00
    8   16    7     -0.04      0.00
    9   16    7      0.42      0.00
   -7  -15    8     -0.80      0.00
   -6  -15    8     -0.33      0.00
   -5  -15    8     -0.40      0.00
   -4  -15    8     -0.31      0.00
   -3  -15    8      0.09      0.00
   -2  -15    8      0.86      0.00
   -1  -15    8      0.00      0.00
    0  -15    8      0.52      0.00
   -9  -14    8      0.35      0.00
   -8  -14    8      0.37      0.00
   -7  -14    8     -0.77      0.00
    0  -14    8      0.83      0.00
    1  -14    8     -0.24      0.00
    2  -14    8      0.24      0.00
  -10  -13    8     -0.58      0.00
   -9  -13    8     -0.18      0.00
    2  -13    8      0.04      0.00
    3  -13    8      0.21      0.00
    4  -13    8     -0.53      0.00
  -11  -12    8      0.31      0.00
  -10  -12    8     -1.05      0.00
    4  -12    8      0.13      0.00
    5  -12    8      1.07      0.00
  -11  -11    8     -0.31      0.00
    5  -11    8      0.63      0.00
    6  -11    8     -0.20      0.00
  -12  -10    8     -1.24      0.00
  -11  -10    8     -0.16      0.00
    6  -10    8     -0.27      0.00
    7  -10    8     -0.02      0.00
  -12   -9    8     -0.23      0.00
    8   -9    8      0.09      0.00
  -12   -8    8      1.72      0.00
    8   -8    8     -0.67      0.00
    9   -8    8      0.79      0.00
  -13   -7    8      1.22      0.00
  -12   -7    8      2.46      0.00
    9   -7    8      1.76      0.00
   10   -7    8     -0.43      0.00
  -13   -6    8      1.73      0.00
  -12   -6    8      0.92      0.00
   10   -6    8     -2.19      0.00
  -13   -5    8      1.15      0.00
  -12   -5    8     -1.06      0.00
   11   -5    8      2.10      0.00
  -13   -4    8      0.64      0.00
  -12   -4    8     -1.64      0.00
   11   -4    8      2.58      0.00
  -13   -3    8      0.47      0.00
  -12   -3    8     -1.38      0.00
   12   -3    8     -1.98      0.00
  -12   -2    8     -0.91      0.00
   12   -2    8     -2.15      0.00
  -12   -1    8     -0.52      0.00
   12   -1    8     -0.85      0.00
   13   -1    8      0.64      0.00
  -12    0    8     -1.09      0.00
   13    0    8      0.01      0.00
  -12    1    8     -1.74      0.00
   13    1    8     -0.13      0.00
  -11    2    8      1.50      0.00
   13    2    8      0.78      0.00
  -11    3    8      0.02      0.00
   13    3    8      1.06      0.00
  -11    4    8     -0.62      0.00
  -10    4    8      0.88      0.00
   13    4    8     -0.12      0.00
  -10    5    8      2.11      0.00
  -10    6    8      0.92      0.00
   -9    6    8     -2.15      0.00
   -9    7    8     -1.43      0.00
   13    7    8     -0.68      0.00
   -8    8    8      2.09      0.00
   13    8    8      1.00      0.00
   -8    9    8      0.44      0.00
   -7    9    8     -0.50      0.00
   13    9    8      1.15      0.00
   -7   10    8      0.47      0.00
   -6   10    8     -0.85      0.00
   13   10    8      0.56      0.00
   -6   11    8     -0.97      0.00
   -5   11    8      1.67      0.00
   12   11    8     -0.79      0.00
   13   11    8      0.47      0.00
   -5   12    8      0.64      0.00
   -4   12    8     -2.00      0.00
    2   12    8      1.84      0.00
   12   12    8     -1.06      0.00
   -4   13    8     -0.26      0.00
   -3   13    8      1.48      0.00
   11   13    8     -0.75      0.00
   12   13    8     -0.65      0.00
   -3   14    8     -0.02      0.00
   -2   14    8     -0.35      0.00
   -1   14    8      0.89      0.00
   10   14    8      0.21      0.00
   11   14    8     -0.85      0.00
   -1   15    8     -0.10      0.00
    0   15    8     -0.68      0.00
    1   15    8      0.92      0.00
    8   15    8     -0.67      0.00
    9   15    8      1.53      0.00
   10   15    8     -1.09      0.00
    1   16    8     -0.03      0.00
    2   16    8     -0.17      0.00
    3   16    8      1.20      0.00
    4   16    8     -0.17      0.00
    5   16    8      1.26      0.00
    6   16    8     -1.63      0.00
    7   16    8      0.47      0.00
    8   16    8     -0.08      0.00
   -6  -15    9      0.35      0.00
   -5  -15    9      0.13      0.00
   -4  -15    9     -0.61      0.00
   -3  -15    9     -0.09      0.00
   -2  -15    9     -0.19      0.00
   -1  -15    9      0.16      0.00
   -8  -14    9      0.27      0.00
   -7  -14    9     -1.21      0.00
   -6  -14    9      0.23      0.00
   -5  -14    9     -0.14      0.00
   -4  -14    9     -0.25      0.00
   -3  -14    9      0.23      0.00
   -2  -14    9      0.24      0.00
   -1  -14    9      0.12      0.00
    0  -14    9     -0.49      0.00
    1  -14    9      0.18      0.00
    2  -14    9      0.21      0.00
   -9  -13    9      0.33      0.00
   -8  -13    9     -0.54      0.00
    2  -13    9     -0.83      0.00
    3  -13    9     -0.29      0.00
  -10  -12    9     -0.78      0.00
   -9  -12    9     -0.12      0.00
   -2  -12    9     -0.66      0.00
    3  -12    9      0.61      0.00
    4  -12    9     -0.09      0.00
    5  -12    9      0.10      0.00
  -11  -11    9     -0.10      0.00
  -10  -11    9     -1.29      0.00
    5  -11    9      0.11      0.00
    6  -11    9     -0.22      0.00
  -11  -10    9     -0.27      0.00
    6  -10    9     -0.65      0.00
    7  -10    9      0.08      0.00
  -12   -9    9     -0.24      0.00
  -11   -9    9      0.80      0.00
    7   -9    9      0.65      0.00
    8   -9    9     -0.75      0.00
  -12   -8    9      1.06      0.00
  -11   -8    9      1.63      0.00
    8   -8    9     -2.09      0.00
    9   -8    9      0.43      0.00
  -12   -7    9      2.58      0.00
    9   -7    9      2.40      0.00
  -12   -6    9      2.70      0.00
   10   -6    9     -2.51      0.00
  -12   -5    9      1.30      0.00
   10   -5    9     -3.99      0.00
   11   -5    9      1.20      0.00
  -12   -4    9     -0.11      0.00
   11   -4    9      3.12      0.00
  -12   -3    9     -0.98      0.00
   11   -3    9      3.34      0.00
   12   -3    9     -1.65      0.00
  -12   -2    9     -1.18      0.00
   12   -2    9     -2.33      0.00
  -12   -1    9     -0.44      0.00
   12   -1    9     -1.10      0.00
  -12    0    9     -0.15      0.00
   12    0    9      0.20      0.00
   13    0    9      0.62      0.00
  -11    1    9      0.02      0.00
   13    1    9     -0.47      0.00
  -11    2    9      1.78      0.00
   13    2    9     -0.19      0.00
  -11    3    9      1.14      0.00
   13    3    9      0.51      0.00
  -10    4    9     -0.53      0.00
   13    4    9      0.18      0.00
  -10    5    9      1.38      0.00
   13    5    9     -0.84      0.00
   -9    6    9     -1.72      0.00
   13    6    9     -2.08      0.00
   -9    7    9     -2.05      0.00
   -8    7    9     -0.64      0.00
   13    7    9     -2.27      0.00
   -8    8    9      0.75      0.00
   13    8    9     -0.53      0.00
   -7    9    9     -0.18      0.00
   13    9    9      0.78      0.00
   -7   10    9      0.53      0.00
   -6   10    9     -0.95      0.00
   -2   10    9      2.79      0.00
   12   10    9      0.70      0.00
   13   10    9      0.08      0.00
   -6   11    9     -0.98      0.00
   -5   11    9      1.67      0.00
   12   11    9     -0.85      0.00
   13   11    9     -0.51      0.00
   -5   12    9      0.84      0.00
   -4   12    9     -1.79      0.00
   11   12    9      1.40      0.00
   12   12    9     -1.87      0.00
   -4   13    9     -0.28      0.00
   -3   13    9      1.16      0.00
   -2   13    9     -0.76      0.00
   10   13    9      1.45      0.00
   11   13    9     -0.29      0.00
   -2   14    9     -0.65      0.00
   -1   14    9      1.21      0.00
    0   14    9     -0.68      0.00
    9   14    9      0.83      0.00
   10   14    9      0.51      0.00
   11   14    9     -0.88      0.00
    0   15    9     -0.94      0.00
    1   15    9      1.04      0.00
    2   15    9     -0.80      0.00
    3   15    9     -0.30      0.00
    4   15    9     -1.04      0.00
    6   15    9     -0.34      0.00
    7   15    9     -0.33      0.00
    8   15    9      0.21      0.00
    9   15    9      1.08      0.00
    2   16    9     -1.41      0.00
    3   16    9      0.57      0.00
    4   16    9     -0.57      0.00
    5   16    9      0.95      0.00
    6   16    9     -0.75      0.00
    7   16    9     -0.04      0.00
    8   16    9      0.45      0.00
   -7  -14   10     -0.35      0.00
   -6  -14   10     -0.46      0.00
   -5  -14   10     -0.31      0.00
   -4  -14   10     -0.49      0.00
   -3  -14   10      0.94      0.00
   -2  -14   10     -0.44      0.00
   -1  -14   10      0.72      0.00
    0  -14   10     -0.01      0.00
    1  -14   10      0.51      0.00
   -9  -13   10      0.47      0.00
   -8  -13   10     -0.13      0.00
   -7  -13   10     -0.46      0.00
   -6  -13   10     -0.22      0.00
    0  -13   10     -0.93      0.00
    1  -13   10      1.26      0.00
    2  -13   10     -0.77      0.00
    3  -13   10     -0.32      0.00
  -10  -12   10     -0.39      0.00
   -9  -12   10      0.18      0.00
   -8  -12   10     -0.75      0.00
   -5  -12   10      0.28      0.00
   -4  -12   10     -0.54      0.00
   -2  -12   10      1.36      0.00
    3  -12   10      0.43      0.00
    4  -12   10     -0.05      0.00
  -10  -11   10     -0.23      0.00
   -9  -11   10      0.43      0.00
    4  -11   10     -0.88      0.00
    5  -11   10      0.06      0.00
  -11  -10   10      0.04      0.00
  -10  -10   10      0.21      0.00
    6  -10   10      0.00      0.00
  -11   -9   10     -0.42      0.00
    7   -9   10      1.03      0.00
  -11   -8   10      0.08      0.00
    8   -8   10     -1.78      0.00
  -12   -7   10      1.15      0.00
  -11   -7   10      1.01      0.00
    9   -7   10      2.12      0.00
  -12   -6   10      3.29      0.00
  -11   -6   10     -0.55      0.00
    1   -6   10      2.98      0.00
    9   -6   10      4.19      0.00
   10   -6   10     -0.80      0.00
  -12   -5   10      3.54      0.00
   10   -5   10     -3.05      0.00
  -12   -4   10      1.79      0.00
   10   -4   10     -3.84      0.00
   11   -4   10      1.92      0.00
  -12   -3   10      0.28      0.00
   11   -3   10      3.58      0.00
  -12   -2   10     -0.29      0.00
  -11   -2   10     -1.40      0.00
   11   -2   10      2.57      0.00
   12   -2   10     -1.99      0.00
  -12   -1   10     -0.06      0.00
  -11   -1   10     -0.70      0.00
   12   -1   10     -2.18      0.00
  -11    0   10     -1.12      0.00
   12    0   10     -0.23      0.00
  -11    1   10     -1.57      0.00
   12    1   10      0.11      0.00
   13    1   10      0.02      0.00
  -11    2   10     -0.40      0.00
   13    2   10      0.34      0.00
  -10    3   10      0.12      0.00
   13    3   10      0.65      0.00
  -10    4   10     -1.25      0.00
   13    4   10     -0.44      0.00
  -10    5   10     -0.01      0.00
   -9    5   10      2.05      0.00
   13    5   10     -1.22      0.00
   -9    6   10      1.09      0.00
   13    6   10     -1.36      0.00
   -8    7   10     -1.32      0.00
   13    7   10     -2.10      0.00
   -8    8   10      0.08      0.00
   -7    8   10      2.60      0.00
   13    8   10     -1.84      0.00
   -7    9   10      0.84      0.00
   -6    9   10     -1.62      0.00
   12    9   10     -0.63      0.00
   13    9   10     -0.12      0.00
   -6   10   10     -0.34      0.00
   12   10   10      0.87      0.00
   13   10   10      0.21      0.00
   -5   11   10      0.57      0.00
   -4   11   10     -0.46      0.00
   12   11   10      0.70      0.00
   -4   12   10     -0.78      0.00
   -3   12   10     -0.24      0.00
   11   12   10      2.51      0.00
   12   12   10     -0.81      0.00
   -3   13   10      0.43      0.00
   -2   13   10      0.21      0.00
   10   13   10      1.37      0.00
   11   13   10      0.76      0.00
   -2   14   10     -0.07      0.00
   -1   14   10      0.78      0.00
    0   14   10     -0.30      0.00
    1   14   10     -2.12      0.00
    8   14   10     -0.16      0.00
    9   14   10      0.46      0.00
   10   14   10      0.58      0.00
    0   15   10     -1.16      0.00
    1   15   10      0.10      0.00
    2   15   10      0.51      0.00
    3   15   10      0.38      0.00
    4   15   10     -0.98      0.00
    5   15   10      0.85      0.00
    6   15   10      0.23      0.00
    7   15   10     -0.83      0.00
    8   15   10      0.27      0.00
    9   15   10      0.07      0.00
    3   16   10      0.63      0.00
    4   16   10      0.14      0.00
    5   16   10      0.47      0.00
    6   16   10     -0.04      0.00
   -6  -14   11     -0.49      0.00
   -5  -14   11      0.26      0.00
   -4  -14   11     -0.15      0.00
   -3  -14   11      0.53      0.00
   -2  -14   11     -1.13      0.00
   -1  -14   11     -0.20      0.00
   -8  -13   11      0.18      0.00
   -7  -13   11     -0.43      0.00
   -6  -13   11     -0.28      0.00
   -5  -13   11      0.68      0.00
   -4  -13   11      0.36      0.00
   -3  -13   11     -0.61      0.00
   -2  -13   11     -1.08      0.00
   -1  -13   11      1.22      0.00
    0  -13   11     -0.34      0.00
    1  -13   11      0.65      0.00
    2  -13   11     -0.85      0.00
   -9  -12   11      0.87      0.00
   -8  -12   11     -0.14      0.00
   -7  -12   11      0.09      0.00
   -1  -12   11      1.02      0.00
    2  -12   11     -1.85      0.00
    3  -12   11      1.39      0.00
  -10  -11   11     -0.19      0.00
   -9  -11   11      1.18      0.00
   -8  -11   11     -0.80      0.00
    4  -11   11      0.17      0.00
    5  -11   11     -0.73      0.00
  -10  -10   11      0.38      0.00
   -9  -10   11      0.71      0.00
    3  -10   11      1.80      0.00
    5  -10   11      0.15      0.00
    6  -10   11      0.95      0.00
  -11   -9   11     -0.20      0.00
  -10   -9   11      0.59      0.00
    6   -9   11      0.02      0.00
    7   -9   11     -0.06      0.00
  -11   -8   11     -0.59      0.00
  -10   -8   11      1.24      0.00
    7   -8   11      1.52      0.00
    8   -8   11     -0.59      0.00
  -11   -7   11      0.70      0.00
    8   -7   11     -3.04      0.00
    9   -7   11      0.21      0.00
  -11   -6   11      2.14      0.00
    8   -6   11     -4.54      0.00
    9   -6   11      2.20      0.00
  -11   -5   11     -0.15      0.00
   10   -5   11     -1.25      0.00
  -11   -4   11     -3.23      0.00
   10   -4   11     -3.15      0.00
  -11   -3   11     -2.78      0.00
   11   -3   11      1.39      0.00
  -11   -2   11     -1.30      0.00
   11   -2   11      2.70      0.00
  -11   -1   11     -1.09      0.00
   11   -1   11      1.41      0.00
   12   -1   11     -1.49      0.00
  -11    0   11     -1.01      0.00
   12    0   11     -0.91      0.00
  -11    1   11     -1.05      0.00
  -10    1   11      1.21      0.00
   12    1   11     -0.44      0.00
  -10    2   11      1.67      0.00
   12    2   11     -1.49      0.00
   13    2   11      0.38      0.00
  -10    3   11      1.69      0.00
   12    3   11     -0.78      0.00
   13    3   11      1.09      0.00
  -10    4   11      0.29      0.00
   -9    4   11     -1.26      0.00
   13    4   11      0.08      0.00
   -9    5   11      0.22      0.00
   13    5   11     -1.37      0.00
   -9    6   11      1.02      0.00
   -8    6   11     -1.06      0.00
   13    6   11     -0.93      0.00
   -8    7   11     -1.97      0.00
   12    7   11      1.32      0.00
   13    7   11     -0.67      0.00
   -7    8   11      1.02      0.00
   12    8   11      1.61      0.00
   13    8   11     -1.34      0.00
   -7    9   11      0.37      0.00
   -6    9   11     -1.43      0.00
   12    9   11      0.41      0.00
   13    9   11     -0.57      0.00
   -6   10   11     -0.44      0.00
   -5   10   11      0.75      0.00
   12   10   11      0.47      0.00
   -5   11   11      0.31      0.00
   -4   11   11     -0.39      0.00
   11   11   11      0.29      0.00
   12   11   11      0.76      0.00
   -4   12   11     -0.13      0.00
   -3   12   11     -0.32      0.00
   10   12   11     -0.79      0.00
   11   12   11      0.99      0.00
   -2   13   11     -0.34      0.00
   -1   13   11     -0.42      0.00
    9   13   11     -0.17      0.00
   10   13   11      0.47      0.00
   11   13   11     -0.10      0.00
   -1   14   11      0.54      0.00
    0   14   11      1.22      0.00
    1   14   11     -1.67      0.00
    2   14   11     -0.51      0.00
    7   14   11     -1.43      0.00
    8   14   11     -0.27      0.00
    9   14   11      1.07      0.00
   10   14   11     -0.07      0.00
    1   15   11     -0.52      0.00
    2   15   11      0.37      0.00
    3   15   11      0.34      0.00
    4   15   11     -1.05      0.00
    5   15   11      0.27      0.00
    6   15   11      0.78      0.00
    7   15   11     -0.84      0.00
    8   15   11      0.81      0.00
   -6  -13   12     -0.26      0.00
   -5  -13   12      0.22      0.00
   -4  -13   12      0.87      0.00
   -3  -13   12     -0.62      0.00
   -2  -13   12     -0.91      0.00
   -1  -13   12      1.22      0.00
    0  -13   12      0.68      0.00
    1  -13   12      1.15      0.00
   -8  -12   12     -0.18      0.00
   -7  -12   12     -0.64      0.00
   -6  -12   12      0.14      0.00
   -5  -12   12      0.45      0.00
    0  -12   12     -0.56      0.00
    1  -12   12      0.57      0.00
    2  -12   12     -2.46      0.00
    3  -12   12      0.19      0.00
   -9  -11   12      1.23      0.00
   -8  -11   12     -0.38      0.00
   -7  -11   12     -1.08      0.00
    3  -11   12      1.76      0.00
    4  -11   12      0.19      0.00
   -9  -10   12      2.05      0.00
   -8  -10   12     -1.93      0.00
    4  -10   12     -1.71      0.00
    5  -10   12     -2.12      0.00
  -10   -9   12      0.10      0.00
   -9   -9   12      1.16      0.00
    6   -9   12      0.31      0.00
  -10   -8   12     -0.48      0.00
    7   -8   12      0.48      0.00
  -11   -7   12     -0.97      0.00
  -10   -7   12      0.71      0.00
    8   -7   12     -0.58      0.00
  -11   -6   12      1.70      0.00
  -10   -6   12      0.68      0.00
    8   -6   12     -3.07      0.00
    9   -6   12      0.12      0.00
  -11   -5   12      2.46      0.00
  -10   -5   12     -2.55      0.00
    9   -5   12      2.40      0.00
   10   -5   12      0.48      0.00
  -11   -4   12     -0.34      0.00
   10   -4   12     -0.53      0.00
  -11   -3   12     -1.26      0.00
    8   -3   12      1.84      0.00
   10   -3   12     -1.33      0.00
   11   -3   12      0.33      0.00
  -11   -2   12      0.33      0.00
  -10   -2   12     -0.13      0.00
   11   -2   12      1.25      0.00
  -11   -1   12      0.28      0.00
  -10   -1   12     -1.21      0.00
   11   -1   12      1.64      0.00
  -10    0   12     -0.19      0.00
   11    0   12      1.17      0.00
   12    0   12     -1.47      0.00
  -10    1   12      0.59      0.00
   12    1   12     -1.03      0.00
  -10    2   12      0.02      0.00
   12    2   12     -1.21      0.00
  -10    3   12      0.34      0.00
   -9    3   12      0.21      0.00
   12    3   12     -0.99      0.00
   -9    4   12     -0.15      0.00
   12    4   12      1.21      0.00
   13    4   12      1.12      0.00
   -9    5   12     -0.39      0.00
   -8    5   12      0.65      0.00
   12    5   12      2.28      0.00
   13    5   12     -1.03      0.00
   -8    6   12      0.51      0.00
   12    6   12      0.31      0.00
   13    6   12     -1.48      0.00
   -7    7   12     -0.19      0.00
   12    7   12     -1.02      0.00
   13    7   12     -0.07      0.00
   -7    8   12      0.47      0.00
   -6    8   12      0.84      0.00
   11    8   12     -1.36      0.00
   12    8   12     -0.19      0.00
   -6    9   12      0.06      0.00
   -5    9   12     -0.55      0.00
   11    9   12     -0.92      0.00
   12    9   12      0.23      0.00
   -5   10   12      0.50      0.00
   -4   10   12      1.20      0.00
   11   10   12      0.33      0.00
   12   10   12      0.00      0.00
   -4   11   12     -0.07      0.00
   -3   11   12     -0.30      0.00
   10   11   12     -0.56      0.00
   11   11   12      1.07      0.00
   -3   12   12      0.28      0.00
   -2   12   12      0.75      0.00
    9   12   12     -1.55      0.00
   10   12   12      0.45      0.00
   11   12   12      1.21      0.00
   -2   13   12     -0.30      0.00
   -1   13   12     -0.92      0.00
    0   13   12      2.11      0.00
    8   13   12     -1.24      0.00
    9   13   12     -0.69      0.00
   10   13   12      1.14      0.00
    0   14   12      1.31      0.00
    1   14   12     -1.05      0.00
    2   14   12     -1.80      0.00
    3   14   12      1.88      0.00
    4   14   12      0.01      0.00
    5   14   12     -1.92      0.00
    6   14   12      1.61      0.00
    7   14   12     -0.48      0.00
    8   14   12     -0.98      0.00
    9   14   12      0.68      0.00
    3   15   12      0.99      0.00
    4   15   12     -0.29      0.00
    5   15   12     -0.58      0.00
    6   15   12      0.56      0.00
    7   15   12     -0.84      0.00
   -5  -13   13     -0.03      0.00
   -4  -13   13      1.49      0.00
   -3  -13   13     -0.32      0.00
   -2  -13   13     -1.94      0.00
   -1  -13   13      0.17      0.00
   -7  -12   13     -0.35      0.00
   -6  -12   13      0.23      0.00
   -5  -12   13      0.80      0.00
   -4  -12   13      1.12      0.00
   -3  -12   13     -2.08      0.00
   -2  -12   13     -0.57      0.00
   -1  -12   13      1.27      0.00
    0  -12   13     -0.09      0.00
    1  -12   13      1.01      0.00
    2  -12   13     -1.83      0.00
   -8  -11   13      1.37      0.00
   -7  -11   13     -1.02      0.00
   -6  -11   13      0.89      0.00
    1  -11   13     -0.38      0.00
    2  -11   13     -2.55      0.00
    3  -11   13      1.39      0.00
   -9  -10   13      1.14      0.00
   -8  -10   13      0.34      0.00
   -7  -10   13     -2.32      0.00
    3  -10   13      2.86      0.00
    4  -10   13      0.96      0.00
    5  -10   13     -0.29      0.00
   -9   -9   13      1.26      0.00
   -8   -9   13     -1.66      0.00
    4   -9   13     -0.94      0.00
    5   -9   13      0.83      0.00
    6   -9   13      0.62      0.00
  -10   -8   13     -1.05      0.00
   -9   -8   13      1.23      0.00
    6   -8   13     -0.92      0.00
    7   -8   13      0.36      0.00
  -10   -7   13     -0.53      0.00
   -9   -7   13      1.82      0.00
    7   -7   13      1.69      0.00
    8   -7   13      0.35      0.00
  -10   -6   13      0.77      0.00
   -9   -6   13      1.37      0.00
    8   -6   13     -0.92      0.00
  -10   -5   13     -0.24      0.00
    8   -5   13     -3.07      0.00
    9   -5   13     -0.51      0.00
  -10   -4   13     -1.88      0.00
    9   -4   13      0.20      0.00
   10   -4   13     -0.17      0.00
  -10   -3   13     -0.67      0.00
    8   -3   13     -1.79      0.00
   10   -3   13     -0.60      0.00
  -10   -2   13      0.21      0.00
   10   -2   13     -0.69      0.00
   11   -2   13      0.16      0.00
  -10   -1   13     -1.38      0.00
   11   -1   13      0.87      0.00
  -10    0   13     -1.31      0.00
   11    0   13      1.89      0.00
  -10    1   13      0.44      0.00
   -9    1   13      0.87      0.00
   11    1   13      1.73      0.00
   12    1   13     -1.14      0.00
   -9    2   13     -0.82      0.00
   11    2   13      0.58      0.00
   12    2   13     -1.44      0.00
   -9    3   13      0.03      0.00
   12    3   13     -1.32      0.00
   -9    4   13      0.83      0.00
   -8    4   13      0.23      0.00
   12    4   13      0.29      0.00
   -8    5   13     -0.34      0.00
   12    5   13      2.56      0.00
   -8    6   13     -0.02      0.00
   -7    6   13     -1.12      0.00
   12    6   13      2.26      0.00
   -7    7   13     -0.78      0.00
   -6    7   13      1.18      0.00
   12    7   13     -0.26      0.00
   -6    8   13      0.57      0.00
   11    8   13      0.28      0.00
   12    8   13     -1.08      0.00
   -5    9   13     -0.80      0.00
   11    9   13     -1.47      0.00
   12    9   13      0.26      0.00
   -5   10   13     -0.10      0.00
   -4   10   13      0.80      0.00
   10   10   13     -3.08      0.00
   11   10   13     -0.26      0.00
   -4   11   13      0.03      0.00
   -3   11   13     -1.02      0.00
   -2   11   13      0.93      0.00
   10   11   13     -2.15      0.00
   11   11   13      1.09      0.00
   -2   12   13      0.41      0.00
   -1   12   13     -1.86      0.00
    8   12   13      1.46      0.00
    9   12   13     -1.42      0.00
   10   12   13     -0.27      0.00
   -1   13   13     -1.24      0.00
    0   13   13      0.69      0.00
    1   13   13      1.84      0.00
    2   13   13     -1.90      0.00
    3   13   13     -0.61      0.00
    6   13   13     -0.70      0.00
    7   13   13      0.61      0.00
    8   13   13     -0.13      0.00
    9   13   13     -0.88      0.00
    1   14   13      0.42      0.00
    2   14   13     -1.37      0.00
    3   14   13      0.40      0.00
    4   14   13      1.11      0.00
    5   14   13     -1.14      0.00
    6   14   13      0.58      0.00
    7   14   13      0.00      0.00
    8   14   13     -0.80      0.00
   -5  -12   14      0.23      0.00
   -4  -12   14      0.67      0.00
   -3  -12   14     -0.92      0.00
   -2  -12   14     -0.47      0.00
   -1  -12   14      0.74      0.00
    0  -12   14      0.23      0.00
   -7  -11   14     -0.83      0.00
   -6  -11   14     -0.50      0.00
   -5  -11   14      0.22      0.00
   -4  -11   14     -0.80      0.00
   -3  -11   14     -0.86      0.00
   -2  -11   14      0.68      0.00
   -1  -11   14     -0.14      0.00
    0  -11   14      1.40      0.00
    1  -11   14      1.08      0.00
    2  -11   14     -2.29      0.00
   -8  -10   14      1.70      0.00
   -7  -10   14     -2.02      0.00
   -6  -10   14      0.04      0.00
    2  -10   14     -2.44      0.00
    3  -10   14      2.26      0.00
    4  -10   14      0.08      0.00
   -8   -9   14      1.36      0.00
   -7   -9   14     -3.12      0.00
    4   -9   14     -2.43      0.00
    5   -9   14     -0.47      0.00
   -9   -8   14      0.27      0.00
   -8   -8   14      0.18      0.00
    5   -8   14      2.15      0.00
    6   -8   14     -1.27      0.00
   -9   -7   14      0.46      0.00
   -8   -7   14     -0.43      0.00
    5   -7   14      4.49      0.00
    6   -7   14     -3.01      0.00
    7   -7   14      0.11      0.00
  -10   -6   14     -0.27      0.00
   -9   -6   14      0.81      0.00
    7   -6   14      1.57      0.00
    8   -6   14      0.70      0.00
  -10   -5   14     -0.03      0.00
   -9   -5   14      0.64      0.00
    8   -5   14      0.77      0.00
  -10   -4   14     -0.73      0.00
   -9   -4   14      0.14      0.00
   -7   -4   14      1.64      0.00
   -4   -4   14     -1.31      0.00
   -2   -4   14      2.85      0.00
    9   -4   14     -0.47      0.00
  -10   -3   14     -0.38      0.00
   -9   -3   14     -0.48      0.00
    9   -3   14     -0.33      0.00
   10   -3   14      0.58      0.00
  -10   -2   14      1.07      0.00
   -9   -2   14     -1.60      0.00
   10   -2   14      0.96      0.00
  -10   -1   14      0.64      0.00
   -9   -1   14     -1.53      0.00
   -8   -1   14      2.81      0.00
   10   -1   14     -0.50      0.00
   11   -1   14      0.20      0.00
   -9    0   14      0.57      0.00
   -2    0   14     -1.84      0.00
   10    0   14     -2.65      0.00
   11    0   14      0.78      0.00
   -9    1   14      1.26      0.00
    9    1   14     -0.42      0.00
   11    1   14      1.88      0.00
   -9    2   14     -0.44      0.00
   -8    2   14     -1.72      0.00
   11    2   14      1.29      0.00
   -8    3   14     -0.02      0.00
   11    3   14     -0.22      0.00
   12    3   14     -0.54      0.00
   -8    4   14      0.71      0.00
   11    4   14     -1.50      0.00
   12    4   14     -0.44      0.00
   -8    5   14      0.39      0.00
   -7    5   14      0.28      0.00
   11    5   14     -2.17      0.00
   12    5   14      0.82      0.00
   -7    6   14     -0.37      0.00
   -6    6   14      0.38      0.00
   11    6   14     -0.72      0.00
   12    6   14      2.16      0.00
   -6    7   14      1.19      0.00
   11    7   14      1.52      0.00
   12    7   14      1.16      0.00
   -6    8   14      0.61      0.00
   -5    8   14     -1.69      0.00
   11    8   14      0.67      0.00
   -5    9   14     -0.82      0.00
   -4    9   14      1.66      0.00
   10    9   14      1.52      0.00
   11    9   14     -1.82      0.00
   -4   10   14      0.84      0.00
   -3   10   14     -1.06      0.00
   10   10   14     -1.47      0.00
   11   10   14     -1.59      0.00
   -3   11   14     -0.36      0.00
   -2   11   14      0.98      0.00
   -1   11   14      0.60      0.00
    9   11   14      0.42      0.00
   10   11   14     -1.97      0.00
   -1   12   14     -0.13      0.00
    0   12   14     -0.58      0.00
    1   12   14      2.25      0.00
    7   12   14     -0.32      0.00
    8   12   14      0.71      0.00
    9   12   14     -0.82      0.00
    0   13   14      0.12      0.00
    1   13   14      1.23      0.00
    2   13   14     -0.53      0.00
    3   13   14     -0.43      0.00
    4   13   14      0.50      0.00
    5   13   14      0.23      0.00
    6   13   14      0.00      0.00
    7   13   14      0.13      0.00
    8   13   14      0.33      0.00
    3   14   14     -0.20      0.00
    4   14   14      0.55      0.00
    5   14   14     -0.48      0.00
    6   14   14     -0.13      0.00
   -5  -11   15      0.82      0.00
   -4  -11   15     -0.09      0.00
   -3  -11   15     -0.31      0.00
   -2  -11   15      0.86      0.00
   -1  -11   15     -1.80      0.00
    0  -11   15      0.63      0.00
    1  -11   15      1.66      0.00
   -7  -10   15      0.18      0.00
   -6  -10   15     -0.58      0.00
   -5  -10   15      0.22      0.00
   -4  -10   15      0.03      0.00
   -3  -10   15      0.35      0.00
   -2  -10   15      0.91      0.00
   -1  -10   15     -1.00      0.00
    0  -10   15      0.35      0.00
    1  -10   15      1.22      0.00
    2  -10   15     -3.96      0.00
    3  -10   15      1.27      0.00
   -7   -9   15     -1.46      0.00
   -6   -9   15     -0.89      0.00
   -5   -9   15      0.37      0.00
    2   -9   15     -4.28      0.00
    3   -9   15      4.10      0.00
    4   -9   15     -1.12      0.00
   -8   -8   15      1.59      0.00
   -7   -8   15     -2.93      0.00
    4   -8   15     -4.39      0.00
    5   -8   15      1.25      0.00
   -8   -7   15      0.89      0.00
   -7   -7   15     -2.78      0.00
   -5   -7   15      1.29      0.00
    5   -7   15      3.28      0.00
    6   -7   15     -0.39      0.00
   -9   -6   15     -0.44      0.00
   -8   -6   15      0.34      0.00
    6   -6   15     -2.26      0.00
    7   -6   15     -0.33      0.00
   -9   -5   15      0.54      0.00
   -8   -5   15     -0.30      0.00
   -6   -5   15      1.21      0.00
    7   -5   15      0.06      0.00
    8   -5   15      0.88      0.00
   -9   -4   15      1.51      0.00
   -8   -4   15     -1.85      0.00
   -7   -4   15      0.23      0.00
   -1   -4   15     -1.93      0.00
    8   -4   15      1.36      0.00
    9   -4   15     -1.17      0.00
   -9   -3   15      1.32      0.00
   -8   -3   15     -3.38      0.00
    8   -3   15     -0.35      0.00
    9   -3   15     -2.41      0.00
   -9   -2   15      0.07      0.00
   -8   -2   15     -2.80      0.00
    9   -2   15     -1.69      0.00
   10   -2   15      0.18      0.00
   -9   -1   15     -1.05      0.00
   -8   -1   15     -0.28      0.00
    9   -1   15      1.58      0.00
   10   -1   15      0.69      0.00
   -9    0   15     -0.49      0.00
   -8    0   15      1.19      0.00
   10    0   15     -0.94      0.00
   -9    1   15      0.88      0.00
   -8    1   15      0.13      0.00
   10    1   15     -2.36      0.00
   11    1   15      0.57      0.00
   -8    2   15     -1.05      0.00
   10    2   15     -1.08      0.00
   11    2   15      0.88      0.00
   -8    3   15     -0.51      0.00
   -7    3   15      0.68      0.00
   10    3   15      0.81      0.00
   11    3   15      0.17      0.00
   -7    4   15      0.67      0.00
   11    4   15     -0.61      0.00
   -7    5   15      0.31      0.00
   -6    5   15     -0.27      0.00
   10    5   15     -0.18      0.00
   11    5   15     -1.06      0.00
   -6    6   15     -1.08      0.00
   10    6   15     -1.30      0.00
   11    6   15     -0.64      0.00
   -6    7   15     -0.04      0.00
   -5    7   15      0.15      0.00
   10    7   15     -0.35      0.00
   11    7   15      0.76      0.00
   -5    8   15     -0.59      0.00
   -4    8   15     -0.45      0.00
   10    8   15      2.24      0.00
   11    8   15      1.01      0.00
   -4    9   15      0.88      0.00
   -3    9   15      0.76      0.00
    9    9   15      0.42      0.00
   10    9   15      2.58      0.00
   -3   10   15     -0.09      0.00
   -2   10   15     -0.55      0.00
   -1   10   15      1.69      0.00
    8   10   15     -0.45      0.00
    9   10   15      1.78      0.00
   10   10   15      0.25      0.00
   -2   11   15     -0.17      0.00
   -1   11   15      0.49      0.00
    0   11   15     -2.55      0.00
    1   11   15      1.83      0.00
    7   11   15     -0.47      0.00
    8   11   15      0.80      0.00
    9   11   15      0.63      0.00
    0   12   15     -1.17      0.00
    1   12   15      1.46      0.00
    2   12   15     -0.98      0.00
    3   12   15     -0.91      0.00
    4   12   15      0.72      0.00
    5   12   15     -0.48      0.00
    6   12   15      0.00      0.00
    7   12   15     -0.12      0.00
    8   12   15      0.33      0.00
    2   13   15     -0.77      0.00
    3   13   15     -0.05      0.00
    4   13   15      0.20      0.00
    5   13   15      0.01      0.00
    6   13   15      0.41      0.00
    7   13   15     -0.48      0.00
   -5  -10   16     -0.39      0.00
   -4  -10   16     -0.40      0.00
   -3  -10   16     -0.78      0.00
   -2  -10   16      0.08      0.00
   -1  -10   16      1.65      0.00
    0  -10   16     -1.55      0.00
    1  -10   16      2.04      0.00
   -6   -9   16     -0.90      0.00
   -5   -9   16     -1.02      0.00
   -4   -9   16      1.34      0.00
   -3   -9   16     -1.56      0.00
   -2   -9   16      0.93      0.00
   -1   -9   16      4.03      0.00
    0   -9   16     -9.65      0.00
    1   -9   16      6.14      0.00
    2   -9   16     -2.81      0.00
    3   -9   16      2.96      0.00
   -7   -8   16     -0.75      0.00
   -6   -8   16     -1.51      0.00
   -5   -8   16      0.52      0.00
   -2   -8   16      2.77      0.00
    2   -8   16     -7.06      0.00
    3   -8   16      3.22      0.00
    4   -8   16     -0.76      0.00
   -8   -7   16      0.85      0.00
   -7   -7   16     -1.96      0.00
   -6   -7   16     -0.91      0.00
    0   -7   16     -2.72      0.00
    4   -7   16     -1.71      0.00
    5   -7   16      0.56      0.00
   -8   -6   16      0.61      0.00
   -7   -6   16     -1.81      0.00
    5   -6   16      2.34      0.00
    6   -6   16      0.40      0.00
   -8   -5   16      0.46      0.00
   -7   -5   16     -0.58      0.00
    6   -5   16     -0.96      0.00
    7   -5   16     -1.01      0.00
   -8   -4   16     -0.62      0.00
   -7   -4   16      0.52      0.00
   -5   -4   16     -0.45      0.00
    4   -4   16      1.21      0.00
    7   -4   16     -0.50      0.00
    8   -4   16      1.65      0.00
   -8   -3   16     -2.48      0.00
   -7   -3   16      1.13      0.00
    8   -3   16      2.42      0.00
   -8   -2   16     -3.36      0.00
    8   -2   16      0.25      0.00
    9   -2   16     -1.62      0.00
   -8   -1   16     -2.13      0.00
   -7   -1   16      3.71      0.00
    9   -1   16     -0.85      0.00
   -8    0   16     -0.05      0.00
   -7    0   16      2.97      0.00
   -6    0   16     -2.64      0.00
    9    0   16      1.78      0.00
   10    0   16      0.86      0.00
   -8    1   16      0.50      0.00
   -7    1   16      0.56      0.00
    9    1   16      2.81      0.00
   10    1   16     -0.68      0.00
   -7    2   16     -0.69      0.00
   10    2   16     -1.35      0.00
   -7    3   16     -0.45      0.00
   -6    3   16     -0.64      0.00
   -1    3   16     -1.92      0.00
   10    3   16     -0.06      0.00
   -7    4   16     -0.04      0.00
   -6    4   16     -0.08      0.00
   10    4   16      0.81      0.00
   11    4   16     -0.28      0.00
   -6    5   16      0.30      0.00
   -5    5   16      0.76      0.00
   10    5   16     -0.25      0.00
   11    5   16     -0.55      0.00
   -6    6   16     -0.09      0.00
   -5    6   16      0.33      0.00
   10    6   16     -1.54      0.00
   -5    7   16      0.73      0.00
   -4    7   16     -0.21      0.00
    9    7   16     -2.03      0.00
   10    7   16     -1.00      0.00
   -4    8   16     -0.59      0.00
   -3    8   16      1.11      0.00
    9    8   16     -3.01      0.00
   10    8   16      1.00      0.00
   -3    9   16      0.61      0.00
   -2    9   16     -1.08      0.00
   -1    9   16      1.80      0.00
    8    9   16     -0.79      0.00
    9    9   16     -1.26      0.00
   10    9   16      1.95      0.00
   -2   10   16     -0.77      0.00
   -1   10   16      1.36      0.00
    0   10   16     -1.21      0.00
    7   10   16     -1.13      0.00
    8   10   16     -0.36      0.00
    9   10   16      0.27      0.00
   -1   11   16      0.75      0.00
    0   11   16     -1.53      0.00
    1   11   16      0.55      0.00
    2   11   16      2.67      0.00
    3   11   16     -1.38      0.00
    4   11   16     -0.94      0.00
    5   11   16      1.31      0.00
    6   11   16      0.17      0.00
    7   11   16     -0.68      0.00
    8   11   16      0.54      0.00
    1   12   16      1.29      0.00
    2   12   16      0.49      0.00
    3   12   16     -1.21      0.00
    4   12   16      0.59      0.00
    5   12   16     -0.07      0.00
    6   12   16      0.07      0.00
    7   12   16      0.37      0.00
   -4   -9   17      0.52      0.00
   -3   -9   17     -0.03      0.00
   -2   -9   17     -2.39      0.00
   -1   -9   17      9.20      0.00
    0   -9   17     -9.90      0.00
    1   -9   17      1.19      0.00
   -6   -8   17     -1.23      0.00
   -5   -8   17     -1.54      0.00
   -4   -8   17      2.62      0.00
   -3   -8   17     -1.42      0.00
   -2   -8   17     -0.41      0.00
   -1   -8   17      8.37      0.00
    0   -8   17    -20.46      0.00
    1   -8   17     14.15      0.00
    2   -8   17      0.90      0.00
    3   -8   17     -1.79      0.00
   -6   -7   17     -1.61      0.00
   -5   -7   17      0.36      0.00
   -4   -7   17      3.32      0.00
    2   -7   17     -8.93      0.00
    3   -7   17     -1.76      0.00
    4   -7   17      1.17      0.00
   -7   -6   17     -0.52      0.00
   -6   -6   17     -1.10      0.00
   -5   -6   17      2.68      0.00
   -2   -6   17      2.43      0.00
    3   -6   17      5.16      0.00
    4   -6   17      0.29      0.00
    5   -6   17     -1.71      0.00
   -7   -5   17     -0.75      0.00
   -6   -5   17     -0.05      0.00
    5   -5   17      1.20      0.00
    6   -5   17      0.92      0.00
   -7   -4   17     -0.21      0.00
   -6   -4   17      0.03      0.00
   -4   -4   17     -2.47      0.00
    6   -4   17     -1.00      0.00
    7   -4   17     -1.22      0.00
   -7   -3   17      0.37      0.00
   -6   -3   17     -1.40      0.00
    7   -3   17     -0.93      0.00
    8   -3   17      0.98      0.00
   -7   -2   17      0.35      0.00
   -6   -2   17     -1.58      0.00
    7   -2   17      1.39      0.00
    8   -2   17      1.24      0.00
   -7   -1   17      0.96      0.00
   -6   -1   17     -0.19      0.00
    8   -1   17     -0.59      0.00
    9   -1   17     -1.62      0.00
   -7    0   17      1.77      0.00
   -6    0   17     -0.53      0.00
    8    0   17     -2.44      0.00
    9    0   17     -0.30      0.00
   -7    1   17      1.08      0.00
   -6    1   17     -1.87      0.00
    8    1   17     -1.29      0.00
    9    1   17      1.76      0.00
   -7    2   17      0.08      0.00
   -6    2   17     -1.25      0.00
    9    2   17      1.54      0.00
   10    2   17     -0.50      0.00
   -6    3   17     -0.07      0.00
   -5    3   17      1.24      0.00
   -3    3   17      0.03      0.00
    9    3   17     -0.33      0.00
   10    3   17     -0.60      0.00
   -6    4   17     -0.01      0.00
   -5    4   17      1.37      0.00
    9    4   17     -0.38      0.00
   10    4   17      0.33      0.00
   -5    5   17      1.13      0.00
   -4    5   17     -1.56      0.00
    9    5   17      1.20      0.00
   10    5   17      0.01      0.00
   -5    6   17      0.13      0.00
   -4    6   17     -1.86      0.00
   -3    6   17      0.85      0.00
    1    6   17      0.12      0.00
    8    6   17      0.55      0.00
    9    6   17      1.29      0.00
   10    6   17     -1.24      0.00
   -4    7   17     -0.91      0.00
   -3    7   17      1.10      0.00
   -2    7   17     -0.10      0.00
    8    7   17      2.04      0.00
    9    7   17     -0.42      0.00
   10    7   17     -1.22      0.00
   -3    8   17      0.36      0.00
   -2    8   17     -1.12      0.00
   -1    8   17     -1.34      0.00
    7    8   17      0.03      0.00
    8    8   17      1.71      0.00
    9    8   17     -1.55      0.00
   -2    9   17     -0.58      0.00
   -1    9   17      0.21      0.00
    0    9   17      1.89      0.00
    1    9   17     -1.61      0.00
    6    9   17      1.31      0.00
    7    9   17      0.31      0.00
    8    9   17      0.55      0.00
    9    9   17     -1.05      0.00
   -1   10   17      0.70      0.00
    0   10   17      0.37      0.00
    1   10   17     -2.54      0.00
    2   10   17     -0.06      0.00
    3   10   17      2.53      0.00
    4   10   17     -1.38      0.00
    5   10   17     -1.35      0.00
    6   10   17      1.58      0.00
    7   10   17     -0.66      0.00
    8   10   17      0.18      0.00
    1   11   17     -0.94      0.00
    2   11   17      1.48      0.00
    3   11   17      0.19      0.00
    4   11   17     -1.43      0.00
    5   11   17     -0.10      0.00
    6   11   17      0.38      0.00
    7   11   17     -0.93      0.00
   -4   -8   18      0.54      0.00
   -3   -8   18      1.08      0.00
   -2   -8   18     -3.90      0.00
   -1   -8   18     11.12      0.00
    0   -8   18    -14.35      0.00
    1   -8   18      0.88      0.00
   -5   -7   18     -0.88      0.00
   -4   -7   18      2.47      0.00
   -3   -7   18     -0.53      0.00
   -2   -7   18     -2.75      0.00
   -1   -7   18      7.39      0.00
    0   -7   18    -18.88      0.00
    1   -7   18     14.27      0.00
    2   -7   18      1.70      0.00
    3   -7   18     -5.26      0.00
   -5   -6   18     -0.13      0.00
   -4   -6   18      2.79      0.00
   -3   -6   18     -3.23      0.00
   -2   -6   18     -1.28      0.00
   -1   -6   18      3.26      0.00
    0   -6   18    -10.00      0.00
    1   -6   18     17.47      0.00
    2   -6   18     -9.35      0.00
    3   -6   18     -3.54      0.00
    4   -6   18      2.20      0.00
   -6   -5   18     -0.75      0.00
   -5   -5   18      0.94      0.00
   -4   -5   18      0.93      0.00
    3   -5   18      0.25      0.00
    4   -5   18     -1.96      0.00
    5   -5   18     -0.93      0.00
   -6   -4   18      0.39      0.00
   -5   -4   18      0.50      0.00
   -4   -4   18     -1.04      0.00
    4   -4   18     -3.15      0.00
    5   -4   18      2.34      0.00
    6   -4   18      0.94      0.00
   -6   -3   18     -0.17      0.00
   -5   -3   18     -0.69      0.00
    5   -3   18      3.07      0.00
    6   -3   18     -0.93      0.00
    7   -3   18     -0.48      0.00
   -6   -2   18     -1.46      0.00
   -5   -2   18      0.26      0.00
    6   -2   18     -2.11      0.00
    7   -2   18      0.39      0.00
   -6   -1   18     -0.55      0.00
   -5   -1   18      1.62      0.00
    6   -1   18     -0.31      0.00
    7   -1   18      1.75      0.00
    8   -1   18      0.40      0.00
   -6    0   18      0.55      0.00
   -5    0   18      0.52      0.00
    7    0   18      0.81      0.00
    8    0   18     -1.29      0.00
   -6    1   18     -0.43      0.00
   -5    1   18     -0.13      0.00
    7    1   18     -1.92      0.00
    8    1   18     -1.60      0.00
   -6    2   18     -0.97      0.00
   -5    2   18      1.09      0.00
    8    2   18      0.41      0.00
    9    2   18      1.26      0.00
   -5    3   18      0.92      0.00
   -4    3   18     -0.26      0.00
    8    3   18      1.42      0.00
    9    3   18      0.55      0.00
   -5    4   18     -0.28      0.00
   -4    4   18     -0.50      0.00
    8    4   18     -0.22      0.00
    9    4   18     -0.07      0.00
   -4    5   18     -0.20      0.00
   -3    5   18     -0.73      0.00
    1    5   18     -1.21      0.00
    7    5   18      0.96      0.00
    8    5   18     -1.55      0.00
    9    5   18      0.75      0.00
   -4    6   18     -0.48      0.00
   -3    6   18     -0.29      0.00
   -2    6   18      0.94      0.00
    7    6   18     -1.01      0.00
    8    6   18     -0.62      0.00
    9    6   18      1.29      0.00
   -3    7   18      0.79      0.00
   -2    7   18      1.04      0.00
   -1    7   18     -0.58      0.00
    6    7   18     -0.80      0.00
    7    7   18     -0.97      0.00
    8    7   18      0.58      0.00
   -2    8   18      0.32      0.00
   -1    8   18     -0.90      0.00
    0    8   18     -0.27      0.00
    1    8   18      1.74      0.00
    2    8   18     -0.42      0.00
    4    8   18      2.59      0.00
    5    8   18     -1.17      0.00
    6    8   18     -0.69      0.00
    7    8   18     -0.09      0.00
    8    8   18      0.48      0.00
   -1    9   18     -0.48      0.00
    0    9   18      0.90      0.00
    1    9   18      1.13      0.00
    2    9   18     -1.71      0.00
    3    9   18      0.09      0.00
    4    9   18      1.89      0.00
    5    9   18     -1.88      0.00
    6    9   18      0.58      0.00
    7    9   18      0.07      0.00
    1   10   18     -0.53      0.00
    2   10   18     -1.00      0.00
    3   10   18      1.49      0.00
    4   10   18      1.09      0.00
    5   10   18     -1.30      0.00
    6   10   18      1.03      0.00
   -2   -7   19     -3.00      0.00
   -1   -7   19      6.10      0.00
    0   -7   19     -9.48      0.00
   -4   -6   19      1.33      0.00
   -3   -6   19     -0.04      0.00
   -2   -6   19     -2.32      0.00
   -1   -6   19      4.04      0.00
    0   -6   19     -9.31      0.00
    1   -6   19      9.19      0.00
    2   -6   19      2.92      0.00
   -4   -5   19      1.89      0.00
   -3   -5   19     -1.57      0.00
   -2   -5   19     -0.97      0.00
   -1   -5   19      2.40      0.00
    0   -5   19     -5.01      0.00
    1   -5   19      9.31      0.00
    2   -5   19     -1.15      0.00
    3   -5   19      0.69      0.00
    4   -5   19      0.13      0.00
   -5   -4   19     -0.13      0.00
   -4   -4   19      0.94      0.00
   -3   -4   19     -2.11      0.00
   -2   -4   19      1.32      0.00
   -1   -4   19      1.52      0.00
    0   -4   19     -2.81      0.00
    1   -4   19      6.28      0.00
    2   -4   19     -3.35      0.00
    3   -4   19     -0.41      0.00
    4   -4   19     -0.63      0.00
    5   -4   19      1.21      0.00
   -5   -3   19     -1.32      0.00
   -4   -3   19      0.23      0.00
   -3   -3   19     -0.85      0.00
   -2   -3   19      2.88      0.00
    3   -3   19     -0.46      0.00
    4   -3   19      2.29      0.00
    5   -3   19      2.54      0.00
    6   -3   19      0.12      0.00
   -5   -2   19     -1.31      0.00
   -4   -2   19      0.96      0.00
   -3   -2   19      0.47      0.00
    4   -2   19      3.32      0.00
    5   -2   19      0.49      0.00
    6   -2   19     -0.96      0.00
   -5   -1   19      0.12      0.00
   -4   -1   19      1.14      0.00
   -3   -1   19      0.22      0.00
    5   -1   19     -1.49      0.00
    6   -1   19     -0.36      0.00
    7   -1   19      0.43      0.00
   -5    0   19     -0.07      0.00
   -4    0   19      0.49      0.00
   -3    0   19     -0.56      0.00
    5    0   19     -0.50      0.00
    6    0   19      1.86      0.00
    7    0   19      0.95      0.00
   -5    1   19     -1.17      0.00
   -4    1   19      1.14      0.00
   -3    1   19     -1.25      0.00
    6    1   19      2.71      0.00
    7    1   19     -0.69      0.00
   -5    2   19     -0.27      0.00
   -4    2   19      1.75      0.00
   -3    2   19     -2.15      0.00
    6    2   19      0.44      0.00
    7    2   19     -2.44      0.00
    8    2   19     -0.48      0.00
   -4    3   19      0.50      0.00
   -3    3   19     -2.09      0.00
   -2    3   19      1.64      0.00
    6    3   19     -2.45      0.00
    7    3   19     -1.18      0.00
    8    3   19      0.67      0.00
   -4    4   19     -0.26      0.00
   -3    4   19     -0.86      0.00
   -2    4   19      1.08      0.00
    6    4   19     -2.22      0.00
    7    4   19      1.55      0.00
    8    4   19      0.25      0.00
   -3    5   19     -0.31      0.00
   -2    5   19      0.64      0.00
   -1    5   19      0.12      0.00
    0    5   19      0.80      0.00
    3    5   19     -0.56      0.00
    5    5   19     -0.55      0.00
    6    5   19      0.25      0.00
    7    5   19      1.90      0.00
    8    5   19     -0.99      0.00
   -2    6   19      0.56      0.00
   -1    6   19      0.23      0.00
    0    6   19      0.56      0.00
    1    6   19     -0.17      0.00
    2    6   19      0.11      0.00
    3    6   19     -1.61      0.00
    4    6   19     -1.41      0.00
    5    6   19      1.09      0.00
    6    6   19      0.83      0.00
    7    6   19      0.20      0.00
    8    6   19     -0.86      0.00
   -1    7   19      0.31      0.00
    0    7   19      0.45      0.00
    1    7   19     -0.47      0.00
    2    7   19     -0.34      0.00
    3    7   19     -1.32      0.00
    4    7   19      0.22      0.00
    5    7   19      1.27      0.00
    6    7   19     -0.66      0.00
    7    7   19     -0.42      0.00
    0    8   19     -0.34      0.00
    1    8   19     -0.26      0.00
    2    8   19      0.45      0.00
    3    8   19     -0.89      0.00
    4    8   19      0.94      0.00
    5    8   19     -0.21      0.00
    6    8   19     -1.08      0.00
    7    8   19      0.32      0.00
    2    9   19      0.02      0.00
    3    9   19     -1.32      0.00
    4    9   19      0.95      0.00
    5    9   19     -0.73      0.00
    0    0    0      0.00      0.00
# SQUEEZE RESULTS (Version =  21116)
# Note: Data are Listed for all Voids in the P1 Unit Cell
# i.e. Centre of Gravity, Solvent Accessible Volume,
# Recovered number of Electrons in the Void and
# Details about the Squeezed Material
loop_
  _platon_squeeze_void_nr
  _platon_squeeze_void_average_x
  _platon_squeeze_void_average_y
  _platon_squeeze_void_average_z
  _platon_squeeze_void_volume
  _platon_squeeze_void_count_electrons
  _platon_squeeze_void_content
   1  0.000  0.000  0.500        62         0 ' '
   2  0.500  0.000  1.000       283       109 ' '
# Missing Reflections Below sin(th)/lambda = 0.25
loop_
  _platon_missing_refln_index_h
  _platon_missing_refln_index_k
  _platon_missing_refln_index_l
  _platon_missing_refln_theta
    1    0    0     1.903
    0    1    0     1.596
    1    1    0     2.054
    0   -1    1     2.063
    0    0    1     1.238
    1    0    1     2.185
    0    1    1     1.978
_platon_squeeze_void_probe_radius                  1.20
_platon_squeeze_details
)
TITL mo_CHEM0477_0m_a.res in P-1
CELL   11.3588   13.5043   16.5422     85.79     84.24     70.99
SPGR P-1
# Solvent Accessible Volume =       346
# Electrons Found in S.A.V. =       109
# Note: Atoms in Void as Cxxx and Qxxx all others
C101 0.723 0.789 0.052 !      10.00 eA-3
C102 0.751 0.820 0.201 !       9.82 eA-3
C103 0.606 0.985 0.131 !       9.75 eA-3
C104 0.563 0.966 0.058 !       8.56 eA-3
C105 0.625 0.924 0.214 !       6.89 eA-3
C106 0.717 0.892 0.108 !       4.45 eA-3
C107 0.781 0.909 0.089 !       1.51 eA-3
C108 0.660 0.900 0.158 !       1.46 eA-3
C109 0.660 0.864 0.141 !       1.24 eA-3
C110 0.671 0.901 0.046 !       1.17 eA-3
C111 0.658 0.806 0.168 !       1.14 eA-3
Q112 0.282 0.111 0.014 !       1.11 eA-3
Q113 0.406 0.390 0.315 !       1.07 eA-3
C114 0.562 0.879 0.095 !       1.07 eA-3
C115 0.640 0.861 0.077 !       1.05 eA-3
C116 0.673 0.835 0.118 !       1.02 eA-3
Q117 0.511 0.655 0.419 !       1.01 eA-3
Q118 0.064 0.798 0.342 !       1.01 eA-3
C119 0.378 0.056-0.003 !       1.01 eA-3
C120 0.656 0.950 0.064 !       0.98 eA-3
Q121 0.449 0.369 0.254 !       0.97 eA-3
C122 0.734 0.882 0.047 !       0.96 eA-3
Q123 0.705 0.238 0.297 !       0.96 eA-3
Q124 0.643 0.759 0.215 !       0.94 eA-3
Q125 0.671 0.987 0.181 !       0.92 eA-3
Q126 0.532 0.876 0.027 !       0.91 eA-3
Q127 0.782 0.865 0.012 !       0.90 eA-3
C128 0.456 0.946 0.078 !       0.87 eA-3
Q129 0.519 0.946 0.190 !       0.86 eA-3
Q130 0.895 0.694 0.349 !       0.83 eA-3
Q131 0.779 0.817 0.280 !       0.83 eA-3
Q132 0.842 0.886 0.026 !       0.82 eA-3
Q133 0.705 0.722 0.078 !       0.82 eA-3
Q134 0.406 0.782 0.314 !       0.81 eA-3
Q135 0.859 0.798 0.221 !       0.80 eA-3
C136 0.531 0.047 0.048 !       0.79 eA-3
Q137 0.595 0.817 0.252 !       0.79 eA-3
Q138 0.517 0.065 0.103 !       0.78 eA-3
Q139 0.515 0.873 0.156 !       0.78 eA-3
Q140 0.328 0.274 0.259 !       0.78 eA-3
Q141 0.780 0.480 0.498 !       0.78 eA-3
Q142 0.687 0.729 0.028 !       0.78 eA-3
Q143 0.641 0.743 0.139 !       0.77 eA-3
Q144 0.562 0.076 0.127 !       0.77 eA-3
Q145 0.296 0.477 0.111 !       0.77 eA-3
Q146 0.458 0.794 0.183 !       0.76 eA-3
Q147 0.674 0.041 0.047 !       0.76 eA-3
Q148 0.187 0.079 0.013 !       0.76 eA-3
Q149 0.488 0.017 0.092 !       0.76 eA-3
Q150 0.733 0.248 0.376 !       0.75 eA-3
Q151 0.389 0.940 0.062 !       0.74 eA-3
Q152 0.031 1.002 0.130 !       0.74 eA-3
Q153 0.500 0.843 0.140 !       0.73 eA-3
C154 0.672 0.774 0.109 !       0.73 eA-3
Q155 0.691 0.681 0.189 !       0.72 eA-3
Q156 0.324 0.411 0.278 !       0.72 eA-3
Q157 0.532 0.128 0.078 !       0.72 eA-3
Q158 0.610 0.786 0.050 !       0.72 eA-3
Q159 0.593 0.738 0.097 !       0.72 eA-3
Q160 0.359 0.972 0.075 !       0.71 eA-3
Q161 0.816 0.808 0.410 !       0.71 eA-3
Q162 0.301 0.459 0.011 !       0.71 eA-3
Q163 0.783 0.725 0.253 !       0.71 eA-3
Q164 0.816 0.956 0.049 !       0.69 eA-3
Q165 0.826 0.547 0.231 !       0.69 eA-3
Q166 0.594 0.840 0.141 !       0.67 eA-3
Q167 0.193 0.573 0.126 !       0.67 eA-3
Q168 0.405 0.156 0.030 !       0.67 eA-3
Q169 0.534 0.310 0.344 !       0.67 eA-3
Q170 0.908 0.893 0.014 !       0.66 eA-3
Q171 0.673 0.509 0.045 !       0.66 eA-3
Q172 0.972 0.109 0.391 !       0.66 eA-3
Q173 0.562 0.125 0.140 !       0.66 eA-3
Q174 0.512 0.345 0.439 !       0.66 eA-3
Q175 0.155 0.895 0.077 !       0.66 eA-3
Q176 0.515 0.680 0.485 !       0.66 eA-3
Q177 0.391 0.416 0.216 !       0.65 eA-3
C178 0.438 0.092 0.014 !       0.65 eA-3
Q179 0.827 0.667 0.108 !       0.65 eA-3
Q180 0.517 0.315 0.295 !       0.65 eA-3
Q181 0.638 0.073 0.002 !       0.65 eA-3
Q182 0.749 0.532 0.188 !       0.64 eA-3
Q183 0.391 0.006 0.049 !       0.64 eA-3
Q184 0.858 0.179 0.162 !       0.64 eA-3
Q185 0.408 0.409 0.437 !       0.64 eA-3
Q186 0.718 0.779 0.279 !       0.64 eA-3
Q187 0.639 0.784 0.281 !       0.63 eA-3
Q188 0.456 0.205 0.062 !       0.63 eA-3
Q189 0.839 0.018 0.006 !       0.63 eA-3
Q190 0.516 0.851 0.082 !       0.63 eA-3
Q191 0.731 0.554 0.313 !       0.63 eA-3
Q192 0.560 0.808 0.186 !       0.63 eA-3
Q193 0.438 0.352 0.135 !       0.62 eA-3
C194 0.829 0.719 0.203 !       0.62 eA-3
Q195 0.829 0.108 0.190 !       0.62 eA-3
C196 0.253 0.244 0.034 !       0.62 eA-3
Q197 0.504 0.644 0.355 !       0.62 eA-3
Q198 0.112 0.243 0.380 !       0.62 eA-3
Q199 0.614 0.293 0.150 !       0.62 eA-3
)
;
_shelx_fab_checksum              82766
loop_
_space_group_symop_operation_xyz
'x, y, z'
'-x, -y, -z'
loop_
_atom_site_label
_atom_site_type_symbol
_atom_site_fract_x
_atom_site_fract_y
_atom_site_fract_z
_atom_site_U_iso_or_equiv
_atom_site_adp_type
_atom_site_occupancy
_atom_site_site_symmetry_order
_atom_site_calc_flag
_atom_site_refinement_flags_posn
_atom_site_refinement_flags_adp
Fe1 Fe 0.38997(4) 0.40157(3) 0.26902(3) 0.01766(13) Uani 1 1 d . .
N1 N 0.2634(2) 0.51578(19) 0.21350(14) 0.0191(6) Uani 1 1 d . .
N2 N 0.4747(2) 0.3546(2) 0.16176(15) 0.0196(6) Uani 1 1 d . .
N3 N 0.5438(2) 0.31974(19) 0.32036(15) 0.0195(6) Uani 1 1 d . .
N4 N 0.3177(2) 0.46354(19) 0.37469(14) 0.0175(6) Uani 1 1 d . .
C1 C 0.1723(3) 0.6003(2) 0.24803(18) 0.0201(7) Uani 1 1 d . .
C2 C 0.1021(3) 0.6674(3) 0.18608(19) 0.0278(8) Uani 1 1 d . .
H2 H 0.0358 0.7313 0.1941 0.033 Uiso 1 1 calc R U
C3 C 0.1477(3) 0.6230(3) 0.11479(19) 0.0261(8) Uani 1 1 d . .
H3 H 0.1195 0.6498 0.0630 0.031 Uiso 1 1 calc R U
C4 C 0.2469(3) 0.5277(2) 0.13096(18) 0.0211(7) Uani 1 1 d . .
C5 C 0.3139(3) 0.4577(3) 0.07290(18) 0.0216(7) Uani 1 1 d . .
C6 C 0.4204(3) 0.3742(3) 0.08882(18) 0.0216(7) Uani 1 1 d . .
C7 C 0.4968(3) 0.3034(3) 0.02945(19) 0.0266(8) Uani 1 1 d . .
H7 H 0.4778 0.2987 -0.0245 0.032 Uiso 1 1 calc R U
C8 C 0.6001(3) 0.2453(3) 0.06443(19) 0.0276(8) Uani 1 1 d . .
H8 H 0.6687 0.1926 0.0395 0.033 Uiso 1 1 calc R U
C9 C 0.5879(3) 0.2773(2) 0.14619(18) 0.0219(7) Uani 1 1 d . .
C10 C 0.6790(3) 0.2396(2) 0.20109(19) 0.0219(7) Uani 1 1 d . .
C11 C 0.6583(3) 0.2643(2) 0.28214(18) 0.0213(7) Uani 1 1 d . .
C12 C 0.7500(3) 0.2284(3) 0.34067(19) 0.0268(8) Uani 1 1 d . .
H12 H 0.8364 0.1919 0.3295 0.032 Uiso 1 1 calc R U
C13 C 0.6912(3) 0.2560(3) 0.4141(2) 0.0268(8) Uani 1 1 d . .
H13 H 0.7281 0.2422 0.4645 0.032 Uiso 1 1 calc R U
C14 C 0.5623(3) 0.3102(2) 0.40213(18) 0.0204(7) Uani 1 1 d . .
C15 C 0.4703(3) 0.3491(2) 0.46458(18) 0.0195(7) Uani 1 1 d . .
C16 C 0.3542(3) 0.4217(2) 0.45040(18) 0.0201(7) Uani 1 1 d . .
C17 C 0.2630(3) 0.4747(3) 0.51272(19) 0.0251(7) Uani 1 1 d . .
H17 H 0.2645 0.4586 0.5696 0.030 Uiso 1 1 calc R U
C18 C 0.1753(3) 0.5513(3) 0.47551(19) 0.0269(8) Uani 1 1 d . .
H18 H 0.1039 0.6007 0.5011 0.032 Uiso 1 1 calc R U
C19 C 0.2094(3) 0.5445(2) 0.38991(18) 0.0200(7) Uani 1 1 d . .
C20 C 0.1437(3) 0.6135(2) 0.33083(18) 0.0214(7) Uani 1 1 d . .
C21 C 0.2750(3) 0.4741(3) -0.01223(19) 0.0238(7) Uani 1 1 d . .
C22 C 0.3517(3) 0.4976(3) -0.0762(2) 0.0263(8) Uani 1 1 d . .
H22 H 0.4277 0.5074 -0.0654 0.032 Uiso 1 1 calc R U
C23 C 0.3189(3) 0.5069(3) -0.1552(2) 0.0299(8) Uani 1 1 d . .
H23 H 0.3727 0.5233 -0.1980 0.036 Uiso 1 1 calc R U
C24 C 0.2098(3) 0.4931(3) -0.1732(2) 0.0311(8) Uani 1 1 d . .
C25 C 0.1318(3) 0.4735(3) -0.1095(2) 0.0392(10) Uani 1 1 d . .
H25 H 0.0545 0.4662 -0.1203 0.047 Uiso 1 1 calc R U
C26 C 0.1637(3) 0.4643(3) -0.0301(2) 0.0360(9) Uani 1 1 d . .
H26 H 0.1079 0.4510 0.0128 0.043 Uiso 1 1 calc R U
C27 C 0.1798(4) 0.4968(4) -0.2604(2) 0.0470(11) Uani 1 1 d . .
H27A H 0.1864 0.5617 -0.2881 0.071 Uiso 1 1 calc R U
H27B H 0.0945 0.4947 -0.2618 0.071 Uiso 1 1 calc R U
H27C H 0.2388 0.4364 -0.2880 0.071 Uiso 1 1 calc R U
C28 C 0.8038(3) 0.1699(3) 0.16936(19) 0.0252(7) Uani 1 1 d . .
C29 C 0.8744(3) 0.2069(3) 0.1086(2) 0.0293(8) Uani 1 1 d . .
H29 H 0.8448 0.2781 0.0895 0.035 Uiso 1 1 calc R U
C30 C 0.9872(3) 0.1417(3) 0.0754(2) 0.0318(8) Uani 1 1 d . .
H30 H 1.0330 0.1684 0.0331 0.038 Uiso 1 1 calc R U
C31 C 1.0346(3) 0.0379(3) 0.1028(2) 0.0308(8) Uani 1 1 d . .
C32 C 0.9659(3) 0.0016(3) 0.1645(2) 0.0343(9) Uani 1 1 d . .
H32 H 0.9970 -0.0689 0.1849 0.041 Uiso 1 1 calc R U
C33 C 0.8514(3) 0.0670(3) 0.1973(2) 0.0312(8) Uani 1 1 d . .
H33 H 0.8056 0.0403 0.2396 0.037 Uiso 1 1 calc R U
C34 C 1.1580(3) -0.0331(3) 0.0669(2) 0.0424(10) Uani 1 1 d . .
H34A H 1.1570 -0.0321 0.0077 0.064 Uiso 1 1 calc R U
H34B H 1.1717 -0.1048 0.0894 0.064 Uiso 1 1 calc R U
H34C H 1.2256 -0.0085 0.0804 0.064 Uiso 1 1 calc R U
C35 C 0.5027(3) 0.3156(2) 0.54962(18) 0.0219(7) Uani 1 1 d . .
C36 C 0.5342(4) 0.2105(3) 0.5750(2) 0.0339(9) Uani 1 1 d . .
H36 H 0.5322 0.1603 0.5383 0.041 Uiso 1 1 calc R U
C37 C 0.5683(4) 0.1782(3) 0.6526(2) 0.0445(10) Uani 1 1 d . .
H37 H 0.5877 0.1060 0.6687 0.053 Uiso 1 1 calc R U
C38 C 0.5748(4) 0.2485(3) 0.7078(2) 0.0367(9) Uani 1 1 d . .
C39 C 0.5454(3) 0.3521(3) 0.6822(2) 0.0321(8) Uani 1 1 d . .
H39 H 0.5501 0.4018 0.7186 0.038 Uiso 1 1 calc R U
C40 C 0.5092(3) 0.3862(3) 0.60457(19) 0.0267(8) Uani 1 1 d . .
H40 H 0.4885 0.4586 0.5889 0.032 Uiso 1 1 calc R U
C41 C 0.6140(5) 0.2132(4) 0.7924(2) 0.0646(14) Uani 1 1 d . .
H41A H 0.6681 0.1399 0.7925 0.097 Uiso 1 1 calc R U
H41B H 0.5397 0.2195 0.8300 0.097 Uiso 1 1 calc R U
H41C H 0.6597 0.2571 0.8098 0.097 Uiso 1 1 calc R U
C42 C 0.0328(3) 0.7047(3) 0.35754(18) 0.0246(7) Uani 1 1 d . .
C43 C -0.0808(3) 0.6910(3) 0.3818(2) 0.0390(9) Uani 1 1 d . .
H43 H -0.0875 0.6225 0.3839 0.047 Uiso 1 1 calc R U
C44 C -0.1853(4) 0.7750(3) 0.4031(3) 0.0457(10) Uani 1 1 d . .
H44 H -0.2625 0.7634 0.4192 0.055 Uiso 1 1 calc R U
C45 C -0.1786(4) 0.8753(3) 0.4012(2) 0.0401(10) Uani 1 1 d . .
C46 C -0.0650(4) 0.8886(3) 0.3799(3) 0.0462(11) Uani 1 1 d . .
H46 H -0.0579 0.9568 0.3799 0.055 Uiso 1 1 calc R U
C47 C 0.0407(4) 0.8045(3) 0.3582(2) 0.0393(9) Uani 1 1 d . .
H47 H 0.1184 0.8160 0.3439 0.047 Uiso 1 1 calc R U
C48 C -0.2946(4) 0.9682(3) 0.4225(3) 0.0636(14) Uani 1 1 d . .
H48A H -0.3323 1.0016 0.3725 0.095 Uiso 1 1 calc R U
H48B H -0.2711 1.0192 0.4510 0.095 Uiso 1 1 calc R U
H48C H -0.3551 0.9436 0.4576 0.095 Uiso 1 1 calc R U
C49 C 0.3102(3) 0.3080(2) 0.27940(18) 0.0219(7) Uani 1 1 d . .
C50 C 0.3761(3) 0.1921(3) 0.2779(2) 0.0301(8) Uani 1 1 d . .
H50 H 0.4686 0.1772 0.2707 0.036 Uiso 1 1 calc R U
C51 C 0.3319(4) 0.1483(3) 0.2080(3) 0.0442(10) Uani 1 1 d . .
H51A H 0.3552 0.1800 0.1555 0.053 Uiso 1 1 calc R U
H51B H 0.3731 0.0715 0.2070 0.053 Uiso 1 1 calc R U
C52 C 0.1924(4) 0.1726(3) 0.2191(3) 0.0484(11) Uani 1 1 d . .
H52 H 0.1642 0.1446 0.1729 0.058 Uiso 1 1 calc R U
C53 C 0.1562(4) 0.1219(3) 0.2986(3) 0.0526(12) Uani 1 1 d . .
H53A H 0.1961 0.0449 0.2980 0.063 Uiso 1 1 calc R U
H53B H 0.0645 0.1372 0.3053 0.063 Uiso 1 1 calc R U
C54 C 0.1987(4) 0.1651(3) 0.3692(3) 0.0471(11) Uani 1 1 d . .
H54 H 0.1759 0.1311 0.4215 0.056 Uiso 1 1 calc R U
C55 C 0.1349(4) 0.2835(3) 0.3717(2) 0.0417(10) Uani 1 1 d . .
H55A H 0.1615 0.3112 0.4180 0.050 Uiso 1 1 calc R U
H55B H 0.0431 0.2997 0.3789 0.050 Uiso 1 1 calc R U
C56 C 0.1719(3) 0.3349(3) 0.2911(2) 0.0313(8) Uani 1 1 d . .
H56 H 0.1321 0.4127 0.2916 0.038 Uiso 1 1 calc R U
C57 C 0.3392(4) 0.1425(3) 0.3593(3) 0.0418(10) Uani 1 1 d . .
H57A H 0.3819 0.0658 0.3604 0.050 Uiso 1 1 calc R U
H57B H 0.3659 0.1716 0.4048 0.050 Uiso 1 1 calc R U
C58 C 0.1301(4) 0.2914(3) 0.2195(3) 0.0447(10) Uani 1 1 d . .
H58A H 0.0382 0.3084 0.2248 0.054 Uiso 1 1 calc R U
H58B H 0.1540 0.3242 0.1676 0.054 Uiso 1 1 calc R U
loop_
_atom_site_aniso_label
_atom_site_aniso_U_11
_atom_site_aniso_U_22
_atom_site_aniso_U_33
_atom_site_aniso_U_23
_atom_site_aniso_U_13
_atom_site_aniso_U_12
Fe1 0.0162(2) 0.0206(2) 0.0132(2) -0.00259(17) -0.00049(17) -0.00173(18)
N1 0.0179(14) 0.0221(14) 0.0150(14) -0.0003(11) -0.0005(11) -0.0036(11)
N2 0.0149(13) 0.0255(14) 0.0151(13) -0.0024(11) -0.0015(10) -0.0017(11)
N3 0.0190(14) 0.0208(14) 0.0169(14) -0.0032(11) -0.0011(11) -0.0034(11)
N4 0.0190(14) 0.0178(13) 0.0149(13) -0.0022(10) -0.0015(10) -0.0043(11)
C1 0.0187(16) 0.0178(16) 0.0194(17) 0.0009(13) -0.0002(13) -0.0005(13)
C2 0.0271(19) 0.0254(18) 0.0228(18) -0.0014(14) -0.0025(14) 0.0028(15)
C3 0.0247(18) 0.0321(19) 0.0168(17) 0.0001(14) -0.0038(14) -0.0022(15)
C4 0.0177(16) 0.0262(18) 0.0189(17) -0.0020(13) -0.0002(13) -0.0064(14)
C5 0.0157(16) 0.0310(19) 0.0166(16) -0.0007(14) 0.0003(13) -0.0059(14)
C6 0.0207(17) 0.0314(18) 0.0131(16) -0.0030(13) 0.0005(13) -0.0089(14)
C7 0.0255(18) 0.033(2) 0.0166(17) -0.0064(14) -0.0033(14) -0.0017(15)
C8 0.0249(18) 0.0310(19) 0.0201(17) -0.0094(14) 0.0012(14) 0.0011(15)
C9 0.0184(17) 0.0248(17) 0.0181(17) -0.0012(13) 0.0007(13) -0.0017(14)
C10 0.0177(16) 0.0208(17) 0.0236(17) -0.0009(13) 0.0006(13) -0.0018(13)
C11 0.0174(16) 0.0252(17) 0.0190(17) 0.0004(13) 0.0003(13) -0.0042(14)
C12 0.0181(17) 0.0327(19) 0.0254(19) -0.0002(15) -0.0040(14) -0.0021(15)
C13 0.0229(18) 0.0332(19) 0.0218(18) 0.0012(14) -0.0077(14) -0.0046(15)
C14 0.0212(17) 0.0200(17) 0.0184(17) 0.0008(13) -0.0049(13) -0.0040(13)
C15 0.0236(17) 0.0207(17) 0.0156(16) 0.0000(13) -0.0025(13) -0.0090(14)
C16 0.0248(17) 0.0199(16) 0.0158(16) -0.0029(13) -0.0009(13) -0.0069(14)
C17 0.0279(18) 0.0296(19) 0.0137(16) -0.0006(14) -0.0002(14) -0.0041(15)
C18 0.0263(18) 0.0272(19) 0.0214(18) -0.0069(14) 0.0056(14) -0.0017(15)
C19 0.0226(17) 0.0188(16) 0.0161(16) -0.0036(13) -0.0006(13) -0.0029(14)
C20 0.0215(17) 0.0205(17) 0.0203(17) -0.0029(13) 0.0018(13) -0.0048(14)
C21 0.0199(17) 0.0272(18) 0.0197(17) -0.0061(14) -0.0029(13) -0.0001(14)
C22 0.0249(18) 0.0285(19) 0.0256(18) -0.0035(14) -0.0045(14) -0.0076(15)
C23 0.036(2) 0.032(2) 0.0173(17) 0.0013(14) -0.0011(15) -0.0058(16)
C24 0.030(2) 0.038(2) 0.0189(18) -0.0040(15) -0.0050(15) 0.0006(16)
C25 0.0244(19) 0.065(3) 0.031(2) -0.0044(19) -0.0094(16) -0.0148(19)
C26 0.027(2) 0.057(3) 0.0224(19) -0.0007(17) -0.0007(15) -0.0128(18)
C27 0.046(2) 0.065(3) 0.024(2) -0.0095(19) -0.0091(18) -0.005(2)
C28 0.0210(17) 0.0258(18) 0.0237(18) -0.0050(14) -0.0039(14) 0.0010(14)
C29 0.0237(18) 0.0296(19) 0.0271(19) -0.0038(15) -0.0008(15) 0.0018(15)
C30 0.0227(18) 0.044(2) 0.0224(18) -0.0052(16) 0.0014(14) -0.0027(16)
C31 0.0198(18) 0.040(2) 0.0259(19) -0.0123(16) -0.0071(15) 0.0034(16)
C32 0.032(2) 0.0265(19) 0.036(2) -0.0047(16) -0.0106(17) 0.0055(16)
C33 0.030(2) 0.029(2) 0.030(2) -0.0007(15) -0.0006(15) -0.0044(16)
C34 0.026(2) 0.050(2) 0.038(2) -0.0169(19) -0.0058(17) 0.0102(18)
C35 0.0225(17) 0.0242(17) 0.0177(16) 0.0000(13) -0.0014(13) -0.0059(14)
C36 0.048(2) 0.0234(19) 0.0269(19) -0.0029(15) -0.0095(17) -0.0047(17)
C37 0.069(3) 0.026(2) 0.033(2) 0.0035(17) -0.016(2) -0.005(2)
C38 0.047(2) 0.039(2) 0.0227(19) 0.0042(16) -0.0089(17) -0.0106(18)
C39 0.041(2) 0.038(2) 0.0219(18) -0.0037(16) -0.0079(16) -0.0168(18)
C40 0.0332(19) 0.0257(18) 0.0232(18) 0.0007(14) -0.0043(15) -0.0118(15)
C41 0.100(4) 0.063(3) 0.030(2) 0.012(2) -0.029(2) -0.021(3)
C42 0.0285(19) 0.0246(18) 0.0149(16) -0.0006(13) 0.0007(14) -0.0014(15)
C43 0.036(2) 0.028(2) 0.048(2) -0.0060(17) 0.0043(18) -0.0048(17)
C44 0.031(2) 0.040(2) 0.057(3) -0.005(2) 0.0088(19) -0.0022(18)
C45 0.044(2) 0.029(2) 0.032(2) 0.0034(16) 0.0105(18) 0.0051(18)
C46 0.051(3) 0.022(2) 0.055(3) -0.0028(18) 0.010(2) -0.0017(18)
C47 0.037(2) 0.033(2) 0.043(2) -0.0052(17) 0.0089(18) -0.0074(18)
C48 0.058(3) 0.034(2) 0.071(3) 0.005(2) 0.023(2) 0.015(2)
C49 0.0221(17) 0.0264(18) 0.0131(15) -0.0053(13) -0.0019(13) -0.0012(14)
C50 0.0266(19) 0.0241(18) 0.039(2) -0.0051(15) -0.0016(16) -0.0068(15)
C51 0.048(2) 0.038(2) 0.049(3) -0.0203(19) 0.000(2) -0.0144(19)
C52 0.045(3) 0.042(2) 0.064(3) -0.020(2) -0.017(2) -0.016(2)
C53 0.035(2) 0.033(2) 0.095(4) -0.005(2) -0.008(2) -0.0161(19)
C54 0.043(2) 0.041(2) 0.057(3) 0.010(2) 0.005(2) -0.019(2)
C55 0.032(2) 0.043(2) 0.049(2) -0.0060(19) 0.0151(18) -0.0150(18)
C56 0.0238(18) 0.0281(19) 0.042(2) -0.0032(16) -0.0021(16) -0.0076(15)
C57 0.042(2) 0.029(2) 0.055(3) 0.0075(18) -0.013(2) -0.0124(18)
C58 0.034(2) 0.043(2) 0.059(3) -0.002(2) -0.019(2) -0.0107(19)
loop_
_atom_type_symbol
_atom_type_description
_atom_type_scat_dispersion_real
_atom_type_scat_dispersion_imag
_atom_type_scat_source
C C 0.0033 0.0016 'International Tables Vol C Tables 4.2.6.8 and 6.1.1.4'
H H 0.0000 0.0000 'International Tables Vol C Tables 4.2.6.8 and 6.1.1.4'
N N 0.0061 0.0033 'International Tables Vol C Tables 4.2.6.8 and 6.1.1.4'
Fe Fe 0.3463 0.8444 'International Tables Vol C Tables 4.2.6.8 and 6.1.1.4'
D D 0.0000 0.0000 'International Tables Vol C Tables 4.2.6.8 and 6.1.1.4'
Cl Cl 0.1484 0.1585 'International Tables Vol C Tables 4.2.6.8 and 6.1.1.4'
loop_
_geom_angle_atom_site_label_1
_geom_angle_atom_site_label_2
_geom_angle_atom_site_label_3
_geom_angle
C49 Fe1 N3 99.45(12)
C49 Fe1 N1 98.30(12)
N3 Fe1 N1 162.25(10)
C49 Fe1 N2 94.09(12)
N3 Fe1 N2 89.35(10)
N1 Fe1 N2 89.16(10)
C49 Fe1 N4 94.07(12)
N3 Fe1 N4 89.35(10)
N1 Fe1 N4 89.62(10)
N2 Fe1 N4 171.85(11)
C1 N1 C4 105.2(2)
C1 N1 Fe1 127.7(2)
C4 N1 Fe1 127.0(2)
C6 N2 C9 104.9(2)
C6 N2 Fe1 126.1(2)
C9 N2 Fe1 127.4(2)
C14 N3 C11 105.0(2)
C14 N3 Fe1 127.2(2)
C11 N3 Fe1 127.7(2)
C19 N4 C16 105.1(2)
C19 N4 Fe1 127.7(2)
C16 N4 Fe1 126.3(2)
N1 C1 C20 125.1(3)
N1 C1 C2 110.2(3)
C20 C1 C2 124.4(3)
C3 C2 C1 107.2(3)
C3 C2 H2 126.4
C1 C2 H2 126.4
C2 C3 C4 107.6(3)
C2 C3 H3 126.2
C4 C3 H3 126.2
C5 C4 N1 125.4(3)
C5 C4 C3 124.8(3)
N1 C4 C3 109.7(3)
C4 C5 C6 122.9(3)
C4 C5 C21 119.4(3)
C6 C5 C21 117.6(3)
N2 C6 C5 124.6(3)
N2 C6 C7 110.3(3)
C5 C6 C7 124.8(3)
C8 C7 C6 107.0(3)
C8 C7 H7 126.5
C6 C7 H7 126.5
C7 C8 C9 107.4(3)
C7 C8 H8 126.3
C9 C8 H8 126.3
N2 C9 C10 124.7(3)
N2 C9 C8 110.2(3)
C10 C9 C8 125.0(3)
C11 C10 C9 123.0(3)
C11 C10 C28 119.8(3)
C9 C10 C28 117.2(3)
C10 C11 N3 125.1(3)
C10 C11 C12 124.8(3)
N3 C11 C12 109.8(3)
C13 C12 C11 107.4(3)
C13 C12 H12 126.3
C11 C12 H12 126.3
C12 C13 C14 107.2(3)
C12 C13 H13 126.4
C14 C13 H13 126.4
N3 C14 C15 125.3(3)
N3 C14 C13 110.3(3)
C15 C14 C13 124.3(3)
C14 C15 C16 122.6(3)
C14 C15 C35 117.5(3)
C16 C15 C35 119.8(3)
N4 C16 C15 124.7(3)
N4 C16 C17 110.1(3)
C15 C16 C17 124.7(3)
C18 C17 C16 107.0(3)
C18 C17 H17 126.5
C16 C17 H17 126.5
C17 C18 C19 107.1(3)
C17 C18 H18 126.4
C19 C18 H18 126.4
N4 C19 C20 124.9(3)
N4 C19 C18 110.6(3)
C20 C19 C18 124.5(3)
C1 C20 C19 123.4(3)
C1 C20 C42 117.8(3)
C19 C20 C42 118.7(3)
C26 C21 C22 117.7(3)
C26 C21 C5 121.4(3)
C22 C21 C5 120.8(3)
C23 C22 C21 120.8(3)
C23 C22 H22 119.6
C21 C22 H22 119.6
C24 C23 C22 121.3(3)
C24 C23 H23 119.3
C22 C23 H23 119.3
C25 C24 C23 117.8(3)
C25 C24 C27 121.7(3)
C23 C24 C27 120.5(3)
C24 C25 C26 121.2(3)
C24 C25 H25 119.4
C26 C25 H25 119.4
C21 C26 C25 121.1(3)
C21 C26 H26 119.5
C25 C26 H26 119.5
C24 C27 H27A 109.5
C24 C27 H27B 109.5
H27A C27 H27B 109.5
C24 C27 H27C 109.5
H27A C27 H27C 109.5
H27B C27 H27C 109.5
C33 C28 C29 118.0(3)
C33 C28 C10 121.8(3)
C29 C28 C10 120.2(3)
C30 C29 C28 120.9(3)
C30 C29 H29 119.5
C28 C29 H29 119.5
C29 C30 C31 121.1(3)
C29 C30 H30 119.4
C31 C30 H30 119.4
C32 C31 C30 118.0(3)
C32 C31 C34 120.9(3)
C30 C31 C34 121.1(3)
C31 C32 C33 120.9(3)
C31 C32 H32 119.5
C33 C32 H32 119.5
C28 C33 C32 121.0(3)
C28 C33 H33 119.5
C32 C33 H33 119.5
C31 C34 H34A 109.5
C31 C34 H34B 109.5
H34A C34 H34B 109.5
C31 C34 H34C 109.5
H34A C34 H34C 109.5
H34B C34 H34C 109.5
C40 C35 C36 117.7(3)
C40 C35 C15 121.8(3)
C36 C35 C15 120.4(3)
C37 C36 C35 120.9(3)
C37 C36 H36 119.5
C35 C36 H36 119.5
C36 C37 C38 121.6(3)
C36 C37 H37 119.2
C38 C37 H37 119.2
C39 C38 C37 117.5(3)
C39 C38 C41 120.8(4)
C37 C38 C41 121.7(4)
C38 C39 C40 121.7(3)
C38 C39 H39 119.2
C40 C39 H39 119.2
C35 C40 C39 120.7(3)
C35 C40 H40 119.7
C39 C40 H40 119.7
C38 C41 H41A 109.5
C38 C41 H41B 109.5
H41A C41 H41B 109.5
C38 C41 H41C 109.5
H41A C41 H41C 109.5
H41B C41 H41C 109.5
C43 C42 C47 117.9(3)
C43 C42 C20 120.7(3)
C47 C42 C20 121.5(3)
C42 C43 C44 121.3(4)
C42 C43 H43 119.3
C44 C43 H43 119.3
C45 C44 C43 120.8(4)
C45 C44 H44 119.6
C43 C44 H44 119.6
C46 C45 C44 117.9(3)
C46 C45 C48 121.3(4)
C44 C45 C48 120.7(4)
C45 C46 C47 121.6(4)
C45 C46 H46 119.2
C47 C46 H46 119.2
C42 C47 C46 120.4(4)
C42 C47 H47 119.8
C46 C47 H47 119.8
C45 C48 H48A 109.5
C45 C48 H48B 109.5
H48A C48 H48B 109.5
C45 C48 H48C 109.5
H48A C48 H48C 109.5
H48B C48 H48C 109.5
C56 C49 C50 112.8(3)
C56 C49 Fe1 124.2(2)
C50 C49 Fe1 123.1(2)
C49 C50 C51 108.7(3)
C49 C50 C57 107.7(3)
C51 C50 C57 109.3(3)
C49 C50 H50 110.3
C51 C50 H50 110.3
C57 C50 H50 110.3
C52 C51 C50 109.7(3)
C52 C51 H51A 109.7
C50 C51 H51A 109.7
C52 C51 H51B 109.7
C50 C51 H51B 109.7
H51A C51 H51B 108.2
C51 C52 C53 110.0(4)
C51 C52 C58 109.1(3)
C53 C52 C58 110.0(4)
C51 C52 H52 109.2
C53 C52 H52 109.2
C58 C52 H52 109.2
C52 C53 C54 109.2(3)
C52 C53 H53A 109.8
C54 C53 H53A 109.8
C52 C53 H53B 109.8
C54 C53 H53B 109.8
H53A C53 H53B 108.3
C57 C54 C55 108.9(3)
C57 C54 C53 110.2(4)
C55 C54 C53 110.1(4)
C57 C54 H54 109.2
C55 C54 H54 109.2
C53 C54 H54 109.2
C54 C55 C56 108.5(3)
C54 C55 H55A 110.0
C56 C55 H55A 110.0
C54 C55 H55B 110.0
C56 C55 H55B 110.0
H55A C55 H55B 108.4
C49 C56 C58 107.4(3)
C49 C56 C55 109.9(3)
C58 C56 C55 109.6(3)
C49 C56 H56 110.0
C58 C56 H56 110.0
C55 C56 H56 110.0
C54 C57 C50 109.8(3)
C54 C57 H57A 109.7
C50 C57 H57A 109.7
C54 C57 H57B 109.7
C50 C57 H57B 109.7
H57A C57 H57B 108.2
C52 C58 C56 109.4(3)
C52 C58 H58A 109.8
C56 C58 H58A 109.8
C52 C58 H58B 109.8
C56 C58 H58B 109.8
H58A C58 H58B 108.2
loop_
_geom_bond_atom_site_label_1
_geom_bond_atom_site_label_2
_geom_bond_distance
Fe1 C49 1.770(3)
Fe1 N3 1.974(2)
Fe1 N1 1.975(2)
Fe1 N2 1.976(2)
Fe1 N4 1.977(2)
N1 C1 1.381(4)
N1 C4 1.387(4)
N2 C6 1.379(4)
N2 C9 1.381(4)
N3 C14 1.380(4)
N3 C11 1.386(4)
N4 C19 1.370(4)
N4 C16 1.381(4)
C1 C20 1.386(4)
C1 C2 1.437(4)
C2 C3 1.341(4)
C2 H2 0.9500
C3 C4 1.437(4)
C3 H3 0.9500
C4 C5 1.382(4)
C5 C6 1.392(4)
C5 C21 1.498(4)
C6 C7 1.434(4)
C7 C8 1.340(5)
C7 H7 0.9500
C8 C9 1.430(4)
C8 H8 0.9500
C9 C10 1.390(4)
C10 C11 1.384(4)
C10 C28 1.492(4)
C11 C12 1.436(4)
C12 C13 1.342(5)
C12 H12 0.9500
C13 C14 1.435(4)
C13 H13 0.9500
C14 C15 1.393(4)
C15 C16 1.394(4)
C15 C35 1.490(4)
C16 C17 1.435(4)
C17 C18 1.341(5)
C17 H17 0.9500
C18 C19 1.431(4)
C18 H18 0.9500
C19 C20 1.392(4)
C20 C42 1.502(4)
C21 C26 1.375(5)
C21 C22 1.388(5)
C22 C23 1.381(5)
C22 H22 0.9500
C23 C24 1.375(5)
C23 H23 0.9500
C24 C25 1.375(5)
C24 C27 1.510(5)
C25 C26 1.385(5)
C25 H25 0.9500
C26 H26 0.9500
C27 H27A 0.9800
C27 H27B 0.9800
C27 H27C 0.9800
C28 C33 1.379(5)
C28 C29 1.390(5)
C29 C30 1.383(5)
C29 H29 0.9500
C30 C31 1.387(5)
C30 H30 0.9500
C31 C32 1.381(5)
C31 C34 1.510(5)
C32 C33 1.395(5)
C32 H32 0.9500
C33 H33 0.9500
C34 H34A 0.9800
C34 H34B 0.9800
C34 H34C 0.9800
C35 C40 1.388(4)
C35 C36 1.389(5)
C36 C37 1.376(5)
C36 H36 0.9500
C37 C38 1.389(5)
C37 H37 0.9500
C38 C39 1.373(5)
C38 C41 1.508(5)
C39 C40 1.388(5)
C39 H39 0.9500
C40 H40 0.9500
C41 H41A 0.9800
C41 H41B 0.9800
C41 H41C 0.9800
C42 C43 1.378(5)
C42 C47 1.381(5)
C43 C44 1.385(5)
C43 H43 0.9500
C44 C45 1.379(6)
C44 H44 0.9500
C45 C46 1.367(6)
C45 C48 1.527(5)
C46 C47 1.394(5)
C46 H46 0.9500
C47 H47 0.9500
C48 H48A 0.9800
C48 H48B 0.9800
C48 H48C 0.9800
C49 C56 1.488(5)
C49 C50 1.499(4)
C50 C51 1.532(5)
C50 C57 1.540(5)
C50 H50 1.0000
C51 C52 1.505(6)
C51 H51A 0.9900
C51 H51B 0.9900
C52 C53 1.521(6)
C52 C58 1.528(5)
C52 H52 1.0000
C53 C54 1.529(6)
C53 H53A 0.9900
C53 H53B 0.9900
C54 C57 1.518(5)
C54 C55 1.527(5)
C54 H54 1.0000
C55 C56 1.542(5)
C55 H55A 0.9900
C55 H55B 0.9900
C56 C58 1.540(5)
C56 H56 1.0000
C57 H57A 0.9900
C57 H57B 0.9900
C58 H58A 0.9900
C58 H58B 0.9900
