#------------------------------------------------------------------------------
#$Date: 2020-04-05 13:26:44 +0300 (Sun, 05 Apr 2020) $
#$Revision: 250219 $
#$URL: file:///home/coder/svn-repositories/cod/cif/1/55/68/1556873.cif $
#------------------------------------------------------------------------------
#
# This file is available in the Crystallography Open Database (COD),
# http://www.crystallography.net/
#
# All data on this site have been placed in the public domain by the
# contributors.
#
data_1556873
loop_
_publ_author_name
'Wang, Hai-Xu'
'Wan, Qingyun'
'Low, Kam-Hung'
'Zhou, Cong-Ying'
'Huang, Jie-Sheng'
'Zhang, Jun-Long'
'Che, Chi-Ming'
_publ_section_title
;
 Stable group 8 metal porphyrin mono- and bis(dialkylcarbene) complexes:
 synthesis, characterization, and catalytic activity.
;
_journal_issue                   8
_journal_name_full               'Chemical science'
_journal_page_first              2243
_journal_page_last               2259
_journal_paper_doi               10.1039/c9sc05432d
_journal_volume                  11
_journal_year                    2020
_chemical_formula_moiety         'C64 H36 F20 N8 Ru, 0.25(C6 H14)'
_chemical_formula_sum            'C65.5 H39.5 F20 N8 Ru'
_chemical_formula_weight         1419.62
_space_group_crystal_system      monoclinic
_space_group_IT_number           15
_space_group_name_Hall           '-C 2yc'
_space_group_name_H-M_alt        'C 1 2/c 1'
_atom_sites_solution_hydrogens   geom
_audit_creation_method           SHELXL-2014/7
_audit_update_record
;
2019-10-26 deposited with the CCDC.	2019-12-30 downloaded from the CCDC.
;
_cell_angle_alpha                90
_cell_angle_beta                 100.174(7)
_cell_angle_gamma                90
_cell_formula_units_Z            8
_cell_length_a                   24.815(6)
_cell_length_b                   20.891(5)
_cell_length_c                   24.043(5)
_cell_measurement_reflns_used    817
_cell_measurement_temperature    149(2)
_cell_measurement_theta_max      53.16
_cell_measurement_theta_min      3.07
_cell_volume                     12268(5)
_computing_cell_refinement       'SAINT V8.34A (Bruker AXS Inc., 2013)'
_computing_data_collection       'APEX3 v2015.5-2 (Bruker-AXS, 2015)'
_computing_data_reduction        'SAINT V8.34A (Bruker AXS Inc., 2013)'
_computing_molecular_graphics    'shelXle (C.B. Huebschle, rev 717)'
_computing_publication_material  'XP, VERSION 5'
_computing_structure_refinement  'SHELXL-2014/7 (Sheldrick, 2014)'
_computing_structure_solution    'SHELXT 2014/4 (Sheldrick, 2014)'
_diffrn_ambient_temperature      149(2)
_diffrn_detector_area_resol_mean 10.24
_diffrn_measured_fraction_theta_full 0.982
_diffrn_measured_fraction_theta_max 0.982
_diffrn_measurement_device_type
;
'Bruker D8 VENTURE KAPPA goniometer PHOTON II CPAD'
;
_diffrn_measurement_method       '\f and \w scans'
_diffrn_radiation_type           GaK\a
_diffrn_radiation_wavelength     1.34138
_diffrn_reflns_av_R_equivalents  0.1765
_diffrn_reflns_av_unetI/netI     0.1160
_diffrn_reflns_Laue_measured_fraction_full 0.982
_diffrn_reflns_Laue_measured_fraction_max 0.982
_diffrn_reflns_limit_h_max       29
_diffrn_reflns_limit_h_min       -28
_diffrn_reflns_limit_k_max       22
_diffrn_reflns_limit_k_min       -24
_diffrn_reflns_limit_l_max       28
_diffrn_reflns_limit_l_min       -20
_diffrn_reflns_number            69230
_diffrn_reflns_point_group_measured_fraction_full 0.982
_diffrn_reflns_point_group_measured_fraction_max 0.982
_diffrn_reflns_theta_full        53.207
_diffrn_reflns_theta_max         53.207
_diffrn_reflns_theta_min         2.421
_diffrn_source                   'Excillum MetalJet D2'
_exptl_absorpt_coefficient_mu    2.026
_exptl_absorpt_correction_T_max  0.1713
_exptl_absorpt_correction_T_min  0.0446
_exptl_absorpt_correction_type   multi-scan
_exptl_absorpt_process_details
;
SADABS-2014/5 - Bruker AXS area detector scaling and absorption correction
;
_exptl_crystal_colour            red
_exptl_crystal_density_diffrn    1.537
_exptl_crystal_description       ribbon
_exptl_crystal_F_000             5700
_exptl_crystal_size_max          0.328
_exptl_crystal_size_mid          0.103
_exptl_crystal_size_min          0.017
_refine_diff_density_max         1.568
_refine_diff_density_min         -1.956
_refine_diff_density_rms         0.201
_refine_ls_extinction_coef       0.00057(8)
_refine_ls_extinction_expression Fc^*^=kFc[1+0.001xFc^2^\l^3^/sin(2\q)]^-1/4^
_refine_ls_extinction_method     'SHELXL-2014/7 (Sheldrick 2014'
_refine_ls_goodness_of_fit_ref   1.194
_refine_ls_hydrogen_treatment    constr
_refine_ls_matrix_type           full
_refine_ls_number_parameters     839
_refine_ls_number_reflns         10731
_refine_ls_number_restraints     6
_refine_ls_restrained_S_all      1.194
_refine_ls_R_factor_all          0.1462
_refine_ls_R_factor_gt           0.1093
_refine_ls_shift/su_max          0.001
_refine_ls_shift/su_mean         0.000
_refine_ls_structure_factor_coef Fsqd
_refine_ls_weighting_details
'w=1/[\s^2^(Fo^2^)+(0.2000P)^2^] where P=(Fo^2^+2Fc^2^)/3'
_refine_ls_weighting_scheme      calc
_refine_ls_wR_factor_gt          0.2887
_refine_ls_wR_factor_ref         0.3252
_reflns_Friedel_coverage         0.000
_reflns_number_gt                7204
_reflns_number_total             10731
_reflns_threshold_expression     'I > 2\s(I)'
_cod_data_source_file            c9sc05432d2.cif
_cod_data_source_block           ga_CHEM0660_sq
_cod_depositor_comments
;Adding full bibliography for 1556869--1556873.cif.

 Adding full bibliography for 1556869--1556873.cif.
;
_cod_original_sg_symbol_H-M      'C 2/c'
_cod_original_formula_sum        'C65.50 H39.50 F20 N8 Ru'
_cod_database_code               1556873
_shelx_shelxl_version_number     2014/7
_shelx_space_group_comment
;
The symmetry employed for this shelxl refinement is uniquely defined
by the following loop, which should always be used as a source of
symmetry information in preference to the above space-group names.
They are only intended as comments.
;
_shelx_estimated_absorpt_t_min   0.556
_shelx_estimated_absorpt_t_max   0.966
_shelx_res_file
;

    ga_CHEM0660_sq.res created by SHELXL-2014/7


TITL KHL181115C_0m_a.res in C2/c
REM Old TITL KHL181115C_0m in C2/c
REM SHELXT solution in C2/c
REM R1 0.218,  Rweak 0.062,  Alpha 0.077,  Orientation as input
REM Formula found by SHELXT:  C60 F22 N10 Ru
CELL  1.34138  24.8154  20.8908  24.0425   90.000  100.174   90.000
ZERR    8.000   0.0060   0.0050   0.0050    0.000    0.007    0.000
LATT  7
SYMM -X, Y, 1/2-Z
SFAC C H F N RU
UNIT 524 316 160 64 8
LIST 6 ! automatically inserted. Change 6 to 4 for CHECKCIF!!
TEMP -123.910
SIZE 0.017 0.103 0.328
L.S. 5 0   12
BOND $H
ACTA
OMIT     1  21   4
OMIT     8  14  15
OMIT     3   1   6
OMIT    -2   2   3
OMIT    -2   6   4
OMIT    -2   0   2
OMIT     2  18  10
OMIT    -3   3   4

OMIT     -9  17  20
OMIT      0   8   0
OMIT      9  15  13
OMIT     10  16  10
OMIT     10  16  11
OMIT      2  20   1
OMIT     -1  21   1
FMAP 2
PLAN 20
ABIN
ISOR 0.05 C52

WGHT    0.200000
EXTI    0.000575
FVAR       0.12414
RU1   5    0.294412    0.501878    0.632750    11.00000    0.03970    0.05914 =
         0.04293   -0.00113    0.00493    0.00535
F1    3    0.364099    0.255140    0.593154    11.00000    0.05159    0.07129 =
         0.09394   -0.00954    0.01033   -0.00284
F2    3    0.435917    0.170102    0.564988    11.00000    0.07234    0.07105 =
         0.10424   -0.01784    0.00158    0.01473
F3    3    0.537652    0.207625    0.553136    11.00000    0.06859    0.11231 =
         0.08699   -0.01275    0.02003    0.04223
F4    3    0.569174    0.330750    0.574971    11.00000    0.04660    0.12016 =
         0.08834    0.00126    0.02372    0.01084
F5    3    0.498007    0.417310    0.603106    11.00000    0.04700    0.07910 =
         0.06044    0.00169    0.00483   -0.00613
F6    3    0.330131    0.430302    0.853188    11.00000    0.09087    0.08670 =
         0.06456    0.00061    0.01556   -0.02488
F7    3    0.371542    0.436610    0.964370    11.00000    0.11504    0.11921 =
         0.05798    0.01158    0.02190    0.00585
F8    3    0.446871    0.527742    1.003292    11.00000    0.07511    0.15669 =
         0.04526   -0.02049   -0.00802    0.02521
F9    3    0.479506    0.612478    0.931278    11.00000    0.09450    0.16057 =
         0.08926   -0.04024    0.00249   -0.05023
F10   3    0.437749    0.605848    0.819082    11.00000    0.10572    0.11344 =
         0.07583   -0.00420    0.00638   -0.05405
F11   3    0.087873    0.564655    0.663309    11.00000    0.05485    0.11033 =
         0.07923    0.00171    0.01180    0.00125
F12   3    0.008893    0.643086    0.688229    11.00000    0.05846    0.16776 =
         0.08913   -0.00255    0.01730    0.01575
F13   3    0.029180    0.768834    0.708194    11.00000    0.09847    0.14265 =
         0.09120   -0.00771    0.03007    0.06740
F14   3    0.129951    0.817791    0.703795    11.00000    0.13093    0.09227 =
         0.14479   -0.00907    0.05648    0.03697
F15   3    0.209342    0.740171    0.679241    11.00000    0.08550    0.08315 =
         0.11771   -0.01046    0.03886    0.00659
F16   3    0.172154    0.391729    0.433976    11.00000    0.07683    0.09906 =
         0.06533   -0.00324    0.00425   -0.01782
F17   3    0.127876    0.395544    0.323207    11.00000    0.07785    0.16123 =
         0.08039   -0.04578   -0.00795   -0.01537
F18   3    0.140873    0.501678    0.260915    11.00000    0.10737    0.17897 =
         0.04467   -0.00981   -0.00997    0.04505
F19   3    0.198022    0.602578    0.310193    11.00000    0.13150    0.11398 =
         0.05724    0.01390    0.02246    0.04405
F20   3    0.243110    0.599469    0.420379    11.00000    0.07922    0.08154 =
         0.06326    0.00332    0.01646    0.00384
N1    4    0.306626    0.448989    0.564188    11.00000    0.03784    0.06025 =
         0.04935    0.00306    0.00556    0.00755
N2    4    0.360914    0.459172    0.680998    11.00000    0.03922    0.05695 =
         0.04628    0.00129    0.00273    0.00472
N3    4    0.280744    0.553755    0.700899    11.00000    0.04256    0.06405 =
         0.05317   -0.00148    0.00669    0.00375
N4    4    0.227702    0.544315    0.584412    11.00000    0.04633    0.06772 =
         0.04457    0.00287    0.00416    0.01080
N5    4    0.249118    0.434685    0.659296    11.00000    0.04971    0.06741 =
         0.04922   -0.00282    0.00832   -0.00473
N6    4    0.241784    0.411981    0.705363    11.00000    0.08158    0.11046 =
         0.05525   -0.00274    0.01192   -0.03327
N7    4    0.345783    0.567315    0.611546    11.00000    0.05208    0.05404 =
         0.05711   -0.00031    0.01576    0.00174
N8    4    0.391234    0.568531    0.596019    11.00000    0.06169    0.07836 =
         0.07037   -0.00550    0.02034    0.00285
C1    1    0.277760    0.453267    0.510008    11.00000    0.04249    0.05486 =
         0.04896    0.00026    0.00390    0.00503
C2    1    0.300776    0.410446    0.473956    11.00000    0.05280    0.06887 =
         0.04835   -0.00638    0.00850    0.00166
AFIX  43
H2    2    0.288570    0.404161    0.434613    11.00000   -1.20000
AFIX   0
C3    1    0.343375    0.380647    0.506949    11.00000    0.05130    0.06717 =
         0.04976   -0.00772    0.00882    0.00430
AFIX  43
H3    2    0.366501    0.349214    0.494937    11.00000   -1.20000
AFIX   0
C4    1    0.347216    0.404943    0.562849    11.00000    0.03846    0.05435 =
         0.05337   -0.00204    0.00125    0.00567
C5    1    0.387487    0.387236    0.609501    11.00000    0.04408    0.05998 =
         0.04875    0.00315    0.00613    0.00162
C6    1    0.393435    0.413303    0.663131    11.00000    0.03591    0.06118 =
         0.05246   -0.00070    0.00919   -0.00288
C7    1    0.436149    0.396053    0.710634    11.00000    0.04055    0.07037 =
         0.05207    0.00030    0.00568    0.00330
AFIX  43
H7    2    0.464297    0.365281    0.710413    11.00000   -1.20000
AFIX   0
C8    1    0.428048    0.431978    0.754676    11.00000    0.04240    0.06650 =
         0.05287   -0.00182    0.00352    0.00376
AFIX  43
H8    2    0.450057    0.431411    0.791263    11.00000   -1.20000
AFIX   0
C9    1    0.380369    0.471664    0.737334    11.00000    0.03961    0.06112 =
         0.04519    0.00419    0.00257    0.00336
C10   1    0.357714    0.513857    0.771116    11.00000    0.04161    0.06501 =
         0.04638   -0.00091    0.00767   -0.00094
C11   1    0.311056    0.550544    0.755179    11.00000    0.04593    0.05866 =
         0.05253   -0.00032    0.00726    0.00306
C12   1    0.285703    0.590893    0.791751    11.00000    0.05833    0.08263 =
         0.04705   -0.00077    0.01214    0.00441
AFIX  43
H12   2    0.298802    0.598468    0.830757    11.00000   -1.20000
AFIX   0
C13   1    0.240306    0.615830    0.760854    11.00000    0.05609    0.06943 =
         0.05268   -0.00464    0.01279    0.00664
AFIX  43
H13   2    0.214987    0.643626    0.774025    11.00000   -1.20000
AFIX   0
C14   1    0.237068    0.592508    0.703708    11.00000    0.05188    0.04910 =
         0.05661    0.00092    0.01474    0.00732
C15   1    0.195568    0.607217    0.658242    11.00000    0.05105    0.07150 =
         0.05255   -0.00432    0.01039    0.00610
C16   1    0.191333    0.585519    0.603186    11.00000    0.04540    0.07560 =
         0.05601    0.00137    0.00779    0.01128
C17   1    0.149282    0.603422    0.555724    11.00000    0.05625    0.08435 =
         0.06073    0.00160    0.00593    0.02493
AFIX  43
H17   2    0.119259    0.631322    0.556830    11.00000   -1.20000
AFIX   0
C18   1    0.160896    0.572942    0.509728    11.00000    0.05269    0.08451 =
         0.05220    0.00135    0.00611    0.01897
AFIX  43
H18   2    0.140614    0.575968    0.472417    11.00000   -1.20000
AFIX   0
C19   1    0.209360    0.535094    0.527142    11.00000    0.04858    0.07531 =
         0.04660    0.00127    0.00655    0.00681
C20   1    0.233543    0.494754    0.493292    11.00000    0.04097    0.06483 =
         0.04860    0.00327    0.00190    0.00024
C21   1    0.427776    0.339886    0.597731    11.00000    0.03455    0.06789 =
         0.04854   -0.00275    0.00016    0.00411
C22   1    0.414037    0.275358    0.587901    11.00000    0.04162    0.07431 =
         0.05724   -0.00499    0.00364    0.00572
C23   1    0.449879    0.230715    0.573164    11.00000    0.06144    0.06089 =
         0.06812   -0.01024   -0.00152    0.00645
C24   1    0.502643    0.251072    0.567918    11.00000    0.05269    0.08050 =
         0.05869   -0.00060    0.00628    0.02173
C25   1    0.517786    0.312907    0.579150    11.00000    0.04330    0.08275 =
         0.06146    0.00085    0.01295    0.00301
C26   1    0.481813    0.356069    0.593182    11.00000    0.04157    0.08155 =
         0.04395   -0.00001    0.00649    0.00456
C27   1    0.383317    0.517047    0.832909    11.00000    0.04045    0.06779 =
         0.05306   -0.00770    0.00532    0.00443
C28   1    0.368138    0.475258    0.870979    11.00000    0.06274    0.07049 =
         0.04949   -0.00016    0.00813    0.00668
C29   1    0.388423    0.478229    0.927900    11.00000    0.05826    0.09779 =
         0.05518    0.01010    0.01222    0.01561
C30   1    0.426482    0.523270    0.948016    11.00000    0.05458    0.10817 =
         0.04742   -0.01221    0.00273    0.01354
C31   1    0.443580    0.566356    0.911348    11.00000    0.05227    0.11427 =
         0.06514   -0.02702   -0.00645   -0.00617
C32   1    0.420994    0.563141    0.854223    11.00000    0.05758    0.08533 =
         0.06007   -0.00591    0.01284   -0.01106
C33   1    0.151303    0.649712    0.671440    11.00000    0.06048    0.07743 =
         0.05009    0.00512    0.01093    0.02003
C34   1    0.099328    0.627761    0.673805    11.00000    0.06125    0.09346 =
         0.05639    0.00318    0.01191    0.01091
C35   1    0.058527    0.668471    0.686838    11.00000    0.04818    0.14068 =
         0.05670    0.01055    0.01098    0.00424
C36   1    0.070331    0.731424    0.697007    11.00000    0.08532    0.08792 =
         0.06975   -0.00080    0.02404    0.03164
C37   1    0.120389    0.754550    0.694639    11.00000    0.09093    0.08380 =
         0.07850    0.00163    0.02116    0.02707
C38   1    0.159916    0.714461    0.681723    11.00000    0.07210    0.08543 =
         0.06355    0.00091    0.01457    0.02849
C39   1    0.209281    0.495005    0.430614    11.00000    0.03871    0.08056 =
         0.04839   -0.00261   -0.00070    0.01720
C40   1    0.179225    0.444177    0.404823    11.00000    0.05203    0.08131 =
         0.05388   -0.00492   -0.00057    0.01002
C41   1    0.155985    0.445576    0.347161    11.00000    0.04833    0.12324 =
         0.06365   -0.01818    0.00165    0.01499
C42   1    0.162731    0.499613    0.315796    11.00000    0.07458    0.13741 =
         0.04219   -0.00466   -0.00019    0.03660
C43   1    0.191875    0.550085    0.340997    11.00000    0.07772    0.10365 =
         0.05071    0.01394    0.01286    0.03736
C44   1    0.214640    0.548547    0.397723    11.00000    0.05746    0.08642 =
         0.05805    0.01505    0.01342    0.02256
C45   1    0.214250    0.377749    0.653590    11.00000    0.05637    0.06784 =
         0.05740   -0.00368    0.00766   -0.00071
C46   1    0.153225    0.383065    0.636374    11.00000    0.04617    0.08688 =
         0.09344   -0.01331    0.00784   -0.00811
AFIX  13
H46   2    0.140563    0.426858    0.644861    11.00000   -1.20000
AFIX   0
C47   1    0.236572    0.314377    0.640111    11.00000    0.07725    0.07784 =
         0.09233    0.00992   -0.00454    0.00057
AFIX  13
H47   2    0.277301    0.314088    0.651766    11.00000   -1.20000
AFIX   0
C48   1    0.127112    0.332532    0.669194    11.00000    0.11412    0.12608 =
         0.09851   -0.03229    0.04535   -0.05712
AFIX  23
H48A  2    0.137309    0.340557    0.710291    11.00000   -1.20000
H48B  2    0.086732    0.334595    0.658747    11.00000   -1.20000
AFIX   0
C49   1    0.139176    0.369327    0.571965    11.00000    0.07406    0.11966 =
         0.08489    0.01059   -0.01000   -0.00392
AFIX  23
H49A  2    0.099025    0.371281    0.559269    11.00000   -1.20000
H49B  2    0.156214    0.402296    0.551087    11.00000   -1.20000
AFIX   0
C50   1    0.211108    0.262324    0.672368    11.00000    0.16939    0.09126 =
         0.09814    0.01453    0.00389   -0.03763
AFIX  23
H50A  2    0.221924    0.268986    0.713599    11.00000   -1.20000
H50B  2    0.224084    0.219551    0.662880    11.00000   -1.20000
AFIX   0
C51   1    0.221274    0.302151    0.576795    11.00000    0.10561    0.09276 =
         0.09838   -0.02544    0.03656   -0.02095
AFIX  23
H51A  2    0.237999    0.335343    0.555864    11.00000   -1.20000
H51B  2    0.235490    0.259909    0.567565    11.00000   -1.20000
AFIX   0
C52   1    0.147399    0.266551    0.654887    11.00000    0.13992    0.11208 =
         0.07427   -0.00778    0.02263   -0.06585
AFIX  13
H52   2    0.130127    0.233182    0.675850    11.00000   -1.20000
AFIX   0
C53   1    0.160065    0.303584    0.559306    11.00000    0.10889    0.12182 =
         0.06162   -0.02177    0.01098   -0.03756
AFIX  13
H53   2    0.150156    0.294783    0.517875    11.00000   -1.20000
AFIX   0
C54   1    0.132746    0.253507    0.592183    11.00000    0.12467    0.13990 =
         0.08356   -0.02773    0.02507   -0.06531
AFIX  23
H54A  2    0.092508    0.255317    0.580150    11.00000   -1.20000
H54B  2    0.145256    0.210103    0.583896    11.00000   -1.20000
AFIX   0
C55   1    0.367004    0.631568    0.608646    11.00000    0.06684    0.07280 =
         0.05682    0.00108    0.02091    0.00763
C56   1    0.344300    0.676291    0.560780    11.00000    0.09598    0.07135 =
         0.06497    0.00833    0.01557    0.00238
AFIX  13
H56   2    0.328542    0.651047    0.526402    11.00000   -1.20000
AFIX   0
C57   1    0.390979    0.666377    0.661718    11.00000    0.07756    0.08044 =
         0.06810   -0.00846    0.01236    0.00060
AFIX  13
H57   2    0.405556    0.635024    0.692098    11.00000   -1.20000
AFIX   0
C58   1    0.391239    0.717239    0.548757    11.00000    0.11734    0.08588 =
         0.09339    0.01872    0.04596   -0.00840
AFIX  23
H58A  2    0.420164    0.689577    0.538083    11.00000   -1.20000
H58B  2    0.378105    0.746405    0.516777    11.00000   -1.20000
AFIX   0
C59   1    0.299620    0.717291    0.579664    11.00000    0.09138    0.08611 =
         0.10584    0.01997    0.01496    0.02266
AFIX  23
H59A  2    0.269743    0.689616    0.588217    11.00000   -1.20000
H59B  2    0.284066    0.747326    0.549174    11.00000   -1.20000
AFIX   0
C60   1    0.438054    0.708439    0.647638    11.00000    0.07847    0.08658 =
         0.12493   -0.01355    0.04233   -0.01403
AFIX  23
H60A  2    0.455573    0.732109    0.681748    11.00000   -1.20000
H60B  2    0.466127    0.681142    0.634879    11.00000   -1.20000
AFIX   0
C61   1    0.347894    0.708748    0.680928    11.00000    0.08435    0.09366 =
         0.08497   -0.02302    0.03410   -0.01600
AFIX  23
H61A  2    0.364349    0.733191    0.714992    11.00000   -1.20000
H61B  2    0.317849    0.682084    0.690521    11.00000   -1.20000
AFIX   0
C62   1    0.414482    0.755901    0.600648    11.00000    0.09726    0.06564 =
         0.13520    0.00251    0.06348   -0.00211
AFIX  13
H62   2    0.444733    0.783639    0.591860    11.00000   -1.20000
AFIX   0
C63   1    0.325510    0.754829    0.632837    11.00000    0.08350    0.06590 =
         0.12438   -0.00542    0.03510    0.00479
AFIX  13
H63   2    0.296783    0.782392    0.645054    11.00000   -1.20000
AFIX   0
C64   1    0.371332    0.797625    0.619194    11.00000    0.10107    0.06926 =
         0.13200    0.00264    0.05564   -0.00633
AFIX  23
H64A  2    0.356529    0.827995    0.588692    11.00000   -1.20000
H64B  2    0.387519    0.822595    0.653038    11.00000   -1.20000
AFIX   0
HKLF 4

REM  KHL181115C_0m_a.res in C2/c
REM R1 =  0.1093 for    7204 Fo > 4sig(Fo)  and  0.1462 for all   10731 data
REM    839 parameters refined using      6 restraints

END

WGHT      0.2000      0.0000

REM Highest difference peak  1.568,  deepest hole -1.956,  1-sigma level  0.201
Q1    1   0.3161  0.5441  0.6267  11.00000  0.05    1.57
Q2    1   0.2755  0.5453  0.6394  11.00000  0.05    1.49
Q3    1   0.2728  0.4592  0.6381  11.00000  0.05    1.47
Q4    1   0.3168  0.4578  0.6315  11.00000  0.05    1.28
Q5    1   0.3426  0.4995  0.6008  11.00000  0.05    0.94
Q6    1   0.2569  0.6215  0.6492  11.00000  0.05    0.78
Q7    1   0.3365  0.5984  0.6163  11.00000  0.05    0.77
Q8    1   0.3207  0.5983  0.6578  11.00000  0.05    0.69
Q9    1   0.2492  0.4989  0.6675  11.00000  0.05    0.68
Q10   1   0.3925  0.8547  0.6306  11.00000  0.05    0.68
Q11   1   0.2585  0.3852  0.6427  11.00000  0.05    0.67
Q12   1   0.2625  0.6022  0.6113  11.00000  0.05    0.66
Q13   1   0.2211  0.6468  0.6549  11.00000  0.05    0.64
Q14   1   0.4177  0.5031  0.5966  11.00000  0.05    0.64
Q15   1   0.2083  0.6456  0.6355  11.00000  0.05    0.63
Q16   1   0.1067  0.4994  0.6620  11.00000  0.05    0.61
Q17   1   0.2372  0.4119  0.6401  11.00000  0.05    0.60
Q18   1   0.3022  0.3036  0.6537  11.00000  0.05    0.58
Q19   1   0.1527  0.4928  0.6743  11.00000  0.05    0.58
Q20   1   0.2284  0.5199  0.3909  11.00000  0.05    0.57
;
_shelx_res_checksum              95952
_shelx_fab_file
;
    2    0    0    211.75      0.00
    4    0    0    139.41      0.00
    6    0    0     76.80      0.00
    8    0    0     42.09      0.00
   10    0    0     35.55      0.00
   12    0    0     23.67      0.00
   14    0    0     10.52      0.00
   16    0    0      2.10      0.00
   18    0    0      0.35      0.00
   20    0    0     -0.42      0.00
   22    0    0      0.55      0.00
   24    0    0      3.00      0.00
   26    0    0      5.17      0.00
    1    1    0   -201.50      0.00
    3    1    0   -151.21      0.00
    5    1    0    -85.13      0.00
    7    1    0    -49.23      0.00
    9    1    0    -36.49      0.00
   11    1    0    -28.42      0.00
   13    1    0    -16.63      0.00
   15    1    0     -6.38      0.00
   17    1    0     -2.16      0.00
   19    1    0     -1.57      0.00
   21    1    0     -1.77      0.00
   23    1    0     -2.24      0.00
   25    1    0     -4.10      0.00
   29    1    0     -3.77      0.00
    2    2    0    134.13      0.00
    4    2    0     87.36      0.00
    6    2    0     49.19      0.00
    8    2    0     34.34      0.00
   10    2    0     21.64      0.00
   12    2    0     11.29      0.00
   14    2    0      1.54      0.00
   16    2    0     -1.78      0.00
   18    2    0     -0.97      0.00
   20    2    0      0.37      0.00
   22    2    0      0.71      0.00
   24    2    0      1.87      0.00
   26    2    0      2.91      0.00
   28    2    0      3.87      0.00
    1    3    0    -68.73      0.00
    3    3    0    -49.16      0.00
    5    3    0    -37.47      0.00
    7    3    0    -22.17      0.00
    9    3    0    -15.47      0.00
   11    3    0     -7.62      0.00
   13    3    0      0.02      0.00
   15    3    0      2.70      0.00
   17    3    0      0.90      0.00
   19    3    0     -0.71      0.00
   21    3    0     -0.73      0.00
   23    3    0     -1.75      0.00
   25    3    0     -2.25      0.00
   27    3    0     -1.82      0.00
    0    4    0     31.14      0.00
    2    4    0     27.42      0.00
    4    4    0     24.14      0.00
    6    4    0     18.03      0.00
    8    4    0      9.00      0.00
   10    4    0      0.33      0.00
   12    4    0     -6.85      0.00
   14    4    0     -8.65      0.00
   16    4    0     -6.20      0.00
   18    4    0     -4.05      0.00
   20    4    0     -2.28      0.00
   22    4    0     -1.00      0.00
   24    4    0      0.75      0.00
   26    4    0      2.88      0.00
   28    4    0      1.19      0.00
    1    5    0      0.41      0.00
    3    5    0     -7.44      0.00
    5    5    0     -6.06      0.00
    7    5    0     -6.54      0.00
    9    5    0      1.71      0.00
   11    5    0      6.57      0.00
   13    5    0      7.24      0.00
   15    5    0      4.26      0.00
   17    5    0      1.94      0.00
   19    5    0      1.13      0.00
   21    5    0      1.02      0.00
   23    5    0     -0.72      0.00
   25    5    0     -2.58      0.00
   27    5    0     -2.60      0.00
    0    6    0     -1.12      0.00
    2    6    0      0.91      0.00
    4    6    0      7.54      0.00
    6    6    0      8.46      0.00
    8    6    0      1.92      0.00
   10    6    0     -5.00      0.00
   12    6    0     -8.14      0.00
   14    6    0     -5.63      0.00
   16    6    0     -3.66      0.00
   18    6    0     -2.31      0.00
   20    6    0     -3.00      0.00
   22    6    0     -1.37      0.00
   24    6    0      1.35      0.00
   26    6    0      2.16      0.00
   28    6    0      2.38      0.00
    1    7    0      7.86      0.00
    3    7    0      3.35      0.00
    5    7    0     -2.24      0.00
    7    7    0     -0.91      0.00
    9    7    0      0.88      0.00
   11    7    0      3.88      0.00
   13    7    0      1.82      0.00
   15    7    0     -0.38      0.00
   17    7    0     -1.05      0.00
   19    7    0      0.85      0.00
   21    7    0      1.29      0.00
   23    7    0      1.25      0.00
   25    7    0     -1.12      0.00
   27    7    0     -1.88      0.00
    0    8    0     -1.71      0.00
    2    8    0     -0.18      0.00
    4    8    0     -0.11      0.00
    6    8    0      0.80      0.00
    8    8    0     -0.74      0.00
   10    8    0     -1.36      0.00
   12    8    0     -0.86      0.00
   14    8    0     -1.82      0.00
   16    8    0     -0.62      0.00
   18    8    0     -1.54      0.00
   20    8    0     -2.56      0.00
   22    8    0     -3.33      0.00
   24    8    0     -0.86      0.00
   26    8    0      1.57      0.00
    1    9    0      3.25      0.00
    3    9    0      5.93      0.00
    5    9    0      6.08      0.00
    7    9    0      4.12      0.00
    9    9    0      1.53      0.00
   11    9    0     -0.92      0.00
   13    9    0      0.07      0.00
   15    9    0      0.78      0.00
   17    9    0      1.77      0.00
   19    9    0      1.92      0.00
   21    9    0      3.32      0.00
   23    9    0      1.84      0.00
   25    9    0     -0.04      0.00
   27    9    0     -1.44      0.00
    0   10    0      2.89      0.00
    2   10    0      1.57      0.00
    4   10    0     -2.22      0.00
    6   10    0     -5.32      0.00
    8   10    0     -1.15      0.00
   10   10    0     -0.85      0.00
   12   10    0     -2.54      0.00
   14   10    0     -2.86      0.00
   16   10    0     -3.75      0.00
   18   10    0     -2.75      0.00
   20   10    0     -2.64      0.00
   22   10    0     -1.81      0.00
   24   10    0     -1.28      0.00
   26   10    0      0.94      0.00
    1   11    0      1.93      0.00
    3   11    0      3.22      0.00
    5   11    0      3.60      0.00
    7   11    0      2.08      0.00
    9   11    0      0.82      0.00
   11   11    0      1.19      0.00
   13   11    0      3.02      0.00
   15   11    0      3.23      0.00
   17   11    0      1.04      0.00
   19   11    0      1.12      0.00
   21   11    0      2.07      0.00
   23   11    0      2.13      0.00
   25   11    0      0.37      0.00
    0   12    0      3.20      0.00
    2   12    0      1.65      0.00
    4   12    0      1.19      0.00
    6   12    0      2.21      0.00
    8   12    0     -1.70      0.00
   10   12    0     -2.87      0.00
   12   12    0     -3.65      0.00
   14   12    0     -2.75      0.00
   16   12    0      0.63      0.00
   18   12    0      1.13      0.00
   20   12    0     -0.29      0.00
   22   12    0     -2.92      0.00
   24   12    0     -1.92      0.00
    1   13    0      0.83      0.00
    3   13    0     -1.76      0.00
    5   13    0     -2.01      0.00
    7   13    0     -0.80      0.00
    9   13    0      1.49      0.00
   11   13    0      3.48      0.00
   13   13    0      0.58      0.00
   15   13    0     -2.71      0.00
   17   13    0     -3.07      0.00
   19   13    0     -1.23      0.00
   21   13    0      0.93      0.00
   23   13    0      1.79      0.00
    0   14    0      1.50      0.00
    2   14    0      3.33      0.00
    4   14    0      5.32      0.00
    6   14    0      2.34      0.00
    8   14    0     -0.92      0.00
   10   14    0     -3.43      0.00
   12   14    0     -1.32      0.00
   14   14    0      2.41      0.00
   16   14    0      3.30      0.00
   18   14    0      2.34      0.00
   20   14    0     -0.89      0.00
   22   14    0     -1.04      0.00
    1   15    0      2.83      0.00
    3   15    0     -0.45      0.00
    5   15    0     -2.38      0.00
    7   15    0     -0.41      0.00
    9   15    0      3.01      0.00
   11   15    0      1.56      0.00
   13   15    0     -1.06      0.00
   15   15    0     -2.89      0.00
   17   15    0     -2.00      0.00
   19   15    0     -0.45      0.00
   21   15    0     -0.08      0.00
   23   15    0     -0.85      0.00
    0   16    0     -6.26      0.00
    2   16    0     -3.91      0.00
    4   16    0      0.35      0.00
    6   16    0      2.43      0.00
    8   16    0     -0.15      0.00
   10   16    0     -1.10      0.00
   12   16    0      0.00      0.00
   14   16    0      1.24      0.00
   16   16    0      1.35      0.00
   18   16    0     -0.30      0.00
   20   16    0      0.51      0.00
   22   16    0      0.51      0.00
    1   17    0      5.75      0.00
    3   17    0      3.40      0.00
    5   17    0     -0.42      0.00
    7   17    0      0.75      0.00
    9   17    0      0.83      0.00
   11   17    0      0.91      0.00
   13   17    0     -0.01      0.00
   15   17    0     -0.02      0.00
   17   17    0     -0.53      0.00
   19   17    0     -1.41      0.00
   21   17    0     -1.38      0.00
    0   18    0      8.25      0.00
    2   18    0      8.99      0.00
    4   18    0      5.59      0.00
    6   18    0      1.60      0.00
    8   18    0      1.39      0.00
   10   18    0      0.13      0.00
   12   18    0      0.52      0.00
   14   18    0      0.08      0.00
   16   18    0     -0.81      0.00
   18   18    0      0.32      0.00
   20   18    0      0.83      0.00
    1   19    0    -29.73      0.00
    3   19    0    -20.51      0.00
    5   19    0     -7.16      0.00
    7   19    0     -0.42      0.00
    9   19    0      2.05      0.00
   11   19    0      0.43      0.00
   13   19    0      0.23      0.00
   15   19    0      0.29      0.00
   17   19    0      0.65      0.00
    0   20    0     50.13      0.00
    2   20    0     38.92      0.00
    4   20    0     22.72      0.00
    6   20    0      7.93      0.00
    8   20    0     -1.40      0.00
   10   20    0      0.00      0.00
   12   20    0      0.03      0.00
   14   20    0     -0.16      0.00
   16   20    0     -0.63      0.00
    1   21    0    -43.65      0.00
    3   21    0    -31.43      0.00
    5   21    0    -13.71      0.00
    7   21    0     -3.03      0.00
    9   21    0      0.19      0.00
   11   21    0      1.16      0.00
   13   21    0     -0.47      0.00
   15   21    0     -0.12      0.00
    0   22    0     29.52      0.00
    2   22    0     27.72      0.00
    4   22    0     16.30      0.00
    6   22    0      6.85      0.00
    8   22    0      2.96      0.00
   12   22    0     -0.47      0.00
    1   23    0    -13.90      0.00
    3   23    0     -9.67      0.00
    5   23    0     -8.56      0.00
    7   23    0     -3.36      0.00
    9   23    0     -0.47      0.00
    0   24    0      1.76      0.00
    2   24    0      2.27      0.00
    4   24    0      4.13      0.00
    6   24    0      3.56      0.00
  -29    1    1      0.14      0.00
  -25    1    1      1.26      0.00
  -23    1    1      1.08      0.00
  -21    1    1      1.38      0.00
  -19    1    1      1.76      0.00
  -17    1    1      2.60      0.00
  -15    1    1      6.16      0.00
  -13    1    1     10.03      0.00
  -11    1    1     12.72      0.00
   -9    1    1     12.03      0.00
   -7    1    1     20.15      0.00
   -5    1    1     26.36      0.00
   -3    1    1     46.26      0.00
   -1    1    1     59.36      0.00
    1    1    1     43.11      0.00
    3    1    1     33.45      0.00
    5    1    1     11.09      0.00
    7    1    1      2.05      0.00
    9    1    1      6.03      0.00
   11    1    1      5.38      0.00
   13    1    1      4.59      0.00
   15    1    1      1.86      0.00
   17    1    1     -0.53      0.00
   19    1    1     -1.54      0.00
   21    1    1     -0.62      0.00
   23    1    1     -0.20      0.00
   25    1    1     -0.01      0.00
   27    1    1      0.43      0.00
  -26    2    1     -1.53      0.00
  -24    2    1     -2.02      0.00
  -22    2    1     -2.68      0.00
  -20    2    1     -2.33      0.00
  -18    2    1     -3.42      0.00
  -16    2    1     -5.95      0.00
  -14    2    1    -12.35      0.00
  -12    2    1    -19.47      0.00
  -10    2    1    -24.09      0.00
   -8    2    1    -25.44      0.00
   -6    2    1    -34.55      0.00
   -4    2    1    -57.93      0.00
   -2    2    1    -72.46      0.00
    0    2    1    -78.90      0.00
    2    2    1    -57.27      0.00
    4    2    1    -25.21      0.00
    6    2    1    -11.11      0.00
    8    2    1     -5.25      0.00
   10    2    1     -8.59      0.00
   12    2    1     -8.14      0.00
   14    2    1     -3.63      0.00
   16    2    1      0.88      0.00
   18    2    1      1.81      0.00
   20    2    1      1.38      0.00
   22    2    1      0.67      0.00
   24    2    1     -0.14      0.00
   26    2    1      0.17      0.00
   28    2    1      0.21      0.00
  -29    3    1      1.24      0.00
  -27    3    1      0.23      0.00
  -25    3    1      1.93      0.00
  -23    3    1      2.46      0.00
  -21    3    1      3.86      0.00
  -19    3    1      4.34      0.00
  -17    3    1      4.88      0.00
  -15    3    1      8.75      0.00
  -13    3    1     16.88      0.00
  -11    3    1     24.63      0.00
   -9    3    1     29.18      0.00
   -7    3    1     29.93      0.00
   -5    3    1     43.09      0.00
   -3    3    1     59.65      0.00
   -1    3    1     68.57      0.00
    1    3    1     64.62      0.00
    3    3    1     35.37      0.00
    5    3    1     14.75      0.00
    7    3    1      6.25      0.00
    9    3    1      5.78      0.00
   11    3    1      7.82      0.00
   13    3    1      4.39      0.00
   15    3    1     -0.03      0.00
   17    3    1     -1.50      0.00
   19    3    1     -1.06      0.00
   21    3    1      0.14      0.00
   23    3    1     -0.15      0.00
   25    3    1     -1.39      0.00
   27    3    1     -1.35      0.00
  -28    4    1      0.24      0.00
  -26    4    1     -0.84      0.00
  -24    4    1     -1.64      0.00
  -22    4    1     -2.38      0.00
  -20    4    1     -3.24      0.00
  -18    4    1     -2.62      0.00
  -16    4    1     -3.88      0.00
  -14    4    1     -9.03      0.00
  -12    4    1    -18.40      0.00
  -10    4    1    -25.02      0.00
   -8    4    1    -26.87      0.00
   -6    4    1    -27.29      0.00
   -4    4    1    -28.03      0.00
   -2    4    1    -43.08      0.00
    0    4    1    -40.33      0.00
    2    4    1    -31.20      0.00
    4    4    1    -17.99      0.00
    6    4    1     -1.32      0.00
    8    4    1     -1.62      0.00
   10    4    1     -1.33      0.00
   12    4    1     -0.70      0.00
   14    4    1      2.41      0.00
   16    4    1      3.58      0.00
   18    4    1      3.09      0.00
   20    4    1      0.57      0.00
   22    4    1     -0.14      0.00
   24    4    1      1.38      0.00
   26    4    1      3.10      0.00
   28    4    1      2.69      0.00
  -27    5    1      0.82      0.00
  -25    5    1      0.55      0.00
  -23    5    1      2.00      0.00
  -21    5    1      1.63      0.00
  -19    5    1      1.26      0.00
  -17    5    1      1.48      0.00
  -15    5    1      2.74      0.00
  -13    5    1      8.37      0.00
  -11    5    1     15.43      0.00
   -9    5    1     19.47      0.00
   -7    5    1     17.63      0.00
   -5    5    1     14.11      0.00
   -3    5    1     13.85      0.00
   -1    5    1     18.84      0.00
    1    5    1     20.79      0.00
    3    5    1     14.52      0.00
    5    5    1      4.15      0.00
    7    5    1     -3.81      0.00
    9    5    1     -5.64      0.00
   11    5    1     -4.46      0.00
   13    5    1     -4.27      0.00
   15    5    1     -4.59      0.00
   17    5    1     -4.96      0.00
   19    5    1     -2.40      0.00
   21    5    1     -0.95      0.00
   23    5    1     -0.08      0.00
   25    5    1     -1.49      0.00
   27    5    1     -3.80      0.00
  -28    6    1      0.21      0.00
  -26    6    1     -1.57      0.00
  -24    6    1     -2.23      0.00
  -22    6    1     -1.66      0.00
  -20    6    1     -1.11      0.00
  -18    6    1     -0.30      0.00
  -16    6    1     -0.40      0.00
  -14    6    1     -1.94      0.00
  -12    6    1     -5.72      0.00
  -10    6    1    -11.35      0.00
   -8    6    1    -15.37      0.00
   -6    6    1    -11.00      0.00
   -4    6    1     -7.67      0.00
   -2    6    1     -2.75      0.00
    0    6    1     -9.09      0.00
    2    6    1    -11.12      0.00
    4    6    1     -4.99      0.00
    6    6    1      2.51      0.00
    8    6    1     10.82      0.00
   10    6    1      9.68      0.00
   12    6    1      7.76      0.00
   14    6    1      5.52      0.00
   16    6    1      5.90      0.00
   18    6    1      4.79      0.00
   20    6    1      2.57      0.00
   22    6    1     -0.82      0.00
   24    6    1     -0.18      0.00
   26    6    1      1.59      0.00
   28    6    1      3.05      0.00
  -27    7    1      0.77      0.00
  -25    7    1      2.84      0.00
  -23    7    1      1.98      0.00
  -21    7    1      0.76      0.00
  -19    7    1      0.96      0.00
  -17    7    1      1.33      0.00
  -15    7    1      1.21      0.00
  -13    7    1     -0.18      0.00
  -11    7    1      3.74      0.00
   -9    7    1      9.05      0.00
   -7    7    1     12.75      0.00
   -5    7    1      8.19      0.00
   -3    7    1      1.69      0.00
   -1    7    1      0.25      0.00
    1    7    1      2.69      0.00
    3    7    1      6.28      0.00
    5    7    1      0.11      0.00
    7    7    1     -6.69      0.00
    9    7    1     -9.88      0.00
   11    7    1     -6.77      0.00
   13    7    1     -3.02      0.00
   15    7    1     -3.86      0.00
   17    7    1     -4.34      0.00
   19    7    1     -3.82      0.00
   21    7    1     -0.18      0.00
   23    7    1      1.13      0.00
   25    7    1      0.63      0.00
   27    7    1     -0.49      0.00
  -26    8    1     -1.39      0.00
  -24    8    1     -1.99      0.00
  -22    8    1     -1.44      0.00
  -20    8    1     -0.94      0.00
  -18    8    1     -3.28      0.00
  -16    8    1     -3.24      0.00
  -14    8    1     -0.97      0.00
  -12    8    1      1.08      0.00
  -10    8    1     -2.79      0.00
   -8    8    1     -8.41      0.00
   -6    8    1    -13.24      0.00
   -4    8    1     -9.42      0.00
   -2    8    1     -4.27      0.00
    0    8    1     -3.39      0.00
    2    8    1     -4.60      0.00
    4    8    1     -1.50      0.00
    6    8    1      4.45      0.00
    8    8    1      8.45      0.00
   10    8    1      7.42      0.00
   12    8    1      1.97      0.00
   14    8    1      0.75      0.00
   16    8    1      1.80      0.00
   18    8    1      3.05      0.00
   20    8    1      1.28      0.00
   22    8    1      0.36      0.00
   24    8    1     -1.09      0.00
   26    8    1      0.36      0.00
  -27    9    1      1.42      0.00
  -25    9    1      1.54      0.00
  -23    9    1      0.44      0.00
  -21    9    1      0.56      0.00
  -19    9    1      1.19      0.00
  -17    9    1      3.61      0.00
  -15    9    1      3.97      0.00
  -13    9    1      2.70      0.00
  -11    9    1     -0.79      0.00
   -9    9    1      2.12      0.00
   -7    9    1      6.54      0.00
   -5    9    1      7.24      0.00
   -3    9    1      6.91      0.00
   -1    9    1      4.82      0.00
    1    9    1      3.46      0.00
    3    9    1      1.19      0.00
    5    9    1     -2.21      0.00
    7    9    1     -6.38      0.00
    9    9    1     -2.37      0.00
   11    9    1      0.75      0.00
   13    9    1      2.28      0.00
   15    9    1      1.80      0.00
   17    9    1     -1.39      0.00
   19    9    1     -2.02      0.00
   21    9    1     -1.15      0.00
   23    9    1      0.76      0.00
   25    9    1      0.63      0.00
  -26   10    1     -0.75      0.00
  -24   10    1     -1.06      0.00
  -22   10    1     -0.03      0.00
  -20   10    1      0.33      0.00
  -18   10    1     -0.52      0.00
  -16   10    1     -3.33      0.00
  -14   10    1     -3.36      0.00
  -12   10    1     -2.16      0.00
  -10   10    1      0.43      0.00
   -8   10    1      0.40      0.00
   -6   10    1     -2.29      0.00
   -4   10    1     -7.53      0.00
   -2   10    1    -12.63      0.00
    0   10    1    -11.91      0.00
    2   10    1     -6.14      0.00
    4   10    1      1.19      0.00
    6   10    1      6.23      0.00
    8   10    1      5.07      0.00
   10   10    1      0.74      0.00
   12   10    1     -1.68      0.00
   14   10    1     -0.86      0.00
   16   10    1      1.45      0.00
   18   10    1      1.96      0.00
   20   10    1      2.10      0.00
   22   10    1      0.84      0.00
   24   10    1      0.34      0.00
   26   10    1     -0.56      0.00
  -25   11    1      1.22      0.00
  -23   11    1      1.86      0.00
  -21   11    1     -0.35      0.00
  -19   11    1     -0.71      0.00
  -17   11    1     -0.52      0.00
  -15   11    1      1.95      0.00
  -13   11    1      3.10      0.00
  -11   11    1      3.25      0.00
   -9   11    1     -1.79      0.00
   -7   11    1     -6.06      0.00
   -5   11    1     -0.95      0.00
   -3   11    1      5.42      0.00
   -1   11    1     11.15      0.00
    1   11    1     10.40      0.00
    3   11    1      1.05      0.00
    5   11    1     -4.61      0.00
    7   11    1     -1.46      0.00
    9   11    1      0.06      0.00
   11   11    1      3.30      0.00
   13   11    1      1.81      0.00
   15   11    1     -1.17      0.00
   17   11    1     -1.26      0.00
   19   11    1     -0.92      0.00
   21   11    1     -0.25      0.00
   23   11    1     -0.18      0.00
   25   11    1      1.28      0.00
  -24   12    1     -0.15      0.00
  -22   12    1     -0.41      0.00
  -20   12    1      0.43      0.00
  -18   12    1      2.31      0.00
  -16   12    1      2.91      0.00
  -14   12    1     -0.30      0.00
  -12   12    1     -2.48      0.00
  -10   12    1     -1.06      0.00
   -8   12    1      2.55      0.00
   -6   12    1      4.55      0.00
   -4   12    1     -1.35      0.00
   -2   12    1    -10.49      0.00
    0   12    1    -12.41      0.00
    2   12    1     -6.43      0.00
    4   12    1      0.52      0.00
    6   12    1      2.99      0.00
    8   12    1     -0.27      0.00
   10   12    1     -1.56      0.00
   12   12    1      1.21      0.00
   14   12    1      2.21      0.00
   16   12    1      1.47      0.00
   18   12    1      1.01      0.00
   20   12    1      1.17      0.00
   22   12    1      1.75      0.00
   24   12    1      1.70      0.00
  -23   13    1      0.62      0.00
  -21   13    1      1.65      0.00
  -19   13    1      0.26      0.00
  -17   13    1     -0.80      0.00
  -15   13    1     -2.24      0.00
  -13   13    1     -0.04      0.00
  -11   13    1      1.13      0.00
   -9   13    1     -1.01      0.00
   -7   13    1     -4.76      0.00
   -5   13    1     -6.65      0.00
   -3   13    1      0.00      0.00
   -1   13    1      5.32      0.00
    1   13    1      3.28      0.00
    3   13    1     -0.05      0.00
    5   13    1     -0.52      0.00
    7   13    1      0.57      0.00
    9   13    1      4.07      0.00
   11   13    1      1.84      0.00
   13   13    1      0.24      0.00
   15   13    1      1.37      0.00
   17   13    1      2.49      0.00
   19   13    1      2.21      0.00
   21   13    1     -1.08      0.00
   23   13    1     -2.11      0.00
  -24   14    1     -0.06      0.00
  -22   14    1     -0.38      0.00
  -20   14    1     -0.89      0.00
  -18   14    1     -0.66      0.00
  -16   14    1      1.20      0.00
  -14   14    1      2.35      0.00
  -12   14    1      0.39      0.00
  -10   14    1     -1.55      0.00
   -8   14    1      1.00      0.00
   -6   14    1      2.76      0.00
   -4   14    1      2.15      0.00
   -2   14    1     -0.82      0.00
    0   14    1     -2.93      0.00
    2   14    1     -1.10      0.00
    4   14    1      0.99      0.00
    6   14    1     -1.23      0.00
    8   14    1     -2.34      0.00
   10   14    1     -1.38      0.00
   12   14    1     -0.87      0.00
   14   14    1     -0.46      0.00
   16   14    1     -2.03      0.00
   18   14    1     -1.87      0.00
   20   14    1      0.80      0.00
   22   14    1      3.37      0.00
  -23   15    1      0.55      0.00
  -21   15    1      1.27      0.00
  -19   15    1      2.81      0.00
  -17   15    1      1.54      0.00
  -15   15    1      0.36      0.00
  -13   15    1     -1.56      0.00
  -11   15    1     -1.62      0.00
   -9   15    1     -2.19      0.00
   -7   15    1     -5.53      0.00
   -5   15    1     -8.21      0.00
   -3   15    1     -9.24      0.00
   -1   15    1     -7.54      0.00
    1   15    1     -4.97      0.00
    3   15    1     -3.07      0.00
    5   15    1     -1.88      0.00
    7   15    1      1.84      0.00
    9   15    1      2.57      0.00
   11   15    1      2.97      0.00
   13   15    1      3.36      0.00
   15   15    1      3.68      0.00
   17   15    1      3.23      0.00
   19   15    1      0.08      0.00
   21   15    1     -1.06      0.00
  -22   16    1     -0.29      0.00
  -20   16    1     -0.40      0.00
  -18   16    1     -1.50      0.00
  -16   16    1     -0.91      0.00
  -14   16    1      1.12      0.00
  -12   16    1      2.15      0.00
  -10   16    1      1.89      0.00
   -8   16    1      2.54      0.00
   -6   16    1      7.59      0.00
   -4   16    1     12.54      0.00
   -2   16    1     16.24      0.00
    0   16    1     13.43      0.00
    2   16    1      8.43      0.00
    4   16    1      3.37      0.00
    6   16    1      0.06      0.00
    8   16    1     -0.37      0.00
   10   16    1     -1.39      0.00
   12   16    1     -1.14      0.00
   14   16    1     -1.33      0.00
   16   16    1      0.21      0.00
   18   16    1      1.42      0.00
   20   16    1      1.99      0.00
   22   16    1      1.71      0.00
  -21   17    1      0.10      0.00
  -19   17    1      0.69      0.00
  -17   17    1      2.03      0.00
  -15   17    1      0.13      0.00
  -13   17    1     -1.62      0.00
  -11   17    1     -3.00      0.00
   -9   17    1     -4.71      0.00
   -7   17    1     -9.45      0.00
   -5   17    1    -21.84      0.00
   -3   17    1    -32.68      0.00
   -1   17    1    -35.15      0.00
    1   17    1    -28.47      0.00
    3   17    1    -15.06      0.00
    5   17    1     -4.46      0.00
    7   17    1     -0.61      0.00
    9   17    1      2.21      0.00
   11   17    1      2.80      0.00
   13   17    1      2.61      0.00
   15   17    1      1.36      0.00
   17   17    1     -0.65      0.00
   19   17    1     -0.58      0.00
   21   17    1     -0.94      0.00
  -20   18    1     -0.47      0.00
  -18   18    1      0.38      0.00
  -16   18    1      0.82      0.00
  -14   18    1      1.97      0.00
  -12   18    1      2.85      0.00
  -10   18    1      2.80      0.00
   -8   18    1      6.20      0.00
   -6   18    1     17.01      0.00
   -4   18    1     35.11      0.00
    0   18    1     44.36      0.00
    2   18    1     29.52      0.00
    4   18    1     13.55      0.00
    6   18    1      5.10      0.00
    8   18    1      0.05      0.00
   10   18    1     -0.12      0.00
   12   18    1     -0.60      0.00
   14   18    1      0.69      0.00
   16   18    1      1.04      0.00
   18   18    1      0.97      0.00
  -17   19    1     -1.51      0.00
  -15   19    1     -1.51      0.00
  -13   19    1     -1.98      0.00
  -11   19    1     -1.92      0.00
   -9   19    1     -4.11      0.00
   -7   19    1    -15.99      0.00
   -5   19    1    -30.49      0.00
   -3   19    1    -47.16      0.00
   -1   19    1    -52.17      0.00
    1   19    1    -39.17      0.00
    3   19    1    -25.05      0.00
    5   19    1    -10.27      0.00
    7   19    1     -1.41      0.00
    9   19    1      1.04      0.00
   11   19    1      4.05      0.00
   13   19    1      2.93      0.00
   15   19    1      0.83      0.00
   17   19    1      0.35      0.00
  -16   20    1      3.42      0.00
  -14   20    1      3.21      0.00
  -12   20    1      2.19      0.00
  -10   20    1      4.40      0.00
   -8   20    1      9.75      0.00
   -6   20    1     20.56      0.00
   -4   20    1     30.33      0.00
   -2   20    1     34.02      0.00
    0   20    1     28.85      0.00
    2   20    1     20.28      0.00
    4   20    1     12.35      0.00
    6   20    1      7.78      0.00
    8   20    1      4.25      0.00
   10   20    1     -0.65      0.00
   12   20    1     -1.53      0.00
   14   20    1     -0.97      0.00
   16   20    1      1.01      0.00
  -15   21    1     -2.56      0.00
  -13   21    1     -1.36      0.00
  -11   21    1     -2.23      0.00
   -9   21    1     -8.08      0.00
   -7   21    1    -13.07      0.00
   -5   21    1    -20.72      0.00
   -3   21    1    -19.02      0.00
   -1   21    1    -12.07      0.00
    5   21    1     -6.81      0.00
    7   21    1     -5.27      0.00
    9   21    1      1.28      0.00
   11   21    1      3.61      0.00
   13   21    1      4.03      0.00
   15   21    1      1.01      0.00
  -12   22    1      2.68      0.00
  -10   22    1      3.82      0.00
   -8   22    1      9.39      0.00
   -6   22    1     11.24      0.00
   -4   22    1      6.15      0.00
   -2   22    1     -0.04      0.00
    0   22    1     -7.04      0.00
    2   22    1     -4.93      0.00
    4   22    1      3.30      0.00
    6   22    1      5.56      0.00
    8   22    1      4.59      0.00
   10   22    1     -0.11      0.00
   12   22    1     -3.24      0.00
  -11   23    1     -2.36      0.00
   -9   23    1     -4.71      0.00
   -7   23    1     -8.74      0.00
   -5   23    1     -6.01      0.00
   -3   23    1      1.27      0.00
   -1   23    1      7.94      0.00
    1   23    1     10.08      0.00
    3   23    1      2.56      0.00
    5   23    1     -2.23      0.00
    7   23    1     -3.12      0.00
    9   23    1      0.18      0.00
   -6   24    1      4.43      0.00
   -4   24    1      0.63      0.00
   -2   24    1     -9.72      0.00
    0   24    1    -11.75      0.00
    2   24    1     -8.39      0.00
    4   24    1     -2.07      0.00
    6   24    1      4.50      0.00
  -26    0    2      2.95      0.00
  -24    0    2      2.09      0.00
  -22    0    2      0.15      0.00
  -20    0    2     -0.71      0.00
  -18    0    2     -2.88      0.00
  -16    0    2     -9.15      0.00
  -14    0    2    -18.59      0.00
  -12    0    2    -26.88      0.00
  -10    0    2    -31.26      0.00
   -8    0    2    -39.90      0.00
   -6    0    2    -49.11      0.00
   -4    0    2    -69.79      0.00
   -2    0    2    -59.75      0.00
    0    0    2    -27.66      0.00
    2    0    2      1.09      0.00
    4    0    2     38.15      0.00
    6    0    2     43.27      0.00
    8    0    2     37.51      0.00
   10    0    2     27.80      0.00
   12    0    2     14.48      0.00
   14    0    2      8.92      0.00
   16    0    2      9.88      0.00
   18    0    2      9.59      0.00
   20    0    2      5.60      0.00
   22    0    2      0.98      0.00
   24    0    2     -1.81      0.00
   26    0    2     -2.70      0.00
   28    0    2     -2.69      0.00
  -25    1    2     -1.27      0.00
  -23    1    2     -0.06      0.00
  -21    1    2      1.28      0.00
  -19    1    2      2.57      0.00
  -17    1    2      4.85      0.00
  -15    1    2     11.87      0.00
  -13    1    2     20.01      0.00
  -11    1    2     25.03      0.00
   -9    1    2     26.83      0.00
   -7    1    2     34.28      0.00
   -5    1    2     43.78      0.00
   -3    1    2     43.12      0.00
    1    1    2     -2.49      0.00
    3    1    2    -27.11      0.00
    5    1    2    -37.54      0.00
    7    1    2    -37.96      0.00
    9    1    2    -27.17      0.00
   11    1    2    -15.81      0.00
   13    1    2     -8.16      0.00
   15    1    2     -7.03      0.00
   17    1    2     -8.26      0.00
   19    1    2     -7.33      0.00
   21    1    2     -2.85      0.00
   23    1    2      0.50      0.00
   25    1    2      0.63      0.00
   27    1    2      0.29      0.00
  -26    2    2      2.87      0.00
  -24    2    2      2.77      0.00
  -22    2    2      0.79      0.00
  -20    2    2     -0.55      0.00
  -18    2    2     -1.38      0.00
  -16    2    2     -4.75      0.00
  -14    2    2    -11.95      0.00
  -12    2    2    -19.73      0.00
  -10    2    2    -25.63      0.00
   -8    2    2    -27.93      0.00
   -6    2    2    -34.06      0.00
   -4    2    2    -24.99      0.00
   -2    2    2    -14.02      0.00
    0    2    2      4.80      0.00
    2    2    2     31.50      0.00
    4    2    2     36.90      0.00
    6    2    2     43.91      0.00
    8    2    2     40.67      0.00
   10    2    2     28.82      0.00
   12    2    2     18.18      0.00
   14    2    2     10.87      0.00
   16    2    2      8.15      0.00
   18    2    2      7.27      0.00
   20    2    2      3.77      0.00
   22    2    2      0.49      0.00
   24    2    2     -0.09      0.00
   26    2    2      1.08      0.00
   28    2    2      1.20      0.00
  -29    3    2     -1.16      0.00
  -25    3    2     -2.48      0.00
  -23    3    2     -1.04      0.00
  -21    3    2      0.09      0.00
  -19    3    2     -0.36      0.00
  -17    3    2      1.12      0.00
  -15    3    2      3.47      0.00
  -13    3    2      8.68      0.00
  -11    3    2     12.81      0.00
   -9    3    2     15.98      0.00
   -7    3    2     10.21      0.00
   -5    3    2     -0.86      0.00
   -3    3    2    -12.68      0.00
   -1    3    2    -32.98      0.00
    1    3    2    -33.68      0.00
    3    3    2    -36.68      0.00
    5    3    2    -39.84      0.00
    7    3    2    -35.48      0.00
    9    3    2    -32.52      0.00
   11    3    2    -20.68      0.00
   13    3    2    -10.53      0.00
   15    3    2     -5.81      0.00
   17    3    2     -5.69      0.00
   19    3    2     -3.51      0.00
   21    3    2     -1.73      0.00
   23    3    2     -1.30      0.00
   25    3    2     -2.54      0.00
   27    3    2     -3.79      0.00
  -28    4    2      2.57      0.00
  -26    4    2      4.04      0.00
  -24    4    2      2.57      0.00
  -22    4    2      3.62      0.00
  -20    4    2      3.77      0.00
  -18    4    2      3.29      0.00
  -16    4    2      1.33      0.00
  -14    4    2     -2.53      0.00
  -12    4    2     -7.66      0.00
  -10    4    2    -12.28      0.00
   -8    4    2    -12.67      0.00
   -6    4    2     -0.66      0.00
   -4    4    2     16.92      0.00
   -2    4    2     33.01      0.00
    0    4    2     39.54      0.00
    2    4    2     35.16      0.00
    4    4    2     36.26      0.00
    6    4    2     39.26      0.00
    8    4    2     39.35      0.00
   10    4    2     31.43      0.00
   12    4    2     18.26      0.00
   14    4    2      8.97      0.00
   16    4    2      6.33      0.00
   18    4    2      4.54      0.00
   20    4    2      2.69      0.00
   22    4    2      0.00      0.00
   24    4    2      1.01      0.00
   26    4    2      2.75      0.00
   28    4    2      2.33      0.00
  -27    5    2     -2.35      0.00
  -25    5    2     -1.60      0.00
  -23    5    2     -1.37      0.00
  -21    5    2     -2.61      0.00
  -19    5    2     -2.93      0.00
  -17    5    2     -2.24      0.00
  -15    5    2     -0.88      0.00
  -13    5    2     -0.46      0.00
  -11    5    2      3.02      0.00
   -9    5    2      4.56      0.00
   -7    5    2     -0.26      0.00
   -5    5    2    -15.32      0.00
   -3    5    2    -36.39      0.00
   -1    5    2    -38.21      0.00
    1    5    2    -37.77      0.00
    3    5    2    -29.55      0.00
    5    5    2    -27.27      0.00
    7    5    2    -31.45      0.00
    9    5    2    -24.99      0.00
   11    5    2    -15.10      0.00
   13    5    2     -4.91      0.00
   15    5    2     -2.20      0.00
   17    5    2     -2.04      0.00
   19    5    2     -1.89      0.00
   21    5    2      0.69      0.00
   23    5    2      0.48      0.00
   25    5    2     -0.82      0.00
   27    5    2     -2.42      0.00
  -28    6    2      3.32      0.00
  -26    6    2      2.45      0.00
  -24    6    2      3.07      0.00
  -22    6    2      2.91      0.00
  -20    6    2      3.81      0.00
  -18    6    2      2.90      0.00
  -16    6    2      1.52      0.00
  -14    6    2      1.12      0.00
  -12    6    2     -1.51      0.00
  -10    6    2     -6.26      0.00
   -8    6    2     -9.17      0.00
   -6    6    2     -1.08      0.00
   -4    6    2     14.48      0.00
   -2    6    2     30.48      0.00
    0    6    2     33.73      0.00
    2    6    2     28.60      0.00
    4    6    2     26.70      0.00
    6    6    2     25.21      0.00
    8    6    2     23.15      0.00
   10    6    2     14.94      0.00
   12    6    2      6.51      0.00
   14    6    2      2.49      0.00
   16    6    2      1.26      0.00
   18    6    2      0.93      0.00
   20    6    2     -1.77      0.00
   22    6    2     -2.13      0.00
   24    6    2     -2.30      0.00
   26    6    2     -1.13      0.00
  -27    7    2     -2.96      0.00
  -25    7    2     -1.96      0.00
  -23    7    2     -1.99      0.00
  -21    7    2     -1.79      0.00
  -19    7    2     -0.56      0.00
  -17    7    2      0.19      0.00
  -15    7    2      0.02      0.00
  -13    7    2     -1.00      0.00
  -11    7    2     -0.89      0.00
   -9    7    2      1.25      0.00
   -7    7    2      1.39      0.00
   -5    7    2     -8.72      0.00
   -3    7    2    -19.53      0.00
   -1    7    2    -28.34      0.00
    1    7    2    -26.32      0.00
    3    7    2    -21.78      0.00
    5    7    2    -16.54      0.00
    7    7    2    -11.22      0.00
    9    7    2     -5.20      0.00
   11    7    2      1.06      0.00
   13    7    2      2.47      0.00
   15    7    2      2.85      0.00
   17    7    2      2.28      0.00
   19    7    2      2.84      0.00
   21    7    2      2.13      0.00
   23    7    2      2.23      0.00
   25    7    2      0.29      0.00
   27    7    2      0.53      0.00
  -26    8    2      3.64      0.00
  -24    8    2      2.52      0.00
  -22    8    2      2.23      0.00
  -20    8    2      2.32      0.00
  -18    8    2      0.51      0.00
  -16    8    2     -1.82      0.00
  -14    8    2     -2.76      0.00
  -12    8    2     -1.34      0.00
  -10    8    2     -2.52      0.00
   -8    8    2     -1.28      0.00
   -6    8    2      1.15      0.00
   -4    8    2      7.42      0.00
   -2    8    2     13.35      0.00
    0    8    2     17.05      0.00
    2    8    2     17.86      0.00
    4    8    2     14.87      0.00
    6    8    2     11.05      0.00
    8    8    2      3.73      0.00
   10    8    2      1.26      0.00
   12    8    2     -0.84      0.00
   14    8    2     -0.94      0.00
   16    8    2     -0.83      0.00
   18    8    2     -2.58      0.00
   20    8    2     -2.84      0.00
   22    8    2     -2.45      0.00
   24    8    2     -0.77      0.00
   26    8    2     -0.76      0.00
  -27    9    2     -2.11      0.00
  -25    9    2     -1.97      0.00
  -23    9    2     -1.05      0.00
  -21    9    2     -1.32      0.00
  -19    9    2     -1.57      0.00
  -17    9    2      0.61      0.00
  -15    9    2      2.35      0.00
  -13    9    2      3.01      0.00
  -11    9    2     -0.22      0.00
   -9    9    2     -4.50      0.00
   -7    9    2     -9.95      0.00
   -5    9    2    -10.74      0.00
   -3    9    2    -10.36      0.00
   -1    9    2    -10.11      0.00
    1    9    2     -9.40      0.00
    3    9    2     -8.73      0.00
    5    9    2     -6.19      0.00
    7    9    2     -0.09      0.00
    9    9    2      3.43      0.00
   11    9    2      2.92      0.00
   13    9    2      1.18      0.00
   15    9    2      0.06      0.00
   17    9    2      1.03      0.00
   19    9    2      1.45      0.00
   21    9    2      1.36      0.00
   23    9    2     -0.41      0.00
   25    9    2     -0.04      0.00
  -26   10    2      1.80      0.00
  -24   10    2      0.95      0.00
  -22   10    2      1.15      0.00
  -20   10    2      0.68      0.00
  -18   10    2      1.46      0.00
  -16   10    2     -0.28      0.00
  -14   10    2     -2.65      0.00
  -12   10    2     -3.94      0.00
  -10   10    2      1.20      0.00
   -8   10    2      5.12      0.00
   -6   10    2      6.95      0.00
   -4   10    2      6.71      0.00
   -2   10    2      2.35      0.00
    0   10    2      1.44      0.00
    2   10    2      4.80      0.00
    4   10    2      4.71      0.00
    6   10    2      2.72      0.00
    8   10    2      2.39      0.00
   10   10    2     -0.26      0.00
   12   10    2      3.07      0.00
   14   10    2      3.56      0.00
   16   10    2      1.23      0.00
   18   10    2     -0.33      0.00
   20   10    2     -0.78      0.00
   22   10    2     -0.17      0.00
   24   10    2     -0.02      0.00
  -25   11    2     -1.12      0.00
  -23   11    2     -0.40      0.00
  -21   11    2     -0.45      0.00
  -19   11    2     -1.13      0.00
  -17   11    2     -1.20      0.00
  -15   11    2      0.19      0.00
  -13   11    2      0.03      0.00
  -11   11    2     -0.07      0.00
   -9   11    2     -2.98      0.00
   -7   11    2     -6.19      0.00
   -5   11    2     -7.10      0.00
   -3   11    2     -5.66      0.00
   -1   11    2     -3.38      0.00
    1   11    2     -2.47      0.00
    3   11    2     -2.19      0.00
    5   11    2     -0.37      0.00
    7   11    2      2.12      0.00
    9   11    2      1.50      0.00
   11   11    2     -0.42      0.00
   13   11    2     -1.46      0.00
   15   11    2     -1.51      0.00
   17   11    2     -0.59      0.00
   19   11    2      0.15      0.00
   21   11    2     -0.72      0.00
   23   11    2     -1.43      0.00
   25   11    2     -1.67      0.00
  -24   12    2      1.64      0.00
  -22   12    2      0.84      0.00
  -20   12    2      0.65      0.00
  -18   12    2     -0.92      0.00
  -16   12    2      0.24      0.00
  -14   12    2      1.02      0.00
  -12   12    2      1.91      0.00
  -10   12    2     -0.55      0.00
   -8   12    2     -1.71      0.00
   -6   12    2     -1.04      0.00
   -4   12    2     -1.60      0.00
   -2   12    2      1.17      0.00
    0   12    2      2.57      0.00
    2   12    2      1.13      0.00
    4   12    2      2.44      0.00
    6   12    2      2.71      0.00
    8   12    2      0.86      0.00
   10   12    2      3.36      0.00
   12   12    2      1.71      0.00
   14   12    2      0.71      0.00
   16   12    2     -0.13      0.00
   18   12    2     -0.60      0.00
   20   12    2      0.48      0.00
   22   12    2      1.26      0.00
   24   12    2      2.10      0.00
  -25   13    2     -0.22      0.00
  -23   13    2     -1.80      0.00
  -21   13    2     -0.87      0.00
  -19   13    2      1.41      0.00
  -17   13    2      1.82      0.00
  -15   13    2     -0.36      0.00
  -13   13    2     -2.10      0.00
  -11   13    2     -2.24      0.00
   -9   13    2      1.23      0.00
   -7   13    2      5.10      0.00
   -5   13    2      3.00      0.00
   -3   13    2     -0.88      0.00
   -1   13    2     -2.71      0.00
    1   13    2     -2.86      0.00
    3   13    2     -0.83      0.00
    5   13    2      0.17      0.00
    7   13    2     -1.66      0.00
    9   13    2     -0.14      0.00
   11   13    2      0.98      0.00
   13   13    2      0.91      0.00
   15   13    2      1.37      0.00
   17   13    2      0.47      0.00
   19   13    2     -0.56      0.00
   21   13    2     -0.75      0.00
   23   13    2     -0.53      0.00
  -24   14    2      1.69      0.00
  -22   14    2      2.06      0.00
  -20   14    2      0.15      0.00
  -18   14    2     -1.89      0.00
  -16   14    2     -3.21      0.00
  -14   14    2      0.63      0.00
  -12   14    2      2.62      0.00
  -10   14    2      0.31      0.00
   -8   14    2     -5.07      0.00
   -6   14    2     -7.99      0.00
   -4   14    2     -4.15      0.00
   -2   14    2     -0.39      0.00
    0   14    2     -0.24      0.00
    2   14    2     -0.14      0.00
    4   14    2      1.06      0.00
    6   14    2      2.63      0.00
    8   14    2      5.24      0.00
   10   14    2      1.86      0.00
   12   14    2     -0.34      0.00
   14   14    2     -0.49      0.00
   16   14    2      1.06      0.00
   18   14    2      2.32      0.00
   20   14    2      0.81      0.00
   22   14    2      0.39      0.00
  -23   15    2     -1.28      0.00
  -21   15    2     -1.64      0.00
  -19   15    2      0.62      0.00
  -17   15    2      3.01      0.00
  -15   15    2      2.03      0.00
  -13   15    2     -1.79      0.00
  -11   15    2     -2.75      0.00
   -9   15    2      0.69      0.00
   -7   15    2      3.88      0.00
   -5   15    2      3.51      0.00
   -3   15    2     -1.01      0.00
   -1   15    2     -1.99      0.00
    1   15    2      0.63      0.00
    3   15    2      2.21      0.00
    5   15    2     -0.84      0.00
    7   15    2     -3.25      0.00
    9   15    2     -3.23      0.00
   11   15    2     -0.83      0.00
   13   15    2      0.67      0.00
   15   15    2     -1.58      0.00
   17   15    2     -2.45      0.00
   19   15    2     -1.64      0.00
   21   15    2      0.18      0.00
  -22   16    2      2.27      0.00
  -20   16    2      1.55      0.00
  -18   16    2     -1.07      0.00
  -16   16    2     -1.86      0.00
  -14   16    2     -1.57      0.00
  -12   16    2      0.97      0.00
  -10   16    2      0.29      0.00
   -8   16    2     -3.01      0.00
   -6   16    2     -2.43      0.00
   -4   16    2      0.93      0.00
   -2   16    2      3.99      0.00
    0   16    2      3.23      0.00
    2   16    2     -1.04      0.00
    4   16    2     -1.55      0.00
    6   16    2      3.05      0.00
    8   16    2      3.40      0.00
   10   16    2      2.97      0.00
   12   16    2      1.50      0.00
   14   16    2      1.56      0.00
   16   16    2      2.59      0.00
   18   16    2      1.82      0.00
   20   16    2      1.41      0.00
  -21   17    2     -0.81      0.00
  -19   17    2     -1.18      0.00
  -17   17    2      0.50      0.00
  -15   17    2      1.14      0.00
  -13   17    2      0.15      0.00
  -11   17    2     -0.81      0.00
   -9   17    2     -0.10      0.00
   -7   17    2     -0.25      0.00
   -5   17    2     -3.08      0.00
   -3   17    2     -5.36      0.00
   -1   17    2     -6.84      0.00
    1   17    2     -2.14      0.00
    3   17    2     -0.67      0.00
    5   17    2     -1.20      0.00
    7   17    2     -2.35      0.00
    9   17    2     -3.43      0.00
   11   17    2     -1.38      0.00
   13   17    2     -0.91      0.00
   15   17    2     -0.11      0.00
   17   17    2     -0.27      0.00
   19   17    2      0.60      0.00
  -20   18    2      0.96      0.00
  -18   18    2      1.66      0.00
  -16   18    2     -0.15      0.00
  -14   18    2     -1.11      0.00
  -12   18    2     -2.17      0.00
  -10   18    2     -1.07      0.00
   -8   18    2      0.87      0.00
   -6   18    2      0.07      0.00
   -4   18    2      2.21      0.00
   -2   18    2      0.96      0.00
    0   18    2     -1.37      0.00
    2   18    2     -0.17      0.00
    4   18    2     -0.69      0.00
    6   18    2      0.43      0.00
    8   18    2      1.97      0.00
   10   18    2      0.05      0.00
   12   18    2      0.02      0.00
   14   18    2      0.20      0.00
   16   18    2     -0.06      0.00
   18   18    2     -0.11      0.00
  -17   19    2     -1.71      0.00
  -15   19    2     -0.03      0.00
  -13   19    2      1.23      0.00
  -11   19    2     -0.27      0.00
   -9   19    2     -2.82      0.00
   -7   19    2     -3.28      0.00
   -5   19    2      0.81      0.00
   -3   19    2      5.81      0.00
   -1   19    2      9.67      0.00
    1   19    2      6.36      0.00
    5   19    2     -0.78      0.00
    7   19    2     -1.77      0.00
    9   19    2      0.87      0.00
   11   19    2      1.03      0.00
   13   19    2      1.70      0.00
   15   19    2      0.45      0.00
   17   19    2      0.68      0.00
  -16   20    2      0.40      0.00
  -14   20    2     -1.02      0.00
  -12   20    2     -0.11      0.00
  -10   20    2      2.13      0.00
   -8   20    2      2.38      0.00
   -6   20    2      0.67      0.00
   -4   20    2    -10.76      0.00
   -2   20    2    -15.50      0.00
    0   20    2    -13.27      0.00
    2   20    2     -9.51      0.00
    4   20    2     -0.73      0.00
    6   20    2     -0.70      0.00
    8   20    2     -2.36      0.00
   10   20    2     -1.56      0.00
   12   20    2     -1.82      0.00
   14   20    2      0.14      0.00
   16   20    2      1.16      0.00
  -15   21    2      0.51      0.00
  -13   21    2     -0.15      0.00
  -11   21    2     -0.92      0.00
   -9   21    2     -3.49      0.00
   -7   21    2     -0.31      0.00
   -5   21    2      6.28      0.00
   -3   21    2     12.39      0.00
   -1   21    2     13.42      0.00
    1   21    2      6.66      0.00
    3   21    2      0.15      0.00
    5   21    2      0.36      0.00
    7   21    2      1.64      0.00
    9   21    2      3.21      0.00
   13   21    2      0.10      0.00
   15   21    2     -0.21      0.00
  -12   22    2      0.55      0.00
  -10   22    2      1.56      0.00
   -8   22    2      2.27      0.00
   -6   22    2     -3.18      0.00
   -4   22    2     -5.54      0.00
   -2   22    2     -7.15      0.00
    0   22    2     -3.24      0.00
    2   22    2      3.56      0.00
    4   22    2      1.05      0.00
    6   22    2     -0.69      0.00
    8   22    2     -3.18      0.00
   10   22    2     -2.70      0.00
   12   22    2      0.87      0.00
  -11   23    2     -1.08      0.00
   -9   23    2     -0.34      0.00
   -7   23    2     -1.43      0.00
   -5   23    2      0.46      0.00
   -3   23    2      2.21      0.00
   -1   23    2     -2.81      0.00
    1   23    2     -3.89      0.00
    3   23    2     -4.15      0.00
    5   23    2     -1.67      0.00
    7   23    2      3.58      0.00
    9   23    2      1.78      0.00
   -6   24    2      3.40      0.00
   -4   24    2      3.34      0.00
   -2   24    2      3.91      0.00
    0   24    2      5.25      0.00
    2   24    2      4.54      0.00
    4   24    2      2.07      0.00
    6   24    2     -0.98      0.00
  -25    1    3     -0.63      0.00
  -23    1    3     -0.11      0.00
  -21    1    3     -0.15      0.00
  -19    1    3     -0.89      0.00
  -17    1    3     -1.09      0.00
  -15    1    3     -3.25      0.00
  -13    1    3     -5.63      0.00
  -11    1    3     -6.17      0.00
   -9    1    3     -4.22      0.00
   -7    1    3     -2.26      0.00
   -5    1    3    -10.12      0.00
   -3    1    3     -4.22      0.00
   -1    1    3     -7.23      0.00
    1    1    3     -5.07      0.00
    3    1    3      5.08      0.00
    5    1    3     -2.00      0.00
    7    1    3      1.45      0.00
    9    1    3      1.89      0.00
   11    1    3     -0.21      0.00
   13    1    3     -0.31      0.00
   15    1    3      0.14      0.00
   17    1    3     -0.14      0.00
   19    1    3      0.88      0.00
   21    1    3     -0.25      0.00
   23    1    3     -2.05      0.00
   25    1    3     -3.47      0.00
   27    1    3     -3.32      0.00
  -26    2    3      0.83      0.00
  -24    2    3     -0.23      0.00
  -22    2    3      0.85      0.00
  -20    2    3      1.59      0.00
  -18    2    3      1.04      0.00
  -16    2    3      3.29      0.00
  -14    2    3      6.92      0.00
  -12    2    3     10.53      0.00
  -10    2    3      9.15      0.00
   -8    2    3      8.32      0.00
   -6    2    3      5.63      0.00
   -4    2    3      7.38      0.00
   -2    2    3      7.63      0.00
    0    2    3     -3.68      0.00
    2    2    3     -3.14      0.00
    4    2    3     -4.73      0.00
    6    2    3     -4.27      0.00
    8    2    3     -1.30      0.00
   10    2    3     -2.90      0.00
   12    2    3     -1.29      0.00
   14    2    3      0.08      0.00
   16    2    3     -0.11      0.00
   18    2    3     -1.38      0.00
   20    2    3      0.16      0.00
   22    2    3      1.82      0.00
   24    2    3      3.76      0.00
   26    2    3      5.30      0.00
   28    2    3      5.09      0.00
  -29    3    3     -2.01      0.00
  -25    3    3      0.50      0.00
  -23    3    3     -1.35      0.00
  -21    3    3     -2.80      0.00
  -19    3    3     -2.85      0.00
  -17    3    3     -2.15      0.00
  -15    3    3     -3.81      0.00
  -13    3    3     -8.28      0.00
  -11    3    3    -10.43      0.00
   -9    3    3     -7.74      0.00
   -7    3    3     -5.34      0.00
   -5    3    3     -0.01      0.00
   -3    3    3     -0.87      0.00
   -1    3    3      5.83      0.00
    1    3    3     11.50      0.00
    3    3    3      7.08      0.00
    5    3    3      7.58      0.00
    7    3    3      4.71      0.00
    9    3    3      4.59      0.00
   11    3    3      4.10      0.00
   13    3    3      0.86      0.00
   15    3    3     -1.09      0.00
   17    3    3      0.31      0.00
   19    3    3      0.27      0.00
   21    3    3     -0.15      0.00
   23    3    3     -2.37      0.00
   25    3    3     -3.24      0.00
   27    3    3     -4.11      0.00
  -28    4    3      1.92      0.00
  -26    4    3      0.34      0.00
  -24    4    3      0.14      0.00
  -22    4    3      1.66      0.00
  -20    4    3      2.32      0.00
  -18    4    3      1.37      0.00
  -16    4    3      0.46      0.00
  -14    4    3      4.82      0.00
  -12    4    3      8.74      0.00
  -10    4    3      9.37      0.00
   -8    4    3      0.67      0.00
   -6    4    3     -5.90      0.00
   -4    4    3    -13.00      0.00
   -2    4    3    -20.23      0.00
    0    4    3    -14.67      0.00
    2    4    3    -17.91      0.00
    4    4    3    -11.95      0.00
    6    4    3     -9.03      0.00
    8    4    3    -12.17      0.00
   10    4    3     -9.27      0.00
   12    4    3     -5.21      0.00
   14    4    3     -0.70      0.00
   16    4    3     -0.14      0.00
   18    4    3     -0.62      0.00
   20    4    3     -1.48      0.00
   22    4    3      0.30      0.00
   24    4    3      0.69      0.00
   26    4    3      1.02      0.00
  -27    5    3     -0.76      0.00
  -25    5    3     -0.32      0.00
  -23    5    3      0.40      0.00
  -21    5    3     -1.41      0.00
  -19    5    3     -0.19      0.00
  -17    5    3      1.53      0.00
  -15    5    3      0.79      0.00
  -13    5    3     -3.25      0.00
  -11    5    3     -5.68      0.00
   -9    5    3     -0.95      0.00
   -7    5    3     11.43      0.00
   -5    5    3     22.45      0.00
   -3    5    3     26.47      0.00
   -1    5    3     25.01      0.00
    1    5    3     17.55      0.00
    3    5    3     13.10      0.00
    5    5    3     13.25      0.00
    7    5    3     15.12      0.00
    9    5    3     15.48      0.00
   11    5    3      9.36      0.00
   13    5    3      2.57      0.00
   15    5    3      0.29      0.00
   17    5    3      1.31      0.00
   19    5    3      2.76      0.00
   21    5    3      1.12      0.00
   23    5    3      1.48      0.00
   25    5    3      0.80      0.00
   27    5    3      0.17      0.00
  -28    6    3      1.69      0.00
  -26    6    3      0.28      0.00
  -24    6    3      0.23      0.00
  -22    6    3      0.14      0.00
  -20    6    3      0.25      0.00
  -18    6    3     -1.51      0.00
  -16    6    3     -3.17      0.00
  -14    6    3     -1.55      0.00
  -12    6    3      4.02      0.00
  -10    6    3      3.88      0.00
   -8    6    3     -3.94      0.00
   -6    6    3    -18.61      0.00
   -4    6    3    -30.79      0.00
   -2    6    3    -29.99      0.00
    0    6    3    -26.60      0.00
    2    6    3    -16.57      0.00
    4    6    3    -16.23      0.00
    6    6    3    -19.46      0.00
    8    6    3    -19.96      0.00
   10    6    3    -14.92      0.00
   12    6    3     -5.93      0.00
   14    6    3     -1.61      0.00
   16    6    3     -1.51      0.00
   18    6    3     -2.89      0.00
   20    6    3     -1.41      0.00
   22    6    3     -0.58      0.00
   24    6    3      0.10      0.00
   26    6    3     -1.37      0.00
  -27    7    3     -0.31      0.00
  -25    7    3      1.36      0.00
  -23    7    3      0.40      0.00
  -21    7    3      0.04      0.00
  -19    7    3      0.69      0.00
  -17    7    3      3.50      0.00
  -15    7    3      4.83      0.00
  -13    7    3      2.33      0.00
  -11    7    3     -2.04      0.00
   -9    7    3     -2.76      0.00
   -7    7    3      6.76      0.00
   -5    7    3     20.35      0.00
   -3    7    3     31.50      0.00
   -1    7    3     29.18      0.00
    1    7    3     22.40      0.00
    3    7    3     16.98      0.00
    5    7    3     15.47      0.00
    7    7    3     17.35      0.00
    9    7    3     12.72      0.00
   11    7    3      6.96      0.00
   13    7    3      1.27      0.00
   15    7    3      0.89      0.00
   17    7    3      2.79      0.00
   19    7    3      1.90      0.00
   21    7    3     -0.10      0.00
   23    7    3     -1.94      0.00
   25    7    3     -0.23      0.00
   27    7    3      0.67      0.00
  -26    8    3     -0.67      0.00
  -24    8    3     -1.33      0.00
  -22    8    3      0.78      0.00
  -20    8    3      1.67      0.00
  -18    8    3      0.28      0.00
  -16    8    3     -2.46      0.00
  -14    8    3     -4.15      0.00
  -12    8    3     -1.17      0.00
  -10    8    3      4.74      0.00
   -8    8    3      6.23      0.00
   -6    8    3     -3.21      0.00
   -4    8    3    -14.63      0.00
   -2    8    3    -23.86      0.00
    0    8    3    -23.82      0.00
    2    8    3    -19.11      0.00
    4    8    3    -15.47      0.00
    6    8    3    -15.03      0.00
    8    8    3    -11.85      0.00
   10    8    3     -7.09      0.00
   12    8    3     -2.10      0.00
   14    8    3      0.31      0.00
   16    8    3     -0.70      0.00
   18    8    3     -0.78      0.00
   20    8    3      0.80      0.00
   22    8    3      2.64      0.00
   24    8    3      1.01      0.00
   26    8    3      0.45      0.00
  -27    9    3      1.70      0.00
  -25    9    3      1.25      0.00
  -23    9    3      0.63      0.00
  -21    9    3     -0.58      0.00
  -19    9    3     -2.01      0.00
  -17    9    3     -0.37      0.00
  -15    9    3      2.41      0.00
  -13    9    3      2.83      0.00
  -11    9    3     -1.20      0.00
   -9    9    3     -3.76      0.00
   -7    9    3     -4.64      0.00
   -5    9    3      2.00      0.00
   -3    9    3     11.24      0.00
   -1    9    3     16.02      0.00
    1    9    3     14.27      0.00
    3    9    3     11.06      0.00
    5    9    3      6.91      0.00
    7    9    3      4.64      0.00
    9    9    3      4.28      0.00
   11    9    3     -0.47      0.00
   13    9    3     -0.16      0.00
   15    9    3      0.28      0.00
   17    9    3      0.43      0.00
   19    9    3     -0.38      0.00
   21    9    3     -1.83      0.00
   23    9    3     -1.99      0.00
   25    9    3     -1.20      0.00
  -26   10    3     -1.50      0.00
  -24   10    3      0.16      0.00
  -22   10    3      1.64      0.00
  -20   10    3      2.45      0.00
  -18   10    3      1.94      0.00
  -16   10    3      1.16      0.00
  -14   10    3      0.99      0.00
  -12   10    3     -0.04      0.00
  -10   10    3      1.53      0.00
   -8   10    3      3.31      0.00
   -6   10    3      5.52      0.00
   -4   10    3      3.17      0.00
   -2   10    3     -1.06      0.00
    0   10    3     -3.99      0.00
    2   10    3     -5.41      0.00
    4   10    3     -5.34      0.00
    6   10    3     -4.60      0.00
    8   10    3     -4.36      0.00
   10   10    3     -3.41      0.00
   12   10    3     -1.60      0.00
   14   10    3     -0.64      0.00
   16   10    3     -0.96      0.00
   18   10    3     -1.00      0.00
   20   10    3      0.31      0.00
   22   10    3      1.10      0.00
   24   10    3      1.28      0.00
  -25   11    3      0.59      0.00
  -23   11    3     -1.72      0.00
  -21   11    3     -2.48      0.00
  -19   11    3     -0.14      0.00
  -17   11    3     -0.79      0.00
  -15   11    3     -1.73      0.00
  -13   11    3     -1.67      0.00
  -11   11    3      1.88      0.00
   -9   11    3      2.16      0.00
   -7   11    3      0.81      0.00
   -5   11    3     -3.13      0.00
   -3   11    3     -7.49      0.00
   -1   11    3     -5.39      0.00
    1   11    3     -2.59      0.00
    3   11    3     -3.47      0.00
    5   11    3     -0.86      0.00
    7   11    3      0.84      0.00
    9   11    3      0.64      0.00
   11   11    3      3.34      0.00
   13   11    3      0.97      0.00
   15   11    3      1.22      0.00
   17   11    3      2.00      0.00
   19   11    3      1.47      0.00
   21   11    3     -0.14      0.00
   23   11    3     -1.19      0.00
   25   11    3     -0.66      0.00
  -24   12    3      1.28      0.00
  -22   12    3      1.60      0.00
  -20   12    3      0.12      0.00
  -18   12    3     -0.86      0.00
  -16   12    3      0.17      0.00
  -14   12    3      1.90      0.00
  -12   12    3      2.00      0.00
  -10   12    3     -2.33      0.00
   -8   12    3     -2.71      0.00
   -6   12    3      2.99      0.00
   -4   12    3      8.79      0.00
   -2   12    3     10.58      0.00
    0   12    3      7.96      0.00
    2   12    3      3.62      0.00
    4   12    3      2.09      0.00
    6   12    3     -0.30      0.00
    8   12    3     -4.94      0.00
   10   12    3     -4.83      0.00
   12   12    3     -3.48      0.00
   14   12    3     -2.01      0.00
   16   12    3     -1.34      0.00
   18   12    3     -2.09      0.00
   20   12    3     -2.43      0.00
   22   12    3     -1.25      0.00
   24   12    3     -0.22      0.00
  -25   13    3      0.29      0.00
  -23   13    3     -0.64      0.00
  -21   13    3     -0.05      0.00
  -19   13    3      1.46      0.00
  -17   13    3      3.03      0.00
  -15   13    3      0.22      0.00
  -13   13    3     -0.15      0.00
  -11   13    3      1.89      0.00
   -9   13    3      5.37      0.00
   -7   13    3      3.09      0.00
   -5   13    3     -3.99      0.00
   -3   13    3     -7.16      0.00
   -1   13    3     -7.23      0.00
    1   13    3     -6.39      0.00
    3   13    3     -4.14      0.00
    5   13    3     -3.57      0.00
    7   13    3     -1.04      0.00
    9   13    3      4.20      0.00
   11   13    3      2.49      0.00
   13   13    3      0.76      0.00
   15   13    3     -0.90      0.00
   17   13    3      0.07      0.00
   19   13    3      1.77      0.00
   21   13    3      1.43      0.00
   23   13    3      1.17      0.00
  -24   14    3     -0.42      0.00
  -22   14    3      0.40      0.00
  -20   14    3     -1.38      0.00
  -18   14    3     -3.01      0.00
  -16   14    3     -1.74      0.00
  -14   14    3      0.94      0.00
  -12   14    3      1.07      0.00
  -10   14    3      0.26      0.00
   -8   14    3      0.15      0.00
   -6   14    3      2.54      0.00
   -4   14    3      6.34      0.00
   -2   14    3      5.60      0.00
    0   14    3      2.87      0.00
    2   14    3      2.83      0.00
    4   14    3      2.16      0.00
    6   14    3     -0.69      0.00
    8   14    3     -2.63      0.00
   10   14    3     -4.87      0.00
   12   14    3     -2.09      0.00
   14   14    3      0.88      0.00
   16   14    3     -0.03      0.00
   18   14    3     -1.44      0.00
   20   14    3     -1.81      0.00
   22   14    3     -1.19      0.00
  -23   15    3      0.22      0.00
  -21   15    3      0.68      0.00
  -19   15    3      1.70      0.00
  -17   15    3      1.76      0.00
  -15   15    3      2.05      0.00
  -13   15    3      0.38      0.00
  -11   15    3      1.51      0.00
   -9   15    3      2.44      0.00
   -7   15    3      0.90      0.00
   -5   15    3     -0.57      0.00
   -3   15    3     -2.04      0.00
   -1   15    3     -2.75      0.00
    1   15    3     -2.27      0.00
    3   15    3     -4.41      0.00
    5   15    3     -4.20      0.00
    7   15    3      1.03      0.00
    9   15    3      1.11      0.00
   11   15    3      0.88      0.00
   13   15    3     -1.00      0.00
   15   15    3     -0.78      0.00
   17   15    3      1.06      0.00
   19   15    3      1.29      0.00
   21   15    3      1.20      0.00
  -22   16    3     -0.12      0.00
  -20   16    3      0.18      0.00
  -18   16    3     -0.58      0.00
  -16   16    3     -0.37      0.00
  -14   16    3      0.24      0.00
  -12   16    3      0.80      0.00
  -10   16    3      1.00      0.00
   -8   16    3      2.26      0.00
   -6   16    3      2.62      0.00
   -4   16    3      1.69      0.00
   -2   16    3      1.49      0.00
    0   16    3      1.70      0.00
    2   16    3      4.51      0.00
    4   16    3      3.58      0.00
    6   16    3      0.83      0.00
    8   16    3     -2.68      0.00
   10   16    3     -2.95      0.00
   12   16    3     -1.08      0.00
   14   16    3     -0.88      0.00
   16   16    3     -1.25      0.00
   18   16    3     -2.42      0.00
   20   16    3     -1.13      0.00
  -21   17    3      0.10      0.00
  -19   17    3     -0.08      0.00
  -17   17    3      0.23      0.00
  -15   17    3      0.14      0.00
  -13   17    3      1.96      0.00
  -11   17    3      1.24      0.00
   -9   17    3      0.11      0.00
   -7   17    3      0.37      0.00
   -5   17    3      0.58      0.00
   -3   17    3      3.41      0.00
   -1   17    3      2.21      0.00
    1   17    3     -3.92      0.00
    3   17    3     -6.28      0.00
    5   17    3     -5.18      0.00
    7   17    3     -2.68      0.00
    9   17    3      1.83      0.00
   11   17    3      0.70      0.00
   13   17    3     -0.42      0.00
   15   17    3     -0.12      0.00
   17   17    3      0.47      0.00
   19   17    3      1.16      0.00
  -20   18    3      0.33      0.00
  -18   18    3      0.83      0.00
  -16   18    3      0.21      0.00
  -14   18    3     -0.05      0.00
  -12   18    3      0.45      0.00
  -10   18    3      2.45      0.00
   -8   18    3      3.76      0.00
   -6   18    3      2.59      0.00
   -4   18    3     -2.08      0.00
   -2   18    3     -5.04      0.00
    2   18    3      2.21      0.00
    4   18    3      5.62      0.00
    6   18    3      1.56      0.00
    8   18    3     -3.46      0.00
   10   18    3     -3.83      0.00
   12   18    3     -2.83      0.00
   14   18    3      0.41      0.00
   16   18    3      1.11      0.00
   18   18    3      1.61      0.00
  -19   19    3      1.42      0.00
  -17   19    3      0.83      0.00
  -15   19    3      0.63      0.00
  -13   19    3     -0.45      0.00
  -11   19    3     -0.06      0.00
   -9   19    3     -1.18      0.00
   -7   19    3     -1.14      0.00
   -5   19    3      4.67      0.00
   -3   19    3      4.92      0.00
   -1   19    3      4.00      0.00
    1   19    3     -1.42      0.00
    3   19    3     -8.69      0.00
    7   19    3     -1.78      0.00
    9   19    3      0.96      0.00
   11   19    3      2.25      0.00
   13   19    3     -0.89      0.00
   15   19    3     -3.20      0.00
   17   19    3     -2.99      0.00
  -16   20    3     -0.61      0.00
  -14   20    3      0.58      0.00
  -12   20    3      0.95      0.00
  -10   20    3      1.09      0.00
   -8   20    3     -0.11      0.00
   -6   20    3     -1.13      0.00
   -4   20    3     -2.39      0.00
   -2   20    3     -1.41      0.00
    0   20    3      2.65      0.00
    6   20    3      1.88      0.00
    8   20    3     -3.35      0.00
   10   20    3     -5.16      0.00
   12   20    3     -1.36      0.00
   14   20    3      1.60      0.00
   16   20    3      3.72      0.00
  -15   21    3      0.35      0.00
  -13   21    3      0.03      0.00
  -11   21    3      0.42      0.00
   -9   21    3      2.57      0.00
   -7   21    3      4.62      0.00
   -5   21    3      1.56      0.00
   -3   21    3      1.89      0.00
   -1   21    3     -4.41      0.00
    3   21    3     -9.52      0.00
    5   21    3     -9.77      0.00
    7   21    3     -2.72      0.00
    9   21    3      1.30      0.00
   11   21    3      0.59      0.00
   13   21    3     -0.95      0.00
  -12   22    3      0.04      0.00
  -10   22    3     -1.88      0.00
   -8   22    3     -0.47      0.00
   -6   22    3     -0.79      0.00
   -4   22    3      1.37      0.00
   -2   22    3      3.91      0.00
    0   22    3      3.87      0.00
    2   22    3      6.96      0.00
    4   22    3      6.89      0.00
    6   22    3      2.52      0.00
    8   22    3     -0.01      0.00
   10   22    3     -2.58      0.00
   12   22    3     -1.05      0.00
  -11   23    3      2.20      0.00
   -9   23    3      2.44      0.00
   -7   23    3      0.40      0.00
   -5   23    3      0.07      0.00
   -3   23    3     -2.00      0.00
   -1   23    3     -1.87      0.00
    1   23    3     -3.77      0.00
    3   23    3     -7.39      0.00
    5   23    3     -6.94      0.00
    7   23    3     -5.41      0.00
    9   23    3     -1.04      0.00
   -6   24    3      1.43      0.00
   -4   24    3      2.04      0.00
   -2   24    3      1.00      0.00
    0   24    3      3.03      0.00
    2   24    3      2.15      0.00
    4   24    3      4.50      0.00
    6   24    3      4.12      0.00
  -26    0    4     -3.66      0.00
  -24    0    4     -3.01      0.00
  -22    0    4      1.74      0.00
  -20    0    4      5.74      0.00
  -18    0    4      6.45      0.00
  -16    0    4      8.16      0.00
  -14    0    4      7.76      0.00
  -12    0    4      6.44      0.00
  -10    0    4      3.64      0.00
   -8    0    4      2.00      0.00
   -6    0    4     -5.53      0.00
   -4    0    4    -27.90      0.00
   -2    0    4    -30.91      0.00
    0    0    4    -28.66      0.00
    2    0    4     -3.45      0.00
    4    0    4     27.17      0.00
    6    0    4     25.28      0.00
    8    0    4     17.15      0.00
   10    0    4      6.57      0.00
   12    0    4      3.13      0.00
   14    0    4      5.41      0.00
   16    0    4      5.39      0.00
   18    0    4      0.77      0.00
   20    0    4      0.74      0.00
   22    0    4      2.52      0.00
   24    0    4      4.55      0.00
   26    0    4      4.14      0.00
   28    0    4      3.53      0.00
  -25    1    4      3.41      0.00
  -23    1    4      0.07      0.00
  -21    1    4     -3.32      0.00
  -19    1    4     -4.95      0.00
  -17    1    4     -5.25      0.00
  -15    1    4     -4.22      0.00
  -13    1    4     -2.69      0.00
  -11    1    4     -0.51      0.00
   -9    1    4      0.68      0.00
   -7    1    4      6.41      0.00
   -5    1    4     16.35      0.00
   -3    1    4     30.72      0.00
   -1    1    4     32.18      0.00
    1    1    4      8.92      0.00
    3    1    4    -17.21      0.00
    5    1    4    -33.85      0.00
    7    1    4    -29.23      0.00
    9    1    4    -14.30      0.00
   11    1    4     -6.39      0.00
   13    1    4     -5.16      0.00
   15    1    4     -4.56      0.00
   17    1    4     -1.58      0.00
   19    1    4      0.66      0.00
   21    1    4      0.43      0.00
   23    1    4     -2.09      0.00
   25    1    4     -3.10      0.00
   27    1    4     -1.94      0.00
  -26    2    4     -4.06      0.00
  -24    2    4     -1.01      0.00
  -22    2    4      2.41      0.00
  -20    2    4      5.08      0.00
  -18    2    4      5.91      0.00
  -16    2    4      4.32      0.00
  -14    2    4      3.15      0.00
  -12    2    4      1.28      0.00
  -10    2    4      0.67      0.00
   -8    2    4     -2.41      0.00
   -6    2    4    -12.30      0.00
   -4    2    4    -21.47      0.00
   -2    2    4    -36.72      0.00
    0    2    4    -25.56      0.00
    2    2    4     -2.48      0.00
    4    2    4     13.09      0.00
    6    2    4     23.44      0.00
    8    2    4     14.62      0.00
   10    2    4      6.94      0.00
   12    2    4      6.68      0.00
   14    2    4      7.56      0.00
   16    2    4      5.20      0.00
   18    2    4      2.62      0.00
   20    2    4     -0.31      0.00
   22    2    4      0.73      0.00
   24    2    4      1.12      0.00
   26    2    4      1.07      0.00
  -29    3    4      0.94      0.00
  -25    3    4      0.81      0.00
  -23    3    4     -0.80      0.00
  -21    3    4     -3.11      0.00
  -19    3    4     -3.12      0.00
  -17    3    4     -1.17      0.00
  -15    3    4      0.32      0.00
  -13    3    4      3.35      0.00
  -11    3    4      5.77      0.00
   -9    3    4     10.64      0.00
   -7    3    4     13.93      0.00
   -5    3    4     25.26      0.00
   -3    3    4     28.86      0.00
   -1    3    4     21.49      0.00
    1    3    4     11.20      0.00
    3    3    4    -13.33      0.00
    5    3    4    -21.24      0.00
    7    3    4    -19.03      0.00
    9    3    4    -14.72      0.00
   11    3    4     -9.94      0.00
   13    3    4     -9.22      0.00
   15    3    4     -7.49      0.00
   17    3    4     -3.20      0.00
   19    3    4      1.05      0.00
   21    3    4      1.23      0.00
   23    3    4      1.74      0.00
   25    3    4      2.23      0.00
   27    3    4      2.47      0.00
  -28    4    4     -1.39      0.00
  -26    4    4     -0.88      0.00
  -24    4    4     -0.60      0.00
  -22    4    4      1.46      0.00
  -20    4    4      1.11      0.00
  -18    4    4      0.69      0.00
  -16    4    4      0.39      0.00
  -14    4    4      0.13      0.00
  -12    4    4     -1.47      0.00
  -10    4    4     -6.65      0.00
   -8    4    4    -15.71      0.00
   -6    4    4    -23.29      0.00
   -4    4    4    -30.25      0.00
   -2    4    4    -27.06      0.00
    0    4    4    -17.62      0.00
    2    4    4     -6.37      0.00
    4    4    4      5.30      0.00
    6    4    4      8.40      0.00
    8    4    4      8.73      0.00
   10    4    4      9.80      0.00
   12    4    4     10.33      0.00
   14    4    4      9.69      0.00
   16    4    4      6.57      0.00
   18    4    4      1.84      0.00
   20    4    4      0.14      0.00
   22    4    4     -1.08      0.00
   24    4    4     -0.47      0.00
   26    4    4     -2.27      0.00
  -27    5    4      0.32      0.00
  -25    5    4     -0.72      0.00
  -23    5    4     -1.42      0.00
  -21    5    4     -1.34      0.00
  -19    5    4      0.41      0.00
  -17    5    4      1.88      0.00
  -15    5    4      2.40      0.00
  -13    5    4      2.15      0.00
  -11    5    4      6.80      0.00
   -9    5    4     13.14      0.00
   -7    5    4     23.18      0.00
   -5    5    4     24.93      0.00
   -1    5    4     16.58      0.00
    1    5    4      2.30      0.00
    3    5    4     -1.67      0.00
    5    5    4     -8.93      0.00
    7    5    4    -12.10      0.00
    9    5    4    -12.59      0.00
   11    5    4    -12.89      0.00
   13    5    4    -11.10      0.00
   15    5    4     -7.45      0.00
   17    5    4     -3.03      0.00
   19    5    4     -0.46      0.00
   21    5    4      0.56      0.00
   23    5    4     -0.45      0.00
   25    5    4      0.85      0.00
   27    5    4      1.85      0.00
  -28    6    4     -1.21      0.00
  -26    6    4     -1.08      0.00
  -24    6    4      1.06      0.00
  -22    6    4      1.15      0.00
  -20    6    4      0.88      0.00
  -18    6    4     -0.89      0.00
  -16    6    4     -0.45      0.00
  -14    6    4      0.91      0.00
  -12    6    4      1.38      0.00
  -10    6    4     -2.50      0.00
   -8    6    4     -8.97      0.00
   -6    6    4    -15.74      0.00
   -4    6    4    -18.56      0.00
   -2    6    4    -16.01      0.00
    0    6    4    -15.31      0.00
    2    6    4     -9.38      0.00
    4    6    4     -2.71      0.00
    6    6    4      3.82      0.00
    8    6    4      9.87      0.00
   10    6    4     10.32      0.00
   12    6    4     10.26      0.00
   14    6    4      8.00      0.00
   16    6    4      5.33      0.00
   18    6    4      3.17      0.00
   20    6    4      2.24      0.00
   22    6    4      3.25      0.00
   24    6    4      1.72      0.00
   26    6    4      0.77      0.00
  -27    7    4      0.31      0.00
  -25    7    4     -0.09      0.00
  -23    7    4     -2.63      0.00
  -21    7    4     -2.00      0.00
  -19    7    4     -0.57      0.00
  -17    7    4      0.98      0.00
  -15    7    4      1.08      0.00
  -13    7    4      0.63      0.00
  -11    7    4      0.70      0.00
   -9    7    4      4.44      0.00
   -7    7    4      6.48      0.00
   -5    7    4      5.73      0.00
   -3    7    4      5.63      0.00
   -1    7    4      3.97      0.00
    1    7    4      3.88      0.00
    3    7    4     -2.10      0.00
    5    7    4     -9.04      0.00
    7    7    4    -14.64      0.00
    9    7    4    -13.76      0.00
   11    7    4    -11.13      0.00
   13    7    4     -8.08      0.00
   15    7    4     -5.79      0.00
   17    7    4     -3.98      0.00
   19    7    4     -2.50      0.00
   21    7    4     -1.85      0.00
   23    7    4     -0.92      0.00
   25    7    4     -0.85      0.00
  -26    8    4     -0.62      0.00
  -24    8    4      0.58      0.00
  -22    8    4      2.64      0.00
  -20    8    4      2.04      0.00
  -18    8    4      0.31      0.00
  -16    8    4      0.80      0.00
  -14    8    4      3.87      0.00
  -12    8    4      4.32      0.00
  -10    8    4      1.62      0.00
   -8    8    4      0.09      0.00
   -6    8    4      0.39      0.00
   -4    8    4      2.66      0.00
   -2    8    4      0.77      0.00
    0    8    4     -0.98      0.00
    2    8    4     -1.51      0.00
    4    8    4      4.54      0.00
    6    8    4      9.71      0.00
    8    8    4     10.34      0.00
   10    8    4      9.16      0.00
   12    8    4      5.23      0.00
   14    8    4      5.92      0.00
   16    8    4      5.58      0.00
   18    8    4      4.32      0.00
   20    8    4      2.75      0.00
   22    8    4      1.46      0.00
   24    8    4      0.76      0.00
   26    8    4     -0.66      0.00
  -27    9    4      1.39      0.00
  -25    9    4     -0.74      0.00
  -23    9    4     -1.97      0.00
  -21    9    4     -2.16      0.00
  -19    9    4      0.58      0.00
  -17    9    4      0.93      0.00
  -15    9    4     -1.62      0.00
  -13    9    4     -3.12      0.00
  -11    9    4     -0.73      0.00
   -9    9    4      2.98      0.00
   -7    9    4      1.24      0.00
   -5    9    4     -3.69      0.00
   -3    9    4    -10.45      0.00
   -1    9    4    -11.00      0.00
    1    9    4     -9.50      0.00
    3    9    4    -11.53      0.00
    5    9    4    -14.58      0.00
    7    9    4    -13.72      0.00
    9    9    4    -10.48      0.00
   11    9    4     -6.37      0.00
   13    9    4     -4.85      0.00
   15    9    4     -4.28      0.00
   17    9    4     -2.94      0.00
   19    9    4     -1.16      0.00
   21    9    4      0.04      0.00
   23    9    4      0.65      0.00
   25    9    4      2.04      0.00
  -26   10    4     -1.89      0.00
  -24   10    4      1.24      0.00
  -22   10    4      1.68      0.00
  -20   10    4     -0.48      0.00
  -18   10    4     -0.85      0.00
  -16   10    4      0.49      0.00
  -14   10    4      3.45      0.00
  -12   10    4      3.55      0.00
  -10   10    4      0.43      0.00
   -8   10    4     -3.38      0.00
   -6   10    4      1.64      0.00
   -4   10    4      9.10      0.00
   -2   10    4     11.35      0.00
    0   10    4     10.47      0.00
    2   10    4      9.34      0.00
    4   10    4      7.45      0.00
    6   10    4      9.09      0.00
    8   10    4      6.34      0.00
   10   10    4      2.47      0.00
   12   10    4      4.44      0.00
   14   10    4      3.39      0.00
   16   10    4      3.31      0.00
   18   10    4      2.20      0.00
   20   10    4      1.23      0.00
   22   10    4      0.07      0.00
   24   10    4     -0.82      0.00
  -25   11    4      1.00      0.00
  -23   11    4      0.53      0.00
  -21   11    4      0.98      0.00
  -19   11    4      2.38      0.00
  -17   11    4      3.24      0.00
  -15   11    4      0.78      0.00
  -13   11    4     -1.47      0.00
  -11   11    4      1.15      0.00
   -9   11    4      3.43      0.00
   -7   11    4      2.90      0.00
   -5   11    4     -3.62      0.00
   -3   11    4    -10.03      0.00
   -1   11    4    -12.36      0.00
    1   11    4    -12.13      0.00
    3   11    4    -12.72      0.00
    5   11    4    -11.47      0.00
    7   11    4     -9.09      0.00
    9   11    4     -6.38      0.00
   11   11    4     -3.06      0.00
   13   11    4     -2.70      0.00
   15   11    4     -2.42      0.00
   17   11    4     -1.27      0.00
   19   11    4     -0.41      0.00
   21   11    4     -0.12      0.00
   23   11    4      0.92      0.00
   25   11    4      1.44      0.00
  -24   12    4     -2.70      0.00
  -22   12    4     -1.89      0.00
  -20   12    4     -1.72      0.00
  -18   12    4     -3.33      0.00
  -16   12    4     -2.17      0.00
  -14   12    4     -1.21      0.00
  -12   12    4      0.00      0.00
  -10   12    4     -1.70      0.00
   -8   12    4     -1.25      0.00
   -6   12    4      0.36      0.00
   -4   12    4      3.46      0.00
   -2   12    4      7.59      0.00
    0   12    4      7.13      0.00
    2   12    4      5.31      0.00
    4   12    4      6.90      0.00
    6   12    4      4.41      0.00
    8   12    4      2.27      0.00
   10   12    4      2.31      0.00
   12   12    4      0.01      0.00
   14   12    4      1.63      0.00
   16   12    4      1.51      0.00
   18   12    4      1.71      0.00
   20   12    4      1.65      0.00
   22   12    4      0.55      0.00
   24   12    4     -0.59      0.00
  -25   13    4      1.85      0.00
  -23   13    4      1.82      0.00
  -21   13    4      2.19      0.00
  -19   13    4      1.94      0.00
  -17   13    4      2.24      0.00
  -15   13    4      3.07      0.00
  -13   13    4      2.47      0.00
  -11   13    4      0.40      0.00
   -9   13    4      1.37      0.00
   -7   13    4      1.63      0.00
   -5   13    4     -0.15      0.00
   -3   13    4     -2.25      0.00
   -1   13    4     -5.39      0.00
    1   13    4     -7.61      0.00
    3   13    4     -6.30      0.00
    5   13    4     -7.22      0.00
    7   13    4     -6.57      0.00
    9   13    4     -2.78      0.00
   11   13    4     -2.12      0.00
   13   13    4      0.49      0.00
   15   13    4      1.34      0.00
   17   13    4     -0.19      0.00
   19   13    4     -1.78      0.00
   21   13    4     -1.70      0.00
   23   13    4     -0.67      0.00
  -24   14    4     -1.87      0.00
  -22   14    4     -1.75      0.00
  -20   14    4     -0.38      0.00
  -18   14    4     -0.09      0.00
  -16   14    4     -2.38      0.00
  -14   14    4     -2.24      0.00
  -12   14    4     -2.13      0.00
  -10   14    4     -0.28      0.00
   -8   14    4     -0.74      0.00
   -6   14    4     -2.17      0.00
   -4   14    4     -0.58      0.00
   -2   14    4      1.49      0.00
    0   14    4      2.45      0.00
    2   14    4      3.63      0.00
    4   14    4      1.13      0.00
    6   14    4      0.93      0.00
    8   14    4      3.52      0.00
   10   14    4      0.84      0.00
   12   14    4     -0.28      0.00
   14   14    4     -2.56      0.00
   16   14    4     -2.01      0.00
   18   14    4     -0.05      0.00
   20   14    4      1.26      0.00
   22   14    4      1.94      0.00
  -23   15    4      0.87      0.00
  -21   15    4     -0.78      0.00
  -19   15    4     -1.20      0.00
  -17   15    4     -0.36      0.00
  -15   15    4      1.96      0.00
  -13   15    4      3.30      0.00
  -11   15    4      2.68      0.00
   -9   15    4      0.94      0.00
   -7   15    4      1.75      0.00
   -5   15    4      2.01      0.00
   -3   15    4     -0.78      0.00
   -1   15    4     -3.60      0.00
    1   15    4     -4.18      0.00
    3   15    4     -3.01      0.00
    5   15    4     -2.27      0.00
    7   15    4     -3.01      0.00
    9   15    4     -4.62      0.00
   11   15    4     -1.38      0.00
   13   15    4      1.17      0.00
   15   15    4      1.99      0.00
   17   15    4      1.38      0.00
   19   15    4     -0.65      0.00
   21   15    4     -1.21      0.00
  -22   16    4     -0.45      0.00
  -20   16    4      0.41      0.00
  -18   16    4      1.33      0.00
  -16   16    4      0.36      0.00
  -14   16    4     -2.91      0.00
  -12   16    4     -2.20      0.00
  -10   16    4     -1.08      0.00
   -8   16    4     -0.13      0.00
   -6   16    4      0.28      0.00
   -4   16    4     -0.86      0.00
   -2   16    4      0.74      0.00
    0   16    4      2.55      0.00
    2   16    4     -0.75      0.00
    4   16    4     -0.53      0.00
    6   16    4      1.91      0.00
    8   16    4      1.41      0.00
   10   16    4      3.43      0.00
   12   16    4      0.38      0.00
   14   16    4     -1.02      0.00
   16   16    4     -0.42      0.00
   18   16    4      0.18      0.00
   20   16    4      0.36      0.00
  -21   17    4      0.47      0.00
  -19   17    4     -0.60      0.00
  -17   17    4     -0.17      0.00
  -15   17    4      0.96      0.00
  -13   17    4      2.33      0.00
  -11   17    4      1.89      0.00
   -9   17    4      0.49      0.00
   -7   17    4     -0.79      0.00
   -5   17    4      0.42      0.00
   -3   17    4      0.10      0.00
   -1   17    4     -0.33      0.00
    1   17    4      1.19      0.00
    3   17    4      0.13      0.00
    5   17    4      0.90      0.00
    7   17    4     -1.90      0.00
    9   17    4     -2.75      0.00
   11   17    4     -1.44      0.00
   13   17    4     -0.99      0.00
   15   17    4     -1.21      0.00
   17   17    4     -2.50      0.00
   19   17    4     -0.79      0.00
  -20   18    4     -1.84      0.00
  -18   18    4     -1.15      0.00
  -16   18    4     -0.36      0.00
  -14   18    4      0.64      0.00
  -12   18    4     -0.43      0.00
  -10   18    4      0.61      0.00
   -8   18    4     -0.07      0.00
   -6   18    4     -2.14      0.00
   -4   18    4     -1.30      0.00
   -2   18    4     -3.10      0.00
    0   18    4     -2.43      0.00
    2   18    4     -0.43      0.00
    4   18    4     -1.30      0.00
    6   18    4      0.50      0.00
    8   18    4      2.53      0.00
   10   18    4      0.25      0.00
   12   18    4      0.49      0.00
   14   18    4      0.66      0.00
   16   18    4      1.23      0.00
   18   18    4      1.26      0.00
  -19   19    4      2.71      0.00
  -17   19    4      0.90      0.00
  -15   19    4     -0.56      0.00
  -13   19    4     -1.49      0.00
  -11   19    4     -0.39      0.00
   -9   19    4      2.06      0.00
   -7   19    4      4.41      0.00
   -5   19    4      5.26      0.00
   -3   19    4      5.61      0.00
   -1   19    4      3.61      0.00
    1   19    4      0.55      0.00
    3   19    4      0.77      0.00
    7   19    4     -1.24      0.00
    9   19    4     -0.84      0.00
   11   19    4     -1.11      0.00
   13   19    4      0.08      0.00
   15   19    4     -0.81      0.00
   17   19    4     -0.08      0.00
  -16   20    4      0.37      0.00
  -14   20    4      1.90      0.00
  -12   20    4      2.66      0.00
  -10   20    4     -0.96      0.00
   -8   20    4     -3.68      0.00
   -6   20    4     -5.66      0.00
   -4   20    4     -9.41      0.00
   -2   20    4     -5.34      0.00
    0   20    4     -3.55      0.00
    2   20    4      0.31      0.00
    6   20    4      2.54      0.00
    8   20    4      1.71      0.00
   10   20    4      0.40      0.00
   12   20    4     -1.99      0.00
   14   20    4     -2.19      0.00
   16   20    4     -1.88      0.00
  -15   21    4     -1.86      0.00
  -13   21    4     -2.74      0.00
  -11   21    4     -2.15      0.00
   -9   21    4     -0.87      0.00
   -7   21    4      3.17      0.00
   -5   21    4      5.80      0.00
   -3   21    4      8.51      0.00
   -1   21    4      8.33      0.00
    1   21    4      2.85      0.00
    3   21    4     -2.21      0.00
    5   21    4     -3.48      0.00
    7   21    4     -4.36      0.00
    9   21    4     -1.49      0.00
   11   21    4      0.43      0.00
   13   21    4      1.40      0.00
  -12   22    4      1.56      0.00
  -10   22    4      2.01      0.00
   -8   22    4      0.60      0.00
   -6   22    4     -3.12      0.00
   -4   22    4     -5.30      0.00
   -2   22    4     -9.73      0.00
    0   22    4     -5.85      0.00
    2   22    4     -1.17      0.00
    4   22    4      1.50      0.00
    6   22    4      3.99      0.00
    8   22    4      1.11      0.00
   10   22    4     -0.37      0.00
   12   22    4     -1.92      0.00
   -9   23    4     -0.38      0.00
   -7   23    4     -0.20      0.00
   -5   23    4      4.70      0.00
   -3   23    4      6.14      0.00
   -1   23    4      4.81      0.00
    1   23    4      3.76      0.00
    3   23    4     -1.03      0.00
    5   23    4     -1.37      0.00
    7   23    4     -0.55      0.00
    9   23    4     -2.06      0.00
   -6   24    4     -5.18      0.00
   -4   24    4     -5.86      0.00
   -2   24    4     -3.79      0.00
    0   24    4     -1.18      0.00
    2   24    4     -0.21      0.00
    4   24    4     -1.51      0.00
  -27    1    5     -1.03      0.00
  -25    1    5     -1.87      0.00
  -23    1    5     -0.13      0.00
  -21    1    5     -0.22      0.00
  -19    1    5     -0.25      0.00
  -17    1    5      1.92      0.00
  -15    1    5      2.30      0.00
  -13    1    5      3.03      0.00
  -11    1    5      1.39      0.00
   -9    1    5      1.35      0.00
   -7    1    5     -2.98      0.00
   -5    1    5     -8.41      0.00
   -1    1    5    -12.05      0.00
    1    1    5      0.89      0.00
    3    1    5      8.69      0.00
    5    1    5      5.57      0.00
    7    1    5      6.50      0.00
    9    1    5      0.48      0.00
   11    1    5     -1.73      0.00
   13    1    5     -0.20      0.00
   15    1    5      0.20      0.00
   17    1    5     -0.74      0.00
   19    1    5      0.51      0.00
   21    1    5     -0.42      0.00
   23    1    5      0.98      0.00
   25    1    5      1.71      0.00
   27    1    5      2.14      0.00
  -26    2    5      2.34      0.00
  -24    2    5      1.21      0.00
  -22    2    5      0.64      0.00
  -20    2    5     -0.56      0.00
  -18    2    5     -1.55      0.00
  -16    2    5     -3.27      0.00
  -14    2    5     -4.81      0.00
  -12    2    5     -4.22      0.00
  -10    2    5     -3.38      0.00
   -8    2    5     -0.57      0.00
   -6    2    5      2.98      0.00
   -4    2    5     15.32      0.00
   -2    2    5     17.29      0.00
    0    2    5      8.66      0.00
    2    2    5     -1.18      0.00
    4    2    5    -14.31      0.00
    6    2    5    -10.87      0.00
    8    2    5     -3.38      0.00
   10    2    5      0.71      0.00
   12    2    5      2.14      0.00
   14    2    5      1.21      0.00
   16    2    5      0.01      0.00
   18    2    5      0.44      0.00
   20    2    5      1.09      0.00
   22    2    5     -0.48      0.00
   24    2    5     -1.81      0.00
   26    2    5     -2.40      0.00
  -29    3    5     -1.39      0.00
  -25    3    5     -0.76      0.00
  -23    3    5      0.16      0.00
  -21    3    5      2.13      0.00
  -19    3    5      2.68      0.00
  -17    3    5      3.02      0.00
  -15    3    5      3.77      0.00
  -13    3    5      2.81      0.00
  -11    3    5      3.14      0.00
   -9    3    5      3.55      0.00
   -7    3    5      1.97      0.00
   -5    3    5     -4.26      0.00
   -3    3    5    -16.61      0.00
   -1    3    5    -13.15      0.00
    1    3    5     -3.30      0.00
    3    3    5      9.21      0.00
    5    3    5     16.04      0.00
    7    3    5      8.17      0.00
    9    3    5      1.09      0.00
   11    3    5     -1.24      0.00
   13    3    5     -1.39      0.00
   15    3    5     -0.34      0.00
   17    3    5     -0.03      0.00
   19    3    5     -2.13      0.00
   21    3    5     -1.96      0.00
   23    3    5     -1.50      0.00
   25    3    5      1.38      0.00
   27    3    5      0.93      0.00
  -28    4    5     -0.32      0.00
  -26    4    5      0.57      0.00
  -24    4    5     -0.17      0.00
  -22    4    5     -1.76      0.00
  -20    4    5     -2.46      0.00
  -18    4    5     -3.25      0.00
  -16    4    5     -3.88      0.00
  -14    4    5     -3.51      0.00
  -12    4    5     -3.28      0.00
  -10    4    5     -2.30      0.00
   -8    4    5     -2.74      0.00
   -6    4    5      4.80      0.00
   -4    4    5      9.79      0.00
   -2    4    5     16.98      0.00
    0    4    5     13.59      0.00
    2    4    5     -3.74      0.00
    4    4    5     -8.01      0.00
    6    4    5     -9.55      0.00
    8    4    5     -4.08      0.00
   10    4    5      0.46      0.00
   12    4    5      0.40      0.00
   14    4    5     -1.03      0.00
   16    4    5     -0.58      0.00
   18    4    5      0.69      0.00
   20    4    5      2.66      0.00
   22    4    5      4.04      0.00
   24    4    5      1.77      0.00
   26    4    5      0.09      0.00
  -27    5    5      1.09      0.00
  -25    5    5      0.92      0.00
  -23    5    5      2.15      0.00
  -21    5    5      2.12      0.00
  -19    5    5      2.55      0.00
  -17    5    5      2.38      0.00
  -15    5    5      2.95      0.00
  -13    5    5      2.23      0.00
  -11    5    5     -0.11      0.00
   -9    5    5     -3.50      0.00
   -7    5    5     -5.83      0.00
   -5    5    5    -11.61      0.00
   -3    5    5    -14.17      0.00
   -1    5    5    -11.54      0.00
    1    5    5     -5.40      0.00
    3    5    5      4.13      0.00
    5    5    5      5.86      0.00
    7    5    5      3.70      0.00
    9    5    5      2.44      0.00
   11    5    5      1.25      0.00
   13    5    5      2.50      0.00
   15    5    5      2.32      0.00
   17    5    5      0.39      0.00
   19    5    5     -2.51      0.00
   21    5    5     -4.92      0.00
   23    5    5     -3.42      0.00
   25    5    5     -2.46      0.00
   27    5    5     -0.74      0.00
  -28    6    5     -1.68      0.00
  -26    6    5     -2.06      0.00
  -24    6    5     -1.83      0.00
  -22    6    5     -2.95      0.00
  -20    6    5     -2.36      0.00
  -18    6    5     -2.16      0.00
  -16    6    5     -2.83      0.00
  -14    6    5     -3.59      0.00
  -12    6    5     -1.55      0.00
  -10    6    5      2.06      0.00
   -8    6    5      9.64      0.00
   -6    6    5     13.68      0.00
   -4    6    5     17.39      0.00
   -2    6    5     16.44      0.00
    0    6    5     10.94      0.00
    2    6    5      8.16      0.00
    4    6    5      2.35      0.00
    6    6    5      1.11      0.00
    8    6    5     -0.81      0.00
   10    6    5     -1.98      0.00
   12    6    5     -4.01      0.00
   14    6    5     -4.07      0.00
   16    6    5     -3.28      0.00
   18    6    5     -0.49      0.00
   20    6    5      1.90      0.00
   22    6    5      2.38      0.00
   24    6    5      1.38      0.00
   26    6    5     -0.46      0.00
  -27    7    5      1.76      0.00
  -25    7    5      1.89      0.00
  -23    7    5      1.66      0.00
  -21    7    5      2.75      0.00
  -19    7    5      2.12      0.00
  -17    7    5      1.01      0.00
  -15    7    5      0.45      0.00
  -13    7    5      1.40      0.00
  -11    7    5     -1.04      0.00
   -9    7    5     -6.19      0.00
   -7    7    5    -12.82      0.00
   -5    7    5    -15.65      0.00
   -3    7    5    -15.10      0.00
   -1    7    5    -14.43      0.00
    1    7    5     -9.62      0.00
    3    7    5     -7.79      0.00
    5    7    5     -3.36      0.00
    7    7    5     -0.19      0.00
    9    7    5      1.13      0.00
   11    7    5      3.03      0.00
   13    7    5      2.41      0.00
   15    7    5      3.13      0.00
   17    7    5      1.99      0.00
   19    7    5      0.10      0.00
   21    7    5     -1.26      0.00
   23    7    5     -0.81      0.00
   25    7    5      1.65      0.00
  -26    8    5     -1.26      0.00
  -24    8    5     -2.22      0.00
  -22    8    5     -2.85      0.00
  -20    8    5     -4.42      0.00
  -18    8    5     -2.37      0.00
  -16    8    5     -0.52      0.00
  -14    8    5     -0.43      0.00
  -12    8    5     -1.36      0.00
  -10    8    5      0.99      0.00
   -8    8    5      4.77      0.00
   -6    8    5      8.93      0.00
   -4    8    5     12.43      0.00
   -2    8    5     11.85      0.00
    0    8    5     12.40      0.00
    2    8    5     10.79      0.00
    4    8    5      6.74      0.00
    6    8    5      2.39      0.00
    8    8    5      0.57      0.00
   10    8    5     -0.86      0.00
   12    8    5     -0.90      0.00
   14    8    5     -3.25      0.00
   16    8    5     -4.64      0.00
   18    8    5     -3.72      0.00
   20    8    5     -0.95      0.00
   22    8    5     -0.17      0.00
   24    8    5     -1.48      0.00
  -27    9    5      1.40      0.00
  -25    9    5      0.37      0.00
  -23    9    5      2.78      0.00
  -21    9    5      3.77      0.00
  -19    9    5      2.82      0.00
  -17    9    5      1.29      0.00
  -15    9    5     -0.12      0.00
  -13    9    5     -0.11      0.00
  -11    9    5      1.42      0.00
   -9    9    5      0.84      0.00
   -7    9    5     -2.96      0.00
   -5    9    5     -4.99      0.00
   -3    9    5     -6.10      0.00
   -1    9    5     -6.46      0.00
    1    9    5     -5.33      0.00
    3    9    5     -1.21      0.00
    5    9    5      0.51      0.00
    7    9    5      3.06      0.00
    9    9    5      0.26      0.00
   11    9    5     -2.74      0.00
   13    9    5      0.28      0.00
   15    9    5      2.12      0.00
   17    9    5      3.56      0.00
   19    9    5      1.79      0.00
   21    9    5     -0.07      0.00
   23    9    5     -0.47      0.00
   25    9    5      0.53      0.00
  -26   10    5     -1.02      0.00
  -24   10    5     -1.99      0.00
  -22   10    5     -4.20      0.00
  -20   10    5     -4.62      0.00
  -18   10    5     -3.98      0.00
  -16   10    5     -1.43      0.00
  -14   10    5     -1.27      0.00
  -12   10    5     -2.69      0.00
  -10   10    5     -3.33      0.00
   -8   10    5     -2.99      0.00
   -6   10    5     -0.63      0.00
   -4   10    5     -0.01      0.00
   -2   10    5      2.04      0.00
    0   10    5      2.47      0.00
    2   10    5      0.85      0.00
    4   10    5     -1.94      0.00
    6   10    5     -2.38      0.00
    8   10    5     -1.08      0.00
   10   10    5      0.96      0.00
   12   10    5      0.90      0.00
   14   10    5     -1.97      0.00
   16   10    5     -3.91      0.00
   18   10    5     -2.68      0.00
   20   10    5     -0.12      0.00
   22   10    5      1.17      0.00
   24   10    5      0.85      0.00
  -25   11    5      1.08      0.00
  -23   11    5      1.90      0.00
  -21   11    5      4.21      0.00
  -19   11    5      4.85      0.00
  -17   11    5      2.55      0.00
  -15   11    5      1.97      0.00
  -13   11    5      1.88      0.00
  -11   11    5      2.56      0.00
   -9   11    5      2.62      0.00
   -7   11    5      4.88      0.00
   -5   11    5      4.76      0.00
   -3   11    5      3.88      0.00
   -1   11    5      5.13      0.00
    1   11    5      5.07      0.00
    3   11    5      5.58      0.00
    5   11    5      8.00      0.00
    7   11    5      3.36      0.00
    9   11    5      0.44      0.00
   11   11    5     -0.07      0.00
   13   11    5     -0.94      0.00
   15   11    5      1.90      0.00
   17   11    5      1.19      0.00
   19   11    5     -0.56      0.00
   21   11    5     -1.95      0.00
   23   11    5     -1.66      0.00
  -24   12    5      0.19      0.00
  -22   12    5     -2.16      0.00
  -20   12    5     -3.35      0.00
  -18   12    5     -3.73      0.00
  -16   12    5     -3.91      0.00
  -14   12    5     -2.37      0.00
  -12   12    5     -1.57      0.00
  -10   12    5     -3.41      0.00
   -8   12    5     -4.73      0.00
   -6   12    5     -7.14      0.00
   -4   12    5     -7.53      0.00
   -2   12    5     -5.45      0.00
    0   12    5     -4.61      0.00
    2   12    5     -5.65      0.00
    4   12    5     -4.13      0.00
    6   12    5     -4.55      0.00
    8   12    5     -2.20      0.00
   10   12    5      0.54      0.00
   12   12    5     -1.80      0.00
   14   12    5     -2.20      0.00
   16   12    5     -1.73      0.00
   18   12    5     -0.05      0.00
   20   12    5      1.51      0.00
   22   12    5      2.37      0.00
   24   12    5      1.55      0.00
  -25   13    5     -2.57      0.00
  -23   13    5     -1.13      0.00
  -21   13    5      0.27      0.00
  -19   13    5      2.11      0.00
  -17   13    5      3.09      0.00
  -15   13    5      0.97      0.00
  -13   13    5      0.11      0.00
  -11   13    5     -0.73      0.00
   -9   13    5      2.43      0.00
   -7   13    5      5.93      0.00
   -5   13    5      8.79      0.00
   -3   13    5     10.24      0.00
   -1   13    5      8.50      0.00
    1   13    5      7.49      0.00
    3   13    5      8.64      0.00
    5   13    5      4.82      0.00
    7   13    5      2.08      0.00
    9   13    5      0.38      0.00
   11   13    5     -1.92      0.00
   13   13    5      0.35      0.00
   15   13    5      0.28      0.00
   17   13    5      0.44      0.00
   19   13    5     -0.72      0.00
   21   13    5     -1.76      0.00
   23   13    5     -1.48      0.00
  -24   14    5      2.79      0.00
  -22   14    5      2.47      0.00
  -20   14    5     -0.28      0.00
  -18   14    5     -1.31      0.00
  -16   14    5     -1.37      0.00
  -14   14    5     -1.17      0.00
  -12   14    5     -0.68      0.00
  -10   14    5     -0.77      0.00
   -8   14    5     -3.91      0.00
   -6   14    5     -5.93      0.00
   -4   14    5     -6.32      0.00
   -2   14    5     -6.38      0.00
    0   14    5     -4.81      0.00
    2   14    5     -2.76      0.00
    4   14    5     -3.08      0.00
    6   14    5     -0.15      0.00
    8   14    5      1.30      0.00
   10   14    5      0.12      0.00
   12   14    5      1.52      0.00
   14   14    5     -0.25      0.00
   16   14    5     -1.08      0.00
   18   14    5     -0.83      0.00
   20   14    5     -0.47      0.00
   22   14    5     -0.47      0.00
  -23   15    5     -3.35      0.00
  -21   15    5     -1.73      0.00
  -19   15    5     -0.91      0.00
  -17   15    5     -0.76      0.00
  -15   15    5     -0.80      0.00
  -13   15    5     -2.64      0.00
  -11   15    5     -1.70      0.00
   -9   15    5     -1.38      0.00
   -7   15    5      0.43      0.00
   -5   15    5      4.13      0.00
   -3   15    5      5.45      0.00
   -1   15    5      5.91      0.00
    1   15    5      5.83      0.00
    3   15    5      0.13      0.00
    5   15    5     -0.86      0.00
    7   15    5     -0.53      0.00
    9   15    5     -3.27      0.00
   11   15    5     -1.00      0.00
   13   15    5     -1.87      0.00
   15   15    5     -0.84      0.00
   17   15    5      0.11      0.00
   19   15    5      0.97      0.00
   21   15    5      1.64      0.00
  -22   16    5      1.64      0.00
  -20   16    5      1.02      0.00
  -18   16    5      0.17      0.00
  -16   16    5      1.18      0.00
  -14   16    5      1.62      0.00
  -12   16    5      1.24      0.00
  -10   16    5      0.94      0.00
   -8   16    5      1.39      0.00
   -6   16    5     -0.08      0.00
   -4   16    5     -1.53      0.00
   -2   16    5     -3.02      0.00
    0   16    5     -1.16      0.00
    2   16    5      3.02      0.00
    4   16    5      4.86      0.00
    6   16    5      4.43      0.00
    8   16    5      1.28      0.00
   10   16    5      0.41      0.00
   12   16    5     -0.62      0.00
   14   16    5     -0.75      0.00
   16   16    5     -1.46      0.00
   18   16    5     -2.70      0.00
   20   16    5     -2.24      0.00
  -21   17    5     -1.63      0.00
  -19   17    5     -0.82      0.00
  -17   17    5     -2.00      0.00
  -15   17    5     -4.08      0.00
  -13   17    5     -3.74      0.00
  -11   17    5     -3.85      0.00
   -9   17    5     -1.54      0.00
   -7   17    5      0.00      0.00
   -5   17    5      1.37      0.00
   -3   17    5      5.03      0.00
   -1   17    5      3.19      0.00
    1   17    5     -2.86      0.00
    3   17    5     -4.67      0.00
    5   17    5     -6.04      0.00
    7   17    5     -3.73      0.00
    9   17    5      1.17      0.00
   11   17    5     -0.66      0.00
   13   17    5      0.96      0.00
   15   17    5      2.19      0.00
   17   17    5      2.51      0.00
   19   17    5      1.74      0.00
  -20   18    5      0.08      0.00
  -18   18    5      0.75      0.00
  -16   18    5      2.19      0.00
  -14   18    5      4.10      0.00
  -12   18    5      3.09      0.00
  -10   18    5      0.28      0.00
   -8   18    5     -2.10      0.00
   -6   18    5     -3.19      0.00
   -4   18    5     -4.94      0.00
   -2   18    5     -1.57      0.00
    0   18    5      3.79      0.00
    2   18    5      8.83      0.00
    4   18    5     11.97      0.00
    6   18    5      5.65      0.00
    8   18    5      2.80      0.00
   10   18    5      0.88      0.00
   12   18    5     -0.99      0.00
   14   18    5     -3.00      0.00
   16   18    5     -5.27      0.00
   18   18    5     -3.57      0.00
  -17   19    5     -2.17      0.00
  -15   19    5     -3.58      0.00
  -13   19    5     -4.62      0.00
  -11   19    5     -1.79      0.00
   -9   19    5     -0.55      0.00
   -7   19    5      2.56      0.00
   -5   19    5      5.27      0.00
   -3   19    5      3.27      0.00
   -1   19    5      1.89      0.00
    1   19    5     -4.89      0.00
    3   19    5     -9.19      0.00
    5   19    5     -5.81      0.00
    7   19    5     -3.40      0.00
    9   19    5     -2.73      0.00
   11   19    5     -1.02      0.00
   13   19    5     -0.02      0.00
   15   19    5      2.90      0.00
   17   19    5      3.54      0.00
  -16   20    5      2.00      0.00
  -14   20    5      2.31      0.00
  -12   20    5      2.70      0.00
  -10   20    5      2.26      0.00
   -8   20    5      1.30      0.00
   -6   20    5      0.78      0.00
   -4   20    5     -0.28      0.00
   -2   20    5     -0.19      0.00
    0   20    5      4.17      0.00
    2   20    5      7.60      0.00
    4   20    5      6.58      0.00
    6   20    5      6.48      0.00
    8   20    5      2.97      0.00
   10   20    5      2.97      0.00
   12   20    5      1.76      0.00
   14   20    5     -2.09      0.00
  -15   21    5     -1.88      0.00
  -13   21    5     -1.67      0.00
  -11   21    5     -3.07      0.00
   -9   21    5     -2.76      0.00
   -7   21    5     -4.09      0.00
   -5   21    5     -3.83      0.00
   -3   21    5     -0.12      0.00
   -1   21    5     -1.72      0.00
    1   21    5      0.53      0.00
    3   21    5      0.36      0.00
    5   21    5     -0.51      0.00
    7   21    5      0.35      0.00
    9   21    5     -2.81      0.00
   11   21    5     -3.93      0.00
   13   21    5     -1.81      0.00
  -12   22    5      0.48      0.00
  -10   22    5      0.22      0.00
   -8   22    5      1.85      0.00
   -6   22    5      1.95      0.00
   -4   22    5      5.03      0.00
   -2   22    5      4.77      0.00
    0   22    5      2.74      0.00
    4   22    5     -1.50      0.00
    6   22    5     -1.77      0.00
    8   22    5      1.89      0.00
   10   22    5      2.88      0.00
   -9   23    5      1.71      0.00
   -7   23    5      1.50      0.00
   -5   23    5     -0.09      0.00
   -3   23    5     -3.25      0.00
   -1   23    5     -1.67      0.00
    1   23    5      0.71      0.00
    3   23    5      5.14      0.00
    5   23    5      5.88      0.00
    7   23    5      1.82      0.00
   -6   24    5     -1.41      0.00
   -4   24    5     -0.23      0.00
   -2   24    5      3.13      0.00
    0   24    5      2.22      0.00
    2   24    5     -2.42      0.00
    4   24    5     -2.74      0.00
  -28    0    6     -0.85      0.00
  -26    0    6     -1.27      0.00
  -24    0    6     -1.96      0.00
  -22    0    6     -1.67      0.00
  -20    0    6     -4.97      0.00
  -18    0    6     -6.41      0.00
  -16    0    6     -1.41      0.00
  -14    0    6      1.98      0.00
  -12    0    6      1.78      0.00
  -10    0    6     -3.15      0.00
   -8    0    6      0.56      0.00
   -6    0    6      5.43      0.00
   -4    0    6      7.01      0.00
   -2    0    6     -0.62      0.00
    0    0    6    -28.44      0.00
    2    0    6    -32.88      0.00
    4    0    6    -25.02      0.00
    6    0    6    -11.07      0.00
    8    0    6      7.42      0.00
   10    0    6     13.21      0.00
   12    0    6     11.73      0.00
   14    0    6      7.46      0.00
   16    0    6      0.70      0.00
   18    0    6     -2.60      0.00
   20    0    6      1.49      0.00
   22    0    6      2.43      0.00
   24    0    6      0.62      0.00
  -25    1    6      0.70      0.00
  -23    1    6     -0.05      0.00
  -21    1    6      2.23      0.00
  -19    1    6      4.25      0.00
  -17    1    6      2.82      0.00
  -15    1    6     -2.09      0.00
  -13    1    6     -3.85      0.00
  -11    1    6      0.71      0.00
   -9    1    6      5.35      0.00
   -7    1    6      3.44      0.00
   -5    1    6     -1.88      0.00
   -3    1    6      5.72      0.00
   -1    1    6     20.27      0.00
    1    1    6     33.27      0.00
    3    1    6     33.44      0.00
    5    1    6     16.28      0.00
    7    1    6     -0.55      0.00
    9    1    6    -12.40      0.00
   11    1    6    -17.03      0.00
   13    1    6    -14.24      0.00
   15    1    6     -7.09      0.00
   17    1    6     -1.54      0.00
   19    1    6     -0.64      0.00
   21    1    6     -2.77      0.00
   23    1    6     -2.93      0.00
   25    1    6      0.66      0.00
   27    1    6      2.90      0.00
  -26    2    6     -3.21      0.00
  -24    2    6     -1.33      0.00
  -22    2    6     -3.05      0.00
  -20    2    6     -5.13      0.00
  -18    2    6     -4.95      0.00
  -16    2    6     -0.97      0.00
  -14    2    6      4.84      0.00
  -12    2    6      3.34      0.00
  -10    2    6     -1.03      0.00
   -8    2    6     -4.87      0.00
   -6    2    6     -1.01      0.00
   -4    2    6      0.32      0.00
   -2    2    6    -10.70      0.00
    0    2    6    -14.52      0.00
    2    2    6    -20.67      0.00
    4    2    6    -14.66      0.00
    6    2    6     -1.67      0.00
    8    2    6      4.06      0.00
   10    2    6      9.30      0.00
   12    2    6     11.38      0.00
   14    2    6      7.00      0.00
   16    2    6      1.82      0.00
   18    2    6      0.19      0.00
   20    2    6      1.09      0.00
   22    2    6      4.18      0.00
   24    2    6      1.94      0.00
   26    2    6     -0.54      0.00
  -29    3    6      3.54      0.00
  -25    3    6      2.12      0.00
  -23    3    6      1.01      0.00
  -21    3    6      1.66      0.00
  -19    3    6      3.46      0.00
  -17    3    6      0.70      0.00
  -15    3    6     -3.88      0.00
  -13    3    6     -5.49      0.00
  -11    3    6     -2.36      0.00
   -9    3    6      1.98      0.00
   -7    3    6      3.45      0.00
   -5    3    6      8.41      0.00
   -1    3    6     16.05      0.00
    1    3    6     16.89      0.00
    3    3    6      7.52      0.00
    5    3    6      4.90      0.00
    7    3    6     -1.65      0.00
    9    3    6     -5.61      0.00
   11    3    6     -8.69      0.00
   13    3    6     -9.69      0.00
   15    3    6     -6.77      0.00
   17    3    6     -1.62      0.00
   19    3    6     -1.46      0.00
   21    3    6     -3.67      0.00
   23    3    6     -3.40      0.00
   25    3    6     -1.63      0.00
   27    3    6     -0.13      0.00
  -28    4    6     -3.00      0.00
  -26    4    6     -3.11      0.00
  -24    4    6     -1.60      0.00
  -22    4    6     -0.51      0.00
  -20    4    6     -1.85      0.00
  -18    4    6     -1.65      0.00
  -16    4    6      0.66      0.00
  -14    4    6      2.83      0.00
  -12    4    6      3.94      0.00
  -10    4    6      3.89      0.00
   -8    4    6      5.09      0.00
   -6    4    6      5.98      0.00
   -4    4    6      1.23      0.00
   -2    4    6     -0.30      0.00
    0    4    6     -0.81      0.00
    2    4    6      2.93      0.00
    4    4    6      6.08      0.00
    6    4    6      1.19      0.00
    8    4    6     -2.43      0.00
   10    4    6     -1.45      0.00
   12    4    6      0.55      0.00
   14    4    6      2.26      0.00
   16    4    6      0.42      0.00
   18    4    6     -1.09      0.00
   20    4    6      0.36      0.00
   22    4    6      1.47      0.00
   24    4    6      2.25      0.00
   26    4    6     -0.09      0.00
  -27    5    6      2.45      0.00
  -25    5    6      0.97      0.00
  -23    5    6     -0.38      0.00
  -21    5    6     -0.89      0.00
  -19    5    6     -0.63      0.00
  -17    5    6     -1.06      0.00
  -15    5    6     -2.50      0.00
  -13    5    6     -3.06      0.00
  -11    5    6     -3.25      0.00
   -9    5    6     -5.48      0.00
   -7    5    6     -4.61      0.00
   -5    5    6     -3.39      0.00
   -3    5    6      4.36      0.00
   -1    5    6      2.99      0.00
    1    5    6     -3.74      0.00
    3    5    6     -5.39      0.00
    5    5    6     -5.36      0.00
    7    5    6      2.36      0.00
    9    5    6      5.29      0.00
   11    5    6      2.90      0.00
   13    5    6     -1.19      0.00
   15    5    6     -0.95      0.00
   17    5    6     -0.05      0.00
   19    5    6      1.41      0.00
   21    5    6      0.64      0.00
   23    5    6     -0.04      0.00
   25    5    6      0.68      0.00
  -28    6    6     -0.81      0.00
  -26    6    6     -0.50      0.00
  -24    6    6      0.92      0.00
  -22    6    6      1.25      0.00
  -20    6    6      1.24      0.00
  -18    6    6      0.82      0.00
  -16    6    6      0.93      0.00
  -14    6    6      0.35      0.00
  -12    6    6      0.62      0.00
  -10    6    6      2.19      0.00
   -8    6    6      5.77      0.00
   -6    6    6      5.16      0.00
   -4    6    6      5.09      0.00
   -2    6    6      4.61      0.00
    0    6    6      7.23      0.00
    2    6    6     13.21      0.00
    4    6    6      8.68      0.00
    6    6    6      0.81      0.00
    8    6    6     -6.62      0.00
   10    6    6     -8.28      0.00
   12    6    6     -3.82      0.00
   14    6    6     -2.13      0.00
   16    6    6     -2.49      0.00
   18    6    6     -3.61      0.00
   20    6    6     -3.05      0.00
   22    6    6     -2.21      0.00
   24    6    6     -2.66      0.00
   26    6    6     -1.31      0.00
  -27    7    6      0.12      0.00
  -25    7    6     -0.61      0.00
  -23    7    6     -2.53      0.00
  -21    7    6     -2.26      0.00
  -19    7    6     -2.81      0.00
  -17    7    6     -2.23      0.00
  -15    7    6     -1.62      0.00
  -13    7    6     -0.30      0.00
  -11    7    6      0.82      0.00
   -9    7    6      3.08      0.00
   -7    7    6      3.02      0.00
   -5    7    6      5.17      0.00
   -3    7    6      6.10      0.00
   -1    7    6      3.21      0.00
    1    7    6     -0.27      0.00
    3    7    6     -2.81      0.00
    5    7    6      0.16      0.00
    7    7    6      4.58      0.00
    9    7    6      5.81      0.00
   11    7    6      1.97      0.00
   13    7    6      0.44      0.00
   15    7    6      0.38      0.00
   17    7    6      2.57      0.00
   19    7    6      2.46      0.00
   21    7    6      2.04      0.00
   23    7    6      1.15      0.00
   25    7    6      1.13      0.00
  -26    8    6      0.16      0.00
  -24    8    6      0.58      0.00
  -22    8    6      2.82      0.00
  -20    8    6      2.61      0.00
  -18    8    6      1.16      0.00
  -16    8    6      0.13      0.00
  -14    8    6     -1.24      0.00
  -12    8    6     -4.18      0.00
  -10    8    6     -5.38      0.00
   -8    8    6     -5.93      0.00
   -6    8    6     -4.68      0.00
   -4    8    6     -3.72      0.00
   -2    8    6     -2.30      0.00
    0    8    6     -0.31      0.00
    2    8    6     -0.32      0.00
    4    8    6     -0.08      0.00
    6    8    6     -4.12      0.00
    8    8    6     -4.24      0.00
   10    8    6     -3.33      0.00
   12    8    6     -1.91      0.00
   14    8    6     -0.72      0.00
   16    8    6     -3.12      0.00
   18    8    6     -3.84      0.00
   20    8    6     -2.80      0.00
   22    8    6     -0.69      0.00
   24    8    6      0.05      0.00
  -27    9    6      0.37      0.00
  -25    9    6     -0.61      0.00
  -23    9    6     -1.84      0.00
  -21    9    6     -3.65      0.00
  -19    9    6     -2.53      0.00
  -17    9    6     -1.65      0.00
  -15    9    6      0.95      0.00
  -13    9    6      3.07      0.00
  -11    9    6      6.06      0.00
   -9    9    6      7.82      0.00
   -7    9    6      8.98      0.00
   -5    9    6      9.15      0.00
   -3    9    6      7.61      0.00
   -1    9    6      9.14      0.00
    1    9    6      8.59      0.00
    3    9    6      6.77      0.00
    5    9    6      5.13      0.00
    7    9    6      4.01      0.00
    9    9    6      2.11      0.00
   11    9    6      0.22      0.00
   13    9    6     -1.84      0.00
   15    9    6     -1.08      0.00
   17    9    6      0.45      0.00
   19    9    6      0.94      0.00
   21    9    6     -0.68      0.00
   23    9    6     -1.21      0.00
   25    9    6     -0.52      0.00
  -26   10    6     -0.06      0.00
  -24   10    6      1.64      0.00
  -22   10    6      1.14      0.00
  -20   10    6      1.76      0.00
  -18   10    6      0.95      0.00
  -16   10    6     -1.96      0.00
  -14   10    6     -3.30      0.00
  -12   10    6     -3.90      0.00
  -10   10    6     -5.55      0.00
   -8   10    6     -6.95      0.00
   -6   10    6     -5.27      0.00
   -4   10    6     -4.57      0.00
   -2   10    6     -5.10      0.00
    0   10    6     -4.45      0.00
    2   10    6     -4.43      0.00
    4   10    6     -3.10      0.00
    6   10    6      0.16      0.00
    8   10    6     -2.70      0.00
   10   10    6     -1.44      0.00
   12   10    6      0.74      0.00
   14   10    6      0.47      0.00
   16   10    6      0.74      0.00
   18   10    6     -0.62      0.00
   20   10    6     -0.13      0.00
   22   10    6      0.75      0.00
   24   10    6      0.93      0.00
  -25   11    6     -1.29      0.00
  -23   11    6     -2.41      0.00
  -21   11    6     -2.83      0.00
  -19   11    6     -1.83      0.00
  -17   11    6      0.45      0.00
  -15   11    6      0.77      0.00
  -13   11    6      1.84      0.00
  -11   11    6      2.70      0.00
   -9   11    6      3.97      0.00
   -7   11    6      6.34      0.00
   -5   11    6      6.82      0.00
   -3   11    6      7.96      0.00
   -1   11    6      8.87      0.00
    1   11    6      7.92      0.00
    3   11    6      4.46      0.00
    5   11    6      2.94      0.00
    7   11    6      0.13      0.00
    9   11    6      0.04      0.00
   11   11    6     -1.00      0.00
   13   11    6     -4.34      0.00
   15   11    6     -4.02      0.00
   17   11    6     -2.10      0.00
   19   11    6     -1.02      0.00
   21   11    6     -1.71      0.00
   23   11    6     -1.65      0.00
  -24   12    6      1.70      0.00
  -22   12    6      2.92      0.00
  -20   12    6      1.51      0.00
  -18   12    6      0.49      0.00
  -16   12    6      0.63      0.00
  -14   12    6     -0.20      0.00
  -12   12    6      0.31      0.00
  -10   12    6     -0.40      0.00
   -8   12    6     -1.05      0.00
   -6   12    6     -3.90      0.00
   -4   12    6     -5.24      0.00
   -2   12    6     -4.75      0.00
    0   12    6     -4.91      0.00
    2   12    6     -1.94      0.00
    4   12    6      2.01      0.00
    6   12    6      0.58      0.00
    8   12    6      1.51      0.00
   10   12    6      1.90      0.00
   12   12    6      2.78      0.00
   14   12    6      4.68      0.00
   16   12    6      1.76      0.00
   18   12    6      0.21      0.00
   20   12    6      0.33      0.00
   22   12    6      1.32      0.00
  -25   13    6     -1.70      0.00
  -23   13    6     -1.83      0.00
  -21   13    6     -1.30      0.00
  -19   13    6     -2.33      0.00
  -17   13    6     -2.33      0.00
  -15   13    6     -1.14      0.00
  -13   13    6     -1.11      0.00
  -11   13    6     -0.99      0.00
   -9   13    6      0.07      0.00
   -7   13    6      0.74      0.00
   -5   13    6      4.04      0.00
   -3   13    6      7.19      0.00
   -1   13    6      6.08      0.00
    1   13    6      3.95      0.00
    3   13    6      2.27      0.00
    5   13    6     -1.45      0.00
    7   13    6      0.92      0.00
    9   13    6     -0.62      0.00
   11   13    6     -4.91      0.00
   13   13    6     -4.68      0.00
   15   13    6     -4.22      0.00
   17   13    6     -1.28      0.00
   19   13    6      0.19      0.00
   21   13    6     -0.09      0.00
  -24   14    6      0.84      0.00
  -22   14    6      0.06      0.00
  -20   14    6      1.46      0.00
  -18   14    6      2.57      0.00
  -16   14    6      2.79      0.00
  -14   14    6      2.45      0.00
  -12   14    6      0.56      0.00
  -10   14    6      2.21      0.00
   -8   14    6      2.48      0.00
   -6   14    6      1.13      0.00
   -4   14    6     -0.78      0.00
   -2   14    6     -2.68      0.00
    0   14    6     -0.18      0.00
    2   14    6      4.26      0.00
    4   14    6      1.22      0.00
    6   14    6      0.26      0.00
    8   14    6     -0.57      0.00
   10   14    6     -1.06      0.00
   12   14    6      3.03      0.00
   14   14    6      1.99      0.00
   16   14    6      0.87      0.00
   18   14    6     -0.86      0.00
   20   14    6     -0.63      0.00
   22   14    6     -0.12      0.00
  -23   15    6      1.20      0.00
  -21   15    6      0.71      0.00
  -19   15    6     -0.45      0.00
  -17   15    6     -3.15      0.00
  -15   15    6     -3.17      0.00
  -13   15    6     -1.31      0.00
  -11   15    6     -0.90      0.00
   -9   15    6     -2.04      0.00
   -7   15    6     -1.11      0.00
   -5   15    6      0.83      0.00
   -3   15    6      2.48      0.00
   -1   15    6      1.00      0.00
    1   15    6     -2.09      0.00
    3   15    6     -2.58      0.00
    5   15    6      1.79      0.00
    7   15    6      3.09      0.00
    9   15    6      1.76      0.00
   11   15    6      0.24      0.00
   13   15    6     -2.00      0.00
   15   15    6      0.05      0.00
   17   15    6      0.96      0.00
   19   15    6      0.36      0.00
   21   15    6      0.15      0.00
  -22   16    6     -1.50      0.00
  -20   16    6     -1.10      0.00
  -18   16    6      1.27      0.00
  -16   16    6      2.74      0.00
  -14   16    6      1.84      0.00
  -12   16    6      1.22      0.00
  -10   16    6     -0.92      0.00
   -8   16    6     -0.66      0.00
   -6   16    6     -1.38      0.00
   -4   16    6     -2.95      0.00
   -2   16    6      1.13      0.00
    0   16    6      5.24      0.00
    2   16    6      3.11      0.00
    4   16    6      2.21      0.00
    6   16    6     -3.44      0.00
    8   16    6     -4.46      0.00
   10   16    6      1.73      0.00
   12   16    6      0.29      0.00
   14   16    6     -0.10      0.00
   16   16    6     -1.51      0.00
   18   16    6     -0.64      0.00
   20   16    6      0.33      0.00
  -21   17    6      2.00      0.00
  -19   17    6      0.94      0.00
  -17   17    6     -0.63      0.00
  -15   17    6     -2.59      0.00
  -13   17    6     -1.77      0.00
  -11   17    6      0.69      0.00
   -9   17    6      3.07      0.00
   -7   17    6      5.07      0.00
   -5   17    6      6.17      0.00
   -3   17    6      2.22      0.00
   -1   17    6     -1.30      0.00
    1   17    6     -4.25      0.00
    3   17    6     -2.02      0.00
    5   17    6      3.18      0.00
    7   17    6      1.23      0.00
   11   17    6     -5.01      0.00
   13   17    6     -2.99      0.00
   15   17    6     -0.20      0.00
   17   17    6      0.08      0.00
   19   17    6     -0.34      0.00
  -20   18    6     -1.22      0.00
  -18   18    6     -0.59      0.00
  -16   18    6      0.51      0.00
  -14   18    6      1.09      0.00
  -12   18    6     -0.78      0.00
  -10   18    6     -1.68      0.00
   -8   18    6     -4.82      0.00
   -6   18    6     -4.77      0.00
   -4   18    6     -1.98      0.00
   -2   18    6     -0.46      0.00
    0   18    6      2.49      0.00
    2   18    6      1.48      0.00
    4   18    6     -3.97      0.00
    6   18    6     -2.16      0.00
    8   18    6      2.74      0.00
   10   18    6      4.95      0.00
   12   18    6      6.94      0.00
   14   18    6      2.60      0.00
   16   18    6      0.61      0.00
   18   18    6      0.84      0.00
  -17   19    6      0.25      0.00
  -15   19    6      0.65      0.00
  -13   19    6      0.23      0.00
  -11   19    6      0.85      0.00
   -9   19    6      1.37      0.00
   -7   19    6      0.60      0.00
   -5   19    6     -0.76      0.00
   -3   19    6     -0.67      0.00
   -1   19    6     -1.44      0.00
    1   19    6      2.54      0.00
    3   19    6      5.53      0.00
    5   19    6      3.13      0.00
    7   19    6      1.76      0.00
    9   19    6     -4.78      0.00
   11   19    6     -5.67      0.00
   13   19    6     -3.27      0.00
   15   19    6     -1.88      0.00
  -16   20    6     -0.22      0.00
  -14   20    6     -1.30      0.00
  -12   20    6     -1.14      0.00
  -10   20    6     -1.85      0.00
   -8   20    6      1.65      0.00
   -6   20    6      3.31      0.00
   -4   20    6      4.08      0.00
   -2   20    6      3.27      0.00
    0   20    6     -4.50      0.00
    2   20    6     -7.57      0.00
    4   20    6     -7.83      0.00
    6   20    6     -5.31      0.00
    8   20    6      0.62      0.00
   10   20    6      3.16      0.00
   12   20    6      1.60      0.00
   14   20    6      0.82      0.00
  -15   21    6      0.54      0.00
  -13   21    6      2.96      0.00
  -11   21    6      3.84      0.00
   -9   21    6      3.15      0.00
   -7   21    6      0.19      0.00
   -5   21    6     -4.49      0.00
   -3   21    6     -3.88      0.00
   -1   21    6      0.89      0.00
    1   21    6      5.60      0.00
    3   21    6      9.07      0.00
    5   21    6      7.72      0.00
    7   21    6      2.48      0.00
    9   21    6      1.90      0.00
   11   21    6      0.80      0.00
   13   21    6      1.27      0.00
  -12   22    6     -3.63      0.00
  -10   22    6     -4.76      0.00
   -8   22    6     -4.47      0.00
   -6   22    6     -0.02      0.00
   -4   22    6      2.71      0.00
   -2   22    6      0.09      0.00
    0   22    6     -2.08      0.00
    2   22    6     -6.70      0.00
    6   22    6     -2.83      0.00
    8   22    6     -2.20      0.00
   10   22    6     -1.40      0.00
   -7   23    6      1.72      0.00
   -5   23    6      0.33      0.00
   -3   23    6     -2.05      0.00
   -1   23    6      0.98      0.00
    1   23    6      2.66      0.00
    3   23    6      1.12      0.00
    5   23    6      1.77      0.00
    7   23    6      1.63      0.00
   -4   24    6      1.52      0.00
   -2   24    6      0.50      0.00
    0   24    6      0.44      0.00
    2   24    6      2.12      0.00
  -25    1    7     -0.77      0.00
  -23    1    7      1.34      0.00
  -21    1    7      0.46      0.00
  -19    1    7     -0.28      0.00
  -17    1    7     -1.21      0.00
  -15    1    7     -1.92      0.00
  -13    1    7      0.01      0.00
  -11    1    7     -0.44      0.00
   -9    1    7      1.25      0.00
   -7    1    7      1.69      0.00
   -5    1    7      8.09      0.00
   -3    1    7      7.97      0.00
   -1    1    7     -0.98      0.00
    1    1    7     -0.11      0.00
    3    1    7     -5.68      0.00
    5    1    7     -3.32      0.00
    7    1    7      2.09      0.00
    9    1    7      1.25      0.00
   11    1    7      0.98      0.00
   13    1    7      1.13      0.00
   15    1    7     -1.50      0.00
   17    1    7     -1.31      0.00
   19    1    7      0.11      0.00
   21    1    7     -0.59      0.00
   23    1    7      0.28      0.00
   25    1    7     -0.31      0.00
  -28    2    7      0.41      0.00
  -26    2    7      0.35      0.00
  -24    2    7     -0.78      0.00
  -22    2    7     -2.12      0.00
  -20    2    7     -1.24      0.00
  -18    2    7      2.29      0.00
  -16    2    7      2.28      0.00
  -14    2    7      0.26      0.00
  -12    2    7     -0.68      0.00
  -10    2    7      1.01      0.00
   -8    2    7     -0.58      0.00
   -6    2    7     -6.20      0.00
   -4    2    7     -8.34      0.00
   -2    2    7     -9.23      0.00
    0    2    7      1.40      0.00
    2    2    7      6.91      0.00
    4    2    7      3.38      0.00
    6    2    7      1.13      0.00
    8    2    7     -4.00      0.00
   10    2    7     -5.29      0.00
   12    2    7     -3.64      0.00
   14    2    7     -1.15      0.00
   16    2    7      0.37      0.00
   18    2    7      1.31      0.00
   20    2    7     -0.33      0.00
   22    2    7     -0.83      0.00
   24    2    7      0.43      0.00
   26    2    7      0.46      0.00
  -25    3    7     -0.97      0.00
  -23    3    7      1.04      0.00
  -21    3    7      2.07      0.00
  -19    3    7     -1.06      0.00
  -17    3    7     -2.65      0.00
  -15    3    7      0.82      0.00
  -13    3    7      3.63      0.00
  -11    3    7      2.60      0.00
   -9    3    7     -2.79      0.00
   -7    3    7     -2.20      0.00
   -5    3    7      1.99      0.00
   -1    3    7      1.82      0.00
    1    3    7     -6.80      0.00
    3    3    7     -6.48      0.00
    5    3    7     -0.97      0.00
    7    3    7      2.87      0.00
    9    3    7      7.41      0.00
   11    3    7      8.95      0.00
   13    3    7      5.37      0.00
   15    3    7      2.59      0.00
   17    3    7      0.31      0.00
   19    3    7      0.72      0.00
   21    3    7      2.31      0.00
   23    3    7      0.93      0.00
   25    3    7      0.40      0.00
  -28    4    7      1.83      0.00
  -26    4    7      2.34      0.00
  -24    4    7     -0.55      0.00
  -22    4    7     -2.90      0.00
  -20    4    7     -1.52      0.00
  -18    4    7      1.11      0.00
  -16    4    7      1.15      0.00
  -14    4    7     -3.90      0.00
  -12    4    7     -6.18      0.00
  -10    4    7     -2.84      0.00
   -8    4    7      1.65      0.00
   -6    4    7      1.42      0.00
   -4    4    7     -5.15      0.00
   -2    4    7     -1.57      0.00
    0    4    7     -0.40      0.00
    2    4    7      2.35      0.00
    4    4    7      4.30      0.00
    6    4    7     -1.56      0.00
    8    4    7     -4.68      0.00
   10    4    7     -8.02      0.00
   12    4    7     -8.69      0.00
   14    4    7     -5.91      0.00
   16    4    7     -1.34      0.00
   18    4    7     -1.44      0.00
   20    4    7     -1.69      0.00
   22    4    7     -2.09      0.00
   24    4    7     -1.21      0.00
   26    4    7      0.00      0.00
  -27    5    7     -3.24      0.00
  -25    5    7     -1.87      0.00
  -23    5    7      1.30      0.00
  -21    5    7      2.78      0.00
  -19    5    7      1.22      0.00
  -17    5    7     -0.26      0.00
  -15    5    7      2.53      0.00
  -13    5    7      7.68      0.00
  -11    5    7      8.68      0.00
   -9    5    7      5.37      0.00
   -7    5    7      2.60      0.00
   -5    5    7      0.90      0.00
   -3    5    7      4.07      0.00
   -1    5    7      2.16      0.00
    1    5    7     -0.06      0.00
    3    5    7      0.17      0.00
    5    5    7     -2.07      0.00
    7    5    7      0.37      0.00
    9    5    7      3.64      0.00
   11    5    7      5.82      0.00
   13    5    7      7.20      0.00
   15    5    7      4.24      0.00
   17    5    7      2.13      0.00
   19    5    7      1.96      0.00
   21    5    7      2.63      0.00
   23    5    7      1.97      0.00
   25    5    7     -0.43      0.00
  -28    6    7      1.27      0.00
  -26    6    7      1.90      0.00
  -24    6    7      0.74      0.00
  -22    6    7     -2.05      0.00
  -20    6    7     -1.98      0.00
  -18    6    7     -0.48      0.00
  -16    6    7     -0.44      0.00
  -14    6    7     -4.18      0.00
  -12    6    7     -9.67      0.00
  -10    6    7    -12.01      0.00
   -8    6    7     -9.14      0.00
   -6    6    7     -7.51      0.00
   -4    6    7     -5.10      0.00
   -2    6    7     -6.80      0.00
    0    6    7     -6.55      0.00
    2    6    7     -4.38      0.00
    4    6    7     -1.93      0.00
    6    6    7      2.18      0.00
    8    6    7      3.12      0.00
   10    6    7      0.58      0.00
   12    6    7     -2.99      0.00
   14    6    7     -2.80      0.00
   16    6    7     -2.54      0.00
   18    6    7     -1.11      0.00
   20    6    7     -1.90      0.00
   22    6    7     -0.49      0.00
   24    6    7      0.78      0.00
   26    6    7      1.39      0.00
  -27    7    7     -0.80      0.00
  -25    7    7     -1.17      0.00
  -23    7    7     -0.12      0.00
  -21    7    7      2.13      0.00
  -19    7    7      1.79      0.00
  -17    7    7      0.21      0.00
  -15    7    7      2.13      0.00
  -13    7    7      7.63      0.00
  -11    7    7     11.98      0.00
   -9    7    7     12.47      0.00
   -7    7    7      7.53      0.00
   -5    7    7      4.52      0.00
   -3    7    7      1.67      0.00
   -1    7    7      3.81      0.00
    1    7    7      6.11      0.00
    3    7    7      3.14      0.00
    5    7    7      0.48      0.00
    7    7    7     -4.14      0.00
    9    7    7     -2.98      0.00
   11    7    7      0.12      0.00
   13    7    7      1.88      0.00
   15    7    7      2.80      0.00
   17    7    7      2.44      0.00
   19    7    7      2.46      0.00
   21    7    7      1.19      0.00
   23    7    7     -0.53      0.00
   25    7    7     -1.39      0.00
  -26    8    7      1.14      0.00
  -24    8    7      0.84      0.00
  -22    8    7     -0.12      0.00
  -20    8    7     -1.36      0.00
  -18    8    7      0.21      0.00
  -16    8    7     -0.61      0.00
  -14    8    7     -3.89      0.00
  -12    8    7     -9.14      0.00
  -10    8    7    -10.85      0.00
   -8    8    7     -9.27      0.00
   -6    8    7     -2.92      0.00
   -4    8    7      0.92      0.00
   -2    8    7     -0.17      0.00
    0    8    7     -1.34      0.00
    2    8    7     -2.85      0.00
    4    8    7     -0.89      0.00
    6    8    7      2.94      0.00
    8    8    7      3.89      0.00
   10    8    7      2.66      0.00
   12    8    7      1.78      0.00
   14    8    7      0.30      0.00
   16    8    7      0.31      0.00
   18    8    7     -1.02      0.00
   20    8    7     -1.19      0.00
   22    8    7     -1.07      0.00
   24    8    7      1.15      0.00
  -27    9    7     -1.25      0.00
  -25    9    7     -1.85      0.00
  -23    9    7      0.21      0.00
  -21    9    7      0.05      0.00
  -19    9    7      0.43      0.00
  -17    9    7      0.78      0.00
  -15    9    7      1.15      0.00
  -13    9    7      3.90      0.00
  -11    9    7      6.82      0.00
   -9    9    7      5.19      0.00
   -7    9    7      1.00      0.00
   -5    9    7     -3.12      0.00
   -3    9    7     -5.22      0.00
   -1    9    7     -5.76      0.00
    1    9    7     -3.80      0.00
    3    9    7     -3.13      0.00
    5    9    7     -2.93      0.00
    7    9    7     -0.26      0.00
    9    9    7     -1.40      0.00
   11    9    7      0.37      0.00
   13    9    7      0.18      0.00
   15    9    7     -1.20      0.00
   17    9    7     -0.34      0.00
   19    9    7      0.94      0.00
   21    9    7      1.95      0.00
   23    9    7      1.15      0.00
  -26   10    7      1.17      0.00
  -24   10    7      1.59      0.00
  -22   10    7      0.72      0.00
  -20   10    7      0.30      0.00
  -18   10    7     -0.10      0.00
  -16   10    7      0.21      0.00
  -14   10    7     -2.22      0.00
  -12   10    7     -2.94      0.00
  -10   10    7     -2.82      0.00
   -8   10    7     -0.66      0.00
   -6   10    7      1.06      0.00
   -4   10    7      2.02      0.00
   -2   10    7      4.74      0.00
    0   10    7      6.05      0.00
    2   10    7      5.91      0.00
    4   10    7      3.53      0.00
    6   10    7      2.20      0.00
    8   10    7      0.73      0.00
   10   10    7      2.01      0.00
   12   10    7      3.11      0.00
   14   10    7      3.31      0.00
   16   10    7      2.94      0.00
   18   10    7      1.43      0.00
   20   10    7     -0.72      0.00
   22   10    7     -1.54      0.00
   24   10    7     -0.89      0.00
  -25   11    7     -0.95      0.00
  -23   11    7     -2.15      0.00
  -21   11    7     -0.61      0.00
  -19   11    7     -1.65      0.00
  -17   11    7     -1.60      0.00
  -15   11    7      0.81      0.00
  -13   11    7      1.35      0.00
  -11   11    7     -0.30      0.00
   -9   11    7     -2.70      0.00
   -7   11    7     -2.78      0.00
   -5   11    7     -3.20      0.00
   -3   11    7     -3.87      0.00
   -1   11    7     -6.11      0.00
    1   11    7     -9.25      0.00
    3   11    7     -5.36      0.00
    5   11    7      0.34      0.00
    7   11    7      0.98      0.00
    9   11    7      2.31      0.00
   11   11    7     -0.58      0.00
   13   11    7     -1.82      0.00
   15   11    7     -1.32      0.00
   17   11    7     -2.23      0.00
   19   11    7     -1.08      0.00
   21   11    7      0.69      0.00
   23   11    7      1.58      0.00
  -24   12    7     -0.34      0.00
  -22   12    7      0.28      0.00
  -20   12    7      2.12      0.00
  -18   12    7      2.27      0.00
  -16   12    7      0.25      0.00
  -14   12    7     -1.19      0.00
  -12   12    7     -1.69      0.00
  -10   12    7      1.48      0.00
   -8   12    7      3.81      0.00
   -6   12    7      1.31      0.00
   -4   12    7     -0.28      0.00
   -2   12    7      2.20      0.00
    0   12    7      4.71      0.00
    2   12    7      5.29      0.00
    4   12    7      2.29      0.00
    6   12    7     -3.58      0.00
    8   12    7      0.15      0.00
   10   12    7      1.91      0.00
   12   12    7      1.56      0.00
   14   12    7      2.46      0.00
   16   12    7      2.01      0.00
   18   12    7      2.32      0.00
   20   12    7      0.85      0.00
   22   12    7     -0.93      0.00
  -25   13    7      0.48      0.00
  -23   13    7      0.93      0.00
  -21   13    7     -1.61      0.00
  -19   13    7     -2.37      0.00
  -17   13    7     -1.92      0.00
  -15   13    7      0.70      0.00
  -13   13    7      2.92      0.00
  -11   13    7     -0.63      0.00
   -9   13    7     -4.55      0.00
   -7   13    7     -6.37      0.00
   -5   13    7     -3.98      0.00
   -3   13    7     -2.90      0.00
   -1   13    7     -6.20      0.00
    1   13    7     -5.82      0.00
    3   13    7     -0.24      0.00
    5   13    7      2.92      0.00
    7   13    7      5.61      0.00
    9   13    7      2.67      0.00
   11   13    7      0.72      0.00
   13   13    7      2.58      0.00
   15   13    7      0.88      0.00
   17   13    7     -0.96      0.00
   19   13    7     -2.54      0.00
   21   13    7     -0.48      0.00
  -24   14    7     -1.00      0.00
  -22   14    7     -0.85      0.00
  -20   14    7      0.31      0.00
  -18   14    7      1.99      0.00
  -16   14    7      0.15      0.00
  -14   14    7     -2.25      0.00
  -12   14    7     -0.93      0.00
  -10   14    7      2.15      0.00
   -8   14    7      3.44      0.00
   -6   14    7      2.63      0.00
   -4   14    7      0.45      0.00
   -2   14    7      0.56      0.00
    0   14    7      2.96      0.00
    2   14    7      0.70      0.00
    4   14    7     -3.51      0.00
    6   14    7     -0.55      0.00
    8   14    7      0.95      0.00
   10   14    7      3.80      0.00
   12   14    7      2.59      0.00
   14   14    7     -2.14      0.00
   16   14    7     -0.39      0.00
   18   14    7      2.29      0.00
   20   14    7      2.50      0.00
  -23   15    7      1.03      0.00
  -21   15    7      0.80      0.00
  -19   15    7     -0.34      0.00
  -17   15    7      0.37      0.00
  -15   15    7      1.21      0.00
  -13   15    7      0.64      0.00
  -11   15    7     -0.06      0.00
   -9   15    7     -2.86      0.00
   -7   15    7     -2.25      0.00
   -5   15    7     -0.86      0.00
   -3   15    7     -2.35      0.00
   -1   15    7     -0.93      0.00
    1   15    7      1.84      0.00
    3   15    7      2.09      0.00
    5   15    7      5.57      0.00
    7   15    7     -1.46      0.00
    9   15    7     -7.73      0.00
   11   15    7     -4.15      0.00
   15   15    7      2.96      0.00
   17   15    7      0.60      0.00
   19   15    7     -1.81      0.00
  -22   16    7     -1.06      0.00
  -20   16    7     -1.26      0.00
  -18   16    7     -1.56      0.00
  -16   16    7     -0.51      0.00
  -14   16    7     -0.05      0.00
  -12   16    7      0.41      0.00
  -10   16    7      0.37      0.00
   -8   16    7     -1.26      0.00
   -6   16    7     -3.06      0.00
   -4   16    7     -3.08      0.00
   -2   16    7     -3.96      0.00
    0   16    7     -4.44      0.00
    2   16    7     -5.83      0.00
    4   16    7     -3.03      0.00
    6   16    7      4.25      0.00
   12   16    7      8.95      0.00
   14   16    7      2.57      0.00
   16   16    7     -1.00      0.00
   18   16    7      0.59      0.00
  -21   17    7      1.85      0.00
  -19   17    7      2.05      0.00
  -17   17    7      1.56      0.00
  -15   17    7      0.65      0.00
  -13   17    7     -0.52      0.00
  -11   17    7     -1.97      0.00
   -9   17    7     -0.38      0.00
   -7   17    7     -0.91      0.00
   -5   17    7     -0.46      0.00
   -3   17    7      2.92      0.00
   -1   17    7      4.99      0.00
    1   17    7      7.98      0.00
    3   17    7      9.30      0.00
    5   17    7     -0.79      0.00
   11   17    7    -11.82      0.00
   13   17    7     -2.75      0.00
   15   17    7      1.15      0.00
   17   17    7      1.89      0.00
  -20   18    7     -1.30      0.00
  -18   18    7     -1.62      0.00
  -16   18    7     -1.77      0.00
  -14   18    7     -0.29      0.00
  -12   18    7      0.60      0.00
  -10   18    7      1.30      0.00
   -8   18    7      2.42      0.00
   -6   18    7      2.15      0.00
   -4   18    7     -1.01      0.00
   -2   18    7     -5.47      0.00
    0   18    7    -12.87      0.00
    2   18    7    -11.32      0.00
    4   18    7     -4.99      0.00
    8   18    7      9.03      0.00
   10   18    7      7.55      0.00
   12   18    7      4.08      0.00
   14   18    7     -0.45      0.00
   16   18    7     -2.18      0.00
  -17   19    7      0.52      0.00
  -15   19    7      0.56      0.00
  -13   19    7     -0.29      0.00
  -11   19    7     -1.06      0.00
   -9   19    7     -4.49      0.00
   -7   19    7     -5.05      0.00
   -5   19    7     -5.19      0.00
   -3   19    7      0.08      0.00
   -1   19    7      9.64      0.00
    1   19    7     12.48      0.00
    3   19    7     10.22      0.00
    5   19    7      6.13      0.00
    7   19    7      0.58      0.00
    9   19    7      0.05      0.00
   11   19    7      3.23      0.00
   13   19    7      3.55      0.00
   15   19    7      4.94      0.00
  -16   20    7      0.23      0.00
  -14   20    7     -1.02      0.00
  -12   20    7     -0.97      0.00
  -10   20    7     -0.78      0.00
   -8   20    7      0.72      0.00
   -6   20    7      1.79      0.00
   -4   20    7     -1.49      0.00
   -2   20    7     -7.84      0.00
    0   20    7    -11.13      0.00
    2   20    7    -12.69      0.00
    4   20    7     -8.32      0.00
    6   20    7     -3.14      0.00
    8   20    7     -4.44      0.00
   10   20    7     -2.78      0.00
   12   20    7     -4.15      0.00
   14   20    7     -4.20      0.00
  -15   21    7     -1.17      0.00
  -13   21    7      0.61      0.00
  -11   21    7      0.71      0.00
   -9   21    7      1.06      0.00
   -7   21    7     -1.30      0.00
   -5   21    7      0.66      0.00
   -3   21    7      3.21      0.00
   -1   21    7      5.04      0.00
    1   21    7      7.83      0.00
    3   21    7      5.06      0.00
    5   21    7      4.60      0.00
    7   21    7      5.19      0.00
    9   21    7      4.98      0.00
   11   21    7      5.02      0.00
  -10   22    7     -0.36      0.00
   -8   22    7      0.06      0.00
   -6   22    7     -1.32      0.00
   -4   22    7     -2.40      0.00
   -2   22    7     -5.20      0.00
    0   22    7     -4.08      0.00
    2   22    7     -1.78      0.00
    4   22    7     -2.05      0.00
    6   22    7     -1.88      0.00
    8   22    7     -1.40      0.00
   10   22    7     -2.47      0.00
   -9   23    7     -3.38      0.00
   -7   23    7     -3.56      0.00
   -5   23    7     -2.13      0.00
   -3   23    7     -0.92      0.00
   -1   23    7     -1.63      0.00
    1   23    7     -4.02      0.00
    5   23    7     -0.92      0.00
    7   23    7      1.73      0.00
   -2   24    7      2.40      0.00
    0   24    7      3.69      0.00
  -26    0    8      1.86      0.00
  -24    0    8      1.64      0.00
  -22    0    8      1.27      0.00
  -20    0    8     -1.05      0.00
  -18    0    8     -0.24      0.00
  -16    0    8     -0.73      0.00
  -14    0    8     -4.32      0.00
  -12    0    8     -6.33      0.00
  -10    0    8     -7.76      0.00
   -8    0    8     -5.84      0.00
   -6    0    8     -6.74      0.00
   -4    0    8     -0.19      0.00
   -2    0    8      1.36      0.00
    0    0    8     -3.76      0.00
    2    0    8     -4.51      0.00
    4    0    8    -14.05      0.00
    6    0    8    -15.19      0.00
    8    0    8     -9.64      0.00
   10    0    8     -6.13      0.00
   12    0    8     -2.48      0.00
   14    0    8      1.78      0.00
   16    0    8      0.48      0.00
   18    0    8     -0.51      0.00
   20    0    8     -1.92      0.00
   22    0    8     -3.34      0.00
   24    0    8     -1.25      0.00
   26    0    8     -0.02      0.00
  -27    1    8      0.31      0.00
  -25    1    8     -0.88      0.00
  -23    1    8      0.12      0.00
  -21    1    8      1.26      0.00
  -19    1    8      0.91      0.00
  -17    1    8      0.83      0.00
  -15    1    8      1.55      0.00
  -13    1    8      3.72      0.00
  -11    1    8      4.38      0.00
   -9    1    8      3.14      0.00
   -7    1    8     -0.53      0.00
   -5    1    8     -3.26      0.00
   -3    1    8     -3.38      0.00
   -1    1    8     -2.81      0.00
    1    1    8      5.78      0.00
    3    1    8     14.31      0.00
    5    1    8     18.69      0.00
    7    1    8     19.23      0.00
    9    1    8     14.40      0.00
   11    1    8      9.03      0.00
   13    1    8      4.42      0.00
   15    1    8      0.96      0.00
   17    1    8     -0.23      0.00
   19    1    8      1.45      0.00
   21    1    8      2.18      0.00
   23    1    8      1.49      0.00
   25    1    8      0.24      0.00
  -26    2    8      2.09      0.00
  -24    2    8      2.05      0.00
  -22    2    8     -0.24      0.00
  -20    2    8     -0.74      0.00
  -18    2    8     -1.98      0.00
  -16    2    8     -3.38      0.00
  -14    2    8     -5.34      0.00
  -12    2    8     -8.43      0.00
  -10    2    8     -6.92      0.00
   -8    2    8     -3.31      0.00
   -6    2    8      4.25      0.00
   -4    2    8      5.43      0.00
   -2    2    8      4.24      0.00
    0    2    8      2.53      0.00
    2    2    8     -7.32      0.00
    4    2    8     -9.68      0.00
    6    2    8    -10.07      0.00
    8    2    8    -10.09      0.00
   10    2    8     -6.45      0.00
   12    2    8     -2.90      0.00
   14    2    8     -2.11      0.00
   16    2    8      0.45      0.00
   18    2    8     -0.66      0.00
   20    2    8     -2.24      0.00
   22    2    8     -1.87      0.00
   24    2    8     -1.45      0.00
   26    2    8      0.68      0.00
  -27    3    8     -0.71      0.00
  -25    3    8     -0.71      0.00
  -23    3    8     -0.38      0.00
  -21    3    8      1.66      0.00
  -19    3    8      3.30      0.00
  -17    3    8      2.70      0.00
  -15    3    8      3.79      0.00
  -13    3    8      5.01      0.00
  -11    3    8      5.69      0.00
   -9    3    8      1.38      0.00
   -7    3    8     -4.00      0.00
   -5    3    8     -8.63      0.00
   -3    3    8     -9.98      0.00
   -1    3    8     -0.40      0.00
    1    3    8      3.18      0.00
    3    3    8      7.94      0.00
    5    3    8     11.67      0.00
    7    3    8      9.73      0.00
    9    3    8      9.08      0.00
   11    3    8      6.89      0.00
   13    3    8      3.66      0.00
   15    3    8      1.19      0.00
   17    3    8      0.41      0.00
   19    3    8     -1.10      0.00
   21    3    8      0.37      0.00
   23    3    8      0.97      0.00
   25    3    8     -0.14      0.00
  -26    4    8      1.07      0.00
  -24    4    8      1.46      0.00
  -22    4    8     -0.33      0.00
  -20    4    8     -3.44      0.00
  -18    4    8     -4.29      0.00
  -16    4    8     -3.32      0.00
  -14    4    8     -3.95      0.00
  -12    4    8     -5.96      0.00
  -10    4    8     -8.27      0.00
   -8    4    8     -5.25      0.00
   -6    4    8     -1.10      0.00
   -4    4    8     -0.57      0.00
   -2    4    8     -1.03      0.00
    0    4    8     -5.32      0.00
    2    4    8     -3.67      0.00
    4    4    8     -0.05      0.00
    6    4    8      0.59      0.00
    8    4    8      3.07      0.00
   10    4    8      3.41      0.00
   12    4    8      1.70      0.00
   14    4    8      1.81      0.00
   16    4    8      0.62      0.00
   18    4    8      1.43      0.00
   20    4    8      1.67      0.00
   22    4    8      0.85      0.00
   24    4    8      0.14      0.00
   26    4    8     -0.43      0.00
  -27    5    8      0.67      0.00
  -25    5    8     -0.44      0.00
  -23    5    8      0.18      0.00
  -21    5    8      2.10      0.00
  -19    5    8      3.92      0.00
  -17    5    8      3.04      0.00
  -15    5    8      0.51      0.00
  -13    5    8      1.41      0.00
  -11    5    8      3.43      0.00
   -9    5    8      3.98      0.00
   -7    5    8      1.39      0.00
   -5    5    8     -0.67      0.00
   -3    5    8      3.63      0.00
   -1    5    8      4.69      0.00
    1    5    8      6.55      0.00
    3    5    8      3.80      0.00
    5    5    8     -0.62      0.00
    7    5    8     -2.16      0.00
    9    5    8     -3.57      0.00
   11    5    8     -4.36      0.00
   13    5    8     -2.94      0.00
   15    5    8     -0.53      0.00
   17    5    8     -1.39      0.00
   19    5    8     -2.06      0.00
   21    5    8     -3.87      0.00
   23    5    8     -2.07      0.00
   25    5    8     -0.51      0.00
  -28    6    8     -0.87      0.00
  -26    6    8     -0.18      0.00
  -24    6    8     -0.52      0.00
  -22    6    8     -1.76      0.00
  -20    6    8     -2.64      0.00
  -18    6    8     -1.91      0.00
  -16    6    8     -0.51      0.00
  -14    6    8      0.39      0.00
  -12    6    8     -1.68      0.00
  -10    6    8     -3.75      0.00
   -8    6    8     -4.30      0.00
   -6    6    8     -5.07      0.00
   -4    6    8     -4.75      0.00
   -2    6    8     -9.19      0.00
    0    6    8     -6.70      0.00
    2    6    8     -0.91      0.00
    4    6    8      3.02      0.00
    6    6    8      8.01      0.00
    8    6    8      8.39      0.00
   10    6    8      9.26      0.00
   12    6    8      8.27      0.00
   14    6    8      3.64      0.00
   16    6    8      0.79      0.00
   18    6    8      1.27      0.00
   20    6    8      3.52      0.00
   22    6    8      3.15      0.00
   24    6    8      1.12      0.00
  -27    7    8      0.86      0.00
  -25    7    8      1.81      0.00
  -23    7    8      2.63      0.00
  -21    7    8      2.76      0.00
  -19    7    8      1.10      0.00
  -17    7    8     -0.02      0.00
  -15    7    8     -1.34      0.00
  -13    7    8     -1.81      0.00
  -11    7    8     -1.93      0.00
   -9    7    8     -2.06      0.00
   -7    7    8     -3.17      0.00
   -5    7    8      0.24      0.00
   -3    7    8      3.06      0.00
   -1    7    8      3.65      0.00
    1    7    8      1.41      0.00
    3    7    8     -2.58      0.00
    5    7    8     -3.37      0.00
    7    7    8     -2.31      0.00
    9    7    8     -4.21      0.00
   11    7    8     -5.21      0.00
   13    7    8     -3.53      0.00
   15    7    8     -1.42      0.00
   17    7    8      0.16      0.00
   19    7    8     -2.10      0.00
   21    7    8     -2.59      0.00
   23    7    8     -2.35      0.00
   25    7    8      0.01      0.00
  -26    8    8     -0.82      0.00
  -24    8    8     -2.57      0.00
  -22    8    8     -1.84      0.00
  -20    8    8     -1.16      0.00
  -18    8    8      0.73      0.00
  -16    8    8      2.58      0.00
  -14    8    8      2.26      0.00
  -12    8    8      2.94      0.00
  -10    8    8      4.46      0.00
   -8    8    8      3.22      0.00
   -6    8    8     -0.50      0.00
   -4    8    8     -5.87      0.00
   -2    8    8     -4.97      0.00
    0    8    8     -0.70      0.00
    2    8    8      5.55      0.00
    4    8    8      7.38      0.00
    6    8    8      5.19      0.00
    8    8    8      5.69      0.00
   10    8    8      5.06      0.00
   12    8    8      5.79      0.00
   14    8    8      3.54      0.00
   16    8    8      1.06      0.00
   18    8    8      1.12      0.00
   20    8    8      2.30      0.00
   22    8    8      2.26      0.00
   24    8    8      0.43      0.00
  -27    9    8      0.53      0.00
  -25    9    8      2.07      0.00
  -23    9    8      3.03      0.00
  -21    9    8      1.82      0.00
  -19    9    8     -0.45      0.00
  -17    9    8     -2.62      0.00
  -15    9    8     -2.27      0.00
  -13    9    8     -4.19      0.00
  -11    9    8     -6.89      0.00
   -9    9    8     -9.07      0.00
   -7    9    8     -4.27      0.00
   -5    9    8      1.74      0.00
   -3    9    8      4.74      0.00
   -1    9    8      2.59      0.00
    1    9    8     -3.74      0.00
    3    9    8     -5.35      0.00
    5    9    8     -3.21      0.00
    7    9    8     -1.03      0.00
    9    9    8     -1.33      0.00
   11    9    8     -2.29      0.00
   13    9    8     -2.06      0.00
   15    9    8     -0.07      0.00
   17    9    8      0.18      0.00
   19    9    8     -0.87      0.00
   21    9    8     -2.15      0.00
   23    9    8     -0.84      0.00
  -26   10    8     -0.54      0.00
  -24   10    8     -1.13      0.00
  -22   10    8     -2.01      0.00
  -20   10    8      1.92      0.00
  -18   10    8      3.47      0.00
  -16   10    8      2.71      0.00
  -14   10    8      3.08      0.00
  -12   10    8      4.88      0.00
  -10   10    8      6.97      0.00
   -8   10    8      5.76      0.00
   -6   10    8     -0.17      0.00
   -4   10    8     -6.48      0.00
   -2   10    8     -5.75      0.00
    0   10    8      0.36      0.00
    2   10    8      2.78      0.00
    4   10    8      4.30      0.00
    6   10    8      2.84      0.00
    8   10    8      1.13      0.00
   10   10    8      4.13      0.00
   12   10    8      2.32      0.00
   14   10    8      0.85      0.00
   16   10    8      0.15      0.00
   18   10    8      0.41      0.00
   20   10    8      1.56      0.00
   22   10    8      1.91      0.00
  -25   11    8      2.02      0.00
  -23   11    8      2.01      0.00
  -21   11    8      0.40      0.00
  -19   11    8     -1.97      0.00
  -17   11    8     -3.36      0.00
  -15   11    8     -3.34      0.00
  -13   11    8     -2.57      0.00
  -11   11    8     -6.05      0.00
   -9   11    8     -7.60      0.00
   -7   11    8     -5.28      0.00
   -5   11    8     -0.37      0.00
   -3   11    8      2.75      0.00
   -1   11    8      1.84      0.00
    1   11    8     -1.06      0.00
    3   11    8     -0.60      0.00
    5   11    8      1.38      0.00
    7   11    8     -0.39      0.00
    9   11    8      1.41      0.00
   11   11    8      0.61      0.00
   13   11    8      1.01      0.00
   15   11    8      2.09      0.00
   17   11    8      1.05      0.00
   19   11    8     -0.34      0.00
   21   11    8     -1.18      0.00
   23   11    8     -1.02      0.00
  -24   12    8     -1.06      0.00
  -22   12    8     -0.09      0.00
  -20   12    8     -0.03      0.00
  -18   12    8      2.82      0.00
  -16   12    8      3.05      0.00
  -14   12    8      1.53      0.00
  -12   12    8      2.24      0.00
  -10   12    8      3.91      0.00
   -8   12    8      5.12      0.00
   -6   12    8      2.87      0.00
   -4   12    8      1.05      0.00
   -2   12    8     -0.23      0.00
    0   12    8     -1.56      0.00
    2   12    8     -0.37      0.00
    4   12    8     -0.18      0.00
    6   12    8     -0.15      0.00
    8   12    8      2.50      0.00
   10   12    8      0.98      0.00
   12   12    8      0.09      0.00
   14   12    8     -0.63      0.00
   16   12    8     -1.23      0.00
   18   12    8      0.33      0.00
   20   12    8      1.06      0.00
   22   12    8      1.14      0.00
  -23   13    8      0.61      0.00
  -21   13    8      1.10      0.00
  -19   13    8     -0.08      0.00
  -17   13    8     -0.96      0.00
  -15   13    8     -2.11      0.00
  -13   13    8     -2.99      0.00
  -11   13    8     -2.32      0.00
   -9   13    8     -3.51      0.00
   -7   13    8     -5.25      0.00
   -5   13    8     -4.80      0.00
   -3   13    8     -3.56      0.00
   -1   13    8     -2.18      0.00
    1   13    8      1.90      0.00
    3   13    8      1.13      0.00
    5   13    8     -1.81      0.00
    7   13    8     -0.52      0.00
    9   13    8     -4.36      0.00
   11   13    8     -1.76      0.00
   13   13    8      1.03      0.00
   15   13    8      0.73      0.00
   17   13    8      1.08      0.00
   19   13    8     -0.25      0.00
   21   13    8     -1.01      0.00
  -24   14    8      1.56      0.00
  -22   14    8     -0.35      0.00
  -20   14    8     -1.49      0.00
  -18   14    8     -1.95      0.00
  -16   14    8      1.01      0.00
  -14   14    8      2.80      0.00
  -12   14    8      1.45      0.00
  -10   14    8      0.46      0.00
   -8   14    8     -0.43      0.00
   -6   14    8      1.96      0.00
   -4   14    8      3.44      0.00
   -2   14    8      0.58      0.00
    0   14    8     -0.36      0.00
    2   14    8     -0.35      0.00
    4   14    8     -0.20      0.00
    6   14    8      6.99      0.00
    8   14    8      7.75      0.00
   10   14    8      7.41      0.00
   12   14    8      6.85      0.00
   14   14    8      1.84      0.00
   16   14    8      0.15      0.00
   18   14    8     -0.96      0.00
   20   14    8      0.50      0.00
  -23   15    8     -1.85      0.00
  -21   15    8      1.31      0.00
  -19   15    8      3.39      0.00
  -17   15    8      1.36      0.00
  -15   15    8     -1.25      0.00
  -13   15    8     -2.17      0.00
  -11   15    8     -0.39      0.00
   -9   15    8      1.97      0.00
   -7   15    8      0.86      0.00
   -5   15    8     -2.27      0.00
   -3   15    8     -2.62      0.00
   -1   15    8     -0.62      0.00
    1   15    8     -0.15      0.00
    3   15    8     -1.15      0.00
    5   15    8     -2.71      0.00
    7   15    8     -6.20      0.00
    9   15    8     -5.16      0.00
   11   15    8     -5.89      0.00
   13   15    8     -4.97      0.00
   15   15    8     -0.59      0.00
   17   15    8      1.00      0.00
   19   15    8      1.32      0.00
  -22   16    8      0.23      0.00
  -20   16    8     -2.32      0.00
  -18   16    8     -2.84      0.00
  -16   16    8     -1.13      0.00
  -14   16    8      1.41      0.00
  -12   16    8      1.14      0.00
  -10   16    8     -2.01      0.00
   -8   16    8     -1.25      0.00
   -6   16    8      0.03      0.00
   -4   16    8      0.58      0.00
   -2   16    8      1.69      0.00
    0   16    8     -0.69      0.00
    2   16    8     -0.19      0.00
    4   16    8      4.95      0.00
    6   16    8     -0.22      0.00
    8   16    8      0.60      0.00
   14   16    8      2.84      0.00
   16   16    8     -0.55      0.00
   18   16    8     -1.88      0.00
  -21   17    8      0.02      0.00
  -19   17    8      2.16      0.00
  -17   17    8      2.78      0.00
  -15   17    8      1.18      0.00
  -13   17    8      0.65      0.00
  -11   17    8      0.72      0.00
   -9   17    8     -0.21      0.00
   -7   17    8     -1.58      0.00
   -5   17    8     -2.98      0.00
   -3   17    8     -2.09      0.00
   -1   17    8      1.05      0.00
    1   17    8     -0.30      0.00
    3   17    8      1.29      0.00
    5   17    8      4.36      0.00
    7   17    8      8.63      0.00
    9   17    8     11.56      0.00
   11   17    8      7.97      0.00
   13   17    8      4.37      0.00
   15   17    8      1.96      0.00
   17   17    8      2.65      0.00
  -18   18    8     -0.99      0.00
  -16   18    8     -1.56      0.00
  -14   18    8     -1.37      0.00
  -12   18    8     -0.83      0.00
  -10   18    8      0.67      0.00
   -8   18    8      0.82      0.00
   -6   18    8      2.79      0.00
   -4   18    8      1.44      0.00
   -2   18    8     -1.42      0.00
    0   18    8     -0.38      0.00
    2   18    8     -0.85      0.00
    4   18    8     -5.95      0.00
    6   18    8     -8.84      0.00
    8   18    8    -15.33      0.00
   10   18    8    -14.99      0.00
   12   18    8     -7.34      0.00
   14   18    8     -4.88      0.00
   16   18    8     -1.82      0.00
  -17   19    8      0.61      0.00
  -15   19    8      1.69      0.00
  -13   19    8      1.40      0.00
  -11   19    8      1.29      0.00
   -9   19    8      0.69      0.00
   -7   19    8      0.25      0.00
   -5   19    8      1.62      0.00
   -3   19    8      2.49      0.00
   -1   19    8      1.25      0.00
    1   19    8      3.44      0.00
    3   19    8      3.16      0.00
    5   19    8      8.35      0.00
    7   19    8     14.74      0.00
    9   19    8     12.47      0.00
   11   19    8     10.52      0.00
   13   19    8      5.05      0.00
   15   19    8      2.25      0.00
  -16   20    8     -0.26      0.00
  -14   20    8     -1.39      0.00
  -12   20    8     -1.24      0.00
  -10   20    8     -1.61      0.00
   -8   20    8     -1.24      0.00
   -6   20    8     -4.06      0.00
   -4   20    8     -3.08      0.00
   -2   20    8     -1.86      0.00
    0   20    8     -0.78      0.00
    2   20    8      0.77      0.00
    4   20    8     -2.46      0.00
    6   20    8     -6.40      0.00
    8   20    8     -6.40      0.00
   10   20    8     -4.47      0.00
   12   20    8     -2.21      0.00
  -13   21    8      1.05      0.00
  -11   21    8     -0.36      0.00
   -9   21    8      0.27      0.00
   -7   21    8      1.48      0.00
   -5   21    8      2.36      0.00
   -3   21    8      2.31      0.00
   -1   21    8     -0.55      0.00
    1   21    8     -3.23      0.00
    3   21    8     -1.16      0.00
    5   21    8     -0.31      0.00
    7   21    8     -0.30      0.00
    9   21    8      0.78      0.00
   11   21    8     -2.02      0.00
  -12   22    8     -0.33      0.00
  -10   22    8      1.62      0.00
   -8   22    8      0.88      0.00
   -6   22    8      0.95      0.00
   -4   22    8     -0.02      0.00
   -2   22    8      2.51      0.00
    0   22    8      5.09      0.00
    2   22    8      4.61      0.00
    4   22    8      4.71      0.00
    6   22    8      2.60      0.00
    8   22    8      2.62      0.00
   -7   23    8     -0.85      0.00
   -5   23    8     -0.04      0.00
   -3   23    8     -2.27      0.00
   -1   23    8     -3.26      0.00
    3   23    8     -6.19      0.00
    5   23    8     -4.09      0.00
  -27    1    9     -1.73      0.00
  -25    1    9     -1.62      0.00
  -23    1    9     -1.36      0.00
  -21    1    9     -0.98      0.00
  -19    1    9      1.60      0.00
  -17    1    9      0.93      0.00
  -15    1    9      0.78      0.00
  -13    1    9      2.34      0.00
  -11    1    9      2.36      0.00
   -9    1    9      1.10      0.00
   -7    1    9     -2.21      0.00
   -5    1    9     -0.50      0.00
   -3    1    9     -2.67      0.00
   -1    1    9     -1.63      0.00
    1    1    9     -0.42      0.00
    3    1    9     -5.34      0.00
    5    1    9     -3.18      0.00
    7    1    9     -1.71      0.00
    9    1    9     -2.86      0.00
   11    1    9     -2.22      0.00
   13    1    9     -1.33      0.00
   15    1    9     -2.46      0.00
   17    1    9      0.36      0.00
   19    1    9      0.41      0.00
   21    1    9      0.50      0.00
   23    1    9      0.83      0.00
   25    1    9     -0.42      0.00
  -28    2    9      1.49      0.00
  -26    2    9      2.94      0.00
  -24    2    9      4.56      0.00
  -22    2    9      2.47      0.00
  -20    2    9     -0.35      0.00
  -18    2    9     -1.40      0.00
  -16    2    9     -1.37      0.00
  -14    2    9     -1.05      0.00
  -12    2    9     -2.71      0.00
  -10    2    9     -2.55      0.00
   -8    2    9     -1.15      0.00
   -6    2    9      2.18      0.00
   -4    2    9      0.96      0.00
   -2    2    9     -1.40      0.00
    0    2    9      3.23      0.00
    2    2    9      4.42      0.00
    4    2    9      6.86      0.00
    6    2    9      7.44      0.00
    8    2    9      5.75      0.00
   10    2    9      6.34      0.00
   12    2    9      6.39      0.00
   14    2    9      4.29      0.00
   16    2    9      2.18      0.00
   18    2    9      0.75      0.00
   20    2    9     -1.43      0.00
   22    2    9     -1.09      0.00
   24    2    9     -0.13      0.00
  -25    3    9     -4.49      0.00
  -23    3    9     -4.23      0.00
  -21    3    9     -0.75      0.00
  -19    3    9      0.94      0.00
  -17    3    9      0.51      0.00
  -15    3    9     -0.89      0.00
  -13    3    9     -0.50      0.00
  -11    3    9      2.49      0.00
   -9    3    9      2.77      0.00
   -7    3    9      3.69      0.00
   -5    3    9      3.90      0.00
   -3    3    9      5.65      0.00
   -1    3    9      4.58      0.00
    1    3    9     -3.30      0.00
    3    3    9     -6.92      0.00
    5    3    9     -9.17      0.00
    7    3    9    -11.19      0.00
    9    3    9    -10.28      0.00
   11    3    9    -10.07      0.00
   13    3    9     -8.87      0.00
   15    3    9     -3.80      0.00
   17    3    9     -1.79      0.00
   19    3    9      0.70      0.00
   21    3    9      1.28      0.00
   23    3    9      0.82      0.00
   25    3    9      0.47      0.00
  -28    4    9      1.10      0.00
  -26    4    9      3.46      0.00
  -24    4    9      4.32      0.00
  -22    4    9      3.39      0.00
  -20    4    9      0.67      0.00
  -18    4    9      0.39      0.00
  -16    4    9      2.50      0.00
  -14    4    9      2.28      0.00
  -12    4    9      0.97      0.00
  -10    4    9     -1.25      0.00
   -8    4    9     -1.47      0.00
   -6    4    9     -4.31      0.00
   -4    4    9     -6.23      0.00
   -2    4    9     -4.11      0.00
    0    4    9     -2.64      0.00
    2    4    9      4.88      0.00
    4    4    9      8.05      0.00
    6    4    9      8.92      0.00
    8    4    9     11.34      0.00
   10    4    9     12.55      0.00
   12    4    9     10.48      0.00
   14    4    9      7.07      0.00
   16    4    9      2.73      0.00
   18    4    9     -1.05      0.00
   20    4    9     -1.07      0.00
   22    4    9     -1.72      0.00
   24    4    9     -0.67      0.00
  -27    5    9     -1.50      0.00
  -25    5    9     -1.93      0.00
  -23    5    9     -2.35      0.00
  -21    5    9     -1.99      0.00
  -19    5    9     -1.92      0.00
  -17    5    9     -2.83      0.00
  -15    5    9     -3.90      0.00
  -13    5    9     -2.48      0.00
  -11    5    9     -1.35      0.00
   -9    5    9      1.02      0.00
   -7    5    9      2.39      0.00
   -5    5    9      4.32      0.00
   -3    5    9      6.52      0.00
   -1    5    9      0.76      0.00
    1    5    9     -2.21      0.00
    3    5    9     -5.09      0.00
    5    5    9     -7.57      0.00
    7    5    9     -6.85      0.00
    9    5    9     -9.69      0.00
   11    5    9    -10.00      0.00
   13    5    9     -6.62      0.00
   15    5    9     -3.77      0.00
   17    5    9      0.00      0.00
   19    5    9      2.11      0.00
   21    5    9      2.85      0.00
   23    5    9      1.14      0.00
   25    5    9     -0.45      0.00
  -28    6    9      1.16      0.00
  -26    6    9      1.09      0.00
  -24    6    9      0.89      0.00
  -22    6    9      1.20      0.00
  -20    6    9      2.24      0.00
  -18    6    9      2.84      0.00
  -16    6    9      3.47      0.00
  -14    6    9      3.53      0.00
  -12    6    9      2.70      0.00
  -10    6    9      2.55      0.00
   -8    6    9      1.16      0.00
   -6    6    9     -1.93      0.00
   -4    6    9     -2.46      0.00
   -2    6    9     -1.11      0.00
    0    6    9      3.39      0.00
    2    6    9      5.08      0.00
    4    6    9      3.61      0.00
    6    6    9      3.06      0.00
    8    6    9      4.69      0.00
   10    6    9      4.74      0.00
   12    6    9      5.26      0.00
   14    6    9      3.85      0.00
   16    6    9      1.35      0.00
   18    6    9     -0.77      0.00
   20    6    9     -3.61      0.00
   22    6    9     -2.39      0.00
   24    6    9     -1.00      0.00
  -27    7    9     -0.51      0.00
  -25    7    9     -0.68      0.00
  -23    7    9     -0.98      0.00
  -21    7    9     -1.30      0.00
  -19    7    9     -2.77      0.00
  -17    7    9     -3.46      0.00
  -15    7    9     -2.32      0.00
  -13    7    9     -3.10      0.00
  -11    7    9     -3.27      0.00
   -9    7    9     -2.22      0.00
   -7    7    9      1.52      0.00
   -5    7    9      4.79      0.00
   -3    7    9      1.29      0.00
   -1    7    9     -1.72      0.00
    1    7    9     -6.21      0.00
    3    7    9     -5.42      0.00
    5    7    9     -3.17      0.00
    7    7    9     -3.70      0.00
    9    7    9     -2.80      0.00
   11    7    9     -3.12      0.00
   13    7    9     -2.68      0.00
   15    7    9     -2.22      0.00
   17    7    9     -0.75      0.00
   19    7    9      1.60      0.00
   21    7    9      2.93      0.00
   23    7    9      2.05      0.00
  -26    8    9      0.46      0.00
  -24    8    9      0.61      0.00
  -22    8    9      0.85      0.00
  -20    8    9      1.77      0.00
  -18    8    9      2.51      0.00
  -16    8    9      2.08      0.00
  -14    8    9      3.23      0.00
  -12    8    9      4.76      0.00
  -10    8    9      4.81      0.00
   -8    8    9      0.27      0.00
   -6    8    9     -3.13      0.00
   -4    8    9     -5.25      0.00
   -2    8    9     -1.62      0.00
    0    8    9      3.06      0.00
    2    8    9      2.59      0.00
    4    8    9      2.21      0.00
    6    8    9      2.10      0.00
    8    8    9      1.69      0.00
   10    8    9      1.94      0.00
   12    8    9      0.70      0.00
   14    8    9      0.81      0.00
   16    8    9      1.91      0.00
   18    8    9      0.51      0.00
   20    8    9     -1.41      0.00
   22    8    9     -2.66      0.00
   24    8    9     -0.10      0.00
  -27    9    9     -0.13      0.00
  -25    9    9      0.17      0.00
  -23    9    9      0.01      0.00
  -21    9    9     -1.94      0.00
  -19    9    9     -1.08      0.00
  -17    9    9     -1.02      0.00
  -15    9    9     -2.07      0.00
  -13    9    9     -2.19      0.00
  -11    9    9     -2.65      0.00
   -9    9    9     -0.93      0.00
   -7    9    9      3.24      0.00
   -5    9    9      5.72      0.00
   -3    9    9      4.07      0.00
   -1    9    9      0.31      0.00
    1    9    9     -0.75      0.00
    3    9    9     -2.65      0.00
    5    9    9     -2.32      0.00
    7    9    9     -4.25      0.00
    9    9    9     -4.94      0.00
   11    9    9     -0.80      0.00
   13    9    9     -0.35      0.00
   15    9    9     -0.67      0.00
   17    9    9     -1.39      0.00
   19    9    9      0.06      0.00
   21    9    9      1.56      0.00
   23    9    9      1.28      0.00
  -26   10    9     -0.81      0.00
  -24   10    9     -0.29      0.00
  -22   10    9     -0.04      0.00
  -20   10    9      0.09      0.00
  -18   10    9      0.91      0.00
  -16   10    9      1.77      0.00
  -14   10    9      1.92      0.00
  -12   10    9      2.99      0.00
  -10   10    9      1.49      0.00
   -8   10    9      0.13      0.00
   -6   10    9     -2.76      0.00
   -4   10    9     -2.96      0.00
   -2   10    9     -2.25      0.00
    0   10    9     -2.06      0.00
    2   10    9     -2.24      0.00
    4   10    9     -0.71      0.00
    6   10    9      2.46      0.00
    8   10    9      2.84      0.00
   10   10    9      2.38      0.00
   12   10    9     -0.56      0.00
   14   10    9     -0.37      0.00
   16   10    9      1.87      0.00
   18   10    9      2.65      0.00
   20   10    9      0.75      0.00
   22   10    9     -0.81      0.00
  -25   11    9      1.46      0.00
  -23   11    9      1.20      0.00
  -21   11    9      2.61      0.00
  -19   11    9      0.78      0.00
  -17   11    9      0.63      0.00
  -15   11    9      0.07      0.00
  -13   11    9     -0.44      0.00
  -11   11    9      0.93      0.00
   -9   11    9      2.31      0.00
   -7   11    9      2.61      0.00
   -5   11    9      1.58      0.00
   -3   11    9      2.18      0.00
   -1   11    9      2.10      0.00
    1   11    9      1.05      0.00
    3   11    9      0.85      0.00
    5   11    9     -4.11      0.00
    7   11    9     -7.06      0.00
    9   11    9     -5.66      0.00
   11   11    9     -3.88      0.00
   13   11    9      0.04      0.00
   15   11    9     -0.52      0.00
   17   11    9     -2.61      0.00
   19   11    9     -2.45      0.00
   21   11    9     -0.25      0.00
  -24   12    9     -1.32      0.00
  -22   12    9     -0.97      0.00
  -20   12    9     -1.70      0.00
  -18   12    9     -2.05      0.00
  -16   12    9     -0.07      0.00
  -14   12    9      1.18      0.00
  -12   12    9     -0.30      0.00
  -10   12    9     -0.51      0.00
   -8   12    9     -0.76      0.00
   -6   12    9      0.05      0.00
   -4   12    9      0.74      0.00
   -2   12    9     -0.56      0.00
    0   12    9     -3.62      0.00
    2   12    9     -1.89      0.00
    4   12    9     -1.44      0.00
    6   12    9      0.97      0.00
    8   12    9      6.73      0.00
   10   12    9      3.32      0.00
   12   12    9      2.49      0.00
   14   12    9      1.47      0.00
   16   12    9      1.82      0.00
   18   12    9      3.71      0.00
   20   12    9      3.22      0.00
   22   12    9      1.03      0.00
  -23   13    9      1.37      0.00
  -21   13    9      1.63      0.00
  -19   13    9      3.50      0.00
  -17   13    9      1.83      0.00
  -15   13    9      0.95      0.00
  -13   13    9      1.24      0.00
  -11   13    9      2.39      0.00
   -9   13    9      3.93      0.00
   -7   13    9      2.73      0.00
   -5   13    9      1.80      0.00
   -3   13    9      0.88      0.00
   -1   13    9     -0.28      0.00
    1   13    9      1.10      0.00
    3   13    9      0.62      0.00
    5   13    9     -1.78      0.00
    7   13    9     -1.93      0.00
    9   13    9     -5.48      0.00
   11   13    9     -4.90      0.00
   13   13    9     -2.15      0.00
   15   13    9     -1.04      0.00
   17   13    9     -0.59      0.00
   19   13    9     -1.87      0.00
   21   13    9     -1.32      0.00
  -22   14    9     -0.62      0.00
  -20   14    9     -0.92      0.00
  -18   14    9     -1.24      0.00
  -16   14    9     -1.95      0.00
  -14   14    9     -1.43      0.00
  -12   14    9     -1.50      0.00
  -10   14    9     -2.82      0.00
   -8   14    9     -2.35      0.00
   -6   14    9     -0.99      0.00
   -4   14    9     -0.41      0.00
   -2   14    9      0.05      0.00
    0   14    9      0.18      0.00
    2   14    9     -5.11      0.00
    4   14    9     -8.24      0.00
    6   14    9     -9.80      0.00
    8   14    9    -10.86      0.00
   10   14    9     -2.88      0.00
   12   14    9     -0.72      0.00
   14   14    9     -0.34      0.00
   16   14    9      0.45      0.00
   18   14    9      0.11      0.00
   20   14    9      0.70      0.00
  -21   15    9      0.15      0.00
  -19   15    9      0.32      0.00
  -17   15    9      2.31      0.00
  -15   15    9      3.27      0.00
  -13   15    9      4.22      0.00
  -11   15    9      4.44      0.00
   -9   15    9      3.14      0.00
   -7   15    9      3.49      0.00
   -5   15    9      1.85      0.00
   -3   15    9     -1.08      0.00
   -1   15    9      0.03      0.00
    1   15    9      0.39      0.00
    3   15    9      6.32      0.00
    5   15    9     18.60      0.00
    7   15    9     18.21      0.00
    9   15    9     17.33      0.00
   11   15    9     11.12      0.00
   15   15    9      3.26      0.00
   17   15    9      2.33      0.00
   19   15    9      2.61      0.00
  -20   16    9      1.47      0.00
  -18   16    9      0.25      0.00
  -16   16    9     -2.71      0.00
  -14   16    9     -5.55      0.00
  -12   16    9     -4.63      0.00
  -10   16    9     -1.85      0.00
   -8   16    9     -0.62      0.00
   -6   16    9      0.16      0.00
   -4   16    9      0.24      0.00
   -2   16    9     -0.05      0.00
    0   16    9     -2.71      0.00
    2   16    9    -11.35      0.00
    4   16    9    -22.55      0.00
    6   16    9    -31.86      0.00
    8   16    9    -31.53      0.00
   10   16    9    -24.49      0.00
   14   16    9     -6.01      0.00
   16   16    9     -4.26      0.00
   18   16    9     -3.18      0.00
  -19   17    9     -2.08      0.00
  -17   17    9      1.09      0.00
  -15   17    9      5.70      0.00
  -13   17    9      6.89      0.00
  -11   17    9      4.87      0.00
   -9   17    9      3.28      0.00
   -7   17    9      1.62      0.00
   -5   17    9      2.19      0.00
   -3   17    9      1.81      0.00
   -1   17    9      0.31      0.00
    1   17    9      7.50      0.00
    3   17    9     17.90      0.00
    5   17    9     23.70      0.00
    7   17    9     32.29      0.00
    9   17    9     26.12      0.00
   11   17    9     16.48      0.00
   13   17    9     11.01      0.00
   15   17    9      4.31      0.00
   17   17    9      4.17      0.00
  -18   18    9      1.80      0.00
  -16   18    9     -1.92      0.00
  -14   18    9     -4.82      0.00
  -12   18    9     -4.96      0.00
  -10   18    9     -3.21      0.00
   -8   18    9     -2.74      0.00
   -6   18    9     -4.26      0.00
   -4   18    9     -3.18      0.00
   -2   18    9     -2.94      0.00
    0   18    9     -7.60      0.00
    2   18    9    -12.19      0.00
    4   18    9    -21.68      0.00
    6   18    9    -24.23      0.00
    8   18    9    -20.37      0.00
   10   18    9    -15.78      0.00
   12   18    9     -7.65      0.00
   14   18    9     -3.86      0.00
   16   18    9     -1.95      0.00
  -17   19    9      0.39      0.00
  -15   19    9      4.00      0.00
  -13   19    9      5.81      0.00
  -11   19    9      5.54      0.00
   -9   19    9      5.34      0.00
   -7   19    9      7.24      0.00
   -5   19    9      5.30      0.00
   -3   19    9      3.72      0.00
   -1   19    9      3.22      0.00
    1   19    9      4.67      0.00
    3   19    9      9.02      0.00
    5   19    9     11.76      0.00
    7   19    9      7.61      0.00
    9   19    9      5.94      0.00
   11   19    9      3.41      0.00
   13   19    9     -0.05      0.00
  -16   20    9     -1.26      0.00
  -14   20    9     -3.25      0.00
  -12   20    9     -2.98      0.00
  -10   20    9     -3.13      0.00
   -8   20    9     -3.39      0.00
   -6   20    9     -3.36      0.00
   -4   20    9     -2.49      0.00
   -2   20    9     -0.43      0.00
    0   20    9     -0.48      0.00
    2   20    9     -5.04      0.00
    4   20    9     -3.53      0.00
    6   20    9     -2.74      0.00
    8   20    9     -1.71      0.00
   10   20    9      1.94      0.00
   12   20    9      0.14      0.00
  -13   21    9      3.42      0.00
  -11   21    9      2.93      0.00
   -9   21    9      3.32      0.00
   -7   21    9      2.58      0.00
   -5   21    9      2.62      0.00
   -3   21    9     -1.02      0.00
   -1   21    9     -1.63      0.00
    1   21    9     -1.18      0.00
    3   21    9     -1.46      0.00
    5   21    9     -1.31      0.00
    7   21    9     -2.54      0.00
    9   21    9     -2.61      0.00
  -10   22    9     -0.21      0.00
   -8   22    9     -1.61      0.00
   -6   22    9     -0.92      0.00
   -4   22    9      0.31      0.00
   -2   22    9      0.98      0.00
    0   22    9      2.22      0.00
    2   22    9      1.46      0.00
    4   22    9     -0.39      0.00
    6   22    9      0.21      0.00
    8   22    9      0.33      0.00
   -7   23    9      2.74      0.00
   -5   23    9      2.76      0.00
   -3   23    9      2.36      0.00
   -1   23    9      0.35      0.00
    1   23    9     -0.58      0.00
    3   23    9     -0.67      0.00
  -28    0   10      1.41      0.00
  -26    0   10      0.60      0.00
  -24    0   10      1.13      0.00
  -22    0   10     -0.53      0.00
  -20    0   10     -2.77      0.00
  -18    0   10     -0.93      0.00
  -16    0   10     -1.13      0.00
  -14    0   10     -1.18      0.00
  -12    0   10     -0.24      0.00
  -10    0   10      0.42      0.00
   -8    0   10     -1.45      0.00
   -6    0   10     -6.29      0.00
   -4    0   10     -4.92      0.00
   -2    0   10     -0.87      0.00
    0    0   10     10.65      0.00
    2    0   10     16.63      0.00
    4    0   10      9.64      0.00
    6    0   10      5.03      0.00
    8    0   10      4.42      0.00
   10    0   10      3.97      0.00
   12    0   10      4.54      0.00
   14    0   10      4.56      0.00
   16    0   10      2.40      0.00
   18    0   10      3.06      0.00
   20    0   10     -0.89      0.00
   22    0   10     -3.14      0.00
   24    0   10     -1.50      0.00
  -27    1   10     -1.79      0.00
  -25    1   10     -2.08      0.00
  -23    1   10     -0.42      0.00
  -21    1   10      0.99      0.00
  -19    1   10      1.69      0.00
  -17    1   10      1.38      0.00
  -15    1   10      1.03      0.00
  -13    1   10      1.06      0.00
  -11    1   10      0.01      0.00
   -9    1   10     -0.08      0.00
   -7    1   10      2.01      0.00
   -5    1   10      5.43      0.00
   -3    1   10      0.66      0.00
   -1    1   10    -10.85      0.00
    1    1   10    -18.60      0.00
    3    1   10    -19.54      0.00
    5    1   10    -13.04      0.00
    7    1   10     -8.25      0.00
    9    1   10     -7.47      0.00
   11    1   10     -5.98      0.00
   13    1   10     -3.17      0.00
   15    1   10     -1.96      0.00
   17    1   10     -1.37      0.00
   19    1   10      0.48      0.00
   21    1   10      2.49      0.00
   23    1   10      3.23      0.00
   25    1   10      1.54      0.00
  -28    2   10     -0.56      0.00
  -26    2   10      1.20      0.00
  -24    2   10      0.18      0.00
  -22    2   10     -0.20      0.00
  -20    2   10      0.81      0.00
  -18    2   10      0.58      0.00
  -16    2   10      1.91      0.00
  -14    2   10      2.64      0.00
  -12    2   10      3.38      0.00
  -10    2   10      4.16      0.00
   -8    2   10      0.73      0.00
   -6    2   10     -4.38      0.00
   -4    2   10     -8.45      0.00
   -2    2   10     -1.67      0.00
    0    2   10      6.70      0.00
    2    2   10      8.24      0.00
    4    2   10      7.37      0.00
    6    2   10      4.25      0.00
    8    2   10      3.50      0.00
   10    2   10      6.01      0.00
   12    2   10      4.26      0.00
   14    2   10      1.12      0.00
   16    2   10      2.30      0.00
   18    2   10      0.69      0.00
   20    2   10     -0.20      0.00
   22    2   10     -2.34      0.00
   24    2   10     -2.65      0.00
  -27    3   10     -0.11      0.00
  -25    3   10      0.94      0.00
  -23    3   10      0.40      0.00
  -21    3   10     -0.27      0.00
  -19    3   10     -2.16      0.00
  -17    3   10     -2.39      0.00
  -15    3   10     -1.52      0.00
  -13    3   10     -2.83      0.00
  -11    3   10     -4.40      0.00
   -9    3   10     -4.32      0.00
   -7    3   10      0.49      0.00
   -5    3   10      1.71      0.00
   -3    3   10      0.16      0.00
   -1    3   10     -5.52      0.00
    1    3   10    -12.35      0.00
    3    3   10     -8.92      0.00
    5    3   10     -5.80      0.00
    7    3   10     -5.21      0.00
    9    3   10     -5.11      0.00
   11    3   10     -3.35      0.00
   13    3   10     -0.40      0.00
   15    3   10      2.57      0.00
   17    3   10      1.82      0.00
   19    3   10      0.66      0.00
   21    3   10      2.59      0.00
   23    3   10      2.79      0.00
   25    3   10      1.90      0.00
  -28    4   10     -0.25      0.00
  -26    4   10     -2.24      0.00
  -24    4   10     -2.08      0.00
  -22    4   10     -0.23      0.00
  -20    4   10      2.42      0.00
  -18    4   10      4.01      0.00
  -16    4   10      2.90      0.00
  -14    4   10      1.94      0.00
  -12    4   10      4.03      0.00
  -10    4   10      5.01      0.00
   -8    4   10      4.81      0.00
   -6    4   10      0.74      0.00
   -4    4   10      0.02      0.00
   -2    4   10      3.37      0.00
    0    4   10      2.96      0.00
    2    4   10      2.30      0.00
    4    4   10     -2.72      0.00
    6    4   10     -5.47      0.00
    8    4   10     -1.20      0.00
   10    4   10     -0.23      0.00
   12    4   10     -1.02      0.00
   14    4   10     -1.46      0.00
   16    4   10     -2.40      0.00
   18    4   10     -0.49      0.00
   20    4   10     -0.71      0.00
   22    4   10     -1.10      0.00
   24    4   10     -1.44      0.00
  -27    5   10      0.70      0.00
  -25    5   10      2.37      0.00
  -23    5   10      2.46      0.00
  -21    5   10     -0.19      0.00
  -19    5   10     -1.98      0.00
  -17    5   10     -1.85      0.00
  -15    5   10     -0.27      0.00
  -13    5   10      0.13      0.00
  -11    5   10     -2.32      0.00
   -9    5   10     -3.15      0.00
   -7    5   10     -2.89      0.00
   -5    5   10     -2.46      0.00
   -3    5   10     -5.41      0.00
   -1    5   10     -9.11      0.00
    1    5   10     -6.63      0.00
    3    5   10     -2.00      0.00
    5    5   10      2.08      0.00
    7    5   10      2.89      0.00
    9    5   10      1.97      0.00
   11    5   10      0.98      0.00
   13    5   10      3.43      0.00
   15    5   10      3.25      0.00
   17    5   10      1.96      0.00
   19    5   10      0.99      0.00
   21    5   10     -0.01      0.00
   23    5   10      1.12      0.00
  -28    6   10     -0.44      0.00
  -26    6   10     -0.21      0.00
  -24    6   10     -1.29      0.00
  -22    6   10     -0.84      0.00
  -20    6   10      1.17      0.00
  -18    6   10      1.32      0.00
  -16    6   10     -0.41      0.00
  -14    6   10     -0.24      0.00
  -12    6   10      0.63      0.00
  -10    6   10      3.01      0.00
   -8    6   10      1.85      0.00
   -6    6   10      1.79      0.00
   -4    6   10      3.04      0.00
   -2    6   10      2.63      0.00
    0    6   10      4.10      0.00
    2    6   10     -1.95      0.00
    4    6   10     -6.10      0.00
    6    6   10     -5.82      0.00
    8    6   10     -4.59      0.00
   10    6   10     -1.16      0.00
   12    6   10     -0.85      0.00
   14    6   10     -1.92      0.00
   16    6   10     -0.71      0.00
   18    6   10      1.07      0.00
   20    6   10      1.61      0.00
   22    6   10      0.56      0.00
   24    6   10      0.75      0.00
  -27    7   10     -0.68      0.00
  -25    7   10     -0.92      0.00
  -23    7   10      0.11      0.00
  -21    7   10      0.20      0.00
  -19    7   10      0.19      0.00
  -17    7   10      0.86      0.00
  -15    7   10      0.96      0.00
  -13    7   10      0.29      0.00
  -11    7   10     -0.45      0.00
   -9    7   10     -0.81      0.00
   -7    7   10     -1.12      0.00
   -5    7   10     -0.78      0.00
   -3    7   10     -3.83      0.00
   -1    7   10     -4.66      0.00
    1    7   10     -2.57      0.00
    3    7   10     -0.71      0.00
    5    7   10      1.70      0.00
    7    7   10      0.47      0.00
    9    7   10     -2.32      0.00
   11    7   10     -0.49      0.00
   13    7   10      0.68      0.00
   15    7   10      1.60      0.00
   17    7   10      0.36      0.00
   19    7   10     -1.44      0.00
   21    7   10     -1.06      0.00
   23    7   10     -1.23      0.00
  -26    8   10      0.50      0.00
  -24    8   10      1.05      0.00
  -22    8   10      0.32      0.00
  -20    8   10     -1.61      0.00
  -18    8   10     -0.71      0.00
  -16    8   10      0.07      0.00
  -14    8   10     -0.84      0.00
  -12    8   10     -0.05      0.00
  -10    8   10     -0.16      0.00
   -8    8   10      0.35      0.00
   -6    8   10      0.33      0.00
   -4    8   10      0.49      0.00
   -2    8   10      0.84      0.00
    0    8   10     -1.61      0.00
    2    8   10     -2.65      0.00
    4    8   10     -4.49      0.00
    6    8   10     -1.40      0.00
    8    8   10      1.70      0.00
   10    8   10      2.46      0.00
   12    8   10      1.93      0.00
   14    8   10     -0.27      0.00
   16    8   10      0.02      0.00
   18    8   10      0.82      0.00
   20    8   10      1.33      0.00
   22    8   10      0.53      0.00
  -25    9   10     -1.48      0.00
  -23    9   10     -0.52      0.00
  -21    9   10      1.41      0.00
  -19    9   10      1.18      0.00
  -17    9   10      0.20      0.00
  -15    9   10     -0.01      0.00
  -13    9   10      0.79      0.00
  -11    9   10      2.09      0.00
   -9    9   10      1.20      0.00
   -7    9   10      0.47      0.00
   -5    9   10     -2.27      0.00
   -3    9   10     -1.80      0.00
   -1    9   10     -1.56      0.00
    1    9   10     -1.22      0.00
    3    9   10     -0.29      0.00
    5    9   10     -1.78      0.00
    7    9   10     -3.65      0.00
    9    9   10     -4.52      0.00
   11    9   10     -3.12      0.00
   13    9   10     -0.83      0.00
   15    9   10      0.05      0.00
   17    9   10     -0.77      0.00
   19    9   10     -0.80      0.00
   21    9   10      0.17      0.00
   23    9   10      1.28      0.00
  -26   10   10      0.62      0.00
  -24   10   10     -0.12      0.00
  -22   10   10     -2.07      0.00
  -20   10   10     -1.74      0.00
  -18   10   10     -2.04      0.00
  -16   10   10      0.03      0.00
  -14   10   10      0.58      0.00
  -12   10   10     -1.74      0.00
  -10   10   10     -2.26      0.00
   -8   10   10     -0.83      0.00
   -6   10   10      0.47      0.00
   -4   10   10     -0.14      0.00
   -2   10   10     -0.29      0.00
    0   10   10     -1.52      0.00
    2   10   10     -2.20      0.00
    4   10   10      0.75      0.00
    6   10   10      0.89      0.00
    8   10   10      3.64      0.00
   10   10   10      3.99      0.00
   12   10   10      1.16      0.00
   14   10   10      1.33      0.00
   16   10   10      1.26      0.00
   18   10   10      1.40      0.00
   20   10   10     -0.25      0.00
   22   10   10     -1.41      0.00
  -25   11   10     -0.44      0.00
  -23   11   10     -0.41      0.00
  -21   11   10      1.69      0.00
  -19   11   10      2.66      0.00
  -17   11   10      0.82      0.00
  -15   11   10      0.14      0.00
  -13   11   10      1.09      0.00
  -11   11   10      1.36      0.00
   -9   11   10      1.69      0.00
   -7   11   10     -0.28      0.00
   -5   11   10     -0.99      0.00
   -3   11   10     -1.18      0.00
   -1   11   10     -1.05      0.00
    1   11   10     -2.26      0.00
    3   11   10     -0.76      0.00
    5   11   10     -2.64      0.00
    7   11   10     -3.97      0.00
    9   11   10     -1.70      0.00
   11   11   10     -2.90      0.00
   13   11   10     -0.79      0.00
   15   11   10     -0.88      0.00
   17   11   10     -1.31      0.00
   19   11   10     -0.51      0.00
   21   11   10      0.97      0.00
  -24   12   10      0.31      0.00
  -22   12   10     -0.55      0.00
  -20   12   10     -2.83      0.00
  -18   12   10     -1.53      0.00
  -16   12   10     -1.24      0.00
  -14   12   10     -0.11      0.00
  -12   12   10      0.37      0.00
  -10   12   10     -0.12      0.00
   -8   12   10     -0.26      0.00
   -6   12   10     -0.62      0.00
   -4   12   10      0.05      0.00
   -2   12   10     -0.19      0.00
    0   12   10     -0.45      0.00
    2   12   10     -0.33      0.00
    4   12   10     -2.43      0.00
    6   12   10     -2.93      0.00
    8   12   10     -2.41      0.00
   10   12   10     -2.59      0.00
   12   12   10     -0.52      0.00
   14   12   10      0.48      0.00
   16   12   10      1.02      0.00
   18   12   10      0.61      0.00
   20   12   10     -0.57      0.00
  -23   13   10      0.80      0.00
  -21   13   10      0.51      0.00
  -19   13   10      1.57      0.00
  -17   13   10      2.42      0.00
  -15   13   10      1.14      0.00
  -13   13   10      0.35      0.00
  -11   13   10      0.40      0.00
   -9   13   10     -0.02      0.00
   -7   13   10      0.91      0.00
   -5   13   10      1.30      0.00
   -3   13   10     -0.47      0.00
   -1   13   10     -1.61      0.00
    1   13   10      0.86      0.00
    3   13   10      0.39      0.00
    5   13   10      6.15      0.00
    7   13   10      9.79      0.00
    9   13   10      7.12      0.00
   11   13   10      8.13      0.00
   13   13   10      2.07      0.00
   15   13   10     -0.91      0.00
   17   13   10     -0.36      0.00
   19   13   10      0.73      0.00
  -22   14   10     -0.74      0.00
  -20   14   10     -0.47      0.00
  -18   14   10     -1.95      0.00
  -16   14   10     -1.96      0.00
  -14   14   10     -1.99      0.00
  -12   14   10     -0.20      0.00
  -10   14   10      1.22      0.00
   -8   14   10      0.05      0.00
   -6   14   10     -0.35      0.00
   -4   14   10     -1.03      0.00
   -2   14   10     -1.75      0.00
    0   14   10     -0.22      0.00
    2   14   10     -4.26      0.00
    4   14   10     -8.91      0.00
    6   14   10    -11.13      0.00
    8   14   10    -18.40      0.00
   10   14   10    -15.71      0.00
   12   14   10     -9.35      0.00
   14   14   10     -3.29      0.00
   16   14   10      1.31      0.00
   18   14   10      0.10      0.00
  -21   15   10      0.70      0.00
  -19   15   10     -0.09      0.00
  -17   15   10      1.43      0.00
  -15   15   10      3.17      0.00
  -13   15   10      1.52      0.00
  -11   15   10     -0.86      0.00
   -9   15   10     -1.30      0.00
   -7   15   10     -0.66      0.00
   -5   15   10      0.85      0.00
   -3   15   10      1.96      0.00
   -1   15   10      2.61      0.00
    1   15   10      2.38      0.00
    3   15   10      4.71      0.00
    5   15   10      6.67      0.00
    7   15   10     11.68      0.00
    9   15   10     18.06      0.00
   11   15   10     14.12      0.00
   13   15   10      8.45      0.00
   15   15   10      2.08      0.00
   17   15   10     -0.76      0.00
  -20   16   10      0.65      0.00
  -18   16   10     -0.05      0.00
  -16   16   10     -2.22      0.00
  -14   16   10     -2.03      0.00
  -12   16   10     -0.19      0.00
  -10   16   10      1.75      0.00
   -8   16   10      2.31      0.00
   -6   16   10     -0.45      0.00
   -4   16   10     -2.19      0.00
   -2   16   10     -2.76      0.00
    0   16   10     -6.39      0.00
    2   16   10     -2.55      0.00
    4   16   10      0.32      0.00
    6   16   10     -6.28      0.00
    8   16   10     -7.09      0.00
   10   16   10    -14.03      0.00
   12   16   10    -12.77      0.00
   14   16   10     -4.18      0.00
   16   16   10     -1.21      0.00
  -19   17   10     -0.88      0.00
  -17   17   10     -0.53      0.00
  -15   17   10      0.09      0.00
  -13   17   10     -0.31      0.00
  -11   17   10     -1.78      0.00
   -9   17   10     -1.67      0.00
   -7   17   10      0.45      0.00
   -5   17   10      1.44      0.00
   -3   17   10      3.67      0.00
   -1   17   10      3.56      0.00
    1   17   10     -0.80      0.00
    3   17   10     -5.31      0.00
    5   17   10    -10.21      0.00
    7   17   10     -6.16      0.00
    9   17   10      1.96      0.00
   11   17   10      6.82      0.00
   13   17   10      6.17      0.00
   15   17   10      1.81      0.00
  -18   18   10      0.44      0.00
  -16   18   10      0.35      0.00
  -14   18   10      0.54      0.00
  -12   18   10      1.29      0.00
  -10   18   10      0.92      0.00
   -8   18   10     -0.47      0.00
   -6   18   10     -0.70      0.00
   -4   18   10     -2.48      0.00
   -2   18   10     -2.82      0.00
    0   18   10      1.48      0.00
    2   18   10      6.09      0.00
    4   18   10     12.06      0.00
    6   18   10     15.62      0.00
    8   18   10      4.73      0.00
   10   18   10     -1.33      0.00
   12   18   10     -4.46      0.00
   14   18   10     -5.04      0.00
  -17   19   10     -0.26      0.00
  -15   19   10     -1.00      0.00
  -13   19   10     -1.38      0.00
  -11   19   10     -0.76      0.00
   -9   19   10     -0.32      0.00
   -7   19   10     -0.28      0.00
   -5   19   10      0.15      0.00
   -3   19   10     -1.51      0.00
   -1   19   10     -3.02      0.00
    1   19   10     -6.44      0.00
    3   19   10    -15.17      0.00
    5   19   10    -14.48      0.00
    7   19   10    -11.04      0.00
    9   19   10     -4.35      0.00
   11   19   10      3.75      0.00
   13   19   10      3.41      0.00
  -14   20   10      1.01      0.00
  -12   20   10      0.73      0.00
  -10   20   10     -0.05      0.00
   -8   20   10     -0.10      0.00
   -6   20   10     -0.02      0.00
   -4   20   10      2.00      0.00
   -2   20   10      1.94      0.00
    0   20   10      4.55      0.00
    2   20   10      8.23      0.00
    4   20   10      9.56      0.00
    6   20   10      6.73      0.00
    8   20   10      3.03      0.00
   10   20   10     -2.33      0.00
   12   20   10     -4.31      0.00
  -13   21   10     -1.09      0.00
  -11   21   10     -0.34      0.00
   -9   21   10      1.27      0.00
   -7   21   10      0.53      0.00
   -5   21   10     -0.28      0.00
   -3   21   10     -0.95      0.00
   -1   21   10     -2.84      0.00
    1   21   10     -4.38      0.00
    3   21   10     -3.20      0.00
    5   21   10     -3.65      0.00
    7   21   10     -0.16      0.00
    9   21   10      1.90      0.00
  -10   22   10      0.16      0.00
   -8   22   10     -1.39      0.00
   -6   22   10     -1.18      0.00
   -4   22   10     -1.71      0.00
   -2   22   10     -0.33      0.00
    0   22   10     -0.70      0.00
    2   22   10     -0.03      0.00
    4   22   10     -0.97      0.00
    6   22   10     -2.57      0.00
   -5   23   10      0.15      0.00
   -3   23   10      1.32      0.00
  -27    1   11      1.23      0.00
  -25    1   11      1.91      0.00
  -23    1   11     -1.02      0.00
  -21    1   11     -2.24      0.00
  -19    1   11     -0.86      0.00
  -17    1   11     -1.31      0.00
  -15    1   11     -1.02      0.00
  -13    1   11     -2.53      0.00
  -11    1   11     -3.78      0.00
   -9    1   11     -3.44      0.00
   -7    1   11     -2.12      0.00
   -5    1   11     -0.59      0.00
   -3    1   11     -0.19      0.00
   -1    1   11      4.33      0.00
    1    1   11      5.23      0.00
    3    1   11      3.02      0.00
    5    1   11      2.26      0.00
    7    1   11      0.61      0.00
    9    1   11     -0.95      0.00
   11    1   11      1.41      0.00
   13    1   11      1.85      0.00
   15    1   11      1.29      0.00
   17    1   11      2.06      0.00
   19    1   11     -0.69      0.00
   21    1   11      0.16      0.00
   23    1   11      1.17      0.00
  -28    2   11     -3.69      0.00
  -26    2   11     -3.95      0.00
  -24    2   11     -1.33      0.00
  -22    2   11      1.27      0.00
  -20    2   11      2.62      0.00
  -18    2   11      0.86      0.00
  -16    2   11      0.60      0.00
  -14    2   11      2.72      0.00
  -12    2   11      4.37      0.00
  -10    2   11      4.22      0.00
   -8    2   11      3.25      0.00
   -6    2   11      3.48      0.00
   -4    2   11      0.14      0.00
   -2    2   11     -2.35      0.00
    0    2   11     -5.75      0.00
    2    2   11     -8.22      0.00
    4    2   11     -4.93      0.00
    6    2   11     -2.84      0.00
    8    2   11     -1.98      0.00
   10    2   11     -2.05      0.00
   12    2   11     -3.05      0.00
   14    2   11     -4.12      0.00
   16    2   11     -2.41      0.00
   18    2   11     -0.79      0.00
   20    2   11     -0.08      0.00
   22    2   11     -0.18      0.00
   24    2   11     -1.83      0.00
  -27    3   11      4.88      0.00
  -25    3   11      2.79      0.00
  -23    3   11      0.10      0.00
  -21    3   11     -2.03      0.00
  -19    3   11     -1.75      0.00
  -17    3   11      0.39      0.00
  -15    3   11     -0.79      0.00
  -13    3   11     -3.02      0.00
  -11    3   11     -3.32      0.00
   -9    3   11     -3.33      0.00
   -7    3   11     -2.83      0.00
   -5    3   11     -4.00      0.00
   -3    3   11     -1.31      0.00
   -1    3   11      3.21      0.00
    1    3   11      5.69      0.00
    3    3   11      7.94      0.00
    5    3   11      5.53      0.00
    7    3   11      2.82      0.00
    9    3   11      4.06      0.00
   11    3   11      2.66      0.00
   13    3   11      2.58      0.00
   15    3   11      2.71      0.00
   17    3   11     -0.21      0.00
   19    3   11     -0.68      0.00
   21    3   11     -1.10      0.00
   23    3   11      0.86      0.00
  -28    4   11     -3.17      0.00
  -26    4   11     -3.49      0.00
  -24    4   11     -1.49      0.00
  -22    4   11      0.98      0.00
  -20    4   11      0.19      0.00
  -18    4   11     -0.77      0.00
  -16    4   11     -0.82      0.00
  -14    4   11      1.29      0.00
  -12    4   11      3.12      0.00
  -10    4   11      2.23      0.00
   -8    4   11      1.36      0.00
   -6    4   11      1.07      0.00
   -4    4   11      2.85      0.00
   -2    4   11     -0.09      0.00
    0    4   11     -4.14      0.00
    2    4   11     -5.23      0.00
    4    4   11     -5.92      0.00
    6    4   11     -5.05      0.00
    8    4   11     -4.26      0.00
   10    4   11     -3.82      0.00
   12    4   11     -3.73      0.00
   14    4   11     -1.14      0.00
   16    4   11      0.02      0.00
   18    4   11      2.40      0.00
   20    4   11      3.10      0.00
   22    4   11      0.77      0.00
   24    4   11     -0.23      0.00
  -27    5   11      1.58      0.00
  -25    5   11      0.70      0.00
  -23    5   11     -1.29      0.00
  -21    5   11     -1.10      0.00
  -19    5   11      1.55      0.00
  -17    5   11      1.95      0.00
  -15    5   11     -0.78      0.00
  -13    5   11     -3.25      0.00
  -11    5   11     -4.05      0.00
   -9    5   11     -1.21      0.00
   -7    5   11     -1.38      0.00
   -5    5   11     -0.18      0.00
   -3    5   11      0.62      0.00
   -1    5   11      1.16      0.00
    1    5   11      5.76      0.00
    3    5   11      4.17      0.00
    5    5   11      3.19      0.00
    7    5   11      3.20      0.00
    9    5   11      0.79      0.00
   11    5   11      1.40      0.00
   13    5   11      0.65      0.00
   15    5   11     -2.24      0.00
   17    5   11     -3.70      0.00
   19    5   11     -4.39      0.00
   21    5   11     -2.69      0.00
   23    5   11     -1.13      0.00
  -26    6   11      0.52      0.00
  -24    6   11      2.20      0.00
  -22    6   11      2.37      0.00
  -20    6   11     -0.02      0.00
  -18    6   11     -2.10      0.00
  -16    6   11     -0.27      0.00
  -14    6   11      3.11      0.00
  -12    6   11      4.54      0.00
  -10    6   11      3.80      0.00
   -8    6   11      1.70      0.00
   -6    6   11      0.50      0.00
   -4    6   11      0.38      0.00
   -2    6   11     -1.15      0.00
    0    6   11     -2.25      0.00
    2    6   11     -2.66      0.00
    4    6   11     -2.98      0.00
    6    6   11     -0.63      0.00
    8    6   11     -0.21      0.00
   10    6   11     -1.72      0.00
   12    6   11     -0.59      0.00
   14    6   11     -0.32      0.00
   16    6   11      2.83      0.00
   18    6   11      3.95      0.00
   20    6   11      3.06      0.00
   22    6   11      1.69      0.00
  -27    7   11      0.38      0.00
  -25    7   11     -1.96      0.00
  -23    7   11     -2.41      0.00
  -21    7   11     -0.63      0.00
  -19    7   11      0.21      0.00
  -17    7   11      0.31      0.00
  -15    7   11     -1.77      0.00
  -13    7   11     -4.83      0.00
  -11    7   11     -3.92      0.00
   -9    7   11     -2.77      0.00
   -7    7   11      0.05      0.00
   -5    7   11      0.32      0.00
   -3    7   11      1.27      0.00
   -1    7   11      3.41      0.00
    1    7   11      2.40      0.00
    3    7   11      3.06      0.00
    5    7   11      0.35      0.00
    7    7   11     -1.02      0.00
    9    7   11     -0.59      0.00
   11    7   11      0.00      0.00
   13    7   11     -0.11      0.00
   15    7   11     -1.68      0.00
   17    7   11     -3.06      0.00
   19    7   11     -2.55      0.00
   21    7   11     -0.32      0.00
   23    7   11      0.99      0.00
  -26    8   11      0.83      0.00
  -24    8   11      1.99      0.00
  -22    8   11      1.63      0.00
  -20    8   11      0.93      0.00
  -18    8   11      0.02      0.00
  -16    8   11      0.89      0.00
  -14    8   11      2.20      0.00
  -12    8   11      2.32      0.00
  -10    8   11      1.05      0.00
   -8    8   11      0.06      0.00
   -6    8   11      0.83      0.00
   -4    8   11     -0.42      0.00
   -2    8   11      0.65      0.00
    0    8   11     -0.20      0.00
    2    8   11     -1.14      0.00
    4    8   11      0.79      0.00
    6    8   11      0.50      0.00
    8    8   11      0.09      0.00
   10    8   11     -1.01      0.00
   12    8   11     -2.88      0.00
   14    8   11     -0.87      0.00
   16    8   11      1.07      0.00
   18    8   11      1.24      0.00
   20    8   11     -0.64      0.00
   22    8   11     -2.10      0.00
  -25    9   11     -0.33      0.00
  -23    9   11     -1.30      0.00
  -21    9   11     -1.50      0.00
  -19    9   11      0.33      0.00
  -17    9   11     -0.96      0.00
  -15    9   11     -1.85      0.00
  -13    9   11     -1.24      0.00
  -11    9   11     -1.08      0.00
   -9    9   11      0.46      0.00
   -7    9   11      1.09      0.00
   -5    9   11      1.43      0.00
   -3    9   11      0.96      0.00
   -1    9   11      1.93      0.00
    1    9   11      1.93      0.00
    3    9   11      0.70      0.00
    5    9   11      0.85      0.00
    7    9   11     -1.76      0.00
    9    9   11      0.56      0.00
   11    9   11      2.04      0.00
   13    9   11      1.15      0.00
   15    9   11     -0.08      0.00
   17    9   11     -1.17      0.00
   19    9   11      0.50      0.00
   21    9   11      1.85      0.00
  -26   10   11      0.73      0.00
  -24   10   11      1.28      0.00
  -22   10   11      1.13      0.00
  -20   10   11      0.57      0.00
  -18   10   11      0.40      0.00
  -16   10   11     -0.46      0.00
  -14   10   11     -0.07      0.00
  -12   10   11     -0.12      0.00
  -10   10   11     -1.08      0.00
   -8   10   11     -0.92      0.00
   -6   10   11     -0.75      0.00
   -4   10   11      1.40      0.00
   -2   10   11      1.22      0.00
    0   10   11      0.74      0.00
    2   10   11     -0.57      0.00
    4   10   11      0.52      0.00
    6   10   11      0.30      0.00
    8   10   11     -0.96      0.00
   10   10   11     -1.94      0.00
   12   10   11     -4.05      0.00
   14   10   11     -2.87      0.00
   16   10   11     -1.86      0.00
   18   10   11     -1.58      0.00
   20   10   11     -1.86      0.00
   22   10   11     -1.44      0.00
  -25   11   11     -1.76      0.00
  -23   11   11     -1.19      0.00
  -21   11   11     -1.14      0.00
  -19   11   11     -1.79      0.00
  -17   11   11      0.21      0.00
  -15   11   11     -0.42      0.00
  -13   11   11     -1.02      0.00
  -11   11   11     -0.13      0.00
   -9   11   11      0.80      0.00
   -7   11   11      0.78      0.00
   -5   11   11     -0.32      0.00
   -3   11   11     -0.15      0.00
   -1   11   11      0.05      0.00
    1   11   11      2.40      0.00
    3   11   11      3.36      0.00
    5   11   11      1.45      0.00
    7   11   11      2.53      0.00
    9   11   11      1.88      0.00
   11   11   11      1.76      0.00
   13   11   11      1.76      0.00
   15   11   11      0.61      0.00
   17   11   11      1.08      0.00
   19   11   11      1.30      0.00
   21   11   11      0.96      0.00
  -24   12   11      0.01      0.00
  -22   12   11      1.22      0.00
  -20   12   11      1.13      0.00
  -18   12   11      0.73      0.00
  -16   12   11      0.74      0.00
  -14   12   11     -0.32      0.00
  -12   12   11     -0.76      0.00
  -10   12   11     -1.23      0.00
   -8   12   11     -2.18      0.00
   -6   12   11     -0.53      0.00
   -4   12   11      1.80      0.00
   -2   12   11      1.61      0.00
    0   12   11      0.15      0.00
    2   12   11      1.09      0.00
    4   12   11     -2.57      0.00
    6   12   11     -1.06      0.00
    8   12   11     -2.39      0.00
   10   12   11     -5.60      0.00
   12   12   11     -1.28      0.00
   14   12   11     -1.46      0.00
   16   12   11     -1.43      0.00
   18   12   11     -2.16      0.00
   20   12   11     -1.71      0.00
  -23   13   11     -0.60      0.00
  -21   13   11     -1.67      0.00
  -19   13   11     -2.09      0.00
  -17   13   11     -2.42      0.00
  -15   13   11     -0.34      0.00
  -13   13   11      0.16      0.00
  -11   13   11      0.85      0.00
   -9   13   11      1.77      0.00
   -7   13   11      1.30      0.00
   -5   13   11      0.96      0.00
   -3   13   11      0.75      0.00
   -1   13   11      1.72      0.00
    1   13   11      3.60      0.00
    3   13   11      1.21      0.00
    5   13   11      0.55      0.00
    7   13   11      3.39      0.00
    9   13   11      3.04      0.00
   11   13   11      2.54      0.00
   13   13   11     -0.98      0.00
   15   13   11     -2.61      0.00
   17   13   11     -0.62      0.00
   19   13   11      0.80      0.00
  -22   14   11     -0.03      0.00
  -20   14   11      2.83      0.00
  -18   14   11      2.86      0.00
  -16   14   11      1.31      0.00
  -14   14   11      0.42      0.00
  -12   14   11     -0.92      0.00
  -10   14   11     -1.61      0.00
   -8   14   11     -1.00      0.00
   -6   14   11     -0.48      0.00
   -4   14   11     -0.62      0.00
   -2   14   11     -0.67      0.00
    0   14   11     -0.41      0.00
    2   14   11      0.59      0.00
    4   14   11      6.57      0.00
    6   14   11      3.03      0.00
    8   14   11     -1.69      0.00
   10   14   11     -1.92      0.00
   12   14   11     -3.59      0.00
   14   14   11      0.79      0.00
   16   14   11      0.63      0.00
   18   14   11     -1.64      0.00
  -21   15   11     -1.64      0.00
  -19   15   11     -3.14      0.00
  -17   15   11     -2.84      0.00
  -15   15   11     -2.15      0.00
  -13   15   11     -0.58      0.00
  -11   15   11     -0.07      0.00
   -9   15   11      0.32      0.00
   -7   15   11      1.44      0.00
   -5   15   11      1.32      0.00
   -3   15   11      3.06      0.00
   -1   15   11      5.65      0.00
    1   15   11     -0.17      0.00
    3   15   11     -2.97      0.00
    5   15   11     -4.78      0.00
    7   15   11     -6.22      0.00
    9   15   11      3.12      0.00
   11   15   11      2.11      0.00
   13   15   11     -0.61      0.00
   15   15   11     -0.77      0.00
   17   15   11     -0.78      0.00
  -20   16   11      1.05      0.00
  -18   16   11      3.05      0.00
  -16   16   11      3.28      0.00
  -14   16   11      2.43      0.00
  -12   16   11      1.70      0.00
  -10   16   11      0.10      0.00
   -8   16   11     -1.22      0.00
   -6   16   11     -1.03      0.00
   -4   16   11     -1.50      0.00
   -2   16   11     -0.58      0.00
    0   16   11      1.45      0.00
    2   16   11      5.73      0.00
    4   16   11      8.53      0.00
    6   16   11      6.58      0.00
    8   16   11      0.47      0.00
   10   16   11     -5.45      0.00
   12   16   11     -4.06      0.00
   14   16   11     -1.94      0.00
   16   16   11     -0.99      0.00
  -19   17   11     -0.60      0.00
  -17   17   11     -2.51      0.00
  -15   17   11     -3.60      0.00
  -13   17   11     -3.29      0.00
  -11   17   11     -1.10      0.00
   -9   17   11      1.11      0.00
   -7   17   11      2.18      0.00
   -5   17   11      3.23      0.00
   -3   17   11      1.94      0.00
   -1   17   11     -1.01      0.00
    1   17   11     -0.29      0.00
    3   17   11     -4.72      0.00
    5   17   11     -4.73      0.00
    7   17   11      4.07      0.00
    9   17   11      3.57      0.00
   11   17   11      6.92      0.00
   13   17   11      4.21      0.00
   15   17   11     -0.58      0.00
  -18   18   11     -0.21      0.00
  -16   18   11      1.95      0.00
  -14   18   11      2.51      0.00
  -12   18   11      1.22      0.00
  -10   18   11     -0.58      0.00
   -8   18   11     -1.93      0.00
   -6   18   11     -1.72      0.00
   -4   18   11      1.86      0.00
   -2   18   11      3.13      0.00
    0   18   11      4.83      0.00
    2   18   11      5.06      0.00
    4   18   11     -0.64      0.00
    8   18   11     -8.88      0.00
   10   18   11    -11.10      0.00
   12   18   11     -7.45      0.00
   14   18   11     -4.40      0.00
  -17   19   11     -0.24      0.00
  -15   19   11     -2.07      0.00
  -13   19   11     -2.33      0.00
  -11   19   11     -1.05      0.00
   -9   19   11      1.27      0.00
   -7   19   11      2.10      0.00
   -5   19   11      0.22      0.00
   -3   19   11     -1.31      0.00
   -1   19   11     -2.36      0.00
    1   19   11     -1.36      0.00
    3   19   11      3.58      0.00
    5   19   11      7.54      0.00
    7   19   11      7.41      0.00
    9   19   11     10.23      0.00
   11   19   11      6.14      0.00
   13   19   11      2.86      0.00
  -14   20   11      1.72      0.00
  -12   20   11      1.65      0.00
  -10   20   11     -0.13      0.00
   -8   20   11     -1.42      0.00
   -6   20   11     -1.12      0.00
   -4   20   11      0.83      0.00
   -2   20   11      3.77      0.00
    0   20   11      1.78      0.00
    2   20   11     -3.25      0.00
    4   20   11     -4.88      0.00
    6   20   11     -9.68      0.00
    8   20   11     -7.64      0.00
   10   20   11     -4.57      0.00
  -11   21   11     -2.54      0.00
   -9   21   11     -0.86      0.00
   -7   21   11      0.72      0.00
   -5   21   11      0.77      0.00
   -3   21   11     -1.01      0.00
   -1   21   11      0.39      0.00
    1   21   11      2.20      0.00
    3   21   11      5.63      0.00
    5   21   11      6.28      0.00
    7   21   11      4.59      0.00
   -8   22   11      0.81      0.00
   -6   22   11      1.29      0.00
   -4   22   11      1.22      0.00
   -2   22   11      1.44      0.00
    0   22   11      0.43      0.00
    2   22   11     -1.91      0.00
    4   22   11     -3.65      0.00
  -28    0   12      1.52      0.00
  -26    0   12     -0.01      0.00
  -24    0   12      2.41      0.00
  -22    0   12      3.26      0.00
  -20    0   12      3.90      0.00
  -18    0   12      2.80      0.00
  -16    0   12     -0.55      0.00
  -14    0   12      0.44      0.00
  -12    0   12      2.90      0.00
  -10    0   12      4.79      0.00
   -8    0   12      5.02      0.00
   -6    0   12      4.65      0.00
   -4    0   12      2.51      0.00
   -2    0   12     -0.86      0.00
    0    0   12     -1.66      0.00
    2    0   12     -3.43      0.00
    4    0   12     -3.81      0.00
    6    0   12     -0.07      0.00
    8    0   12      3.08      0.00
   10    0   12      0.15      0.00
   12    0   12     -2.94      0.00
   14    0   12     -5.93      0.00
   16    0   12     -3.27      0.00
   18    0   12      3.02      0.00
   20    0   12      2.65      0.00
   22    0   12      0.90      0.00
   24    0   12     -0.85      0.00
  -27    1   12     -0.96      0.00
  -25    1   12     -0.78      0.00
  -23    1   12     -1.80      0.00
  -21    1   12     -3.33      0.00
  -19    1   12     -2.52      0.00
  -17    1   12     -0.81      0.00
  -15    1   12      0.49      0.00
  -13    1   12     -0.17      0.00
  -11    1   12     -1.61      0.00
   -9    1   12     -2.16      0.00
   -7    1   12     -0.73      0.00
   -5    1   12      1.80      0.00
   -3    1   12      2.68      0.00
   -1    1   12      4.70      0.00
    1    1   12      5.58      0.00
    3    1   12      4.77      0.00
    5    1   12      2.45      0.00
    7    1   12     -2.13      0.00
    9    1   12     -4.19      0.00
   11    1   12     -1.44      0.00
   13    1   12      2.39      0.00
   15    1   12      2.05      0.00
   17    1   12     -1.22      0.00
   19    1   12     -3.76      0.00
   21    1   12     -2.54      0.00
   23    1   12      0.00      0.00
  -28    2   12      1.48      0.00
  -26    2   12      1.58      0.00
  -24    2   12     -0.21      0.00
  -22    2   12      1.17      0.00
  -20    2   12      1.84      0.00
  -18    2   12      0.62      0.00
  -16    2   12      0.10      0.00
  -14    2   12     -1.21      0.00
  -12    2   12     -0.63      0.00
  -10    2   12      0.82      0.00
   -8    2   12      1.10      0.00
   -6    2   12      1.13      0.00
   -4    2   12      1.36      0.00
   -2    2   12      2.86      0.00
    0    2   12      1.89      0.00
    2    2   12     -0.81      0.00
    4    2   12     -1.01      0.00
    6    2   12     -0.63      0.00
    8    2   12      0.21      0.00
   10    2   12      1.59      0.00
   12    2   12     -2.40      0.00
   14    2   12     -2.87      0.00
   16    2   12      0.33      0.00
   18    2   12      2.11      0.00
   20    2   12      3.33      0.00
   22    2   12      0.77      0.00
   24    2   12      0.27      0.00
  -27    3   12     -2.19      0.00
  -25    3   12     -1.35      0.00
  -23    3   12     -0.24      0.00
  -21    3   12      0.28      0.00
  -19    3   12     -0.60      0.00
  -17    3   12      0.66      0.00
  -15    3   12      1.39      0.00
  -13    3   12      1.54      0.00
  -11    3   12      1.34      0.00
   -9    3   12      2.21      0.00
   -7    3   12      3.34      0.00
   -5    3   12      3.12      0.00
   -3    3   12      3.55      0.00
   -1    3   12      0.66      0.00
    1    3   12      0.55      0.00
    3    3   12      2.02      0.00
    5    3   12      0.64      0.00
    7    3   12     -1.87      0.00
    9    3   12     -3.45      0.00
   11    3   12     -2.95      0.00
   13    3   12     -2.02      0.00
   15    3   12     -1.79      0.00
   17    3   12     -4.49      0.00
   19    3   12     -3.96      0.00
   21    3   12     -1.78      0.00
   23    3   12     -1.22      0.00
  -28    4   12      2.30      0.00
  -26    4   12      1.69      0.00
  -24    4   12      0.72      0.00
  -22    4   12     -1.17      0.00
  -20    4   12     -1.69      0.00
  -18    4   12     -0.86      0.00
  -16    4   12     -1.42      0.00
  -14    4   12     -1.11      0.00
  -12    4   12      0.22      0.00
  -10    4   12      0.59      0.00
   -8    4   12      0.62      0.00
   -6    4   12     -2.18      0.00
   -4    4   12     -0.93      0.00
   -2    4   12      0.68      0.00
    0    4   12      0.77      0.00
    2    4   12      2.30      0.00
    4    4   12     -0.34      0.00
    6    4   12      0.62      0.00
    8    4   12      3.28      0.00
   10    4   12      0.94      0.00
   12    4   12      0.84      0.00
   14    4   12      1.22      0.00
   16    4   12      2.09      0.00
   18    4   12      3.46      0.00
   20    4   12      1.76      0.00
   22    4   12      0.77      0.00
  -27    5   12     -2.13      0.00
  -25    5   12     -1.75      0.00
  -23    5   12     -0.28      0.00
  -21    5   12      1.02      0.00
  -19    5   12      1.58      0.00
  -17    5   12      1.12      0.00
  -15    5   12      1.67      0.00
  -13    5   12      0.83      0.00
  -11    5   12     -1.09      0.00
   -9    5   12     -1.23      0.00
   -7    5   12      1.10      0.00
   -5    5   12      3.61      0.00
   -3    5   12      3.41      0.00
   -1    5   12      2.27      0.00
    1    5   12      1.49      0.00
    3    5   12      1.00      0.00
    5    5   12     -1.73      0.00
    7    5   12     -3.48      0.00
    9    5   12     -4.81      0.00
   11    5   12     -4.33      0.00
   13    5   12     -2.43      0.00
   15    5   12     -3.87      0.00
   17    5   12     -2.73      0.00
   19    5   12     -1.64      0.00
   21    5   12      0.12      0.00
   23    5   12      0.90      0.00
  -26    6   12      0.71      0.00
  -24    6   12     -0.77      0.00
  -22    6   12     -1.89      0.00
  -20    6   12     -1.43      0.00
  -18    6   12     -1.80      0.00
  -16    6   12     -1.36      0.00
  -14    6   12     -0.75      0.00
  -12    6   12      0.20      0.00
  -10    6   12      2.44      0.00
   -8    6   12      1.26      0.00
   -6    6   12      1.24      0.00
   -4    6   12     -0.92      0.00
   -2    6   12     -0.07      0.00
    0    6   12      1.81      0.00
    2    6   12     -0.41      0.00
    4    6   12      1.37      0.00
    6    6   12      1.82      0.00
    8    6   12      1.53      0.00
   10    6   12      1.46      0.00
   12    6   12     -0.02      0.00
   14    6   12      0.02      0.00
   16    6   12      1.23      0.00
   18    6   12     -0.08      0.00
   20    6   12     -2.26      0.00
   22    6   12     -2.92      0.00
  -27    7   12      0.47      0.00
  -25    7   12      0.30      0.00
  -23    7   12      1.29      0.00
  -21    7   12      1.43      0.00
  -19    7   12      1.36      0.00
  -17    7   12      1.27      0.00
  -15    7   12      1.66      0.00
  -13    7   12      1.72      0.00
  -11    7   12      1.19      0.00
   -9    7   12      0.20      0.00
   -7    7   12      0.79      0.00
   -5    7   12      2.34      0.00
   -3    7   12      1.13      0.00
   -1    7   12      1.86      0.00
    1    7   12      1.35      0.00
    3    7   12      0.00      0.00
    5    7   12      0.32      0.00
    7    7   12     -2.50      0.00
    9    7   12     -2.03      0.00
   11    7   12     -0.20      0.00
   13    7   12     -1.30      0.00
   15    7   12     -0.92      0.00
   17    7   12     -0.81      0.00
   19    7   12      1.91      0.00
   21    7   12      3.46      0.00
  -26    8   12     -0.93      0.00
  -24    8   12     -0.40      0.00
  -22    8   12     -1.42      0.00
  -20    8   12     -2.21      0.00
  -18    8   12     -0.66      0.00
  -16    8   12     -1.49      0.00
  -14    8   12     -1.94      0.00
  -12    8   12     -0.71      0.00
  -10    8   12     -0.46      0.00
   -8    8   12      0.71      0.00
   -6    8   12      0.38      0.00
   -4    8   12      1.57      0.00
   -2    8   12      1.05      0.00
    0    8   12      0.32      0.00
    2    8   12     -0.84      0.00
    4    8   12     -1.92      0.00
    6    8   12     -0.49      0.00
    8    8   12     -2.17      0.00
   10    8   12     -2.73      0.00
   12    8   12     -3.66      0.00
   14    8   12     -2.57      0.00
   16    8   12     -1.25      0.00
   18    8   12     -1.39      0.00
   20    8   12     -2.38      0.00
   22    8   12     -3.19      0.00
  -25    9   12      0.01      0.00
  -23    9   12      0.42      0.00
  -21    9   12      0.92      0.00
  -19    9   12      1.01      0.00
  -17    9   12      1.82      0.00
  -15    9   12      1.40      0.00
  -13    9   12      1.29      0.00
  -11    9   12      0.68      0.00
   -9    9   12      0.65      0.00
   -7    9   12      0.57      0.00
   -5    9   12     -0.49      0.00
   -3    9   12      0.92      0.00
   -1    9   12      1.19      0.00
    1    9   12      3.58      0.00
    3    9   12      4.31      0.00
    5    9   12      2.76      0.00
    7    9   12      1.59      0.00
    9    9   12      1.31      0.00
   11    9   12      2.57      0.00
   13    9   12      3.27      0.00
   15    9   12      2.27      0.00
   17    9   12      1.17      0.00
   19    9   12      0.94      0.00
   21    9   12      1.70      0.00
  -24   10   12     -0.02      0.00
  -22   10   12      0.55      0.00
  -20   10   12      0.35      0.00
  -18   10   12     -1.58      0.00
  -16   10   12     -0.64      0.00
  -14   10   12     -0.45      0.00
  -12   10   12     -0.30      0.00
  -10   10   12      0.65      0.00
   -8   10   12      1.09      0.00
   -6   10   12      1.90      0.00
   -4   10   12      2.53      0.00
   -2   10   12      2.45      0.00
    0   10   12     -1.59      0.00
    2   10   12     -3.39      0.00
    4   10   12     -4.47      0.00
    6   10   12     -4.74      0.00
    8   10   12     -1.82      0.00
   10   10   12     -3.80      0.00
   12   10   12     -4.03      0.00
   14   10   12     -3.30      0.00
   16   10   12     -1.96      0.00
   18   10   12     -0.45      0.00
   20   10   12     -0.42      0.00
  -25   11   12     -0.25      0.00
  -23   11   12     -0.93      0.00
  -21   11   12     -0.55      0.00
  -19   11   12     -0.60      0.00
  -17   11   12     -0.53      0.00
  -15   11   12      0.46      0.00
  -13   11   12     -0.26      0.00
  -11   11   12      0.00      0.00
   -9   11   12      0.85      0.00
   -7   11   12      0.98      0.00
   -5   11   12      0.92      0.00
   -3   11   12      0.73      0.00
   -1   11   12      1.50      0.00
    1   11   12      3.03      0.00
    3   11   12      5.31      0.00
    5   11   12      1.19      0.00
    7   11   12      0.92      0.00
    9   11   12      0.00      0.00
   11   11   12     -1.32      0.00
   13   11   12      0.58      0.00
   15   11   12     -1.08      0.00
   17   11   12     -1.27      0.00
   19   11   12     -0.78      0.00
  -24   12   12      0.62      0.00
  -22   12   12      1.12      0.00
  -20   12   12      1.87      0.00
  -18   12   12      1.80      0.00
  -16   12   12     -0.67      0.00
  -14   12   12     -0.81      0.00
  -12   12   12     -0.92      0.00
  -10   12   12     -1.19      0.00
   -8   12   12     -1.46      0.00
   -6   12   12     -1.38      0.00
   -4   12   12     -0.50      0.00
   -2   12   12     -0.70      0.00
    0   12   12     -1.14      0.00
    2   12   12     -1.72      0.00
    4   12   12     -1.17      0.00
    6   12   12      1.19      0.00
    8   12   12      1.89      0.00
   10   12   12      1.33      0.00
   12   12   12      1.16      0.00
   14   12   12      1.79      0.00
   16   12   12      2.57      0.00
   18   12   12      1.86      0.00
   20   12   12      0.35      0.00
  -23   13   12     -1.00      0.00
  -21   13   12     -3.35      0.00
  -19   13   12     -2.30      0.00
  -17   13   12     -0.67      0.00
  -15   13   12      0.60      0.00
  -13   13   12      1.77      0.00
  -11   13   12      1.09      0.00
   -9   13   12      1.06      0.00
   -7   13   12      2.36      0.00
   -5   13   12      2.91      0.00
   -3   13   12      2.01      0.00
   -1   13   12      3.15      0.00
    1   13   12      3.12      0.00
    3   13   12     -0.74      0.00
    5   13   12      0.16      0.00
    7   13   12     -5.27      0.00
    9   13   12     -4.44      0.00
   11   13   12     -0.41      0.00
   13   13   12     -3.25      0.00
   15   13   12     -2.49      0.00
   17   13   12     -2.47      0.00
   19   13   12     -0.65      0.00
  -22   14   12      1.91      0.00
  -20   14   12      2.51      0.00
  -18   14   12      1.17      0.00
  -16   14   12     -0.58      0.00
  -14   14   12     -2.44      0.00
  -12   14   12     -1.75      0.00
  -10   14   12     -1.23      0.00
   -8   14   12     -1.78      0.00
   -6   14   12     -1.78      0.00
   -4   14   12     -2.24      0.00
   -2   14   12     -1.77      0.00
    0   14   12     -0.79      0.00
    2   14   12     -3.77      0.00
    4   14   12     -0.06      0.00
    6   14   12      2.98      0.00
    8   14   12      0.11      0.00
   10   14   12      0.76      0.00
   12   14   12     -2.27      0.00
   14   14   12     -1.21      0.00
   16   14   12      0.86      0.00
   18   14   12     -0.27      0.00
  -21   15   12     -1.23      0.00
  -19   15   12     -1.90      0.00
  -17   15   12      0.09      0.00
  -15   15   12      1.44      0.00
  -13   15   12      1.20      0.00
  -11   15   12      1.29      0.00
   -9   15   12      1.53      0.00
   -7   15   12      2.13      0.00
   -5   15   12      2.29      0.00
   -3   15   12      1.45      0.00
   -1   15   12      1.54      0.00
    1   15   12      3.68      0.00
    3   15   12      5.97      0.00
    5   15   12      2.43      0.00
    7   15   12      3.20      0.00
   13   15   12      4.75      0.00
   15   15   12      0.65      0.00
   17   15   12     -0.23      0.00
  -20   16   12      0.10      0.00
  -18   16   12      0.19      0.00
  -16   16   12     -0.58      0.00
  -14   16   12     -1.16      0.00
  -12   16   12     -1.64      0.00
  -10   16   12     -1.86      0.00
   -8   16   12     -2.55      0.00
   -6   16   12     -2.87      0.00
   -4   16   12      0.00      0.00
   -2   16   12      0.96      0.00
    0   16   12     -3.22      0.00
    2   16   12     -2.62      0.00
    4   16   12     -6.99      0.00
    6   16   12     -7.35      0.00
    8   16   12     -3.03      0.00
   10   16   12     -9.33      0.00
   12   16   12     -6.21      0.00
   14   16   12     -3.11      0.00
   16   16   12     -2.04      0.00
  -19   17   12      0.42      0.00
  -17   17   12      0.27      0.00
  -15   17   12      1.30      0.00
  -13   17   12      1.86      0.00
  -11   17   12      1.67      0.00
   -9   17   12      2.11      0.00
   -7   17   12      1.85      0.00
   -5   17   12     -0.27      0.00
   -3   17   12     -0.66      0.00
   -1   17   12     -0.50      0.00
    1   17   12      3.91      0.00
    3   17   12      7.45      0.00
    5   17   12      6.39      0.00
    9   17   12      5.55      0.00
   11   17   12      5.67      0.00
   13   17   12      3.92      0.00
   15   17   12      1.63      0.00
  -18   18   12     -0.26      0.00
  -16   18   12     -0.67      0.00
  -14   18   12     -1.02      0.00
  -12   18   12     -0.77      0.00
  -10   18   12     -0.72      0.00
   -8   18   12     -0.18      0.00
   -6   18   12      0.86      0.00
   -4   18   12      1.53      0.00
   -2   18   12      1.77      0.00
    0   18   12      0.41      0.00
    6   18   12     -0.02      0.00
    8   18   12     -2.34      0.00
   10   18   12      1.52      0.00
   12   18   12     -1.70      0.00
  -15   19   12      0.39      0.00
  -13   19   12     -0.37      0.00
  -11   19   12     -1.39      0.00
   -9   19   12     -1.77      0.00
   -7   19   12     -1.37      0.00
   -5   19   12     -0.86      0.00
   -3   19   12     -1.34      0.00
   -1   19   12      1.78      0.00
    1   19   12      2.02      0.00
    3   19   12      0.17      0.00
    5   19   12      0.42      0.00
    7   19   12     -5.00      0.00
    9   19   12     -4.31      0.00
   11   19   12     -2.45      0.00
  -14   20   12      0.24      0.00
  -12   20   12      2.14      0.00
  -10   20   12      3.59      0.00
   -8   20   12      3.05      0.00
   -6   20   12      2.18      0.00
   -4   20   12      0.82      0.00
   -2   20   12     -0.85      0.00
    0   20   12     -0.49      0.00
    2   20   12      1.39      0.00
    4   20   12      3.79      0.00
    6   20   12      5.29      0.00
    8   20   12      6.94      0.00
  -11   21   12     -3.43      0.00
   -9   21   12     -4.10      0.00
   -7   21   12     -3.44      0.00
   -5   21   12     -1.00      0.00
   -3   21   12      1.06      0.00
   -1   21   12      0.76      0.00
    1   21   12     -0.62      0.00
    3   21   12     -3.25      0.00
    5   21   12     -6.66      0.00
    7   21   12     -3.32      0.00
   -8   22   12      2.62      0.00
   -6   22   12      1.69      0.00
   -4   22   12     -0.08      0.00
   -2   22   12     -1.14      0.00
    0   22   12     -0.48      0.00
    2   22   12      3.41      0.00
  -27    1   13     -0.49      0.00
  -25    1   13      1.29      0.00
  -23    1   13      0.25      0.00
  -21    1   13      0.69      0.00
  -19    1   13     -0.26      0.00
  -17    1   13     -0.91      0.00
  -15    1   13      0.86      0.00
  -13    1   13      1.43      0.00
  -11    1   13      2.28      0.00
   -9    1   13      3.17      0.00
   -7    1   13      2.43      0.00
   -5    1   13     -0.26      0.00
   -3    1   13     -2.08      0.00
   -1    1   13     -2.60      0.00
    1    1   13     -2.71      0.00
    3    1   13     -2.52      0.00
    5    1   13     -0.27      0.00
    7    1   13      1.17      0.00
    9    1   13      1.05      0.00
   11    1   13      1.84      0.00
   13    1   13     -1.19      0.00
   15    1   13     -0.76      0.00
   17    1   13      0.71      0.00
   19    1   13      0.37      0.00
   21    1   13      0.75      0.00
   23    1   13     -0.84      0.00
  -28    2   13      0.56      0.00
  -26    2   13      0.27      0.00
  -24    2   13     -0.47      0.00
  -22    2   13      0.01      0.00
  -20    2   13      1.13      0.00
  -18    2   13      0.60      0.00
  -16    2   13      0.08      0.00
  -14    2   13     -1.50      0.00
  -12    2   13     -2.71      0.00
  -10    2   13     -3.57      0.00
   -8    2   13     -2.42      0.00
   -6    2   13     -0.68      0.00
   -4    2   13      1.61      0.00
   -2    2   13      4.26      0.00
    0    2   13      3.06      0.00
    2    2   13      2.93      0.00
    4    2   13      2.49      0.00
    6    2   13      0.39      0.00
    8    2   13     -1.59      0.00
   10    2   13     -1.58      0.00
   12    2   13      0.13      0.00
   14    2   13      1.45      0.00
   16    2   13      0.92      0.00
   18    2   13     -1.59      0.00
   20    2   13     -1.12      0.00
   22    2   13      0.72      0.00
  -27    3   13      0.14      0.00
  -25    3   13     -0.11      0.00
  -23    3   13      0.32      0.00
  -21    3   13     -1.14      0.00
  -19    3   13     -1.36      0.00
  -17    3   13      0.24      0.00
  -15    3   13      0.62      0.00
  -13    3   13      1.29      0.00
  -11    3   13      1.29      0.00
   -9    3   13      0.49      0.00
   -7    3   13     -0.06      0.00
   -5    3   13     -2.30      0.00
   -3    3   13     -2.07      0.00
   -1    3   13     -1.32      0.00
    1    3   13     -1.21      0.00
    3    3   13      0.34      0.00
    5    3   13     -1.13      0.00
    7    3   13      0.63      0.00
    9    3   13      3.57      0.00
   11    3   13      0.79      0.00
   13    3   13      0.09      0.00
   15    3   13     -0.19      0.00
   17    3   13      0.99      0.00
   19    3   13      2.21      0.00
   21    3   13      0.03      0.00
   23    3   13     -0.74      0.00
  -26    4   13     -0.60      0.00
  -24    4   13      0.53      0.00
  -22    4   13      1.87      0.00
  -20    4   13      2.40      0.00
  -18    4   13      1.76      0.00
  -16    4   13     -0.82      0.00
  -14    4   13     -1.26      0.00
  -12    4   13     -0.76      0.00
  -10    4   13      0.26      0.00
   -8    4   13      1.14      0.00
   -6    4   13      3.14      0.00
   -4    4   13      3.62      0.00
   -2    4   13      1.19      0.00
    0    4   13     -0.12      0.00
    2    4   13     -0.43      0.00
    4    4   13      1.17      0.00
    6    4   13      0.97      0.00
    8    4   13      0.45      0.00
   10    4   13     -0.42      0.00
   12    4   13      0.52      0.00
   14    4   13      1.12      0.00
   16    4   13     -1.75      0.00
   18    4   13     -2.37      0.00
   20    4   13     -2.23      0.00
   22    4   13     -0.57      0.00
  -27    5   13      0.79      0.00
  -25    5   13      0.85      0.00
  -23    5   13     -1.27      0.00
  -21    5   13     -2.84      0.00
  -19    5   13     -2.26      0.00
  -17    5   13     -1.52      0.00
  -15    5   13      0.35      0.00
  -13    5   13      0.65      0.00
  -11    5   13     -0.12      0.00
   -9    5   13     -1.01      0.00
   -7    5   13     -3.91      0.00
   -5    5   13     -3.31      0.00
   -3    5   13     -3.64      0.00
   -1    5   13     -0.55      0.00
    1    5   13      2.50      0.00
    3    5   13     -0.05      0.00
    5    5   13      0.99      0.00
    7    5   13      1.07      0.00
    9    5   13      0.22      0.00
   11    5   13      0.98      0.00
   13    5   13     -0.38      0.00
   15    5   13      0.37      0.00
   17    5   13      2.93      0.00
   19    5   13      2.94      0.00
   21    5   13      1.41      0.00
  -26    6   13     -1.05      0.00
  -24    6   13     -0.37      0.00
  -22    6   13      1.79      0.00
  -20    6   13      2.82      0.00
  -18    6   13      2.23      0.00
  -16    6   13      1.05      0.00
  -14    6   13     -0.55      0.00
  -12    6   13     -1.36      0.00
  -10    6   13     -0.98      0.00
   -8    6   13      0.02      0.00
   -6    6   13      1.44      0.00
   -4    6   13      2.24      0.00
   -2    6   13     -0.14      0.00
    0    6   13     -1.02      0.00
    2    6   13     -1.40      0.00
    4    6   13     -1.43      0.00
    6    6   13      1.03      0.00
    8    6   13     -0.19      0.00
   10    6   13      0.99      0.00
   12    6   13      1.83      0.00
   14    6   13     -0.23      0.00
   16    6   13     -1.26      0.00
   18    6   13     -3.17      0.00
   20    6   13     -1.82      0.00
   22    6   13     -0.87      0.00
  -27    7   13      0.20      0.00
  -25    7   13     -0.23      0.00
  -23    7   13     -0.64      0.00
  -21    7   13     -2.16      0.00
  -19    7   13     -3.10      0.00
  -17    7   13     -0.71      0.00
  -15    7   13     -0.25      0.00
  -13    7   13     -0.06      0.00
  -11    7   13      0.32      0.00
   -9    7   13     -0.81      0.00
   -7    7   13     -1.29      0.00
   -5    7   13     -3.18      0.00
   -3    7   13     -0.75      0.00
   -1    7   13      0.89      0.00
    1    7   13      2.64      0.00
    3    7   13      4.30      0.00
    5    7   13      3.47      0.00
    7    7   13      3.42      0.00
    9    7   13      1.77      0.00
   11    7   13      0.72      0.00
   13    7   13      0.81      0.00
   15    7   13      2.21      0.00
   17    7   13      1.75      0.00
   19    7   13      0.56      0.00
   21    7   13     -0.45      0.00
  -26    8   13     -0.62      0.00
  -24    8   13     -0.47      0.00
  -22    8   13      0.69      0.00
  -20    8   13      1.30      0.00
  -18    8   13      0.25      0.00
  -16    8   13     -0.15      0.00
  -14    8   13      0.04      0.00
  -12    8   13      0.96      0.00
  -10    8   13      0.68      0.00
   -8    8   13      0.86      0.00
   -6    8   13      0.23      0.00
   -4    8   13     -1.48      0.00
   -2    8   13     -1.28      0.00
    0    8   13     -3.89      0.00
    2    8   13     -3.96      0.00
    4    8   13     -3.36      0.00
    6    8   13     -3.63      0.00
    8    8   13     -0.42      0.00
   10    8   13      0.54      0.00
   12    8   13     -0.29      0.00
   14    8   13     -1.30      0.00
   16    8   13     -2.56      0.00
   18    8   13     -0.96      0.00
   20    8   13      0.50      0.00
  -25    9   13      1.17      0.00
  -23    9   13     -0.47      0.00
  -21    9   13     -0.67      0.00
  -19    9   13      0.51      0.00
  -17    9   13      0.20      0.00
  -15    9   13      0.76      0.00
  -13    9   13     -1.16      0.00
  -11    9   13     -3.30      0.00
   -9    9   13     -2.86      0.00
   -7    9   13     -1.72      0.00
   -5    9   13     -0.26      0.00
   -3    9   13      0.11      0.00
   -1    9   13      1.55      0.00
    1    9   13      1.34      0.00
    3    9   13      4.02      0.00
    5    9   13      4.47      0.00
    7    9   13      2.74      0.00
    9    9   13      2.53      0.00
   11    9   13     -0.17      0.00
   13    9   13      0.81      0.00
   15    9   13      1.12      0.00
   17    9   13      0.76      0.00
   19    9   13     -0.94      0.00
   21    9   13     -2.38      0.00
  -24   10   13     -1.44      0.00
  -22   10   13     -1.07      0.00
  -20   10   13     -0.25      0.00
  -18   10   13     -0.89      0.00
  -16   10   13     -1.51      0.00
  -14   10   13      1.08      0.00
  -12   10   13      3.06      0.00
  -10   10   13      3.55      0.00
   -8   10   13      0.63      0.00
   -6   10   13     -2.52      0.00
   -4   10   13     -3.31      0.00
   -2   10   13     -2.41      0.00
    0   10   13     -0.04      0.00
    2   10   13      0.59      0.00
    4   10   13      1.43      0.00
    6   10   13     -0.25      0.00
    8   10   13      0.93      0.00
   10   10   13      2.00      0.00
   12   10   13      2.17      0.00
   14   10   13      2.62      0.00
   16   10   13      1.22      0.00
   18   10   13      0.54      0.00
   20   10   13      0.94      0.00
  -23   11   13      1.87      0.00
  -21   11   13      0.18      0.00
  -19   11   13      0.33      0.00
  -17   11   13      2.11      0.00
  -15   11   13      0.37      0.00
  -13   11   13     -2.04      0.00
  -11   11   13     -4.08      0.00
   -9   11   13     -3.32      0.00
   -7   11   13     -0.03      0.00
   -5   11   13      2.57      0.00
   -3   11   13      1.93      0.00
   -1   11   13     -1.19      0.00
    1   11   13     -2.33      0.00
    3   11   13     -3.97      0.00
    5   11   13     -1.95      0.00
    7   11   13      1.08      0.00
    9   11   13      1.45      0.00
   11   11   13      1.65      0.00
   13   11   13     -1.29      0.00
   15   11   13     -2.30      0.00
   17   11   13     -1.35      0.00
   19   11   13     -0.17      0.00
  -24   12   13     -1.49      0.00
  -22   12   13     -0.50      0.00
  -20   12   13     -1.21      0.00
  -18   12   13     -1.54      0.00
  -16   12   13     -1.84      0.00
  -14   12   13     -0.60      0.00
  -12   12   13      3.27      0.00
  -10   12   13      4.12      0.00
   -8   12   13      1.77      0.00
   -6   12   13     -1.33      0.00
   -4   12   13     -2.32      0.00
   -2   12   13     -1.84      0.00
    0   12   13      1.95      0.00
    2   12   13      4.03      0.00
    4   12   13      2.08      0.00
    6   12   13      3.12      0.00
    8   12   13     -4.62      0.00
   10   12   13     -6.40      0.00
   12   12   13     -2.64      0.00
   14   12   13     -1.16      0.00
   16   12   13      0.93      0.00
   18   12   13     -0.97      0.00
  -23   13   13      1.11      0.00
  -21   13   13      1.29      0.00
  -19   13   13      1.30      0.00
  -17   13   13      1.53      0.00
  -15   13   13      1.31      0.00
  -13   13   13     -1.97      0.00
  -11   13   13     -4.35      0.00
   -9   13   13     -4.36      0.00
   -7   13   13     -2.65      0.00
   -5   13   13     -0.89      0.00
   -3   13   13     -1.08      0.00
   -1   13   13     -1.21      0.00
    1   13   13     -0.72      0.00
    3   13   13     -1.81      0.00
    5   13   13      2.24      0.00
    7   13   13      9.20      0.00
    9   13   13     14.19      0.00
   11   13   13     15.62      0.00
   13   13   13      9.12      0.00
   15   13   13      3.30      0.00
   17   13   13      2.23      0.00
  -22   14   13     -2.29      0.00
  -20   14   13     -1.74      0.00
  -18   14   13     -2.41      0.00
  -16   14   13     -1.23      0.00
  -14   14   13      0.53      0.00
  -12   14   13      1.70      0.00
  -10   14   13      2.73      0.00
   -8   14   13      1.95      0.00
   -6   14   13      0.98      0.00
   -4   14   13      0.62      0.00
   -2   14   13      0.89      0.00
    0   14   13     -1.22      0.00
    2   14   13     -1.21      0.00
    4   14   13     -0.75      0.00
    6   14   13    -10.09      0.00
    8   14   13    -15.13      0.00
   10   14   13    -20.03      0.00
   12   14   13    -17.33      0.00
   14   14   13     -6.48      0.00
   16   14   13     -2.78      0.00
  -21   15   13      2.14      0.00
  -19   15   13      1.26      0.00
  -17   15   13      0.01      0.00
  -15   15   13     -1.30      0.00
  -13   15   13     -1.73      0.00
  -11   15   13     -1.93      0.00
   -9   15   13     -1.73      0.00
   -7   15   13     -2.01      0.00
   -5   15   13     -3.66      0.00
   -3   15   13     -2.39      0.00
   -1   15   13     -0.75      0.00
    1   15   13     -1.87      0.00
    3   15   13      3.00      0.00
    5   15   13      3.96      0.00
    7   15   13     11.66      0.00
    9   15   13     23.23      0.00
   11   15   13     19.18      0.00
   13   15   13     13.13      0.00
   15   15   13      4.69      0.00
  -20   16   13     -1.74      0.00
  -18   16   13     -0.04      0.00
  -16   16   13      0.44      0.00
  -14   16   13      0.73      0.00
  -12   16   13      0.29      0.00
  -10   16   13     -0.74      0.00
   -8   16   13      0.22      0.00
   -6   16   13      1.80      0.00
   -4   16   13      1.95      0.00
   -2   16   13      1.27      0.00
    0   16   13      0.23      0.00
    2   16   13      1.88      0.00
    4   16   13      2.57      0.00
    6   16   13     -0.33      0.00
   10   16   13    -14.46      0.00
   12   16   13    -11.55      0.00
   14   16   13     -6.05      0.00
  -19   17   13     -0.32      0.00
  -17   17   13     -1.27      0.00
  -15   17   13     -1.55      0.00
  -13   17   13     -1.16      0.00
  -11   17   13     -0.77      0.00
   -9   17   13     -1.64      0.00
   -7   17   13     -3.44      0.00
   -5   17   13     -4.18      0.00
   -3   17   13     -4.12      0.00
   -1   17   13     -2.41      0.00
    1   17   13     -1.13      0.00
    3   17   13     -8.25      0.00
    5   17   13     -5.65      0.00
    7   17   13      0.06      0.00
    9   17   13      3.31      0.00
   11   17   13     11.33      0.00
   13   17   13      6.43      0.00
  -16   18   13      0.95      0.00
  -14   18   13      1.37      0.00
  -12   18   13      1.36      0.00
  -10   18   13      1.48      0.00
   -8   18   13      1.83      0.00
   -6   18   13      2.44      0.00
   -4   18   13      2.03      0.00
   -2   18   13     -0.86      0.00
    0   18   13      1.81      0.00
    2   18   13      5.32      0.00
    4   18   13      9.17      0.00
    6   18   13     11.01      0.00
    8   18   13      3.54      0.00
   10   18   13     -1.49      0.00
   12   18   13     -3.64      0.00
  -15   19   13     -0.79      0.00
  -13   19   13     -1.56      0.00
  -11   19   13     -2.18      0.00
   -9   19   13     -2.60      0.00
   -7   19   13     -3.55      0.00
   -5   19   13     -2.80      0.00
   -3   19   13     -0.87      0.00
   -1   19   13     -0.27      0.00
    1   19   13     -3.21      0.00
    3   19   13     -5.23      0.00
    5   19   13     -7.89      0.00
    7   19   13     -5.03      0.00
    9   19   13      2.67      0.00
  -12   20   13      0.83      0.00
  -10   20   13      1.34      0.00
   -8   20   13      1.66      0.00
   -6   20   13      1.27      0.00
   -4   20   13     -0.06      0.00
   -2   20   13     -0.38      0.00
    0   20   13     -0.73      0.00
    2   20   13      3.98      0.00
    4   20   13      7.40      0.00
    6   20   13      3.66      0.00
    8   20   13      2.86      0.00
   -9   21   13     -0.42      0.00
   -7   21   13     -0.98      0.00
   -5   21   13     -1.42      0.00
   -3   21   13     -0.06      0.00
   -1   21   13      0.44      0.00
    1   21   13     -1.10      0.00
    3   21   13     -2.49      0.00
    5   21   13     -2.86      0.00
   -4   22   13     -0.72      0.00
   -2   22   13     -1.05      0.00
  -28    0   14      0.30      0.00
  -26    0   14     -0.10      0.00
  -24    0   14     -0.20      0.00
  -22    0   14     -1.55      0.00
  -20    0   14      0.22      0.00
  -18    0   14      0.32      0.00
  -16    0   14      0.21      0.00
  -14    0   14      1.53      0.00
  -12    0   14      0.32      0.00
  -10    0   14     -2.64      0.00
   -8    0   14     -3.52      0.00
   -6    0   14     -1.95      0.00
   -4    0   14     -0.33      0.00
   -2    0   14      0.16      0.00
    0    0   14     -0.63      0.00
    2    0   14      2.06      0.00
    4    0   14      4.70      0.00
    6    0   14      5.22      0.00
    8    0   14      0.54      0.00
   10    0   14     -3.82      0.00
   12    0   14     -0.60      0.00
   14    0   14      1.42      0.00
   16    0   14      2.35      0.00
   18    0   14      0.13      0.00
   20    0   14     -1.68      0.00
   22    0   14      0.55      0.00
  -27    1   14     -0.50      0.00
  -25    1   14      0.03      0.00
  -23    1   14      0.01      0.00
  -21    1   14     -0.47      0.00
  -19    1   14     -0.67      0.00
  -17    1   14     -0.73      0.00
  -15    1   14     -0.66      0.00
  -13    1   14     -1.04      0.00
  -11    1   14     -0.15      0.00
   -9    1   14      1.07      0.00
   -7    1   14      1.21      0.00
   -5    1   14     -0.77      0.00
   -3    1   14     -0.53      0.00
   -1    1   14      2.48      0.00
    1    1   14      2.73      0.00
    3    1   14      0.34      0.00
    5    1   14     -1.84      0.00
    7    1   14      0.25      0.00
    9    1   14      4.16      0.00
   11    1   14      4.40      0.00
   13    1   14      0.45      0.00
   15    1   14     -2.34      0.00
   17    1   14     -1.32      0.00
   19    1   14      0.21      0.00
   21    1   14      0.30      0.00
  -26    2   14      0.70      0.00
  -24    2   14     -0.13      0.00
  -22    2   14      1.02      0.00
  -20    2   14      0.29      0.00
  -18    2   14     -0.04      0.00
  -16    2   14      0.22      0.00
  -14    2   14      0.13      0.00
  -12    2   14      1.10      0.00
  -10    2   14      0.93      0.00
   -8    2   14     -0.22      0.00
   -6    2   14      0.12      0.00
   -4    2   14     -0.81      0.00
   -2    2   14     -3.26      0.00
    0    2   14     -4.78      0.00
    2    2   14     -2.94      0.00
    4    2   14      3.63      0.00
    6    2   14      4.48      0.00
    8    2   14      1.88      0.00
   10    2   14     -0.01      0.00
   12    2   14     -1.55      0.00
   14    2   14      1.77      0.00
   16    2   14      1.80      0.00
   18    2   14      0.21      0.00
   20    2   14      0.02      0.00
   22    2   14      0.13      0.00
  -27    3   14      0.83      0.00
  -25    3   14     -0.22      0.00
  -23    3   14     -0.44      0.00
  -21    3   14     -1.31      0.00
  -19    3   14     -1.33      0.00
  -17    3   14     -0.03      0.00
  -15    3   14     -0.30      0.00
  -13    3   14     -0.56      0.00
  -11    3   14     -1.18      0.00
   -9    3   14     -1.32      0.00
   -7    3   14     -2.27      0.00
   -5    3   14     -0.43      0.00
   -3    3   14      2.53      0.00
   -1    3   14      5.38      0.00
    1    3   14      6.76      0.00
    3    3   14      2.74      0.00
    5    3   14     -1.07      0.00
    7    3   14     -2.15      0.00
    9    3   14      0.15      0.00
   11    3   14      0.87      0.00
   13    3   14     -0.03      0.00
   15    3   14     -1.42      0.00
   17    3   14     -1.75      0.00
   19    3   14      0.38      0.00
   21    3   14      0.36      0.00
  -26    4   14     -0.17      0.00
  -24    4   14      0.69      0.00
  -22    4   14      0.81      0.00
  -20    4   14      1.81      0.00
  -18    4   14      2.10      0.00
  -16    4   14      0.38      0.00
  -14    4   14     -0.01      0.00
  -12    4   14     -0.53      0.00
  -10    4   14     -0.15      0.00
   -8    4   14      0.73      0.00
   -6    4   14     -0.15      0.00
   -4    4   14      0.07      0.00
   -2    4   14     -3.12      0.00
    0    4   14     -3.48      0.00
    2    4   14      0.14      0.00
    4    4   14      2.04      0.00
    6    4   14      6.57      0.00
    8    4   14      6.24      0.00
   10    4   14      2.90      0.00
   12    4   14      3.46      0.00
   14    4   14      2.62      0.00
   16    4   14      2.12      0.00
   18    4   14      0.94      0.00
   20    4   14     -0.66      0.00
   22    4   14     -0.22      0.00
  -27    5   14      0.76      0.00
  -25    5   14      1.28      0.00
  -23    5   14      0.41      0.00
  -21    5   14     -0.82      0.00
  -19    5   14     -2.27      0.00
  -17    5   14     -2.36      0.00
  -15    5   14     -0.35      0.00
  -13    5   14      0.58      0.00
  -11    5   14      0.62      0.00
   -9    5   14      0.22      0.00
   -7    5   14      0.22      0.00
   -5    5   14      0.15      0.00
   -3    5   14      1.82      0.00
   -1    5   14      2.26      0.00
    1    5   14      2.45      0.00
    3    5   14      0.81      0.00
    5    5   14     -2.27      0.00
    7    5   14     -2.04      0.00
    9    5   14     -3.13      0.00
   11    5   14     -1.79      0.00
   13    5   14     -1.98      0.00
   15    5   14     -3.02      0.00
   17    5   14     -1.72      0.00
   19    5   14     -1.01      0.00
   21    5   14      0.55      0.00
  -26    6   14     -0.44      0.00
  -24    6   14     -1.01      0.00
  -22    6   14      0.87      0.00
  -20    6   14      2.37      0.00
  -18    6   14      1.50      0.00
  -16    6   14      1.03      0.00
  -14    6   14     -1.14      0.00
  -12    6   14     -1.30      0.00
  -10    6   14     -0.34      0.00
   -8    6   14      0.18      0.00
   -6    6   14      0.94      0.00
   -4    6   14     -1.00      0.00
   -2    6   14      0.64      0.00
    0    6   14      0.42      0.00
    2    6   14      0.73      0.00
    4    6   14      3.58      0.00
    6    6   14      3.94      0.00
    8    6   14      4.80      0.00
   10    6   14      4.67      0.00
   12    6   14      2.95      0.00
   14    6   14      2.98      0.00
   16    6   14      3.56      0.00
   18    6   14      2.19      0.00
   20    6   14      0.96      0.00
  -25    7   14      1.92      0.00
  -23    7   14      1.14      0.00
  -21    7   14     -0.61      0.00
  -19    7   14     -1.07      0.00
  -17    7   14     -0.11      0.00
  -15    7   14      1.09      0.00
  -13    7   14      0.79      0.00
  -11    7   14     -0.74      0.00
   -9    7   14     -2.53      0.00
   -7    7   14     -1.74      0.00
   -5    7   14     -0.78      0.00
   -3    7   14     -1.19      0.00
   -1    7   14      0.34      0.00
    1    7   14     -0.98      0.00
    3    7   14     -0.03      0.00
    5    7   14      0.56      0.00
    7    7   14     -2.01      0.00
    9    7   14     -0.58      0.00
   11    7   14     -1.32      0.00
   13    7   14     -2.07      0.00
   15    7   14     -2.33      0.00
   17    7   14     -3.20      0.00
   19    7   14     -1.85      0.00
   21    7   14     -1.58      0.00
  -26    8   14     -1.88      0.00
  -24    8   14     -1.18      0.00
  -22    8   14     -0.68      0.00
  -20    8   14      0.62      0.00
  -18    8   14      0.78      0.00
  -16    8   14     -2.13      0.00
  -14    8   14     -1.45      0.00
  -12    8   14      0.39      0.00
  -10    8   14      1.79      0.00
   -8    8   14      1.71      0.00
   -6    8   14      0.32      0.00
   -4    8   14      0.95      0.00
   -2    8   14      1.83      0.00
    0    8   14      4.45      0.00
    2    8   14      4.20      0.00
    4    8   14      4.97      0.00
    6    8   14      4.55      0.00
    8    8   14      3.79      0.00
   10    8   14      4.37      0.00
   12    8   14      3.90      0.00
   14    8   14      5.00      0.00
   16    8   14      4.02      0.00
   18    8   14      3.08      0.00
   20    8   14      1.61      0.00
  -25    9   14      2.37      0.00
  -23    9   14      1.59      0.00
  -21    9   14     -0.29      0.00
  -19    9   14     -0.22      0.00
  -17    9   14      1.15      0.00
  -15    9   14      1.31      0.00
  -13    9   14      0.21      0.00
  -11    9   14     -2.21      0.00
   -9    9   14     -1.83      0.00
   -7    9   14     -0.82      0.00
   -5    9   14      0.28      0.00
   -3    9   14     -0.76      0.00
   -1    9   14     -4.24      0.00
    1    9   14     -4.77      0.00
    3    9   14     -5.35      0.00
    5    9   14     -3.82      0.00
    7    9   14     -2.06      0.00
    9    9   14     -1.67      0.00
   11    9   14     -2.48      0.00
   13    9   14     -4.82      0.00
   15    9   14     -5.82      0.00
   17    9   14     -4.19      0.00
   19    9   14     -2.03      0.00
  -24   10   14     -2.06      0.00
  -22   10   14      0.31      0.00
  -20   10   14      0.67      0.00
  -18   10   14     -0.32      0.00
  -16   10   14     -0.32      0.00
  -14   10   14     -0.86      0.00
  -12   10   14      0.94      0.00
  -10   10   14      1.72      0.00
   -8   10   14     -0.02      0.00
   -6   10   14     -1.97      0.00
   -4   10   14     -1.09      0.00
   -2   10   14      1.67      0.00
    0   10   14      4.38      0.00
    2   10   14      8.07      0.00
    4   10   14      6.46      0.00
    6   10   14      5.89      0.00
    8   10   14      3.58      0.00
   10   10   14      1.20      0.00
   12   10   14      4.07      0.00
   14   10   14      4.97      0.00
   16   10   14      4.84      0.00
   18   10   14      1.89      0.00
  -23   11   14      0.64      0.00
  -21   11   14      0.06      0.00
  -19   11   14     -0.65      0.00
  -17   11   14      0.88      0.00
  -15   11   14      1.78      0.00
  -13   11   14      0.05      0.00
  -11   11   14     -1.03      0.00
   -9   11   14     -1.65      0.00
   -7   11   14     -0.42      0.00
   -5   11   14      0.10      0.00
   -3   11   14     -0.23      0.00
   -1   11   14     -2.02      0.00
    1   11   14     -1.87      0.00
    3   11   14     -1.92      0.00
    5   11   14     -2.40      0.00
    7   11   14      3.10      0.00
    9   11   14      3.34      0.00
   11   11   14      3.57      0.00
   13   11   14      1.61      0.00
   15   11   14     -1.77      0.00
   17   11   14     -0.91      0.00
   19   11   14      0.33      0.00
  -22   12   14     -0.56      0.00
  -20   12   14      0.49      0.00
  -18   12   14      0.24      0.00
  -16   12   14     -0.45      0.00
  -14   12   14      0.59      0.00
  -12   12   14      0.98      0.00
  -10   12   14      1.27      0.00
   -8   12   14      0.80      0.00
   -6   12   14     -0.01      0.00
   -4   12   14     -0.36      0.00
   -2   12   14     -0.26      0.00
    0   12   14     -0.16      0.00
    2   12   14     -0.41      0.00
    4   12   14     -0.40      0.00
    6   12   14     -1.90      0.00
    8   12   14     -4.24      0.00
   10   12   14     -6.23      0.00
   12   12   14     -5.56      0.00
   14   12   14     -2.56      0.00
   16   12   14     -0.99      0.00
   18   12   14     -0.73      0.00
  -21   13   14      0.93      0.00
  -19   13   14      1.05      0.00
  -17   13   14     -0.51      0.00
  -15   13   14     -0.73      0.00
  -13   13   14     -0.28      0.00
  -11   13   14     -0.37      0.00
   -9   13   14      0.53      0.00
   -7   13   14      0.77      0.00
   -5   13   14      0.56      0.00
   -3   13   14      0.15      0.00
   -1   13   14      2.40      0.00
    1   13   14      1.86      0.00
    3   13   14      3.62      0.00
    5   13   14      6.08      0.00
    7   13   14      2.58      0.00
    9   13   14      7.78      0.00
   11   13   14      7.36      0.00
   13   13   14      4.34      0.00
   15   13   14      3.11      0.00
   17   13   14      0.17      0.00
  -20   14   14     -0.58      0.00
  -18   14   14      1.02      0.00
  -16   14   14      2.58      0.00
  -14   14   14      2.34      0.00
  -12   14   14      1.07      0.00
  -10   14   14     -0.96      0.00
   -8   14   14     -2.28      0.00
   -6   14   14     -2.07      0.00
   -4   14   14     -2.10      0.00
   -2   14   14     -0.73      0.00
    0   14   14     -1.00      0.00
    2   14   14     -3.33      0.00
    4   14   14      0.68      0.00
    6   14   14      0.82      0.00
    8   14   14      1.14      0.00
   10   14   14      2.03      0.00
   12   14   14     -2.12      0.00
   14   14   14     -0.75      0.00
   16   14   14      0.93      0.00
  -19   15   14     -0.29      0.00
  -17   15   14     -1.29      0.00
  -15   15   14     -2.68      0.00
  -13   15   14     -1.52      0.00
  -11   15   14      1.24      0.00
   -9   15   14      2.65      0.00
   -7   15   14      3.43      0.00
   -5   15   14      2.70      0.00
   -3   15   14      1.40      0.00
   -1   15   14      0.43      0.00
    1   15   14      1.57      0.00
    3   15   14     -0.10      0.00
    5   15   14     -5.26      0.00
    7   15   14     -6.98      0.00
    9   15   14    -10.04      0.00
   11   15   14     -5.45      0.00
   13   15   14     -0.45      0.00
   15   15   14     -0.73      0.00
  -18   16   14      0.97      0.00
  -16   16   14      2.01      0.00
  -14   16   14      2.41      0.00
  -12   16   14      1.17      0.00
  -10   16   14     -1.04      0.00
   -8   16   14     -2.61      0.00
   -6   16   14     -3.09      0.00
   -4   16   14     -1.36      0.00
   -2   16   14     -1.85      0.00
    0   16   14     -2.03      0.00
    2   16   14      1.08      0.00
    4   16   14      0.06      0.00
    6   16   14     10.20      0.00
    8   16   14     15.31      0.00
   10   16   14      9.94      0.00
   12   16   14      7.86      0.00
   14   16   14      0.61      0.00
  -17   17   14     -0.51      0.00
  -15   17   14     -1.66      0.00
  -13   17   14     -2.17      0.00
  -11   17   14     -1.09      0.00
   -9   17   14      1.52      0.00
   -7   17   14      2.83      0.00
   -5   17   14      3.19      0.00
   -3   17   14      2.96      0.00
   -1   17   14      1.99      0.00
    3   17   14      2.60      0.00
    5   17   14     -2.38      0.00
    7   17   14     -8.40      0.00
    9   17   14    -11.51      0.00
   11   17   14     -7.68      0.00
   13   17   14     -1.85      0.00
  -16   18   14      0.51      0.00
  -14   18   14      1.48      0.00
  -12   18   14      1.35      0.00
  -10   18   14     -0.11      0.00
   -8   18   14     -2.26      0.00
   -6   18   14     -3.80      0.00
   -4   18   14     -3.94      0.00
   -2   18   14     -3.24      0.00
    0   18   14     -4.67      0.00
    2   18   14     -8.22      0.00
    4   18   14     -3.78      0.00
    6   18   14     -1.84      0.00
    8   18   14      3.00      0.00
   10   18   14      7.65      0.00
  -13   19   14     -0.07      0.00
  -11   19   14      0.63      0.00
   -9   19   14      1.99      0.00
   -7   19   14      3.25      0.00
   -5   19   14      3.07      0.00
   -3   19   14      2.35      0.00
   -1   19   14      4.42      0.00
    1   19   14      4.46      0.00
    3   19   14      7.60      0.00
    5   19   14      7.33      0.00
    7   19   14      1.37      0.00
    9   19   14      0.55      0.00
  -12   20   14     -1.44      0.00
   -8   20   14     -3.03      0.00
   -6   20   14     -2.35      0.00
   -4   20   14     -2.11      0.00
   -2   20   14     -1.83      0.00
    0   20   14     -3.42      0.00
    2   20   14     -4.78      0.00
    4   20   14     -6.36      0.00
    6   20   14     -4.56      0.00
   -7   21   14      2.02      0.00
   -5   21   14      0.98      0.00
   -3   21   14      0.31      0.00
   -1   21   14      0.58      0.00
    1   21   14      2.96      0.00
    3   21   14      2.81      0.00
  -27    1   15      0.82      0.00
  -25    1   15      1.40      0.00
  -23    1   15      1.04      0.00
  -21    1   15      1.92      0.00
  -19    1   15      0.42      0.00
  -17    1   15      0.54      0.00
  -15    1   15      1.14      0.00
  -13    1   15      0.34      0.00
  -11    1   15     -0.22      0.00
   -9    1   15     -0.34      0.00
   -7    1   15     -0.88      0.00
   -5    1   15      0.52      0.00
   -3    1   15      1.38      0.00
   -1    1   15      1.25      0.00
    1    1   15      1.68      0.00
    3    1   15      0.25      0.00
    5    1   15      1.06      0.00
    7    1   15     -0.72      0.00
    9    1   15     -0.96      0.00
   11    1   15      0.68      0.00
   13    1   15      0.09      0.00
   15    1   15      1.24      0.00
   17    1   15      0.19      0.00
   19    1   15     -0.57      0.00
   21    1   15     -0.49      0.00
  -26    2   15     -2.05      0.00
  -24    2   15     -3.86      0.00
  -22    2   15     -3.69      0.00
  -20    2   15     -2.59      0.00
  -18    2   15     -0.89      0.00
  -16    2   15      0.07      0.00
  -14    2   15     -0.58      0.00
  -12    2   15     -0.41      0.00
  -10    2   15      0.28      0.00
   -8    2   15      0.39      0.00
   -6    2   15     -1.68      0.00
   -4    2   15     -1.73      0.00
   -2    2   15     -1.71      0.00
    0    2   15     -1.21      0.00
    2    2   15     -0.22      0.00
    4    2   15     -0.60      0.00
    6    2   15      0.23      0.00
    8    2   15      0.73      0.00
   10    2   15      0.66      0.00
   12    2   15     -0.48      0.00
   14    2   15     -0.87      0.00
   16    2   15     -1.02      0.00
   18    2   15     -0.77      0.00
   20    2   15      0.57      0.00
  -27    3   15      1.44      0.00
  -25    3   15      3.57      0.00
  -23    3   15      5.34      0.00
  -21    3   15      3.37      0.00
  -19    3   15      1.20      0.00
  -17    3   15     -0.40      0.00
  -15    3   15     -0.63      0.00
  -13    3   15      1.04      0.00
  -11    3   15      1.05      0.00
   -9    3   15      0.89      0.00
   -7    3   15      1.73      0.00
   -5    3   15      1.00      0.00
   -3    3   15      0.50      0.00
   -1    3   15     -2.59      0.00
    1    3   15     -3.74      0.00
    3    3   15     -1.53      0.00
    5    3   15     -2.34      0.00
    7    3   15     -0.38      0.00
    9    3   15     -0.52      0.00
   11    3   15     -1.66      0.00
   13    3   15      0.55      0.00
   15    3   15      0.63      0.00
   17    3   15      1.37      0.00
   19    3   15      1.18      0.00
   21    3   15     -0.05      0.00
  -26    4   15     -3.62      0.00
  -24    4   15     -5.69      0.00
  -22    4   15     -5.97      0.00
  -20    4   15     -2.66      0.00
  -18    4   15      0.34      0.00
  -16    4   15      1.19      0.00
  -14    4   15      1.19      0.00
  -12    4   15      0.18      0.00
  -10    4   15     -0.62      0.00
   -8    4   15     -1.43      0.00
   -6    4   15     -1.27      0.00
   -4    4   15     -1.32      0.00
   -2    4   15      1.93      0.00
    0    4   15      3.61      0.00
    2    4   15      3.26      0.00
    4    4   15      1.09      0.00
    6    4   15     -1.75      0.00
    8    4   15     -1.12      0.00
   10    4   15     -0.93      0.00
   12    4   15      0.54      0.00
   14    4   15     -0.07      0.00
   16    4   15     -1.04      0.00
   18    4   15     -0.89      0.00
   20    4   15     -0.81      0.00
  -25    5   15      4.94      0.00
  -23    5   15      5.09      0.00
  -21    5   15      3.89      0.00
  -19    5   15      1.20      0.00
  -17    5   15     -0.96      0.00
  -15    5   15      0.06      0.00
  -13    5   15      0.00      0.00
  -11    5   15      0.46      0.00
   -9    5   15      0.29      0.00
   -7    5   15      0.34      0.00
   -5    5   15      0.60      0.00
   -3    5   15     -2.95      0.00
   -1    5   15     -3.63      0.00
    1    5   15     -4.77      0.00
    3    5   15     -3.57      0.00
    5    5   15      1.77      0.00
    7    5   15      2.40      0.00
    9    5   15      1.98      0.00
   11    5   15      1.31      0.00
   13    5   15     -0.65      0.00
   15    5   15      0.59      0.00
   17    5   15      1.76      0.00
   19    5   15      0.92      0.00
   21    5   15     -0.34      0.00
  -26    6   15     -3.28      0.00
  -24    6   15     -4.74      0.00
  -22    6   15     -3.73      0.00
  -20    6   15     -2.08      0.00
  -18    6   15     -0.57      0.00
  -16    6   15     -0.12      0.00
  -14    6   15     -0.22      0.00
  -12    6   15      0.56      0.00
  -10    6   15      1.51      0.00
   -8    6   15      1.22      0.00
   -6    6   15      1.36      0.00
   -4    6   15      2.09      0.00
   -2    6   15      2.18      0.00
    0    6   15      4.32      0.00
    2    6   15      1.48      0.00
    4    6   15     -1.48      0.00
    6    6   15     -3.89      0.00
    8    6   15     -5.98      0.00
   10    6   15     -1.47      0.00
   12    6   15      0.63      0.00
   14    6   15      1.19      0.00
   16    6   15      0.22      0.00
   18    6   15     -0.70      0.00
   20    6   15      0.90      0.00
  -25    7   15      3.66      0.00
  -23    7   15      4.26      0.00
  -21    7   15      1.95      0.00
  -19    7   15      0.78      0.00
  -17    7   15      1.61      0.00
  -15    7   15      0.44      0.00
  -13    7   15      0.81      0.00
  -11    7   15      0.31      0.00
   -9    7   15      0.37      0.00
   -7    7   15      0.14      0.00
   -5    7   15     -0.78      0.00
   -3    7   15     -1.39      0.00
   -1    7   15     -4.58      0.00
    1    7   15     -4.67      0.00
    3    7   15     -3.24      0.00
    5    7   15      0.72      0.00
    7    7   15      3.56      0.00
    9    7   15      2.17      0.00
   11    7   15     -1.45      0.00
   13    7   15     -3.02      0.00
   15    7   15     -1.23      0.00
   17    7   15      0.23      0.00
   19    7   15      0.73      0.00
  -24    8   15     -1.94      0.00
  -22    8   15     -0.92      0.00
  -20    8   15     -0.16      0.00
  -18    8   15      0.06      0.00
  -16    8   15     -0.32      0.00
  -14    8   15     -0.60      0.00
  -12    8   15     -0.40      0.00
  -10    8   15     -0.74      0.00
   -8    8   15     -0.05      0.00
   -6    8   15     -0.58      0.00
   -4    8   15      0.45      0.00
   -2    8   15      2.38      0.00
    0    8   15      2.34      0.00
    2    8   15      3.66      0.00
    4    8   15     -0.23      0.00
    6    8   15     -3.84      0.00
    8    8   15     -2.67      0.00
   10    8   15      0.06      0.00
   12    8   15      4.72      0.00
   14    8   15      5.05      0.00
   16    8   15      2.32      0.00
   18    8   15      0.76      0.00
   20    8   15      0.69      0.00
  -25    9   15      1.06      0.00
  -23    9   15     -0.36      0.00
  -21    9   15     -0.20      0.00
  -19    9   15     -0.79      0.00
  -17    9   15     -0.97      0.00
  -15    9   15      0.99      0.00
  -13    9   15      0.93      0.00
  -11    9   15      1.54      0.00
   -9    9   15      1.78      0.00
   -7    9   15      1.65      0.00
   -5    9   15      0.86      0.00
   -3    9   15      0.14      0.00
   -1    9   15     -1.59      0.00
    1    9   15     -3.54      0.00
    3    9   15     -1.30      0.00
    5    9   15     -0.66      0.00
    7    9   15      2.25      0.00
    9    9   15      0.83      0.00
   11    9   15     -2.70      0.00
   13    9   15     -2.59      0.00
   15    9   15     -1.67      0.00
   17    9   15      0.91      0.00
   19    9   15      0.36      0.00
  -24   10   15      1.35      0.00
  -22   10   15      2.29      0.00
  -20   10   15      2.81      0.00
  -18   10   15      1.17      0.00
  -16   10   15     -0.04      0.00
  -14   10   15     -0.91      0.00
  -12   10   15     -1.72      0.00
  -10   10   15     -0.76      0.00
   -8   10   15     -0.16      0.00
   -6   10   15      0.98      0.00
   -4   10   15      0.29      0.00
   -2   10   15     -0.28      0.00
    0   10   15     -1.18      0.00
    2   10   15     -2.05      0.00
    4   10   15     -2.87      0.00
    6   10   15     -4.06      0.00
    8   10   15     -1.33      0.00
   10   10   15     -0.18      0.00
   12   10   15      0.74      0.00
   14   10   15      0.28      0.00
   16   10   15     -1.06      0.00
   18   10   15     -0.69      0.00
  -23   11   15     -2.45      0.00
  -21   11   15     -3.09      0.00
  -19   11   15     -1.65      0.00
  -17   11   15     -0.50      0.00
  -15   11   15     -0.10      0.00
  -13   11   15      1.39      0.00
  -11   11   15      1.17      0.00
   -9   11   15      0.16      0.00
   -7   11   15     -0.83      0.00
   -5   11   15     -1.03      0.00
   -3   11   15     -1.23      0.00
   -1   11   15      0.20      0.00
    1   11   15      1.63      0.00
    3   11   15      1.36      0.00
    5   11   15      1.89      0.00
    7   11   15     -1.54      0.00
    9   11   15     -2.03      0.00
   11   11   15      0.10      0.00
   13   11   15      2.11      0.00
   15   11   15      4.29      0.00
   17   11   15      3.00      0.00
  -22   12   15      3.05      0.00
  -20   12   15      2.00      0.00
  -18   12   15      2.17      0.00
  -16   12   15      1.12      0.00
  -14   12   15      0.44      0.00
  -12   12   15     -0.03      0.00
  -10   12   15     -0.75      0.00
   -8   12   15     -0.14      0.00
   -6   12   15      0.33      0.00
   -4   12   15      0.80      0.00
   -2   12   15     -0.22      0.00
    0   12   15     -0.15      0.00
    2   12   15     -3.40      0.00
    4   12   15     -0.66      0.00
    6   12   15      6.00      0.00
    8   12   15      6.08      0.00
   10   12   15      8.00      0.00
   12   12   15      2.24      0.00
   14   12   15     -2.21      0.00
   16   12   15     -1.55      0.00
  -21   13   15     -1.94      0.00
  -19   13   15     -1.38      0.00
  -17   13   15     -1.13      0.00
  -15   13   15     -0.94      0.00
  -13   13   15     -0.61      0.00
  -11   13   15      0.87      0.00
   -9   13   15      1.79      0.00
   -7   13   15      1.40      0.00
   -5   13   15      0.09      0.00
   -3   13   15     -2.12      0.00
   -1   13   15     -2.19      0.00
    1   13   15     -1.56      0.00
    3   13   15     -4.60      0.00
    5   13   15     -9.57      0.00
    7   13   15    -16.70      0.00
    9   13   15    -17.55      0.00
   11   13   15     -9.54      0.00
   13   13   15     -2.29      0.00
   15   13   15      1.81      0.00
  -20   14   15      1.56      0.00
  -18   14   15      0.59      0.00
  -16   14   15      1.70      0.00
  -14   14   15      1.57      0.00
  -12   14   15      0.79      0.00
  -10   14   15     -0.34      0.00
   -8   14   15     -1.84      0.00
   -6   14   15     -1.10      0.00
   -4   14   15      0.97      0.00
   -2   14   15      2.53      0.00
    0   14   15      0.76      0.00
    2   14   15      4.06      0.00
    4   14   15      9.34      0.00
    6   14   15     17.55      0.00
    8   14   15     26.28      0.00
   10   14   15     18.47      0.00
   12   14   15      9.46      0.00
   14   14   15      1.99      0.00
  -19   15   15      0.54      0.00
  -17   15   15      0.96      0.00
  -15   15   15     -0.31      0.00
  -13   15   15     -1.06      0.00
  -11   15   15     -0.50      0.00
   -9   15   15      0.76      0.00
   -7   15   15      1.32      0.00
   -5   15   15     -0.72      0.00
   -3   15   15     -1.59      0.00
   -1   15   15     -3.26      0.00
    1   15   15     -3.16      0.00
    3   15   15     -4.23      0.00
    5   15   15    -17.08      0.00
    7   15   15    -21.88      0.00
    9   15   15    -21.17      0.00
   11   15   15    -15.09      0.00
   13   15   15     -1.74      0.00
  -18   16   15     -1.24      0.00
  -16   16   15     -0.50      0.00
  -14   16   15      2.19      0.00
  -12   16   15      3.34      0.00
  -10   16   15      2.01      0.00
   -8   16   15      0.70      0.00
   -6   16   15     -0.24      0.00
   -4   16   15      0.70      0.00
   -2   16   15      1.05      0.00
    0   16   15     -0.29      0.00
    2   16   15     -0.06      0.00
    6   16   15     12.48      0.00
    8   16   15     15.01      0.00
   10   16   15     13.21      0.00
   12   16   15      5.68      0.00
  -17   17   15      1.31      0.00
  -15   17   15     -0.20      0.00
  -13   17   15     -2.39      0.00
  -11   17   15     -2.78      0.00
   -9   17   15     -0.75      0.00
   -7   17   15      0.62      0.00
   -5   17   15      0.51      0.00
   -3   17   15     -1.16      0.00
   -1   17   15      0.18      0.00
    1   17   15      0.41      0.00
    3   17   15     -3.53      0.00
    5   17   15     -2.05      0.00
    7   17   15     -8.04      0.00
    9   17   15     -7.86      0.00
   11   17   15     -2.01      0.00
  -14   18   15      1.00      0.00
  -12   18   15      1.81      0.00
  -10   18   15      1.62      0.00
   -8   18   15      0.38      0.00
   -6   18   15      0.59      0.00
   -4   18   15      0.71      0.00
   -2   18   15      0.36      0.00
    0   18   15      1.33      0.00
    2   18   15     -0.55      0.00
    4   18   15      1.06      0.00
    6   18   15      1.37      0.00
    8   18   15     -0.32      0.00
   10   18   15      1.55      0.00
  -13   19   15     -0.19      0.00
  -11   19   15     -0.01      0.00
   -9   19   15      0.07      0.00
   -7   19   15     -0.32      0.00
   -5   19   15     -0.88      0.00
   -3   19   15     -1.78      0.00
   -1   19   15     -2.78      0.00
    1   19   15     -4.28      0.00
    3   19   15     -3.61      0.00
    5   19   15     -4.64      0.00
    7   19   15      0.19      0.00
  -10   20   15     -0.48      0.00
   -8   20   15      0.44      0.00
   -6   20   15      1.59      0.00
   -4   20   15      2.18      0.00
   -2   20   15      2.28      0.00
    0   20   15      1.95      0.00
    2   20   15      5.11      0.00
    4   20   15      2.81      0.00
   -5   21   15     -2.04      0.00
   -3   21   15     -1.52      0.00
   -1   21   15     -2.89      0.00
  -26    0   16     -0.89      0.00
  -24    0   16     -0.70      0.00
  -22    0   16     -0.14      0.00
  -20    0   16      1.66      0.00
  -18    0   16     -0.06      0.00
  -16    0   16     -1.45      0.00
  -14    0   16     -1.92      0.00
  -12    0   16     -2.07      0.00
  -10    0   16     -1.46      0.00
   -8    0   16     -0.21      0.00
   -6    0   16     -0.12      0.00
   -4    0   16      1.67      0.00
   -2    0   16      0.18      0.00
    0    0   16     -3.10      0.00
    2    0   16     -3.57      0.00
    4    0   16     -3.48      0.00
    6    0   16     -0.08      0.00
    8    0   16     -1.28      0.00
   10    0   16     -1.97      0.00
   12    0   16      0.09      0.00
   14    0   16      0.44      0.00
   16    0   16      0.03      0.00
   18    0   16     -2.16      0.00
   20    0   16     -1.64      0.00
  -27    1   16      0.67      0.00
  -25    1   16      1.67      0.00
  -23    1   16      1.11      0.00
  -21    1   16      0.08      0.00
  -19    1   16     -0.79      0.00
  -17    1   16     -0.18      0.00
  -15    1   16      0.63      0.00
  -13    1   16      0.47      0.00
  -11    1   16      0.37      0.00
   -9    1   16      0.84      0.00
   -7    1   16      0.44      0.00
   -5    1   16     -1.89      0.00
   -3    1   16     -2.50      0.00
   -1    1   16     -1.69      0.00
    1    1   16     -0.04      0.00
    3    1   16      0.03      0.00
    5    1   16     -1.26      0.00
    7    1   16     -0.24      0.00
    9    1   16      1.80      0.00
   11    1   16      2.19      0.00
   13    1   16      0.84      0.00
   15    1   16      1.01      0.00
   17    1   16      2.80      0.00
   19    1   16      3.24      0.00
   21    1   16      1.07      0.00
  -26    2   16     -1.02      0.00
  -24    2   16     -1.21      0.00
  -22    2   16      0.11      0.00
  -20    2   16      0.00      0.00
  -18    2   16      0.50      0.00
  -16    2   16     -0.29      0.00
  -14    2   16     -1.01      0.00
  -12    2   16     -0.79      0.00
  -10    2   16     -1.98      0.00
   -8    2   16     -2.83      0.00
   -6    2   16     -0.52      0.00
   -4    2   16      0.81      0.00
   -2    2   16      1.92      0.00
    0    2   16      0.20      0.00
    2    2   16     -1.09      0.00
    4    2   16      0.86      0.00
    6    2   16     -1.39      0.00
    8    2   16     -1.62      0.00
   10    2   16     -1.74      0.00
   12    2   16     -0.76      0.00
   14    2   16      1.50      0.00
   16    2   16     -0.98      0.00
   18    2   16     -3.30      0.00
   20    2   16     -2.99      0.00
  -25    3   16      0.52      0.00
  -23    3   16      0.67      0.00
  -21    3   16     -0.41      0.00
  -19    3   16      0.04      0.00
  -17    3   16     -0.12      0.00
  -15    3   16     -0.88      0.00
  -13    3   16     -0.77      0.00
  -11    3   16      0.28      0.00
   -9    3   16      1.11      0.00
   -7    3   16      0.36      0.00
   -5    3   16     -1.27      0.00
   -3    3   16     -4.29      0.00
   -1    3   16     -3.41      0.00
    1    3   16     -3.20      0.00
    3    3   16     -3.04      0.00
    5    3   16     -1.44      0.00
    7    3   16      0.91      0.00
    9    3   16      3.51      0.00
   11    3   16      2.44      0.00
   13    3   16      0.87      0.00
   15    3   16      0.62      0.00
   17    3   16      2.94      0.00
   19    3   16      4.04      0.00
  -26    4   16     -0.80      0.00
  -24    4   16     -0.37      0.00
  -22    4   16     -0.41      0.00
  -20    4   16     -0.12      0.00
  -18    4   16     -1.17      0.00
  -16    4   16     -1.43      0.00
  -14    4   16      0.13      0.00
  -12    4   16     -0.38      0.00
  -10    4   16     -0.95      0.00
   -8    4   16     -1.35      0.00
   -6    4   16     -0.10      0.00
   -4    4   16      2.04      0.00
   -2    4   16      0.19      0.00
    0    4   16      0.63      0.00
    2    4   16      0.30      0.00
    4    4   16     -1.17      0.00
    6    4   16     -0.80      0.00
    8    4   16     -4.28      0.00
   10    4   16     -3.88      0.00
   12    4   16     -0.30      0.00
   14    4   16     -0.05      0.00
   16    4   16     -0.69      0.00
   18    4   16     -2.08      0.00
   20    4   16     -1.75      0.00
  -25    5   16      0.25      0.00
  -23    5   16     -0.71      0.00
  -21    5   16     -0.05      0.00
  -19    5   16      0.82      0.00
  -17    5   16      1.82      0.00
  -15    5   16      1.22      0.00
  -13    5   16     -0.18      0.00
  -11    5   16     -0.13      0.00
   -9    5   16      0.39      0.00
   -7    5   16     -1.36      0.00
   -5    5   16     -3.40      0.00
   -3    5   16     -3.23      0.00
   -1    5   16     -3.71      0.00
    1    5   16     -2.09      0.00
    3    5   16     -3.22      0.00
    5    5   16     -1.32      0.00
    7    5   16      2.17      0.00
    9    5   16      2.12      0.00
   11    5   16      1.94      0.00
   13    5   16     -0.49      0.00
   15    5   16      0.04      0.00
   17    5   16      1.18      0.00
   19    5   16      1.02      0.00
  -26    6   16     -1.21      0.00
  -24    6   16     -1.02      0.00
  -22    6   16     -0.17      0.00
  -20    6   16     -1.95      0.00
  -18    6   16     -2.84      0.00
  -16    6   16     -1.33      0.00
  -14    6   16     -1.02      0.00
  -12    6   16     -0.33      0.00
  -10    6   16     -1.60      0.00
   -8    6   16     -1.25      0.00
   -6    6   16     -0.37      0.00
   -4    6   16      0.32      0.00
   -2    6   16      1.63      0.00
    0    6   16      0.34      0.00
    2    6   16      1.50      0.00
    4    6   16      1.18      0.00
    6    6   16     -1.53      0.00
    8    6   16     -1.84      0.00
   10    6   16     -0.42      0.00
   12    6   16      1.20      0.00
   14    6   16      2.52      0.00
   16    6   16      1.18      0.00
   18    6   16     -0.36      0.00
   20    6   16      0.10      0.00
  -25    7   16      0.22      0.00
  -23    7   16      0.29      0.00
  -21    7   16      0.88      0.00
  -19    7   16      1.76      0.00
  -17    7   16      1.53      0.00
  -15    7   16      0.36      0.00
  -13    7   16      0.18      0.00
  -11    7   16      1.16      0.00
   -9    7   16      1.58      0.00
   -7    7   16      1.59      0.00
   -5    7   16     -0.93      0.00
   -3    7   16     -2.30      0.00
   -1    7   16     -2.50      0.00
    1    7   16     -4.81      0.00
    3    7   16     -2.27      0.00
    5    7   16     -1.47      0.00
    7    7   16     -0.28      0.00
    9    7   16      0.86      0.00
   11    7   16     -2.45      0.00
   13    7   16     -2.71      0.00
   15    7   16     -2.14      0.00
   17    7   16     -0.89      0.00
   19    7   16     -0.37      0.00
  -24    8   16     -0.31      0.00
  -22    8   16     -1.77      0.00
  -20    8   16     -1.53      0.00
  -18    8   16     -1.69      0.00
  -16    8   16     -1.66      0.00
  -14    8   16      0.22      0.00
  -12    8   16     -0.65      0.00
  -10    8   16     -1.37      0.00
   -8    8   16     -1.87      0.00
   -6    8   16     -0.83      0.00
   -4    8   16     -0.24      0.00
   -2    8   16      0.37      0.00
    0    8   16      0.34      0.00
    2    8   16     -1.31      0.00
    4    8   16     -1.67      0.00
    6    8   16     -3.62      0.00
    8    8   16     -1.87      0.00
   10    8   16     -0.21      0.00
   12    8   16      1.24      0.00
   14    8   16      1.70      0.00
   16    8   16      0.73      0.00
   18    8   16      1.19      0.00
  -23    9   16      0.26      0.00
  -21    9   16      0.90      0.00
  -19    9   16      1.83      0.00
  -17    9   16      1.08      0.00
  -15    9   16      0.71      0.00
  -13    9   16      0.64      0.00
  -11    9   16      0.65      0.00
   -9    9   16      0.94      0.00
   -7    9   16     -0.17      0.00
   -5    9   16     -0.26      0.00
   -3    9   16     -1.59      0.00
   -1    9   16     -1.42      0.00
    1    9   16      0.74      0.00
    3    9   16      1.85      0.00
    5    9   16      3.37      0.00
    7    9   16      2.09      0.00
    9    9   16      0.82      0.00
   11    9   16      0.75      0.00
   13    9   16      0.89      0.00
   15    9   16      1.32      0.00
   17    9   16      0.58      0.00
  -24   10   16     -0.16      0.00
  -22   10   16     -0.43      0.00
  -20   10   16     -2.21      0.00
  -18   10   16     -2.05      0.00
  -16   10   16     -1.29      0.00
  -14   10   16     -1.54      0.00
  -12   10   16     -0.45      0.00
  -10   10   16     -0.06      0.00
   -8   10   16      0.26      0.00
   -6   10   16      0.46      0.00
   -4   10   16      1.31      0.00
   -2   10   16      0.09      0.00
    0   10   16     -1.11      0.00
    2   10   16     -4.03      0.00
    4   10   16     -6.80      0.00
    6   10   16     -3.40      0.00
    8   10   16     -2.83      0.00
   10   10   16     -1.15      0.00
   12   10   16     -1.43      0.00
   14   10   16     -2.76      0.00
   16   10   16     -1.42      0.00
   18   10   16     -0.65      0.00
  -23   11   16      0.74      0.00
  -21   11   16      1.34      0.00
  -19   11   16      0.98      0.00
  -17   11   16      1.20      0.00
  -15   11   16      0.09      0.00
  -13   11   16     -0.19      0.00
  -11   11   16      0.16      0.00
   -9   11   16      0.41      0.00
   -7   11   16      1.03      0.00
   -5   11   16      0.35      0.00
   -3   11   16     -0.55      0.00
   -1   11   16     -1.48      0.00
    1   11   16      1.16      0.00
    3   11   16      1.13      0.00
    5   11   16      1.09      0.00
    7   11   16      0.10      0.00
    9   11   16     -3.36      0.00
   11   11   16     -0.11      0.00
   13   11   16      1.47      0.00
   15   11   16      1.95      0.00
   17   11   16      1.71      0.00
  -22   12   16     -1.00      0.00
  -20   12   16     -1.24      0.00
  -18   12   16     -1.54      0.00
  -16   12   16     -1.06      0.00
  -14   12   16     -0.39      0.00
  -12   12   16     -0.77      0.00
  -10   12   16     -0.78      0.00
   -8   12   16     -1.01      0.00
   -6   12   16     -1.20      0.00
   -4   12   16     -0.55      0.00
   -2   12   16      0.41      0.00
    0   12   16     -0.34      0.00
    2   12   16     -1.25      0.00
    4   12   16     -1.37      0.00
    6   12   16      0.48      0.00
    8   12   16      3.65      0.00
   10   12   16      2.93      0.00
   12   12   16      1.15      0.00
   14   12   16     -1.02      0.00
   16   12   16     -1.84      0.00
  -21   13   16      0.68      0.00
  -19   13   16      0.87      0.00
  -17   13   16      0.07      0.00
  -15   13   16      0.34      0.00
  -13   13   16     -0.12      0.00
  -11   13   16      0.03      0.00
   -9   13   16      0.58      0.00
   -7   13   16      0.68      0.00
   -5   13   16      0.63      0.00
   -3   13   16      0.19      0.00
   -1   13   16      0.06      0.00
    1   13   16     -2.06      0.00
    3   13   16      0.77      0.00
    5   13   16     -1.91      0.00
    7   13   16     -5.24      0.00
    9   13   16     -2.53      0.00
   11   13   16     -3.99      0.00
   13   13   16      0.45      0.00
   15   13   16      2.90      0.00
  -20   14   16     -0.80      0.00
  -18   14   16     -1.28      0.00
  -16   14   16     -1.05      0.00
  -14   14   16     -0.70      0.00
  -12   14   16      0.14      0.00
  -10   14   16      0.59      0.00
   -8   14   16      0.57      0.00
   -6   14   16      0.35      0.00
   -4   14   16     -0.95      0.00
   -2   14   16     -0.35      0.00
    0   14   16     -1.51      0.00
    2   14   16     -2.04      0.00
    4   14   16     -0.54      0.00
    6   14   16     -2.99      0.00
    8   14   16      0.01      0.00
   10   14   16      1.16      0.00
   12   14   16     -1.51      0.00
   14   14   16     -1.54      0.00
  -19   15   16      0.85      0.00
  -17   15   16      0.81      0.00
  -15   15   16     -0.48      0.00
  -13   15   16     -0.98      0.00
  -11   15   16     -1.73      0.00
   -9   15   16     -2.20      0.00
   -7   15   16     -1.04      0.00
   -5   15   16      0.19      0.00
   -3   15   16      1.30      0.00
   -1   15   16      1.19      0.00
    1   15   16      1.79      0.00
    3   15   16      1.28      0.00
    7   15   16      6.50      0.00
    9   15   16      2.81      0.00
   11   15   16      2.96      0.00
   13   15   16      1.03      0.00
  -18   16   16     -0.14      0.00
  -16   16   16      0.01      0.00
  -14   16   16      1.16      0.00
  -12   16   16      1.42      0.00
  -10   16   16      1.36      0.00
   -8   16   16      1.45      0.00
   -6   16   16     -0.02      0.00
   -4   16   16     -1.21      0.00
   -2   16   16     -2.93      0.00
    0   16   16     -0.01      0.00
    2   16   16     -0.10      0.00
    4   16   16     -5.80      0.00
    6   16   16     -4.99      0.00
    8   16   16     -9.13      0.00
   10   16   16     -5.74      0.00
   12   16   16      0.71      0.00
  -15   17   16     -0.18      0.00
  -13   17   16      0.27      0.00
  -11   17   16      0.40      0.00
   -9   17   16      0.21      0.00
   -7   17   16     -0.67      0.00
   -5   17   16      0.61      0.00
   -3   17   16      1.00      0.00
   -1   17   16     -0.26      0.00
    1   17   16     -1.18      0.00
    3   17   16     -1.13      0.00
    5   17   16      3.47      0.00
    7   17   16      6.82      0.00
    9   17   16      5.72      0.00
  -14   18   16     -0.74      0.00
  -12   18   16     -1.76      0.00
  -10   18   16     -1.28      0.00
   -8   18   16     -0.28      0.00
   -6   18   16      0.69      0.00
   -4   18   16      0.37      0.00
   -2   18   16      1.06      0.00
    0   18   16      1.74      0.00
    2   18   16      3.11      0.00
    4   18   16      3.66      0.00
    6   18   16     -3.83      0.00
    8   18   16     -2.97      0.00
  -11   19   16      2.64      0.00
   -9   19   16      1.21      0.00
   -7   19   16     -0.48      0.00
   -5   19   16     -1.60      0.00
   -3   19   16     -0.91      0.00
   -1   19   16     -0.98      0.00
    1   19   16     -3.55      0.00
    3   19   16     -1.76      0.00
    5   19   16     -1.79      0.00
   -8   20   16      0.58      0.00
   -6   20   16      2.03      0.00
   -4   20   16      2.00      0.00
   -2   20   16      1.72      0.00
    0   20   16      1.07      0.00
    2   20   16      2.06      0.00
  -25    1   17     -0.89      0.00
  -23    1   17     -0.19      0.00
  -21    1   17      1.05      0.00
  -19    1   17      0.43      0.00
  -17    1   17      0.28      0.00
  -15    1   17     -1.02      0.00
  -13    1   17     -1.44      0.00
  -11    1   17      0.16      0.00
   -9    1   17      1.11      0.00
   -7    1   17      0.89      0.00
   -5    1   17      2.19      0.00
   -3    1   17      0.75      0.00
   -1    1   17      0.77      0.00
    1    1   17     -0.36      0.00
    3    1   17     -1.53      0.00
    5    1   17      0.56      0.00
    7    1   17     -0.77      0.00
    9    1   17      0.07      0.00
   11    1   17      0.25      0.00
   13    1   17     -0.02      0.00
   15    1   17      1.11      0.00
   17    1   17      1.03      0.00
   19    1   17      0.98      0.00
  -26    2   17      2.16      0.00
  -24    2   17      1.83      0.00
  -22    2   17      0.94      0.00
  -20    2   17     -0.84      0.00
  -18    2   17     -0.46      0.00
  -16    2   17      0.54      0.00
  -14    2   17      1.11      0.00
  -12    2   17      0.63      0.00
  -10    2   17     -0.09      0.00
   -8    2   17     -0.87      0.00
   -6    2   17     -0.92      0.00
   -4    2   17     -0.59      0.00
   -2    2   17     -1.57      0.00
    0    2   17     -0.02      0.00
    2    2   17      0.39      0.00
    4    2   17      0.27      0.00
    6    2   17      0.18      0.00
    8    2   17     -0.17      0.00
   10    2   17      0.09      0.00
   12    2   17     -0.29      0.00
   14    2   17     -0.97      0.00
   16    2   17     -1.44      0.00
   18    2   17     -0.88      0.00
   20    2   17     -0.25      0.00
  -25    3   17     -1.77      0.00
  -23    3   17     -1.24      0.00
  -21    3   17     -0.23      0.00
  -19    3   17      1.42      0.00
  -17    3   17      0.28      0.00
  -15    3   17     -1.05      0.00
  -13    3   17     -0.66      0.00
  -11    3   17     -0.33      0.00
   -9    3   17      0.61      0.00
   -7    3   17      0.89      0.00
   -5    3   17      1.16      0.00
   -3    3   17      3.31      0.00
   -1    3   17      2.09      0.00
    1    3   17      2.02      0.00
    3    3   17      0.98      0.00
    5    3   17     -1.11      0.00
    7    3   17      0.50      0.00
    9    3   17     -1.07      0.00
   11    3   17     -0.62      0.00
   13    3   17      1.45      0.00
   15    3   17      1.22      0.00
   17    3   17      0.80      0.00
   19    3   17     -0.19      0.00
  -26    4   17      2.06      0.00
  -24    4   17      2.86      0.00
  -22    4   17      1.53      0.00
  -20    4   17      0.28      0.00
  -18    4   17     -1.08      0.00
  -16    4   17     -0.30      0.00
  -14    4   17      0.26      0.00
  -12    4   17     -0.43      0.00
  -10    4   17     -0.89      0.00
   -8    4   17      0.34      0.00
   -6    4   17      0.19      0.00
   -4    4   17     -1.09      0.00
   -2    4   17     -1.23      0.00
    0    4   17     -2.38      0.00
    2    4   17     -0.18      0.00
    4    4   17      0.00      0.00
    6    4   17      0.90      0.00
    8    4   17      2.21      0.00
   10    4   17      1.57      0.00
   12    4   17      0.82      0.00
   14    4   17     -0.89      0.00
   16    4   17     -0.47      0.00
   18    4   17      0.39      0.00
  -25    5   17     -2.00      0.00
  -23    5   17     -1.54      0.00
  -21    5   17      0.79      0.00
  -19    5   17      0.73      0.00
  -17    5   17      0.05      0.00
  -15    5   17     -0.27      0.00
  -13    5   17     -0.65      0.00
  -11    5   17      0.84      0.00
   -9    5   17      0.88      0.00
   -7    5   17      1.51      0.00
   -5    5   17      1.79      0.00
   -3    5   17      2.15      0.00
   -1    5   17      3.52      0.00
    1    5   17      0.95      0.00
    3    5   17      0.04      0.00
    5    5   17     -0.53      0.00
    7    5   17     -3.47      0.00
    9    5   17     -3.32      0.00
   11    5   17     -2.80      0.00
   13    5   17     -2.00      0.00
   15    5   17      0.05      0.00
   17    5   17     -0.12      0.00
   19    5   17     -0.65      0.00
  -24    6   17      1.24      0.00
  -22    6   17     -0.03      0.00
  -20    6   17     -1.12      0.00
  -18    6   17     -0.03      0.00
  -16    6   17      0.96      0.00
  -14    6   17      0.72      0.00
  -12    6   17     -0.20      0.00
  -10    6   17     -1.11      0.00
   -8    6   17     -1.88      0.00
   -6    6   17     -1.07      0.00
   -4    6   17     -1.95      0.00
   -2    6   17     -2.15      0.00
    0    6   17     -0.59      0.00
    2    6   17     -1.60      0.00
    4    6   17      1.24      0.00
    6    6   17      1.39      0.00
    8    6   17      2.19      0.00
   10    6   17      3.75      0.00
   12    6   17      1.61      0.00
   14    6   17      0.88      0.00
   16    6   17      0.05      0.00
   18    6   17      0.45      0.00
  -25    7   17     -1.19      0.00
  -23    7   17      0.29      0.00
  -21    7   17      0.44      0.00
  -19    7   17      0.98      0.00
  -17    7   17     -0.37      0.00
  -15    7   17     -1.70      0.00
  -13    7   17     -0.03      0.00
  -11    7   17      0.53      0.00
   -9    7   17      1.00      0.00
   -7    7   17      0.45      0.00
   -5    7   17      1.65      0.00
   -3    7   17      2.47      0.00
   -1    7   17      2.97      0.00
    1    7   17      3.41      0.00
    3    7   17      1.96      0.00
    5    7   17      0.76      0.00
    7    7   17     -1.43      0.00
    9    7   17     -2.59      0.00
   11    7   17     -2.66      0.00
   13    7   17     -0.96      0.00
   15    7   17     -0.47      0.00
   17    7   17     -0.68      0.00
  -24    8   17      0.10      0.00
  -22    8   17     -1.19      0.00
  -20    8   17     -1.06      0.00
  -18    8   17      0.52      0.00
  -16    8   17      1.16      0.00
  -14    8   17      0.83      0.00
  -12    8   17     -0.36      0.00
  -10    8   17     -0.49      0.00
   -8    8   17      0.50      0.00
   -6    8   17     -0.11      0.00
   -4    8   17     -0.14      0.00
   -2    8   17     -2.23      0.00
    0    8   17     -3.36      0.00
    2    8   17     -1.93      0.00
    4    8   17     -2.65      0.00
    6    8   17     -0.14      0.00
    8    8   17      0.66      0.00
   10    8   17     -0.41      0.00
   12    8   17     -0.83      0.00
   14    8   17     -2.09      0.00
   16    8   17     -1.03      0.00
   18    8   17      0.11      0.00
  -23    9   17      0.42      0.00
  -21    9   17      1.71      0.00
  -19    9   17      0.00      0.00
  -17    9   17     -0.94      0.00
  -15    9   17     -0.28      0.00
  -13    9   17      0.02      0.00
  -11    9   17      0.84      0.00
   -9    9   17     -0.07      0.00
   -7    9   17     -0.82      0.00
   -5    9   17     -0.43      0.00
   -3    9   17      2.32      0.00
   -1    9   17      3.02      0.00
    1    9   17      4.11      0.00
    3    9   17      3.02      0.00
    5    9   17      0.17      0.00
    7    9   17      0.36      0.00
    9    9   17     -1.73      0.00
   11    9   17      0.06      0.00
   13    9   17      1.23      0.00
   15    9   17      0.84      0.00
   17    9   17      0.09      0.00
  -22   10   17     -1.15      0.00
  -20   10   17     -0.50      0.00
  -18   10   17      0.84      0.00
  -16   10   17      2.72      0.00
  -14   10   17      1.67      0.00
  -12   10   17      0.27      0.00
  -10   10   17      0.02      0.00
   -8   10   17      0.87      0.00
   -6   10   17      1.35      0.00
   -4   10   17     -0.50      0.00
   -2   10   17     -1.61      0.00
    0   10   17     -2.41      0.00
    2   10   17     -1.27      0.00
    4   10   17     -0.98      0.00
    6   10   17     -0.40      0.00
    8   10   17      0.47      0.00
   10   10   17     -1.56      0.00
   12   10   17     -2.45      0.00
   14   10   17     -2.75      0.00
   16   10   17     -1.33      0.00
  -21   11   17      0.74      0.00
  -19   11   17     -0.30      0.00
  -17   11   17     -2.23      0.00
  -15   11   17     -2.36      0.00
  -13   11   17     -0.17      0.00
  -11   11   17      0.72      0.00
   -9   11   17      0.16      0.00
   -7   11   17     -0.64      0.00
   -5   11   17      0.08      0.00
   -3   11   17      1.72      0.00
   -1   11   17      3.67      0.00
    1   11   17      2.16      0.00
    3   11   17      1.64      0.00
    5   11   17      0.78      0.00
    7   11   17     -2.06      0.00
    9   11   17     -0.86      0.00
   11   11   17     -0.56      0.00
   13   11   17      1.27      0.00
   15   11   17      1.21      0.00
  -20   12   17      0.21      0.00
  -18   12   17      2.11      0.00
  -16   12   17      2.35      0.00
  -14   12   17      1.86      0.00
  -12   12   17      0.07      0.00
  -10   12   17      0.39      0.00
   -8   12   17      2.15      0.00
   -6   12   17      2.88      0.00
   -4   12   17      1.32      0.00
   -2   12   17     -0.44      0.00
    0   12   17     -0.83      0.00
    2   12   17     -3.29      0.00
    4   12   17     -0.82      0.00
    6   12   17     -1.70      0.00
    8   12   17     -1.72      0.00
   10   12   17      0.45      0.00
   12   12   17     -3.83      0.00
   14   12   17     -3.57      0.00
  -19   13   17     -0.43      0.00
  -17   13   17     -1.56      0.00
  -15   13   17     -1.55      0.00
  -13   13   17     -0.61      0.00
  -11   13   17      0.32      0.00
   -9   13   17     -0.85      0.00
   -7   13   17     -2.18      0.00
   -5   13   17     -1.28      0.00
   -3   13   17      0.08      0.00
   -1   13   17      1.76      0.00
    1   13   17      2.16      0.00
    3   13   17      2.35      0.00
    5   13   17      3.12      0.00
    7   13   17     -0.01      0.00
    9   13   17     -1.46      0.00
   11   13   17      0.09      0.00
   13   13   17      1.00      0.00
  -18   14   17      0.35      0.00
  -16   14   17      1.34      0.00
  -14   14   17      0.68      0.00
  -12   14   17      0.61      0.00
  -10   14   17      0.91      0.00
   -8   14   17      2.02      0.00
   -6   14   17      2.71      0.00
   -4   14   17      2.16      0.00
   -2   14   17      1.06      0.00
    0   14   17     -0.09      0.00
    2   14   17     -0.33      0.00
    4   14   17     -5.28      0.00
    6   14   17     -3.35      0.00
    8   14   17     -0.43      0.00
   10   14   17     -1.73      0.00
   12   14   17      0.01      0.00
  -17   15   17     -0.03      0.00
  -15   15   17     -0.71      0.00
  -13   15   17      0.27      0.00
  -11   15   17      0.48      0.00
   -9   15   17      0.17      0.00
   -7   15   17      0.23      0.00
   -5   15   17      0.02      0.00
   -3   15   17      0.38      0.00
   -1   15   17     -1.81      0.00
    1   15   17      0.43      0.00
    3   15   17      1.85      0.00
    5   15   17     -0.27      0.00
    7   15   17      0.97      0.00
    9   15   17     -4.58      0.00
   11   15   17     -4.90      0.00
  -16   16   17     -0.77      0.00
  -14   16   17     -1.47      0.00
  -12   16   17     -2.48      0.00
  -10   16   17     -2.13      0.00
   -8   16   17     -0.80      0.00
   -6   16   17     -0.33      0.00
   -4   16   17      1.29      0.00
   -2   16   17      2.35      0.00
    0   16   17      2.17      0.00
    2   16   17      0.29      0.00
    4   16   17     -0.27      0.00
    6   16   17      0.56      0.00
    8   16   17      3.20      0.00
   10   16   17      5.17      0.00
  -15   17   17      2.79      0.00
  -13   17   17      3.18      0.00
  -11   17   17      3.34      0.00
   -9   17   17      2.75      0.00
   -7   17   17      1.12      0.00
   -5   17   17      0.15      0.00
   -3   17   17     -1.34      0.00
   -1   17   17     -0.24      0.00
    1   17   17     -1.13      0.00
    3   17   17     -0.31      0.00
    5   17   17      0.22      0.00
    7   17   17     -7.50      0.00
    9   17   17     -5.92      0.00
  -12   18   17     -2.78      0.00
  -10   18   17     -1.82      0.00
   -8   18   17     -1.26      0.00
   -6   18   17      0.35      0.00
   -4   18   17      0.86      0.00
   -2   18   17      1.61      0.00
    0   18   17      0.46      0.00
    2   18   17     -1.96      0.00
    4   18   17      0.43      0.00
    6   18   17      1.83      0.00
   -9   19   17      0.39      0.00
   -7   19   17      0.45      0.00
   -5   19   17     -0.15      0.00
   -3   19   17     -0.23      0.00
   -1   19   17      0.71      0.00
    1   19   17      2.85      0.00
    3   19   17      3.11      0.00
  -26    0   18     -1.02      0.00
  -24    0   18     -1.21      0.00
  -22    0   18     -1.18      0.00
  -20    0   18     -1.42      0.00
  -18    0   18     -1.44      0.00
  -16    0   18      0.88      0.00
  -14    0   18      1.55      0.00
  -12    0   18      0.06      0.00
  -10    0   18     -0.98      0.00
   -8    0   18     -1.76      0.00
   -6    0   18     -1.64      0.00
   -4    0   18      1.14      0.00
   -2    0   18      0.32      0.00
    0    0   18      1.08      0.00
    2    0   18     -0.16      0.00
    4    0   18     -1.21      0.00
    6    0   18      1.78      0.00
    8    0   18      1.81      0.00
   10    0   18      2.45      0.00
   12    0   18      1.04      0.00
   14    0   18     -1.93      0.00
   16    0   18     -2.88      0.00
   18    0   18     -2.21      0.00
  -25    1   18      0.20      0.00
  -23    1   18     -0.40      0.00
  -21    1   18      0.44      0.00
  -19    1   18      1.11      0.00
  -17    1   18      1.01      0.00
  -15    1   18     -0.03      0.00
  -13    1   18     -0.14      0.00
  -11    1   18      0.79      0.00
   -9    1   18      1.57      0.00
   -7    1   18      0.64      0.00
   -5    1   18     -0.38      0.00
   -3    1   18     -0.64      0.00
   -1    1   18     -0.56      0.00
    1    1   18      0.96      0.00
    3    1   18      0.82      0.00
    5    1   18     -0.81      0.00
    7    1   18     -3.20      0.00
    9    1   18     -5.01      0.00
   11    1   18     -4.29      0.00
   13    1   18     -1.63      0.00
   15    1   18      0.64      0.00
   17    1   18      1.29      0.00
   19    1   18      0.60      0.00
  -24    2   18      0.85      0.00
  -22    2   18      1.16      0.00
  -20    2   18      0.07      0.00
  -18    2   18      0.17      0.00
  -16    2   18     -0.02      0.00
  -14    2   18      0.33      0.00
  -12    2   18      0.21      0.00
  -10    2   18     -1.17      0.00
   -8    2   18     -0.67      0.00
   -6    2   18      0.79      0.00
   -4    2   18      0.60      0.00
   -2    2   18      1.33      0.00
    0    2   18     -1.68      0.00
    2    2   18     -2.15      0.00
    4    2   18     -1.30      0.00
    6    2   18     -1.13      0.00
    8    2   18      2.36      0.00
   10    2   18      1.91      0.00
   12    2   18      0.38      0.00
   14    2   18     -0.61      0.00
   16    2   18     -1.33      0.00
   18    2   18     -0.26      0.00
  -25    3   18     -1.25      0.00
  -23    3   18     -2.00      0.00
  -21    3   18     -1.62      0.00
  -19    3   18      0.19      0.00
  -17    3   18      0.19      0.00
  -15    3   18      0.25      0.00
  -13    3   18      0.50      0.00
  -11    3   18      1.00      0.00
   -9    3   18      0.76      0.00
   -7    3   18      0.91      0.00
   -5    3   18     -0.32      0.00
   -3    3   18     -0.29      0.00
   -1    3   18      2.17      0.00
    1    3   18      2.30      0.00
    3    3   18      2.88      0.00
    5    3   18      0.35      0.00
    7    3   18     -2.55      0.00
    9    3   18     -3.97      0.00
   11    3   18     -4.06      0.00
   13    3   18     -2.53      0.00
   15    3   18     -0.94      0.00
   17    3   18     -0.50      0.00
   19    3   18     -1.20      0.00
  -24    4   18      2.45      0.00
  -22    4   18      1.97      0.00
  -20    4   18      1.47      0.00
  -18    4   18      0.07      0.00
  -16    4   18      0.54      0.00
  -14    4   18      1.03      0.00
  -12    4   18     -0.05      0.00
  -10    4   18     -0.59      0.00
   -8    4   18     -1.24      0.00
   -6    4   18     -0.10      0.00
   -4    4   18      0.27      0.00
   -2    4   18     -1.51      0.00
    0    4   18     -1.63      0.00
    2    4   18     -3.73      0.00
    4    4   18     -2.73      0.00
    6    4   18      0.17      0.00
    8    4   18      0.42      0.00
   10    4   18      2.81      0.00
   12    4   18      2.72      0.00
   18    4   18      0.68      0.00
  -25    5   18     -1.89      0.00
  -23    5   18     -1.64      0.00
  -21    5   18     -0.45      0.00
  -19    5   18     -0.38      0.00
  -17    5   18     -0.38      0.00
  -15    5   18     -1.44      0.00
  -13    5   18     -1.47      0.00
  -11    5   18      0.22      0.00
   -9    5   18      1.92      0.00
   -7    5   18      1.35      0.00
   -5    5   18      2.10      0.00
   -3    5   18      2.32      0.00
   -1    5   18      3.21      0.00
    1    5   18      4.75      0.00
    3    5   18      1.95      0.00
    5    5   18      1.52      0.00
    7    5   18     -1.29      0.00
    9    5   18     -3.56      0.00
   11    5   18     -3.73      0.00
   13    5   18     -3.28      0.00
   15    5   18     -1.30      0.00
   17    5   18     -0.80      0.00
  -24    6   18      2.46      0.00
  -22    6   18      1.99      0.00
  -20    6   18      0.18      0.00
  -18    6   18      1.05      0.00
  -16    6   18      1.50      0.00
  -14    6   18      0.79      0.00
  -12    6   18      0.20      0.00
  -10    6   18     -1.09      0.00
   -8    6   18     -0.58      0.00
   -6    6   18     -0.60      0.00
   -4    6   18     -0.51      0.00
   -2    6   18     -2.41      0.00
    0    6   18     -4.37      0.00
    2    6   18     -3.10      0.00
    4    6   18     -2.20      0.00
    6    6   18     -0.91      0.00
    8    6   18      1.27      0.00
   10    6   18      1.92      0.00
   12    6   18      1.70      0.00
   14    6   18      1.15      0.00
   16    6   18     -0.11      0.00
   18    6   18      0.51      0.00
  -23    7   18     -0.99      0.00
  -21    7   18     -0.45      0.00
  -19    7   18     -0.18      0.00
  -17    7   18     -0.98      0.00
  -15    7   18     -1.32      0.00
  -13    7   18     -0.04      0.00
  -11    7   18      0.93      0.00
   -9    7   18      0.89      0.00
   -7    7   18      0.55      0.00
   -5    7   18     -0.02      0.00
   -3    7   18      3.13      0.00
   -1    7   18      4.17      0.00
    1    7   18      2.94      0.00
    3    7   18      2.36      0.00
    5    7   18     -1.67      0.00
    7    7   18     -1.56      0.00
    9    7   18     -2.24      0.00
   11    7   18     -2.81      0.00
   13    7   18     -0.71      0.00
   15    7   18     -0.02      0.00
   17    7   18     -0.04      0.00
  -22    8   18      0.26      0.00
  -20    8   18      0.78      0.00
  -18    8   18      0.24      0.00
  -16    8   18      0.68      0.00
  -14    8   18      0.31      0.00
  -12    8   18     -1.94      0.00
  -10    8   18     -2.05      0.00
   -8    8   18     -0.53      0.00
   -6    8   18      0.62      0.00
   -4    8   18     -1.36      0.00
   -2    8   18     -2.57      0.00
    0    8   18     -3.06      0.00
    2    8   18     -0.19      0.00
    4    8   18      1.76      0.00
    6    8   18      1.66      0.00
    8    8   18      2.41      0.00
   10    8   18      1.05      0.00
   12    8   18      0.64      0.00
   14    8   18     -0.84      0.00
   16    8   18     -0.63      0.00
  -23    9   18     -0.50      0.00
  -21    9   18      0.79      0.00
  -19    9   18      0.35      0.00
  -17    9   18     -1.26      0.00
  -15    9   18     -0.98      0.00
  -13    9   18      0.21      0.00
  -11    9   18      1.56      0.00
   -9    9   18      0.54      0.00
   -7    9   18     -0.78      0.00
   -5    9   18      0.59      0.00
   -3    9   18      2.19      0.00
   -1    9   18      3.53      0.00
    1    9   18      1.15      0.00
    3    9   18     -1.76      0.00
    5    9   18     -1.98      0.00
    7    9   18     -2.34      0.00
    9    9   18     -1.38      0.00
   11    9   18     -0.86      0.00
   13    9   18     -0.12      0.00
   15    9   18      0.48      0.00
  -22   10   18     -0.72      0.00
  -20   10   18     -1.04      0.00
  -18   10   18      0.89      0.00
  -16   10   18      1.66      0.00
  -14   10   18      0.18      0.00
  -12   10   18     -1.45      0.00
  -10   10   18     -1.85      0.00
   -8   10   18     -0.35      0.00
   -6   10   18      0.40      0.00
   -4   10   18     -1.14      0.00
   -2   10   18     -3.09      0.00
    0   10   18     -0.53      0.00
    2   10   18      0.44      0.00
    4   10   18      2.30      0.00
    6   10   18      2.30      0.00
    8   10   18     -0.19      0.00
   10   10   18      0.94      0.00
   12   10   18     -0.91      0.00
   14   10   18     -1.04      0.00
   16   10   18     -0.27      0.00
  -21   11   18      0.67      0.00
  -19   11   18      0.39      0.00
  -17   11   18     -0.36      0.00
  -15   11   18     -0.92      0.00
  -13   11   18      0.84      0.00
  -11   11   18      1.15      0.00
   -9   11   18     -0.21      0.00
   -7   11   18     -2.07      0.00
   -5   11   18     -1.21      0.00
   -3   11   18      0.88      0.00
   -1   11   18      1.57      0.00
    1   11   18      0.80      0.00
    3   11   18     -1.71      0.00
    5   11   18      0.28      0.00
    7   11   18     -0.24      0.00
    9   11   18     -1.02      0.00
   11   11   18      0.71      0.00
   13   11   18      0.10      0.00
   15   11   18      0.38      0.00
  -20   12   18     -1.00      0.00
  -18   12   18     -0.05      0.00
  -16   12   18      0.73      0.00
  -14   12   18      0.23      0.00
  -12   12   18     -1.11      0.00
  -10   12   18     -0.47      0.00
   -8   12   18      0.89      0.00
   -6   12   18      1.01      0.00
   -4   12   18      0.20      0.00
   -2   12   18     -0.37      0.00
    0   12   18      0.46      0.00
    2   12   18      2.27      0.00
    4   12   18      0.91      0.00
    6   12   18      0.21      0.00
    8   12   18      0.13      0.00
   10   12   18     -0.57      0.00
   12   12   18      0.17      0.00
   14   12   18     -0.99      0.00
  -19   13   18      0.87      0.00
  -17   13   18      0.27      0.00
  -15   13   18      0.15      0.00
  -13   13   18     -0.20      0.00
  -11   13   18     -0.09      0.00
   -9   13   18     -1.27      0.00
   -7   13   18     -1.47      0.00
   -5   13   18     -0.68      0.00
   -3   13   18      0.55      0.00
   -1   13   18     -0.70      0.00
    1   13   18     -2.02      0.00
    3   13   18      0.42      0.00
    5   13   18     -1.22      0.00
    7   13   18      1.48      0.00
    9   13   18      1.00      0.00
   11   13   18     -2.46      0.00
   13   13   18     -0.44      0.00
  -18   14   18     -0.74      0.00
  -16   14   18     -0.10      0.00
  -14   14   18     -0.21      0.00
  -12   14   18      0.50      0.00
  -10   14   18      0.58      0.00
   -8   14   18      0.70      0.00
   -6   14   18      0.24      0.00
   -4   14   18     -0.61      0.00
   -2   14   18      0.70      0.00
    0   14   18      0.89      0.00
    4   14   18      1.17      0.00
    6   14   18     -2.24      0.00
    8   14   18      0.07      0.00
   10   14   18      0.44      0.00
   12   14   18      1.21      0.00
  -17   15   18      0.34      0.00
  -15   15   18      0.63      0.00
  -13   15   18      0.60      0.00
  -11   15   18     -0.78      0.00
   -9   15   18     -1.29      0.00
   -7   15   18     -0.94      0.00
   -5   15   18     -0.52      0.00
   -3   15   18     -0.01      0.00
   -1   15   18      0.00      0.00
    1   15   18     -0.61      0.00
    3   15   18     -1.42      0.00
    5   15   18      1.76      0.00
    7   15   18      0.78      0.00
    9   15   18     -0.56      0.00
  -16   16   18     -1.80      0.00
  -14   16   18     -1.28      0.00
  -12   16   18     -0.85      0.00
  -10   16   18      1.02      0.00
   -8   16   18      2.11      0.00
   -6   16   18      1.56      0.00
   -4   16   18      0.93      0.00
   -2   16   18     -0.52      0.00
    0   16   18      0.94      0.00
    2   16   18     -1.34      0.00
    4   16   18     -1.40      0.00
    6   16   18     -0.17      0.00
    8   16   18     -4.19      0.00
  -13   17   18     -0.44      0.00
  -11   17   18     -1.88      0.00
   -9   17   18     -2.66      0.00
   -7   17   18     -2.94      0.00
   -5   17   18     -1.35      0.00
   -3   17   18     -0.71      0.00
   -1   17   18      0.64      0.00
    1   17   18      0.96      0.00
    3   17   18      0.71      0.00
    5   17   18      2.09      0.00
    7   17   18      3.00      0.00
   -8   18   18      1.86      0.00
   -6   18   18      1.85      0.00
   -4   18   18      0.74      0.00
   -2   18   18      0.06      0.00
    0   18   18     -1.59      0.00
    2   18   18     -0.52      0.00
    4   18   18     -1.67      0.00
   -5   19   18     -0.71      0.00
   -3   19   18      0.09      0.00
   -1   19   18     -0.55      0.00
  -25    1   19     -1.80      0.00
  -23    1   19     -1.35      0.00
  -21    1   19     -1.05      0.00
  -19    1   19     -0.53      0.00
  -17    1   19      0.43      0.00
  -15    1   19     -0.08      0.00
  -13    1   19     -0.22      0.00
  -11    1   19      0.23      0.00
   -9    1   19     -0.64      0.00
   -7    1   19     -0.52      0.00
   -5    1   19     -0.14      0.00
   -3    1   19     -0.90      0.00
   -1    1   19      1.58      0.00
    1    1   19      0.64      0.00
    3    1   19      1.47      0.00
    5    1   19      2.13      0.00
    7    1   19      0.19      0.00
    9    1   19      0.64      0.00
   11    1   19     -0.63      0.00
   13    1   19     -1.97      0.00
   15    1   19     -1.73      0.00
   17    1   19     -1.66      0.00
  -24    2   19      1.47      0.00
  -22    2   19      0.79      0.00
  -20    2   19     -0.22      0.00
  -18    2   19     -0.23      0.00
  -16    2   19     -0.23      0.00
  -14    2   19      0.49      0.00
  -12    2   19      0.65      0.00
  -10    2   19      0.07      0.00
   -8    2   19     -0.90      0.00
   -6    2   19     -0.22      0.00
   -4    2   19     -0.91      0.00
   -2    2   19     -1.67      0.00
    0    2   19     -1.48      0.00
    2    2   19     -2.32      0.00
    4    2   19     -1.47      0.00
    6    2   19     -1.36      0.00
    8    2   19     -0.96      0.00
   10    2   19      0.72      0.00
   12    2   19      2.11      0.00
   14    2   19      2.41      0.00
   16    2   19      2.51      0.00
   18    2   19      1.78      0.00
  -25    3   19     -2.47      0.00
  -23    3   19     -1.80      0.00
  -21    3   19     -0.15      0.00
  -19    3   19      1.30      0.00
  -17    3   19      0.40      0.00
  -15    3   19     -0.38      0.00
  -13    3   19     -1.06      0.00
  -11    3   19     -1.22      0.00
   -9    3   19     -0.03      0.00
   -7    3   19     -0.15      0.00
   -5    3   19      0.48      0.00
   -3    3   19      1.98      0.00
   -1    3   19      1.91      0.00
    1    3   19      3.65      0.00
    3    3   19      1.84      0.00
    5    3   19      1.12      0.00
    7    3   19      1.65      0.00
    9    3   19     -1.30      0.00
   11    3   19     -2.39      0.00
   13    3   19     -3.22      0.00
   15    3   19     -3.74      0.00
   17    3   19     -2.68      0.00
  -24    4   19      0.83      0.00
  -22    4   19     -0.79      0.00
  -20    4   19     -1.67      0.00
  -18    4   19     -1.59      0.00
  -16    4   19      0.62      0.00
  -14    4   19      1.63      0.00
  -12    4   19      1.08      0.00
  -10    4   19      0.22      0.00
   -8    4   19      0.05      0.00
   -6    4   19     -1.54      0.00
   -4    4   19     -1.67      0.00
   -2    4   19     -3.23      0.00
    0    4   19     -3.60      0.00
    2    4   19     -0.94      0.00
    4    4   19     -0.77      0.00
    6    4   19      0.67      0.00
    8    4   19      0.63      0.00
   10    4   19      0.80      0.00
   12    4   19      1.68      0.00
   14    4   19      2.17      0.00
   16    4   19      1.92      0.00
  -23    5   19     -0.57      0.00
  -21    5   19      0.93      0.00
  -19    5   19      0.37      0.00
  -17    5   19      0.23      0.00
  -15    5   19     -0.81      0.00
  -13    5   19     -1.05      0.00
  -11    5   19     -0.39      0.00
   -9    5   19     -0.91      0.00
   -7    5   19     -0.97      0.00
   -5    5   19     -0.66      0.00
   -3    5   19      2.08      0.00
   -1    5   19      3.81      0.00
    1    5   19      1.74      0.00
    3    5   19      0.48      0.00
    5    5   19     -1.46      0.00
    7    5   19     -1.95      0.00
    9    5   19      0.04      0.00
   11    5   19     -0.45      0.00
   13    5   19     -0.98      0.00
   15    5   19     -1.32      0.00
   17    5   19     -2.29      0.00
  -24    6   19      0.47      0.00
  -22    6   19     -0.25      0.00
  -20    6   19     -0.96      0.00
  -18    6   19     -0.09      0.00
  -16    6   19      0.22      0.00
  -14    6   19      0.05      0.00
  -12    6   19     -0.14      0.00
  -10    6   19      0.05      0.00
   -8    6   19      1.28      0.00
   -6    6   19      2.31      0.00
   -4    6   19     -0.79      0.00
   -2    6   19     -1.88      0.00
    0    6   19     -1.99      0.00
    2    6   19      0.26      0.00
    4    6   19      4.67      0.00
    6    6   19      2.92      0.00
    8    6   19      1.66      0.00
   10    6   19     -0.81      0.00
   12    6   19     -2.22      0.00
   14    6   19     -0.93      0.00
   16    6   19      0.62      0.00
  -23    7   19     -0.40      0.00
  -21    7   19     -0.27      0.00
  -19    7   19      0.51      0.00
  -17    7   19     -1.15      0.00
  -15    7   19     -1.13      0.00
  -13    7   19      0.19      0.00
  -11    7   19      0.10      0.00
   -9    7   19     -1.27      0.00
   -7    7   19     -2.40      0.00
   -5    7   19     -0.90      0.00
   -3    7   19      1.04      0.00
   -1    7   19      2.64      0.00
    1    7   19      0.41      0.00
    3    7   19     -2.57      0.00
    5    7   19     -3.44      0.00
    7    7   19     -1.49      0.00
    9    7   19      1.68      0.00
   11    7   19      3.32      0.00
   13    7   19      2.65      0.00
   15    7   19     -0.33      0.00
  -22    8   19     -0.66      0.00
  -20    8   19     -0.48      0.00
  -18    8   19      0.07      0.00
  -16    8   19      0.73      0.00
  -14    8   19      0.68      0.00
  -12    8   19     -0.23      0.00
  -10    8   19      0.73      0.00
   -8    8   19      1.99      0.00
   -6    8   19      1.92      0.00
   -4    8   19      0.68      0.00
   -2    8   19     -2.32      0.00
    0    8   19     -0.91      0.00
    2    8   19      1.43      0.00
    4    8   19      1.94      0.00
    6    8   19      2.26      0.00
    8    8   19     -1.73      0.00
   10    8   19     -3.65      0.00
   12    8   19     -3.40      0.00
   14    8   19     -1.64      0.00
   16    8   19      0.87      0.00
  -21    9   19      0.56      0.00
  -19    9   19     -1.18      0.00
  -17    9   19     -1.90      0.00
  -15    9   19     -2.30      0.00
  -13    9   19     -1.80      0.00
  -11    9   19     -0.85      0.00
   -9    9   19     -1.23      0.00
   -7    9   19     -2.09      0.00
   -5    9   19     -1.07      0.00
   -3    9   19      0.96      0.00
   -1    9   19      1.07      0.00
    1    9   19      1.76      0.00
    3    9   19     -0.33      0.00
    5    9   19      1.27      0.00
    7    9   19      3.47      0.00
    9    9   19      3.72      0.00
   11    9   19      4.71      0.00
   13    9   19      1.87      0.00
   15    9   19     -0.40      0.00
  -20   10   19     -0.45      0.00
  -18   10   19      0.63      0.00
  -16   10   19      1.46      0.00
  -14   10   19      0.56      0.00
  -12   10   19      0.05      0.00
  -10   10   19     -0.10      0.00
   -8   10   19      1.09      0.00
   -6   10   19      1.18      0.00
   -4   10   19      0.57      0.00
   -2   10   19      0.15      0.00
    0   10   19     -0.04      0.00
    2   10   19      0.38      0.00
    4   10   19     -1.07      0.00
    6   10   19     -1.70      0.00
    8   10   19     -2.29      0.00
   10   10   19     -2.55      0.00
   12   10   19     -1.03      0.00
   14   10   19     -0.26      0.00
  -21   11   19     -0.34      0.00
  -19   11   19     -0.92      0.00
  -17   11   19     -1.76      0.00
  -15   11   19     -1.78      0.00
  -13   11   19     -1.05      0.00
  -11   11   19     -0.84      0.00
   -9   11   19     -0.69      0.00
   -7   11   19     -0.55      0.00
   -5   11   19     -0.77      0.00
   -3   11   19     -0.61      0.00
   -1   11   19     -0.80      0.00
    1   11   19     -1.41      0.00
    3   11   19      2.09      0.00
    5   11   19      3.22      0.00
    7   11   19      3.99      0.00
    9   11   19      3.40      0.00
   11   11   19      0.06      0.00
   13   11   19      0.02      0.00
  -20   12   19      0.19      0.00
  -18   12   19      0.08      0.00
  -16   12   19      0.10      0.00
  -14   12   19      0.36      0.00
  -12   12   19      0.09      0.00
  -10   12   19      0.20      0.00
   -8   12   19     -0.74      0.00
   -6   12   19     -0.97      0.00
   -4   12   19     -0.80      0.00
   -2   12   19      1.61      0.00
    0   12   19      2.36      0.00
    2   12   19      1.19      0.00
    4   12   19      0.05      0.00
    6   12   19     -4.43      0.00
    8   12   19     -1.57      0.00
   10   12   19      1.54      0.00
   12   12   19      1.28      0.00
  -19   13   19     -0.40      0.00
  -17   13   19     -0.32      0.00
  -15   13   19      0.01      0.00
  -13   13   19     -0.71      0.00
  -11   13   19     -1.00      0.00
   -9   13   19     -1.37      0.00
   -7   13   19     -0.34      0.00
   -5   13   19      0.59      0.00
   -3   13   19     -0.49      0.00
   -1   13   19     -1.47      0.00
    1   13   19     -1.57      0.00
    3   13   19      1.98      0.00
    5   13   19      6.30      0.00
    7   13   19      5.16      0.00
    9   13   19      2.17      0.00
   11   13   19     -1.65      0.00
  -16   14   19     -1.00      0.00
  -14   14   19     -1.19      0.00
  -12   14   19      0.06      0.00
  -10   14   19      0.72      0.00
   -8   14   19      0.96      0.00
   -6   14   19     -0.23      0.00
   -4   14   19     -0.53      0.00
   -2   14   19      0.58      0.00
    0   14   19      3.11      0.00
    2   14   19      1.88      0.00
    4   14   19     -3.16      0.00
    6   14   19     -2.25      0.00
    8   14   19     -2.11      0.00
   10   14   19      1.77      0.00
  -15   15   19      1.66      0.00
  -13   15   19      1.67      0.00
  -11   15   19     -1.30      0.00
   -9   15   19     -2.68      0.00
   -7   15   19     -2.35      0.00
   -5   15   19     -0.90      0.00
   -3   15   19     -0.27      0.00
   -1   15   19     -2.01      0.00
    1   15   19     -0.22      0.00
    3   15   19      0.56      0.00
    5   15   19      4.00      0.00
    7   15   19      5.67      0.00
    9   15   19     -0.60      0.00
  -14   16   19     -1.64      0.00
  -12   16   19     -0.32      0.00
  -10   16   19      2.25      0.00
   -8   16   19      2.69      0.00
   -6   16   19      0.72      0.00
   -4   16   19     -0.14      0.00
   -2   16   19      0.63      0.00
    0   16   19      2.67      0.00
    2   16   19      2.96      0.00
    4   16   19      1.19      0.00
    6   16   19     -1.39      0.00
  -11   17   19     -0.56      0.00
   -9   17   19     -2.26      0.00
   -7   17   19     -1.76      0.00
   -5   17   19      0.62      0.00
   -3   17   19      0.92      0.00
   -1   17   19     -0.27      0.00
    1   17   19     -3.23      0.00
    3   17   19     -0.19      0.00
    5   17   19      0.95      0.00
   -8   18   19      0.29      0.00
   -6   18   19     -0.71      0.00
   -4   18   19     -2.29      0.00
   -2   18   19     -0.41      0.00
    0   18   19      1.08      0.00
  -24    0   20      2.72      0.00
  -22    0   20      1.89      0.00
  -20    0   20      0.47      0.00
  -18    0   20      0.59      0.00
  -16    0   20      1.88      0.00
  -14    0   20      1.25      0.00
  -12    0   20     -0.08      0.00
  -10    0   20     -0.34      0.00
   -8    0   20     -1.06      0.00
   -6    0   20      0.01      0.00
   -4    0   20      0.42      0.00
   -2    0   20     -0.75      0.00
    0    0   20      0.44      0.00
    2    0   20     -3.49      0.00
    4    0   20     -5.93      0.00
    6    0   20     -6.09      0.00
    8    0   20     -5.02      0.00
   10    0   20     -0.63      0.00
   12    0   20      0.88      0.00
   14    0   20     -0.75      0.00
   16    0   20     -0.34      0.00
  -23    1   20     -1.03      0.00
  -21    1   20      0.21      0.00
  -19    1   20      0.39      0.00
  -17    1   20     -0.45      0.00
  -15    1   20     -1.08      0.00
  -13    1   20      0.10      0.00
  -11    1   20      1.85      0.00
   -9    1   20      2.45      0.00
   -7    1   20      1.87      0.00
   -5    1   20      2.11      0.00
   -3    1   20      1.69      0.00
   -1    1   20      1.69      0.00
    1    1   20      3.06      0.00
    3    1   20      5.36      0.00
    5    1   20      8.13      0.00
    7    1   20      7.55      0.00
    9    1   20      4.05      0.00
   11    1   20      1.58      0.00
   13    1   20      1.10      0.00
   15    1   20      0.92      0.00
   17    1   20      0.22      0.00
  -24    2   20      1.81      0.00
  -22    2   20      0.05      0.00
  -20    2   20     -0.73      0.00
  -18    2   20      0.11      0.00
  -16    2   20      0.80      0.00
  -14    2   20      1.24      0.00
  -12    2   20      0.28      0.00
  -10    2   20     -0.80      0.00
   -8    2   20      0.03      0.00
   -6    2   20     -0.90      0.00
   -4    2   20     -1.78      0.00
   -2    2   20     -1.37      0.00
    0    2   20     -2.46      0.00
    2    2   20     -1.01      0.00
    4    2   20     -3.11      0.00
    6    2   20     -3.94      0.00
    8    2   20     -1.16      0.00
   10    2   20     -0.35      0.00
   12    2   20     -0.09      0.00
   14    2   20     -0.30      0.00
   16    2   20     -0.75      0.00
  -23    3   20     -0.17      0.00
  -21    3   20      0.75      0.00
  -19    3   20      0.70      0.00
  -17    3   20     -0.47      0.00
  -15    3   20     -0.02      0.00
  -13    3   20      0.99      0.00
  -11    3   20      1.21      0.00
   -9    3   20      0.70      0.00
   -7    3   20      0.94      0.00
   -5    3   20      0.92      0.00
   -3    3   20      3.23      0.00
   -1    3   20      2.98      0.00
    1    3   20      1.68      0.00
    3    3   20      2.43      0.00
    5    3   20      2.17      0.00
    7    3   20      2.76      0.00
    9    3   20      2.54      0.00
   11    3   20      1.84      0.00
   13    3   20      2.03      0.00
   15    3   20      1.90      0.00
  -24    4   20      0.28      0.00
  -22    4   20      0.62      0.00
  -20    4   20      0.99      0.00
  -18    4   20      1.03      0.00
  -16    4   20      1.55      0.00
  -14    4   20      0.08      0.00
  -12    4   20     -0.92      0.00
  -10    4   20     -0.02      0.00
   -8    4   20      0.93      0.00
   -6    4   20      1.16      0.00
   -4    4   20     -1.09      0.00
   -2    4   20     -1.86      0.00
    0    4   20      0.14      0.00
    2    4   20      0.89      0.00
    4    4   20      2.93      0.00
    6    4   20      1.85      0.00
    8    4   20     -0.51      0.00
   10    4   20     -0.86      0.00
   12    4   20     -2.71      0.00
   14    4   20     -2.99      0.00
   16    4   20     -0.75      0.00
  -23    5   20     -1.43      0.00
  -21    5   20     -1.64      0.00
  -19    5   20     -1.65      0.00
  -17    5   20     -0.47      0.00
  -15    5   20      0.68      0.00
  -13    5   20      2.09      0.00
  -11    5   20      2.13      0.00
   -9    5   20     -0.31      0.00
   -7    5   20     -2.09      0.00
   -5    5   20     -0.24      0.00
   -3    5   20      0.23      0.00
   -1    5   20      1.40      0.00
    1    5   20     -0.64      0.00
    3    5   20     -2.82      0.00
    5    5   20     -0.84      0.00
    7    5   20     -0.01      0.00
    9    5   20      2.47      0.00
   11    5   20      3.97      0.00
   13    5   20      3.89      0.00
   15    5   20      2.12      0.00
  -22    6   20      1.35      0.00
  -20    6   20      1.33      0.00
  -18    6   20      2.31      0.00
  -16    6   20      1.01      0.00
  -14    6   20     -0.07      0.00
  -12    6   20     -0.50      0.00
  -10    6   20      0.20      0.00
   -8    6   20      1.24      0.00
   -6    6   20      1.11      0.00
   -4    6   20      0.30      0.00
   -2    6   20     -0.69      0.00
    0    6   20      1.11      0.00
    2    6   20      3.46      0.00
    4    6   20      2.99      0.00
    6    6   20      1.15      0.00
    8    6   20     -1.03      0.00
   10    6   20     -3.24      0.00
   12    6   20     -3.25      0.00
   14    6   20     -2.60      0.00
  -21    7   20     -1.03      0.00
  -19    7   20     -0.40      0.00
  -17    7   20     -0.46      0.00
  -15    7   20      0.29      0.00
  -13    7   20      1.09      0.00
  -11    7   20      0.62      0.00
   -9    7   20      0.11      0.00
   -7    7   20     -0.72      0.00
   -5    7   20     -0.72      0.00
   -3    7   20      1.05      0.00
   -1    7   20     -0.63      0.00
    1    7   20     -0.61      0.00
    3    7   20     -0.24      0.00
    5    7   20      0.48      0.00
    7    7   20      3.94      0.00
    9    7   20      3.16      0.00
   11    7   20      2.63      0.00
   13    7   20      2.02      0.00
   15    7   20      1.01      0.00
  -22    8   20      0.40      0.00
  -20    8   20      1.03      0.00
  -18    8   20      0.66      0.00
  -16    8   20      1.77      0.00
  -14    8   20      1.64      0.00
  -12    8   20      0.59      0.00
  -10    8   20      0.17      0.00
   -8    8   20      0.67      0.00
   -6    8   20      0.39      0.00
   -4    8   20      0.44      0.00
   -2    8   20      1.13      0.00
    0    8   20      1.29      0.00
    2    8   20      1.97      0.00
    4    8   20     -1.07      0.00
    6    8   20     -2.60      0.00
    8    8   20     -2.60      0.00
   10    8   20     -1.46      0.00
   12    8   20     -0.01      0.00
   14    8   20     -0.35      0.00
  -21    9   20      0.26      0.00
  -19    9   20     -0.65      0.00
  -17    9   20     -0.46      0.00
  -15    9   20     -0.10      0.00
  -13    9   20      0.48      0.00
  -11    9   20      1.64      0.00
   -9    9   20      1.50      0.00
   -7    9   20      1.19      0.00
   -5    9   20      0.04      0.00
   -3    9   20     -1.34      0.00
   -1    9   20     -1.86      0.00
    1    9   20     -2.65      0.00
    3    9   20     -0.37      0.00
    5    9   20      2.41      0.00
    7    9   20      2.47      0.00
    9    9   20      1.11      0.00
   11    9   20     -1.38      0.00
   13    9   20     -1.13      0.00
  -20   10   20      0.23      0.00
  -18   10   20      0.72      0.00
  -16   10   20      0.46      0.00
  -14   10   20      0.12      0.00
  -12   10   20     -0.27      0.00
  -10   10   20     -0.93      0.00
   -8   10   20     -0.99      0.00
   -6   10   20      0.12      0.00
   -4   10   20      0.66      0.00
   -2   10   20      2.44      0.00
    0   10   20      3.96      0.00
    2   10   20      1.81      0.00
    4   10   20      0.87      0.00
    6   10   20     -2.35      0.00
    8   10   20     -1.07      0.00
   10   10   20      2.30      0.00
   12   10   20      1.94      0.00
  -19   11   20      0.58      0.00
  -17   11   20      0.37      0.00
  -15   11   20      0.63      0.00
  -13   11   20      1.43      0.00
  -11   11   20      1.99      0.00
   -9   11   20      2.32      0.00
   -7   11   20      1.47      0.00
   -5   11   20      1.04      0.00
   -3   11   20     -0.77      0.00
   -1   11   20     -2.17      0.00
    1   11   20     -3.32      0.00
    3   11   20     -1.53      0.00
    5   11   20      2.67      0.00
    7   11   20      2.00      0.00
    9   11   20      0.77      0.00
   11   11   20     -0.89      0.00
  -18   12   20     -0.48      0.00
  -16   12   20     -0.96      0.00
  -14   12   20     -1.26      0.00
  -12   12   20     -1.61      0.00
  -10   12   20     -0.77      0.00
   -8   12   20     -0.21      0.00
   -6   12   20     -0.01      0.00
   -4   12   20      0.24      0.00
   -2   12   20      0.23      0.00
    0   12   20      1.25      0.00
    2   12   20      0.97      0.00
    4   12   20     -2.19      0.00
    6   12   20     -2.74      0.00
    8   12   20     -2.74      0.00
   10   12   20     -0.46      0.00
  -17   13   20      0.89      0.00
  -15   13   20      1.80      0.00
  -13   13   20      2.76      0.00
  -11   13   20      2.53      0.00
   -9   13   20      0.79      0.00
   -7   13   20      0.05      0.00
   -5   13   20     -0.17      0.00
   -3   13   20      0.47      0.00
   -1   13   20     -0.73      0.00
    1   13   20      0.08      0.00
    3   13   20      0.47      0.00
    5   13   20      0.38      0.00
    7   13   20      3.93      0.00
    9   13   20      1.51      0.00
  -16   14   20     -1.09      0.00
  -14   14   20     -2.60      0.00
  -12   14   20     -2.23      0.00
  -10   14   20     -1.40      0.00
   -8   14   20      0.82      0.00
   -6   14   20      1.01      0.00
   -4   14   20      0.00      0.00
   -2   14   20     -0.69      0.00
    0   14   20     -1.04      0.00
    2   14   20      1.25      0.00
    4   14   20      0.87      0.00
    6   14   20      0.32      0.00
    8   14   20      0.63      0.00
  -13   15   20      2.79      0.00
  -11   15   20      1.88      0.00
   -9   15   20      0.72      0.00
   -7   15   20     -0.62      0.00
   -5   15   20     -0.50      0.00
   -3   15   20      0.62      0.00
   -1   15   20      1.10      0.00
    1   15   20     -0.94      0.00
    3   15   20     -2.66      0.00
    5   15   20     -2.69      0.00
    7   15   20     -3.09      0.00
  -12   16   20     -1.93      0.00
  -10   16   20     -0.63      0.00
   -8   16   20     -0.50      0.00
   -6   16   20     -0.47      0.00
   -4   16   20     -0.91      0.00
   -2   16   20     -1.41      0.00
    0   16   20     -0.30      0.00
    2   16   20      0.18      0.00
    4   16   20      5.27      0.00
   -9   17   20      1.36      0.00
   -7   17   20      0.78      0.00
   -5   17   20      0.83      0.00
   -3   17   20      0.61      0.00
   -1   17   20      1.91      0.00
    1   17   20      1.18      0.00
  -23    1   21      0.14      0.00
  -21    1   21     -0.79      0.00
  -19    1   21     -0.71      0.00
  -17    1   21     -0.07      0.00
  -15    1   21      0.14      0.00
  -13    1   21      0.42      0.00
  -11    1   21     -0.35      0.00
   -9    1   21     -1.49      0.00
   -7    1   21     -0.08      0.00
   -5    1   21      0.16      0.00
   -3    1   21      0.95      0.00
   -1    1   21      1.42      0.00
    1    1   21     -1.59      0.00
    3    1   21     -1.38      0.00
    5    1   21     -2.49      0.00
    7    1   21     -2.56      0.00
    9    1   21     -0.50      0.00
   11    1   21     -0.96      0.00
   13    1   21     -1.67      0.00
   15    1   21     -0.38      0.00
  -22    2   21      1.97      0.00
  -20    2   21      2.61      0.00
  -18    2   21      1.75      0.00
  -16    2   21     -0.19      0.00
  -14    2   21     -0.73      0.00
  -12    2   21      0.38      0.00
  -10    2   21      1.64      0.00
   -8    2   21      2.19      0.00
   -6    2   21      1.56      0.00
   -4    2   21     -0.79      0.00
   -2    2   21     -0.59      0.00
    0    2   21      0.29      0.00
    2    2   21      2.20      0.00
    4    2   21      4.35      0.00
    6    2   21      3.46      0.00
    8    2   21      2.12      0.00
   10    2   21      2.02      0.00
   12    2   21      1.82      0.00
   14    2   21      1.86      0.00
  -23    3   21     -1.97      0.00
  -21    3   21     -3.45      0.00
  -19    3   21     -3.75      0.00
  -17    3   21     -2.32      0.00
  -15    3   21      0.19      0.00
  -13    3   21      0.27      0.00
  -11    3   21     -0.82      0.00
   -9    3   21     -1.52      0.00
   -7    3   21     -1.95      0.00
   -5    3   21     -0.54      0.00
   -3    3   21     -0.60      0.00
   -1    3   21     -1.56      0.00
    1    3   21     -2.25      0.00
    3    3   21     -5.06      0.00
    5    3   21     -3.44      0.00
    7    3   21     -1.21      0.00
    9    3   21     -0.50      0.00
   11    3   21      0.30      0.00
   13    3   21     -0.44      0.00
   15    3   21     -0.99      0.00
  -22    4   21      4.19      0.00
  -20    4   21      4.58      0.00
  -18    4   21      2.99      0.00
  -16    4   21      1.05      0.00
  -14    4   21     -0.47      0.00
  -12    4   21      0.03      0.00
  -10    4   21      1.74      0.00
   -8    4   21      1.73      0.00
   -6    4   21      0.88      0.00
   -4    4   21      1.53      0.00
   -2    4   21      0.41      0.00
    0    4   21      2.04      0.00
    2    4   21      2.76      0.00
    4    4   21      1.94      0.00
    6    4   21      1.68      0.00
    8    4   21      0.02      0.00
   10    4   21     -0.05      0.00
   12    4   21      1.44      0.00
   14    4   21      1.48      0.00
  -21    5   21     -3.29      0.00
  -19    5   21     -3.06      0.00
  -17    5   21     -1.06      0.00
  -15    5   21     -0.77      0.00
  -13    5   21     -0.92      0.00
  -11    5   21     -1.38      0.00
   -9    5   21     -1.06      0.00
   -7    5   21     -0.52      0.00
   -5    5   21     -0.69      0.00
   -3    5   21     -0.80      0.00
   -1    5   21     -1.72      0.00
    1    5   21     -1.71      0.00
    3    5   21      0.22      0.00
    5    5   21      0.91      0.00
    7    5   21      2.38      0.00
    9    5   21      2.54      0.00
   11    5   21      0.28      0.00
   13    5   21     -0.05      0.00
   15    5   21      0.74      0.00
  -22    6   21      2.00      0.00
  -20    6   21      1.85      0.00
  -18    6   21      1.37      0.00
  -16    6   21      0.57      0.00
  -14    6   21      1.52      0.00
  -12    6   21      2.24      0.00
  -10    6   21      0.97      0.00
   -8    6   21     -0.01      0.00
   -6    6   21     -0.76      0.00
   -4    6   21     -0.89      0.00
   -2    6   21      1.00      0.00
    0    6   21     -0.87      0.00
    2    6   21     -1.47      0.00
    4    6   21     -2.72      0.00
    6    6   21     -4.11      0.00
    8    6   21     -1.55      0.00
   10    6   21      0.19      0.00
   12    6   21      1.60      0.00
   14    6   21      1.21      0.00
  -21    7   21     -0.84      0.00
  -19    7   21     -0.24      0.00
  -17    7   21     -1.01      0.00
  -15    7   21     -1.35      0.00
  -13    7   21     -2.38      0.00
  -11    7   21     -2.49      0.00
   -9    7   21     -1.22      0.00
   -7    7   21      0.41      0.00
   -5    7   21     -0.41      0.00
   -3    7   21     -1.55      0.00
   -1    7   21     -1.25      0.00
    1    7   21      0.14      0.00
    3    7   21      2.78      0.00
    5    7   21      3.69      0.00
    7    7   21      3.00      0.00
    9    7   21      0.89      0.00
   11    7   21     -0.40      0.00
   13    7   21     -0.69      0.00
  -20    8   21      1.36      0.00
  -18    8   21      0.67      0.00
  -16    8   21      1.36      0.00
  -14    8   21      2.02      0.00
  -12    8   21      2.03      0.00
  -10    8   21      1.06      0.00
   -8    8   21     -1.07      0.00
   -6    8   21     -1.08      0.00
   -4    8   21      0.12      0.00
   -2    8   21      0.70      0.00
    0    8   21      1.58      0.00
    2    8   21     -0.81      0.00
    4    8   21     -1.51      0.00
    6    8   21     -0.44      0.00
    8    8   21      0.16      0.00
   10    8   21      2.35      0.00
   12    8   21      2.09      0.00
  -19    9   21     -0.26      0.00
  -17    9   21      0.66      0.00
  -15    9   21     -0.27      0.00
  -13    9   21     -1.66      0.00
  -11    9   21     -1.79      0.00
   -9    9   21     -0.96      0.00
   -7    9   21     -0.64      0.00
   -5    9   21     -0.25      0.00
   -3    9   21     -1.95      0.00
   -1    9   21     -2.31      0.00
    1    9   21     -1.53      0.00
    3    9   21     -1.75      0.00
    5    9   21      0.27      0.00
    7    9   21     -0.97      0.00
    9    9   21     -1.01      0.00
   11    9   21     -0.40      0.00
  -18   10   21     -0.07      0.00
  -16   10   21     -0.35      0.00
  -14   10   21      0.55      0.00
  -12   10   21      1.50      0.00
  -10   10   21      1.42      0.00
   -8   10   21      0.51      0.00
   -6   10   21     -0.76      0.00
   -4   10   21     -0.29      0.00
   -2   10   21      0.34      0.00
    0   10   21      0.97      0.00
    2   10   21      1.04      0.00
    4   10   21      0.53      0.00
    6   10   21      0.75      0.00
    8   10   21      0.17      0.00
   10   10   21      0.10      0.00
   12   10   21      1.00      0.00
  -17   11   21      1.35      0.00
  -15   11   21      0.84      0.00
  -13   11   21     -0.26      0.00
  -11   11   21     -1.71      0.00
   -9   11   21     -1.74      0.00
   -7   11   21     -1.01      0.00
   -5   11   21     -0.76      0.00
   -3   11   21     -0.09      0.00
   -1   11   21     -1.03      0.00
    1   11   21     -1.18      0.00
    3   11   21     -0.38      0.00
    5   11   21     -1.35      0.00
    7   11   21      1.25      0.00
    9   11   21      1.56      0.00
   11   11   21      1.00      0.00
  -16   12   21     -0.79      0.00
  -14   12   21     -0.51      0.00
  -12   12   21      0.65      0.00
  -10   12   21      1.23      0.00
   -8   12   21      0.98      0.00
   -6   12   21      0.63      0.00
   -4   12   21     -0.29      0.00
   -2   12   21     -0.18      0.00
    0   12   21     -0.98      0.00
    2   12   21      0.82      0.00
    4   12   21      1.01      0.00
    6   12   21     -0.72      0.00
    8   12   21      0.13      0.00
   10   12   21     -1.07      0.00
  -15   13   21      0.31      0.00
  -13   13   21     -0.23      0.00
  -11   13   21     -0.44      0.00
   -9   13   21     -1.19      0.00
   -7   13   21     -0.65      0.00
   -5   13   21     -0.52      0.00
   -3   13   21     -0.59      0.00
   -1   13   21     -0.70      0.00
    1   13   21     -2.39      0.00
    3   13   21     -3.08      0.00
    5   13   21     -2.80      0.00
    7   13   21     -1.59      0.00
  -14   14   21     -0.03      0.00
  -12   14   21      0.13      0.00
  -10   14   21      0.41      0.00
   -8   14   21      0.77      0.00
   -6   14   21      0.16      0.00
   -4   14   21     -0.29      0.00
   -2   14   21     -0.51      0.00
    0   14   21      0.95      0.00
    2   14   21      0.95      0.00
    4   14   21      2.42      0.00
    6   14   21      2.79      0.00
  -13   15   21     -0.44      0.00
  -11   15   21     -0.81      0.00
   -9   15   21      0.26      0.00
   -7   15   21     -0.25      0.00
   -5   15   21     -0.18      0.00
   -3   15   21     -0.61      0.00
   -1   15   21     -0.93      0.00
    1   15   21     -1.04      0.00
    3   15   21     -3.10      0.00
    5   15   21     -1.07      0.00
  -10   16   21     -0.41      0.00
   -8   16   21     -0.52      0.00
   -6   16   21     -0.04      0.00
   -4   16   21      0.20      0.00
   -2   16   21     -0.64      0.00
    0   16   21     -1.26      0.00
    2   16   21     -1.42      0.00
  -22    0   22      0.29      0.00
  -20    0   22      0.37      0.00
  -18    0   22      0.01      0.00
  -16    0   22     -1.35      0.00
  -14    0   22     -2.28      0.00
  -12    0   22     -0.09      0.00
  -10    0   22      2.41      0.00
   -8    0   22      2.06      0.00
   -6    0   22      0.64      0.00
   -4    0   22     -2.03      0.00
   -2    0   22      1.13      0.00
    0    0   22      8.08      0.00
    2    0   22     10.68      0.00
    4    0   22     10.14      0.00
    6    0   22      3.41      0.00
    8    0   22     -2.26      0.00
   10    0   22     -0.98      0.00
   12    0   22      1.03      0.00
   14    0   22      0.88      0.00
  -21    1   22     -1.60      0.00
  -19    1   22     -1.56      0.00
  -17    1   22     -0.58      0.00
  -15    1   22      0.47      0.00
  -13    1   22      0.16      0.00
  -11    1   22     -1.79      0.00
   -9    1   22     -3.43      0.00
   -7    1   22     -2.12      0.00
   -5    1   22      0.34      0.00
   -3    1   22     -0.62      0.00
   -1    1   22     -5.03      0.00
    1    1   22    -10.66      0.00
    3    1   22    -11.61      0.00
    5    1   22     -6.47      0.00
    7    1   22     -0.73      0.00
    9    1   22      1.60      0.00
   11    1   22      0.75      0.00
   13    1   22     -1.09      0.00
  -22    2   22      0.25      0.00
  -20    2   22      1.14      0.00
  -18    2   22      0.90      0.00
  -16    2   22     -0.23      0.00
  -14    2   22     -0.74      0.00
  -12    2   22     -0.84      0.00
  -10    2   22      0.41      0.00
   -8    2   22      1.28      0.00
   -6    2   22     -0.16      0.00
   -4    2   22      0.95      0.00
   -2    2   22      3.45      0.00
    0    2   22      7.21      0.00
    2    2   22      9.83      0.00
    4    2   22      5.07      0.00
    6    2   22      0.30      0.00
    8    2   22     -2.30      0.00
   10    2   22     -2.66      0.00
   12    2   22     -0.06      0.00
   14    2   22      1.29      0.00
  -21    3   22     -1.00      0.00
  -19    3   22     -1.68      0.00
  -17    3   22     -1.86      0.00
  -15    3   22     -0.92      0.00
  -13    3   22     -0.30      0.00
  -11    3   22     -0.19      0.00
   -9    3   22      0.52      0.00
   -7    3   22      0.27      0.00
   -5    3   22     -0.61      0.00
   -3    3   22     -1.86      0.00
   -1    3   22     -5.89      0.00
    1    3   22     -6.53      0.00
    3    3   22     -4.39      0.00
    5    3   22     -1.02      0.00
    7    3   22      2.46      0.00
    9    3   22      2.51      0.00
   11    3   22      0.21      0.00
   13    3   22      0.15      0.00
  -22    4   22     -0.13      0.00
  -20    4   22     -0.65      0.00
  -18    4   22     -0.27      0.00
  -16    4   22      0.47      0.00
  -14    4   22     -0.09      0.00
  -12    4   22     -0.45      0.00
  -10    4   22     -1.07      0.00
   -8    4   22     -1.24      0.00
   -6    4   22     -0.49      0.00
   -4    4   22      0.58      0.00
   -2    4   22      2.82      0.00
    0    4   22      2.78      0.00
    2    4   22      0.08      0.00
    4    4   22     -1.82      0.00
    6    4   22     -4.12      0.00
    8    4   22     -2.74      0.00
   10    4   22      0.09      0.00
   12    4   22      0.68      0.00
  -21    5   22      0.36      0.00
  -19    5   22     -0.21      0.00
  -17    5   22     -1.07      0.00
  -15    5   22     -2.09      0.00
  -13    5   22     -1.12      0.00
  -11    5   22      0.70      0.00
   -9    5   22      1.37      0.00
   -7    5   22      2.23      0.00
   -5    5   22      1.02      0.00
   -3    5   22     -1.53      0.00
   -1    5   22     -0.81      0.00
    1    5   22     -0.35      0.00
    3    5   22      2.98      0.00
    5    5   22      4.47      0.00
    7    5   22      2.19      0.00
    9    5   22      0.40      0.00
   11    5   22     -0.38      0.00
   13    5   22     -0.48      0.00
  -20    6   22     -0.44      0.00
  -18    6   22      0.03      0.00
  -16    6   22     -0.12      0.00
  -14    6   22      0.35      0.00
  -12    6   22     -0.07      0.00
  -10    6   22     -0.97      0.00
   -8    6   22     -1.62      0.00
   -6    6   22     -0.55      0.00
   -4    6   22      0.48      0.00
   -2    6   22      0.78      0.00
    0    6   22     -0.34      0.00
    2    6   22     -2.84      0.00
    4    6   22     -4.27      0.00
    6    6   22     -2.33      0.00
    8    6   22      0.14      0.00
   10    6   22      1.33      0.00
   12    6   22      1.29      0.00
  -19    7   22     -0.98      0.00
  -17    7   22     -1.36      0.00
  -15    7   22     -0.57      0.00
  -13    7   22     -0.36      0.00
  -11    7   22      0.35      0.00
   -9    7   22      1.75      0.00
   -7    7   22      1.34      0.00
   -5    7   22      0.79      0.00
   -3    7   22     -0.28      0.00
   -1    7   22     -1.47      0.00
    1    7   22      0.82      0.00
    3    7   22      0.60      0.00
    5    7   22      0.34      0.00
    7    7   22     -0.46      0.00
    9    7   22     -1.95      0.00
   11    7   22     -0.36      0.00
  -20    8   22      0.26      0.00
  -18    8   22     -1.13      0.00
  -16    8   22     -1.38      0.00
  -14    8   22     -1.50      0.00
  -12    8   22     -1.22      0.00
  -10    8   22     -0.64      0.00
   -8    8   22     -0.54      0.00
   -6    8   22     -1.12      0.00
   -4    8   22      0.10      0.00
   -2    8   22     -0.04      0.00
    0    8   22      0.21      0.00
    2    8   22      0.34      0.00
    4    8   22      0.19      0.00
    6    8   22      1.94      0.00
    8    8   22      1.80      0.00
   10    8   22      0.96      0.00
   12    8   22     -0.53      0.00
  -19    9   22      0.24      0.00
  -17    9   22      1.88      0.00
  -15    9   22      1.46      0.00
  -13    9   22      0.69      0.00
  -11    9   22     -0.08      0.00
   -9    9   22      0.04      0.00
   -7    9   22      0.82      0.00
   -5    9   22      0.58      0.00
   -3    9   22      0.61      0.00
   -1    9   22      0.43      0.00
    1    9   22     -0.57      0.00
    3    9   22     -0.63      0.00
    5    9   22     -1.43      0.00
    7    9   22     -1.16      0.00
    9    9   22      0.24      0.00
   11    9   22      0.98      0.00
  -18   10   22     -2.00      0.00
  -16   10   22     -2.53      0.00
  -14   10   22     -1.66      0.00
  -12   10   22     -0.33      0.00
  -10   10   22     -0.48      0.00
   -8   10   22     -0.80      0.00
   -6   10   22     -0.53      0.00
   -4   10   22     -1.00      0.00
   -2   10   22      0.04      0.00
    0   10   22     -0.42      0.00
    2   10   22      0.37      0.00
    4   10   22      1.82      0.00
    6   10   22      0.07      0.00
    8   10   22      0.46      0.00
   10   10   22     -0.91      0.00
  -17   11   22      1.57      0.00
  -15   11   22      1.14      0.00
  -13   11   22      0.11      0.00
  -11   11   22      0.42      0.00
   -9   11   22      0.75      0.00
   -7   11   22      0.99      0.00
   -5   11   22      0.90      0.00
   -3   11   22      0.38      0.00
   -1   11   22      0.52      0.00
    1   11   22     -0.79      0.00
    3   11   22     -1.06      0.00
    5   11   22     -1.52      0.00
    7   11   22     -1.57      0.00
    9   11   22      0.38      0.00
  -16   12   22     -0.57      0.00
  -14   12   22      0.12      0.00
  -12   12   22     -0.38      0.00
  -10   12   22     -1.16      0.00
   -8   12   22     -2.01      0.00
   -6   12   22     -1.24      0.00
   -4   12   22     -0.04      0.00
   -2   12   22      0.36      0.00
    0   12   22      1.75      0.00
    2   12   22      2.19      0.00
    4   12   22      2.65      0.00
    6   12   22      3.07      0.00
    8   12   22      0.53      0.00
  -13   13   22     -0.12      0.00
  -11   13   22      0.43      0.00
   -9   13   22      1.73      0.00
   -7   13   22      1.93      0.00
   -5   13   22      0.91      0.00
   -3   13   22     -0.07      0.00
   -1   13   22     -0.98      0.00
    1   13   22     -0.54      0.00
    3   13   22     -2.77      0.00
    5   13   22     -2.43      0.00
  -12   14   22      0.08      0.00
  -10   14   22     -1.41      0.00
   -8   14   22     -1.03      0.00
   -6   14   22     -0.65      0.00
   -4   14   22      0.95      0.00
   -2   14   22      1.47      0.00
    0   14   22      1.20      0.00
    2   14   22      1.11      0.00
    4   14   22     -0.13      0.00
   -9   15   22      1.68      0.00
   -7   15   22      0.88      0.00
   -5   15   22     -0.08      0.00
   -3   15   22     -0.87      0.00
   -1   15   22     -0.90      0.00
    1   15   22     -0.19      0.00
  -21    1   23      0.25      0.00
  -19    1   23      0.17      0.00
  -17    1   23     -0.51      0.00
  -15    1   23     -0.72      0.00
  -13    1   23      0.22      0.00
  -11    1   23      0.49      0.00
   -9    1   23      0.95      0.00
   -7    1   23      0.63      0.00
   -5    1   23     -1.95      0.00
   -3    1   23     -2.16      0.00
    1    1   23     -0.75      0.00
    3    1   23      2.14      0.00
    5    1   23      1.01      0.00
    7    1   23      0.31      0.00
    9    1   23      0.50      0.00
   11    1   23     -1.03      0.00
   13    1   23     -0.79      0.00
  -20    2   23     -0.47      0.00
  -18    2   23      0.25      0.00
  -16    2   23      0.75      0.00
  -14    2   23      0.76      0.00
  -12    2   23     -0.37      0.00
  -10    2   23     -1.86      0.00
   -8    2   23     -1.35      0.00
   -6    2   23      0.14      0.00
   -4    2   23      2.49      0.00
   -2    2   23      3.72      0.00
    0    2   23      0.76      0.00
    2    2   23     -2.12      0.00
    4    2   23     -3.37      0.00
    6    2   23     -2.83      0.00
    8    2   23     -0.48      0.00
   10    2   23      0.93      0.00
   12    2   23      0.32      0.00
  -21    3   23      1.18      0.00
  -19    3   23      0.82      0.00
  -17    3   23      0.55      0.00
  -15    3   23      0.14      0.00
  -13    3   23     -0.47      0.00
  -11    3   23      0.33      0.00
   -9    3   23      0.95      0.00
   -7    3   23      0.60      0.00
   -5    3   23     -0.63      0.00
   -3    3   23     -2.65      0.00
   -1    3   23     -0.82      0.00
    1    3   23      2.37      0.00
    3    3   23      3.73      0.00
    5    3   23      3.85      0.00
    7    3   23      0.29      0.00
    9    3   23     -2.18      0.00
   11    3   23     -1.82      0.00
  -20    4   23     -0.55      0.00
  -18    4   23     -0.34      0.00
  -16    4   23      0.12      0.00
  -14    4   23      0.28      0.00
  -12    4   23      0.83      0.00
  -10    4   23      0.55      0.00
   -8    4   23     -1.32      0.00
   -6    4   23     -0.48      0.00
   -4    4   23      0.89      0.00
   -2    4   23      0.56      0.00
    0    4   23     -0.57      0.00
    2    4   23     -4.47      0.00
    4    4   23     -5.01      0.00
    6    4   23     -2.51      0.00
    8    4   23     -0.64      0.00
   10    4   23      0.46      0.00
   12    4   23      1.34      0.00
  -19    5   23      0.29      0.00
  -17    5   23      1.03      0.00
  -15    5   23      0.57      0.00
  -13    5   23     -0.37      0.00
  -11    5   23     -0.95      0.00
   -9    5   23      0.04      0.00
   -7    5   23      1.08      0.00
   -5    5   23      1.12      0.00
   -3    5   23      0.13      0.00
   -1    5   23     -0.15      0.00
    1    5   23      1.71      0.00
    3    5   23      2.98      0.00
    5    5   23      1.34      0.00
    7    5   23      0.10      0.00
    9    5   23     -1.33      0.00
   11    5   23     -1.29      0.00
  -20    6   23      1.11      0.00
  -18    6   23      0.09      0.00
  -16    6   23     -1.14      0.00
  -14    6   23      0.23      0.00
  -12    6   23      1.45      0.00
  -10    6   23      1.39      0.00
   -8    6   23      0.67      0.00
   -6    6   23     -1.19      0.00
   -4    6   23     -0.41      0.00
   -2    6   23      0.51      0.00
    0    6   23     -1.02      0.00
    2    6   23     -0.94      0.00
    4    6   23     -2.24      0.00
    6    6   23     -1.51      0.00
    8    6   23     -0.17      0.00
   10    6   23     -0.56      0.00
  -19    7   23     -0.08      0.00
  -17    7   23      1.13      0.00
  -15    7   23      1.71      0.00
  -13    7   23      0.17      0.00
  -11    7   23     -1.45      0.00
   -9    7   23     -0.59      0.00
   -7    7   23      1.17      0.00
   -5    7   23      1.03      0.00
   -3    7   23      0.91      0.00
   -1    7   23     -0.01      0.00
    1    7   23      0.18      0.00
    3    7   23      0.17      0.00
    5    7   23     -0.45      0.00
    7    7   23     -0.99      0.00
    9    7   23     -0.78      0.00
   11    7   23     -0.09      0.00
  -18    8   23     -1.05      0.00
  -16    8   23     -0.86      0.00
  -14    8   23     -0.07      0.00
  -12    8   23      2.14      0.00
  -10    8   23      2.73      0.00
   -8    8   23      1.60      0.00
   -6    8   23      1.01      0.00
   -4    8   23      0.09      0.00
   -2    8   23     -0.21      0.00
    0    8   23     -0.63      0.00
    2    8   23     -2.23      0.00
    4    8   23     -1.17      0.00
    6    8   23     -1.01      0.00
    8    8   23     -0.82      0.00
   10    8   23     -0.33      0.00
  -17    9   23      0.66      0.00
  -15    9   23     -0.11      0.00
  -13    9   23     -1.05      0.00
  -11    9   23     -0.83      0.00
   -9    9   23     -0.77      0.00
   -7    9   23     -0.43      0.00
   -5    9   23     -0.05      0.00
   -3    9   23     -0.93      0.00
   -1    9   23      0.57      0.00
    1    9   23      0.42      0.00
    3    9   23      0.38      0.00
    5    9   23      0.04      0.00
    7    9   23     -1.73      0.00
    9    9   23     -1.04      0.00
  -16   10   23      0.77      0.00
  -14   10   23      1.46      0.00
  -12   10   23      1.31      0.00
  -10   10   23      1.37      0.00
   -8   10   23      0.95      0.00
   -6   10   23      1.21      0.00
   -4   10   23      1.44      0.00
   -2   10   23      0.37      0.00
    0   10   23     -0.83      0.00
    2   10   23     -1.27      0.00
    4   10   23     -0.22      0.00
    6   10   23      1.22      0.00
    8   10   23      1.21      0.00
  -15   11   23     -0.74      0.00
  -13   11   23     -0.06      0.00
  -11   11   23      0.22      0.00
   -9   11   23      0.74      0.00
   -7   11   23      0.03      0.00
   -5   11   23     -0.83      0.00
   -3   11   23     -0.59      0.00
   -1   11   23     -0.84      0.00
    1   11   23      0.18      0.00
    3   11   23     -1.58      0.00
    5   11   23     -3.74      0.00
    7   11   23     -3.08      0.00
  -14   12   23      0.66      0.00
  -12   12   23      0.33      0.00
  -10   12   23     -0.44      0.00
   -8   12   23      0.34      0.00
   -6   12   23      0.84      0.00
   -4   12   23      1.10      0.00
   -2   12   23      0.52      0.00
    0   12   23     -0.32      0.00
    2   12   23      1.01      0.00
    4   12   23      1.21      0.00
  -11   13   23      0.96      0.00
   -9   13   23      0.20      0.00
   -7   13   23     -0.20      0.00
   -5   13   23     -1.15      0.00
   -3   13   23     -0.94      0.00
   -1   13   23     -0.27      0.00
    1   13   23     -0.41      0.00
    3   13   23     -0.70      0.00
   -8   14   23      0.14      0.00
   -6   14   23      0.65      0.00
   -4   14   23      1.10      0.00
   -2   14   23      1.14      0.00
    0   14   23      0.43      0.00
  -20    0   24      1.12      0.00
  -18    0   24      1.69      0.00
  -16    0   24      0.86      0.00
  -14    0   24     -0.05      0.00
  -12    0   24      0.06      0.00
  -10    0   24     -0.99      0.00
   -8    0   24     -1.75      0.00
   -6    0   24     -2.37      0.00
   -4    0   24     -3.25      0.00
   -2    0   24     -1.82      0.00
    4    0   24      1.93      0.00
    6    0   24      2.37      0.00
    8    0   24      1.77      0.00
   10    0   24      1.94      0.00
  -19    1   24     -1.19      0.00
  -17    1   24     -1.11      0.00
  -15    1   24     -0.65      0.00
  -13    1   24     -0.34      0.00
  -11    1   24     -0.32      0.00
   -9    1   24      0.30      0.00
   -7    1   24      1.98      0.00
   -5    1   24      2.56      0.00
   -3    1   24      2.46      0.00
   -1    1   24      2.34      0.00
    1    1   24      1.41      0.00
    3    1   24     -0.05      0.00
    5    1   24     -2.06      0.00
    7    1   24     -3.27      0.00
    9    1   24     -2.23      0.00
   11    1   24     -1.45      0.00
  -20    2   24      1.24      0.00
  -18    2   24      0.55      0.00
  -16    2   24      0.19      0.00
  -14    2   24      0.27      0.00
  -12    2   24      0.21      0.00
  -10    2   24      0.07      0.00
   -8    2   24     -2.26      0.00
   -6    2   24     -4.50      0.00
   -4    2   24     -4.45      0.00
   -2    2   24     -4.52      0.00
    0    2   24     -2.67      0.00
    2    2   24     -1.03      0.00
    4    2   24      0.18      0.00
    6    2   24      2.74      0.00
    8    2   24      2.51      0.00
   10    2   24      0.66      0.00
  -19    3   24     -0.46      0.00
  -17    3   24     -0.10      0.00
  -15    3   24     -0.24      0.00
  -13    3   24     -1.74      0.00
  -11    3   24     -1.89      0.00
   -9    3   24      0.41      0.00
   -7    3   24      2.65      0.00
   -5    3   24      4.93      0.00
   -3    3   24      4.26      0.00
   -1    3   24      2.20      0.00
    1    3   24      1.49      0.00
    3    3   24     -0.45      0.00
    5    3   24     -1.90      0.00
    7    3   24     -1.70      0.00
    9    3   24     -1.76      0.00
   11    3   24     -1.73      0.00
  -18    4   24      0.44      0.00
  -16    4   24      0.22      0.00
  -14    4   24      0.71      0.00
  -12    4   24      1.14      0.00
  -10    4   24     -0.62      0.00
   -8    4   24     -3.64      0.00
   -6    4   24     -5.97      0.00
   -4    4   24     -5.34      0.00
   -2    4   24     -2.30      0.00
    0    4   24     -0.40      0.00
    2    4   24      0.97      0.00
    4    4   24      1.58      0.00
    6    4   24      0.45      0.00
    8    4   24      0.30      0.00
   10    4   24     -0.33      0.00
  -19    5   24      0.45      0.00
  -17    5   24      0.22      0.00
  -15    5   24     -1.14      0.00
  -13    5   24     -1.76      0.00
  -11    5   24     -1.94      0.00
   -9    5   24     -0.07      0.00
   -7    5   24      3.43      0.00
   -5    5   24      3.27      0.00
   -3    5   24      2.02      0.00
   -1    5   24     -0.04      0.00
    1    5   24     -2.19      0.00
    3    5   24     -1.34      0.00
    5    5   24     -1.37      0.00
    7    5   24     -1.15      0.00
    9    5   24     -0.04      0.00
  -18    6   24     -0.13      0.00
  -16    6   24      0.30      0.00
  -14    6   24      1.14      0.00
  -12    6   24      1.24      0.00
  -10    6   24     -0.53      0.00
   -8    6   24     -2.47      0.00
   -6    6   24     -3.10      0.00
   -4    6   24     -2.30      0.00
   -2    6   24      0.13      0.00
    0    6   24      1.57      0.00
    2    6   24      1.71      0.00
    4    6   24      1.05      0.00
    6    6   24      0.54      0.00
    8    6   24     -0.81      0.00
  -17    7   24     -0.39      0.00
  -15    7   24     -1.20      0.00
  -13    7   24     -2.83      0.00
  -11    7   24     -2.40      0.00
   -9    7   24     -1.21      0.00
   -7    7   24     -0.55      0.00
   -5    7   24      0.30      0.00
   -3    7   24     -0.84      0.00
   -1    7   24     -1.13      0.00
    1    7   24     -0.55      0.00
    3    7   24     -1.58      0.00
    5    7   24     -0.68      0.00
    7    7   24     -0.64      0.00
    9    7   24     -0.33      0.00
  -16    8   24      1.66      0.00
  -14    8   24      1.83      0.00
  -12    8   24      1.30      0.00
  -10    8   24      1.10      0.00
   -8    8   24     -0.20      0.00
   -6    8   24     -0.35      0.00
   -4    8   24      0.70      0.00
   -2    8   24      0.37      0.00
    0    8   24      1.03      0.00
    2    8   24      0.44      0.00
    4    8   24      0.86      0.00
    6    8   24      0.87      0.00
    8    8   24     -0.31      0.00
  -15    9   24     -2.00      0.00
  -13    9   24     -1.91      0.00
  -11    9   24     -2.03      0.00
   -9    9   24     -1.11      0.00
   -7    9   24     -0.59      0.00
   -5    9   24     -0.51      0.00
   -3    9   24     -0.06      0.00
   -1    9   24     -0.04      0.00
    1    9   24     -0.49      0.00
    3    9   24     -1.17      0.00
    5    9   24     -2.60      0.00
    7    9   24     -1.73      0.00
  -14   10   24      0.21      0.00
  -12   10   24      0.87      0.00
  -10   10   24      0.22      0.00
   -8   10   24      0.10      0.00
   -6   10   24     -0.66      0.00
   -4   10   24     -1.22      0.00
   -2   10   24     -0.74      0.00
    0   10   24     -1.27      0.00
    2   10   24      1.20      0.00
    4   10   24      2.33      0.00
    6   10   24      2.21      0.00
  -13   11   24     -0.67      0.00
  -11   11   24     -1.12      0.00
   -9   11   24     -1.44      0.00
   -7   11   24     -0.12      0.00
   -5   11   24      0.39      0.00
   -3   11   24      0.89      0.00
   -1   11   24      0.73      0.00
    1   11   24     -0.20      0.00
    3   11   24     -1.31      0.00
  -10   12   24      0.85      0.00
   -8   12   24     -0.03      0.00
   -6   12   24     -0.53      0.00
   -4   12   24     -1.05      0.00
   -2   12   24     -1.21      0.00
    0   12   24     -0.56      0.00
    2   12   24     -0.50      0.00
   -7   13   24     -0.01      0.00
   -5   13   24      0.30      0.00
   -3   13   24     -0.05      0.00
   -1   13   24      0.45      0.00
  -17    1   25     -0.56      0.00
  -15    1   25     -0.51      0.00
  -13    1   25     -0.51      0.00
  -11    1   25     -0.78      0.00
   -9    1   25      0.15      0.00
   -7    1   25     -0.04      0.00
   -5    1   25     -0.06      0.00
   -3    1   25      0.45      0.00
   -1    1   25     -0.44      0.00
    1    1   25      0.21      0.00
    3    1   25      0.32      0.00
    5    1   25     -0.87      0.00
    7    1   25     -0.26      0.00
    9    1   25      0.11      0.00
  -18    2   25      0.26      0.00
  -16    2   25      0.78      0.00
  -14    2   25      1.55      0.00
  -12    2   25      1.25      0.00
  -10    2   25      0.94      0.00
   -8    2   25      0.87      0.00
   -6    2   25      0.26      0.00
   -4    2   25      0.83      0.00
   -2    2   25      0.80      0.00
    0    2   25      0.62      0.00
    2    2   25      1.08      0.00
    4    2   25      0.86      0.00
    6    2   25      0.52      0.00
    8    2   25      1.01      0.00
  -17    3   25     -1.15      0.00
  -15    3   25     -1.76      0.00
  -13    3   25     -1.47      0.00
  -11    3   25     -0.61      0.00
   -9    3   25     -0.64      0.00
   -7    3   25     -0.65      0.00
   -5    3   25     -1.29      0.00
   -3    3   25     -1.87      0.00
   -1    3   25     -1.29      0.00
    1    3   25     -1.63      0.00
    3    3   25     -1.10      0.00
    5    3   25     -0.02      0.00
    7    3   25     -0.17      0.00
    9    3   25      0.56      0.00
  -18    4   25      0.69      0.00
  -16    4   25      1.38      0.00
  -14    4   25      1.02      0.00
  -12    4   25      1.52      0.00
  -10    4   25      1.58      0.00
   -8    4   25      2.03      0.00
   -6    4   25      3.47      0.00
   -4    4   25      2.65      0.00
   -2    4   25      2.52      0.00
    0    4   25      2.17      0.00
    2    4   25      1.33      0.00
    4    4   25      1.74      0.00
    6    4   25      1.27      0.00
    8    4   25     -0.49      0.00
  -17    5   25     -1.62      0.00
  -15    5   25     -1.34      0.00
  -13    5   25     -0.96      0.00
  -11    5   25     -1.28      0.00
   -9    5   25     -2.90      0.00
   -7    5   25     -4.20      0.00
   -5    5   25     -4.04      0.00
   -3    5   25     -2.88      0.00
   -1    5   25     -1.32      0.00
    1    5   25     -0.16      0.00
    3    5   25     -0.39      0.00
    5    5   25     -0.66      0.00
    7    5   25      0.24      0.00
  -16    6   25      0.91      0.00
  -14    6   25      0.96      0.00
  -12    6   25      0.51      0.00
  -10    6   25      2.51      0.00
   -8    6   25      4.59      0.00
   -6    6   25      4.77      0.00
   -4    6   25      4.64      0.00
   -2    6   25      2.06      0.00
    0    6   25      0.73      0.00
    2    6   25      1.05      0.00
    4    6   25      0.62      0.00
    6    6   25      1.07      0.00
  -15    7   25     -0.80      0.00
  -13    7   25     -0.68      0.00
  -11    7   25     -1.93      0.00
   -9    7   25     -2.83      0.00
   -7    7   25     -4.29      0.00
   -5    7   25     -3.91      0.00
   -3    7   25     -1.86      0.00
   -1    7   25     -0.32      0.00
    1    7   25      1.04      0.00
    3    7   25      0.60      0.00
    5    7   25      0.16      0.00
  -14    8   25     -0.49      0.00
  -12    8   25      0.21      0.00
  -10    8   25      0.79      0.00
   -8    8   25      2.04      0.00
   -6    8   25      2.72      0.00
   -4    8   25      2.04      0.00
   -2    8   25      1.61      0.00
    0    8   25      0.43      0.00
    2    8   25     -0.17      0.00
    4    8   25      0.76      0.00
    6    8   25      0.19      0.00
  -13    9   25      0.21      0.00
  -11    9   25     -0.13      0.00
   -9    9   25     -1.57      0.00
   -7    9   25     -1.17      0.00
   -5    9   25     -1.14      0.00
   -3    9   25     -0.64      0.00
   -1    9   25      0.97      0.00
    1    9   25      0.94      0.00
    3    9   25      1.78      0.00
  -12   10   25     -0.42      0.00
  -10   10   25      0.48      0.00
   -8   10   25      0.69      0.00
   -6   10   25      1.78      0.00
   -4   10   25      2.24      0.00
   -2   10   25      2.03      0.00
    0   10   25      0.81      0.00
    2   10   25     -0.31      0.00
   -9   11   25     -0.03      0.00
   -7   11   25     -0.85      0.00
   -5   11   25     -1.36      0.00
   -3   11   25     -1.69      0.00
   -1   11   25     -0.95      0.00
    1   11   25      1.50      0.00
   -6   12   25      1.01      0.00
   -4   12   25      2.40      0.00
  -16    0   26      0.22      0.00
  -14    0   26      0.05      0.00
  -12    0   26     -1.08      0.00
  -10    0   26     -2.24      0.00
   -8    0   26     -0.84      0.00
   -6    0   26      0.35      0.00
   -4    0   26      0.99      0.00
   -2    0   26     -0.69      0.00
    0    0   26     -4.05      0.00
    2    0   26     -2.91      0.00
    4    0   26      2.00      0.00
    6    0   26      5.58      0.00
  -15    1   26      0.78      0.00
  -13    1   26      1.59      0.00
  -11    1   26      2.16      0.00
   -9    1   26      2.12      0.00
   -7    1   26      0.89      0.00
   -5    1   26     -0.63      0.00
   -3    1   26      0.19      0.00
   -1    1   26      2.40      0.00
    1    1   26      3.47      0.00
    3    1   26      1.07      0.00
    5    1   26     -3.72      0.00
    7    1   26     -6.15      0.00
  -16    2   26      0.71      0.00
  -14    2   26      0.35      0.00
  -12    2   26      0.10      0.00
  -10    2   26      0.18      0.00
   -8    2   26     -0.06      0.00
   -6    2   26      0.94      0.00
   -4    2   26      0.75      0.00
   -2    2   26     -0.80      0.00
    0    2   26     -1.66      0.00
    2    2   26     -1.48      0.00
    4    2   26      1.70      0.00
    6    2   26      5.24      0.00
  -15    3   26      1.05      0.00
  -13    3   26      0.24      0.00
  -11    3   26      0.09      0.00
   -9    3   26     -0.59      0.00
   -7    3   26     -0.83      0.00
   -5    3   26      0.03      0.00
   -3    3   26      0.12      0.00
   -1    3   26      1.46      0.00
    1    3   26      1.66      0.00
    3    3   26     -0.53      0.00
    5    3   26     -2.63      0.00
  -16    4   26      0.17      0.00
  -14    4   26      0.98      0.00
  -12    4   26      2.44      0.00
  -10    4   26      3.66      0.00
   -8    4   26      3.28      0.00
   -6    4   26      1.57      0.00
   -4    4   26      0.18      0.00
   -2    4   26     -0.93      0.00
    0    4   26     -1.57      0.00
    2    4   26     -0.16      0.00
    4    4   26      1.55      0.00
    6    4   26      2.48      0.00
  -15    5   26      0.46      0.00
  -13    5   26     -0.09      0.00
  -11    5   26     -2.56      0.00
   -9    5   26     -2.49      0.00
   -7    5   26     -1.15      0.00
   -5    5   26     -0.36      0.00
   -3    5   26      1.05      0.00
   -1    5   26      0.50      0.00
    1    5   26      0.41      0.00
    3    5   26      0.22      0.00
    5    5   26     -0.97      0.00
  -14    6   26      1.82      0.00
  -12    6   26      3.69      0.00
  -10    6   26      3.91      0.00
   -8    6   26      2.85      0.00
   -6    6   26      0.27      0.00
   -4    6   26     -0.94      0.00
   -2    6   26     -0.77      0.00
    0    6   26     -0.54      0.00
    2    6   26     -0.32      0.00
    4    6   26      0.18      0.00
  -13    7   26     -1.25      0.00
  -11    7   26     -1.59      0.00
   -9    7   26     -1.51      0.00
   -7    7   26      0.21      0.00
   -5    7   26      1.42      0.00
   -3    7   26      0.48      0.00
   -1    7   26      0.67      0.00
    1    7   26      0.60      0.00
    3    7   26      0.76      0.00
  -12    8   26      2.40      0.00
  -10    8   26      3.07      0.00
   -8    8   26      0.85      0.00
   -6    8   26     -0.05      0.00
   -4    8   26     -0.89      0.00
   -2    8   26     -0.98      0.00
    0    8   26     -0.95      0.00
    2    8   26     -1.80      0.00
   -9    9   26     -1.09      0.00
   -7    9   26     -0.97      0.00
   -5    9   26     -0.66      0.00
   -3    9   26     -0.43      0.00
   -1    9   26      0.07      0.00
    1    9   26      1.22      0.00
   -8   10   26      1.71      0.00
   -6   10   26      0.91      0.00
   -4   10   26      1.07      0.00
   -2   10   26      0.29      0.00
  -13    1   27     -1.43      0.00
  -11    1   27     -2.08      0.00
   -9    1   27     -1.56      0.00
   -7    1   27     -0.95      0.00
   -5    1   27      0.56      0.00
   -3    1   27      0.11      0.00
   -1    1   27     -1.10      0.00
    1    1   27     -1.46      0.00
    3    1   27     -1.52      0.00
  -14    2   27      0.76      0.00
  -12    2   27      1.72      0.00
  -10    2   27      2.84      0.00
   -8    2   27      1.83      0.00
   -6    2   27      0.17      0.00
   -4    2   27     -0.30      0.00
   -2    2   27      0.26      0.00
    0    2   27      2.12      0.00
    2    2   27      2.67      0.00
    4    2   27      1.01      0.00
  -13    3   27     -1.70      0.00
  -11    3   27     -3.30      0.00
   -9    3   27     -3.62      0.00
   -7    3   27     -2.17      0.00
   -5    3   27     -0.91      0.00
   -3    3   27     -0.26      0.00
   -1    3   27     -1.29      0.00
    1    3   27     -2.69      0.00
    3    3   27     -1.78      0.00
  -12    4   27      1.63      0.00
  -10    4   27      1.54      0.00
   -8    4   27      2.05      0.00
   -6    4   27      1.51      0.00
   -4    4   27      0.66      0.00
   -2    4   27      1.64      0.00
    0    4   27      1.94      0.00
    2    4   27      2.07      0.00
  -11    5   27     -1.13      0.00
   -9    5   27     -1.59      0.00
   -7    5   27     -1.53      0.00
   -5    5   27     -1.64      0.00
   -3    5   27     -1.73      0.00
   -1    5   27     -1.89      0.00
    1    5   27     -1.80      0.00
  -10    6   27     -0.03      0.00
   -8    6   27     -0.03      0.00
   -6    6   27      0.93      0.00
   -4    6   27      1.59      0.00
   -2    6   27      0.84      0.00
    0    6   27      1.35      0.00
   -9    7   27      0.61      0.00
   -7    7   27     -1.36      0.00
   -5    7   27     -1.70      0.00
   -3    7   27     -1.74      0.00
   -1    7   27     -0.98      0.00
   -6    8   27      1.02      0.00
   -4    8   27      1.24      0.00
  -10    0   28      3.15      0.00
   -8    0   28      1.95      0.00
   -6    0   28      0.26      0.00
   -4    0   28      0.50      0.00
   -2    0   28      0.39      0.00
    0    0   28      0.35      0.00
  -11    1   28     -2.54      0.00
   -9    1   28     -1.75      0.00
   -7    1   28     -0.86      0.00
   -5    1   28     -0.20      0.00
   -3    1   28     -0.08      0.00
   -1    1   28     -0.13      0.00
  -10    2   28      1.98      0.00
   -8    2   28      2.36      0.00
   -6    2   28      2.61      0.00
   -4    2   28      1.58      0.00
   -2    2   28      0.78      0.00
    0    2   28     -0.52      0.00
   -9    3   28     -1.67      0.00
   -7    3   28     -2.24      0.00
   -5    3   28     -2.37      0.00
   -3    3   28     -1.28      0.00
   -1    3   28      0.78      0.00
   -8    4   28      1.83      0.00
   -6    4   28      3.00      0.00
   -4    4   28      2.55      0.00
   -2    4   28      0.50      0.00
   -5    5   28     -1.46      0.00
   28    0    0      4.95      0.00
   27    1    0     -5.08      0.00
    0    2    0    146.51      0.00
   29    3    0     -1.32      0.00
   25   13    0      0.38      0.00
   24   14    0     -0.03      0.00
   19   19    0      0.36      0.00
   10   22    0     -0.92      0.00
   14   22    0      0.00      0.00
   11   23    0      0.44      0.00
    8   24    0      1.44      0.00
    1   25    0      5.33      0.00
    3   25    0      0.19      0.00
  -27    1    1      2.01      0.00
   29    1    1      1.75      0.00
  -28    2    1     -1.71      0.00
  -28    8    1     -0.37      0.00
   27    9    1      0.52      0.00
  -26   12    1      0.39      0.00
  -25   13    1     -0.25      0.00
   24   14    1      2.90      0.00
   23   15    1     -1.74      0.00
   -2   18    1     45.38      0.00
   20   18    1      0.27      0.00
  -19   19    1     -0.14      0.00
   19   19    1      0.88      0.00
    1   21    1     -9.53      0.00
    3   21    1     -4.53      0.00
  -14   22    1      1.61      0.00
   14   22    1     -0.79      0.00
   11   23    1      3.67      0.00
   -8   24    1      4.85      0.00
    8   24    1      1.90      0.00
   -3   25    1      2.38      0.00
   -1   25    1      8.92      0.00
    1   25    1     10.89      0.00
  -28    0    2     -0.06      0.00
  -29    1    2      0.35      0.00
  -27    1    2     -1.31      0.00
   -1    1    2     29.26      0.00
  -28    2    2      3.13      0.00
  -27    3    2     -2.34      0.00
  -29    5    2     -2.24      0.00
   28    6    2      0.28      0.00
  -28    8    2      2.58      0.00
   27    9    2     -0.35      0.00
   26   10    2      0.57      0.00
  -26   12    2      1.37      0.00
   23   15    2      1.11      0.00
   22   16    2     -0.27      0.00
   21   17    2      0.58      0.00
   20   18    2     -0.48      0.00
  -19   19    2     -0.91      0.00
    3   19    2      3.11      0.00
  -18   20    2      0.21      0.00
   11   21    2      2.84      0.00
  -14   22    2     -0.32      0.00
   11   23    2     -0.24      0.00
   -8   24    2      2.53      0.00
    8   24    2     -0.67      0.00
   -1   25    2     -5.78      0.00
    1   25    2     -6.39      0.00
  -29    1    3     -1.79      0.00
  -27    1    3      0.01      0.00
  -28    2    3      1.94      0.00
  -27    3    3     -1.72      0.00
   28    4    3      1.43      0.00
  -29    5    3     -2.01      0.00
  -28    8    3     -0.34      0.00
   26   10    3     -0.13      0.00
  -26   12    3     -1.09      0.00
    0   18    3     -0.87      0.00
    5   19    3     -6.12      0.00
  -18   20    3     -2.11      0.00
    2   20    3      7.35      0.00
    4   20    3      5.43      0.00
    1   21    3     -9.64      0.00
   15   21    3     -2.75      0.00
  -14   22    3     -0.03      0.00
   -8   24    3     -1.57      0.00
   -1   25    3     -2.64      0.00
  -28    0    4     -3.48      0.00
  -29    1    4      0.61      0.00
  -27    1    4      2.93      0.00
  -28    2    4     -2.14      0.00
   28    2    4     -0.24      0.00
  -27    3    4      1.23      0.00
   28    4    4     -2.39      0.00
  -29    5    4     -0.25      0.00
   -3    5    4     22.34      0.00
   27    7    4      0.95      0.00
  -28    8    4     -1.55      0.00
  -26   12    4     -1.56      0.00
    5   19    4     -2.37      0.00
  -18   20    4     -2.03      0.00
    4   20    4      4.79      0.00
  -14   22    4      1.65      0.00
  -11   23    4     -2.52      0.00
   -8   24    4     -3.95      0.00
    6   24    4     -2.18      0.00
  -29    1    5     -0.90      0.00
   -3    1    5     -6.28      0.00
  -28    2    5      2.41      0.00
  -27    3    5     -1.90      0.00
  -29    5    5      1.55      0.00
  -28    8    5     -2.37      0.00
   26    8    5     -1.86      0.00
   25   11    5     -1.28      0.00
  -26   12    5      1.20      0.00
  -19   19    5     -1.09      0.00
  -18   20    5      0.83      0.00
   16   20    5     -3.20      0.00
  -14   22    5      1.33      0.00
    2   22    5      1.65      0.00
   12   22    5      3.07      0.00
  -11   23    5      0.43      0.00
    9   23    5     -2.17      0.00
   -8   24    5     -4.52      0.00
    6   24    5     -2.87      0.00
   26    0    6     -3.01      0.00
  -29    1    6      0.59      0.00
  -27    1    6      1.77      0.00
  -28    2    6     -3.20      0.00
  -27    3    6      3.37      0.00
   -3    3    6      8.53      0.00
  -29    5    6      1.10      0.00
   27    5    6      0.73      0.00
  -28    8    6      0.13      0.00
   26    8    6     -0.58      0.00
  -26   12    6      1.76      0.00
   24   12    6      0.74      0.00
   23   13    6     -0.84      0.00
    9   17    6     -2.00      0.00
  -19   19    6      0.34      0.00
   17   19    6     -1.28      0.00
    4   22    6     -5.36      0.00
  -11   23    6      5.68      0.00
   -9   23    6      5.38      0.00
    9   23    6      2.30      0.00
   -6   24    6      2.24      0.00
    4   24    6      3.11      0.00
  -29    1    7      1.40      0.00
  -27    1    7     -0.60      0.00
   27    1    7      0.41      0.00
  -29    3    7     -1.56      0.00
  -27    3    7     -1.68      0.00
   -3    3    7      3.12      0.00
   27    3    7     -0.39      0.00
  -29    5    7     -1.42      0.00
  -28    8    7      0.07      0.00
   25    9    7     -0.22      0.00
  -26   12    7      0.47      0.00
   22   14    7     -0.02      0.00
   13   15    7     -1.22      0.00
   21   15    7     -1.86      0.00
    8   16    7     12.51      0.00
   10   16    7     15.02      0.00
   20   16    7      2.44      0.00
    7   17    7     -7.32      0.00
    9   17    7    -10.87      0.00
   19   17    7     -0.09      0.00
    6   18    7      1.40      0.00
  -19   19    7      0.75      0.00
   13   21    7      4.45      0.00
  -12   22    7     -1.64      0.00
    3   23    7     -2.57      0.00
   -6   24    7      3.02      0.00
   -4   24    7     -0.32      0.00
    2   24    7      5.31      0.00
  -28    0    8      1.06      0.00
  -29    1    8      1.40      0.00
  -28    2    8      0.02      0.00
  -29    3    8      0.15      0.00
  -28    4    8      1.08      0.00
  -29    5    8      0.85      0.00
  -28    8    8      0.95      0.00
   24   10    8      1.06      0.00
  -25   13    8     -1.01      0.00
   10   16    8      2.35      0.00
   12   16    8      0.70      0.00
  -20   18    8      0.20      0.00
   14   20    8      0.89      0.00
  -15   21    8      0.50      0.00
   10   22    8      2.79      0.00
   -9   23    8     -2.62      0.00
    1   23    8     -6.33      0.00
    7   23    8     -3.56      0.00
   -4   24    8     -1.06      0.00
   -2   24    8      1.11      0.00
    0   24    8      3.51      0.00
  -29    1    9      0.49      0.00
   26    2    9      0.27      0.00
  -29    3    9     -0.92      0.00
  -27    3    9     -1.45      0.00
   25    7    9     -0.16      0.00
   23   11    9      1.05      0.00
  -25   13    9      1.33      0.00
  -24   14    9      0.38      0.00
  -23   15    9      0.39      0.00
   13   15    9      3.27      0.00
  -22   16    9      1.15      0.00
   12   16    9    -13.69      0.00
  -21   17    9     -1.78      0.00
  -20   18    9      2.89      0.00
   15   19    9      1.01      0.00
   11   21    9     -1.17      0.00
  -12   22    9     -0.77      0.00
   -9   23    9      0.77      0.00
    5   23    9     -0.61      0.00
  -29    1   10     -0.98      0.00
  -29    3   10     -0.64      0.00
   25    5   10      0.03      0.00
   24    8   10      0.49      0.00
  -27    9   10     -0.74      0.00
   21   13   10      1.02      0.00
  -24   14   10     -1.01      0.00
   20   14   10     -0.87      0.00
  -23   15   10      0.87      0.00
   19   15   10      0.66      0.00
  -22   16   10     -0.42      0.00
   18   16   10      0.78      0.00
   17   17   10     -0.05      0.00
   16   18   10     -0.33      0.00
  -16   20   10      0.21      0.00
    8   22   10     -1.49      0.00
   -7   23   10      0.80      0.00
   -1   23   10      2.31      0.00
    1   23   10      1.67      0.00
    3   23   10      2.61      0.00
  -29    1   11      1.67      0.00
   25    1   11      1.60      0.00
  -28    6   11     -1.17      0.00
   24    6   11     -0.18      0.00
  -27    9   11     -0.83      0.00
   23    9   11      2.30      0.00
    6   18   11     -3.25      0.00
  -13   21   11     -2.69      0.00
    9   21   11      1.40      0.00
  -10   22   11      2.21      0.00
    6   22   11     -1.75      0.00
   -5   23   11     -2.46      0.00
   -3   23   11     -2.23      0.00
   -1   23   11     -1.16      0.00
    1   23   11      1.22      0.00
   24    4   12     -0.05      0.00
  -28    6   12     -0.14      0.00
   23    7   12      2.75      0.00
  -26   10   12      0.90      0.00
   21   11   12      0.13      0.00
    9   15   12      4.11      0.00
   11   15   12      3.85      0.00
    7   17   12      6.21      0.00
    2   18   12     -4.71      0.00
    4   18   12     -2.55      0.00
   14   18   12     -2.10      0.00
  -17   19   12      0.48      0.00
   10   20   12      4.11      0.00
    4   22   12      4.13      0.00
  -28    4   13     -0.13      0.00
   23    5   13     -0.14      0.00
   22    8   13      1.45      0.00
  -25   11   13      1.45      0.00
   19   13   13      2.58      0.00
   18   14   13     -2.13      0.00
   17   15   13      0.68      0.00
    8   16   13     -9.21      0.00
   16   16   13     -0.92      0.00
  -18   18   13      0.24      0.00
   11   19   13      2.66      0.00
  -14   20   13      0.18      0.00
  -11   21   13      0.40      0.00
   -6   22   13      0.07      0.00
    0   22   13     -0.66      0.00
    2   22   13      0.89      0.00
   23    1   14     -0.64      0.00
  -28    2   14      0.15      0.00
   22    6   14      0.63      0.00
   20   10   14      0.31      0.00
  -24   12   14     -0.45      0.00
  -23   13   14      1.20      0.00
  -22   14   14     -0.91      0.00
  -21   15   14      0.87      0.00
  -20   16   14     -0.07      0.00
    1   17   14      4.07      0.00
   12   18   14      1.35      0.00
  -15   19   14      0.28      0.00
  -10   20   14     -2.26      0.00
    8   20   14     -1.39      0.00
   -9   21   14      2.42      0.00
    5   21   14      2.23      0.00
   -2   22   14     -0.31      0.00
   22    2   15      1.03      0.00
  -27    5   15      2.24      0.00
   21    7   15     -0.58      0.00
  -26    8   15     -1.90      0.00
   18   12   15     -0.78      0.00
   17   13   15      1.77      0.00
   16   14   15     -1.60      0.00
   15   15   15      2.29      0.00
    4   16   15      4.85      0.00
   14   16   15     -0.37      0.00
  -16   18   15     -0.45      0.00
    9   19   15      2.06      0.00
    6   20   15     -1.08      0.00
   -7   21   15     -1.18      0.00
    1   21   15     -3.90      0.00
  -27    3   16      0.14      0.00
   21    3   16      1.72      0.00
  -25    9   16      0.30      0.00
   19    9   16     -0.56      0.00
    5   15   16      4.67      0.00
  -17   17   16     -0.34      0.00
   11   17   16      1.72      0.00
  -13   19   16      1.47      0.00
    7   19   16      0.44      0.00
  -10   20   16     -0.99      0.00
    4   20   16      1.04      0.00
   20    4   17      0.76      0.00
   19    7   17     -0.34      0.00
  -23   11   17      1.19      0.00
  -22   12   17     -1.19      0.00
   16   12   17     -1.16      0.00
  -21   13   17      0.41      0.00
   15   13   17      1.49      0.00
  -20   14   17     -0.69      0.00
   14   14   17     -1.89      0.00
  -19   15   17      0.30      0.00
  -14   18   17     -2.34      0.00
    8   18   17      3.45      0.00
  -11   19   17      1.18      0.00
    5   19   17     -0.89      0.00
   -6   20   17     -0.08      0.00
   -4   20   17      0.38      0.00
   -2   20   17     -0.17      0.00
    0   20   17     -1.24      0.00
  -26    2   18     -0.79      0.00
   14    4   18      0.75      0.00
   16    4   18      0.46      0.00
  -24    8   18      1.11      0.00
   17    9   18     -0.60      0.00
    2   14   18      2.44      0.00
   11   15   18     -0.98      0.00
   10   16   18      0.15      0.00
  -12   18   18      1.23      0.00
  -10   18   18      2.11      0.00
    6   18   18     -5.10      0.00
   -9   19   18     -2.02      0.00
   -7   19   18     -0.90      0.00
    1   19   18     -0.41      0.00
   18    4   19      1.34      0.00
   17    7   19     -1.74      0.00
  -22   10   19     -0.06      0.00
  -18   14   19      0.18      0.00
  -17   15   19      0.77      0.00
    8   16   19      0.26      0.00
  -13   17   19      0.42      0.00
  -10   18   19      0.54      0.00
    2   18   19      2.28      0.00
   17    3   20     -0.43      0.00
   16    6   20     -1.24      0.00
  -23    7   20     -0.84      0.00
   14   10   20      1.53      0.00
   13   11   20     -1.75      0.00
   12   12   20      1.60      0.00
   11   13   20      0.33      0.00
  -15   15   20      2.13      0.00
    6   16   20      5.26      0.00
  -11   17   20      1.90      0.00
    3   17   20     -1.23      0.00
   -6   18   20     -0.68      0.00
   -4   18   20     -0.67      0.00
   -2   18   20     -0.91      0.00
   16    2   21      1.64      0.00
  -23    5   21     -1.96      0.00
   14    8   21      1.29      0.00
  -21    9   21     -0.47      0.00
   13    9   21     -0.44      0.00
  -20   10   21     -0.36      0.00
  -19   11   21      1.24      0.00
  -18   12   21     -0.93      0.00
  -17   13   21      0.22      0.00
    9   13   21      1.47      0.00
    8   14   21     -1.01      0.00
   -7   17   21     -0.38      0.00
   -5   17   21     -0.73      0.00
   -3   17   21     -0.98      0.00
   -1   17   21     -0.64      0.00
  -23    1   22     -1.11      0.00
   15    1   22     -0.45      0.00
   14    4   22      0.51      0.00
  -21    7   22     -0.93      0.00
   13    7   22      0.83      0.00
  -15   13   22     -0.29      0.00
    7   13   22     -0.86      0.00
  -11   15   22      0.96      0.00
    3   15   22      1.80      0.00
   -6   16   22      0.97      0.00
   -4   16   22      1.86      0.00
   -2   16   22      2.47      0.00
   -1    1   23     -2.24      0.00
   13    3   23     -1.61      0.00
  -21    5   23     -0.49      0.00
   12    6   23     -1.08      0.00
    6   12   23      2.40      0.00
  -13   13   23      0.77      0.00
    5   13   23     -2.21      0.00
  -10   14   23     -0.20      0.00
    2   14   23     -0.77      0.00
   -7   15   23     -0.40      0.00
   -5   15   23     -0.30      0.00
   -3   15   23     -0.73      0.00
   -1   15   23     -0.22      0.00
    0    0   24     -2.10      0.00
    2    0   24     -1.31      0.00
   12    0   24      0.53      0.00
  -20    4   24      0.29      0.00
   10    6   24     -0.94      0.00
  -17    9   24     -0.99      0.00
    5   11   24     -2.84      0.00
  -12   12   24      0.25      0.00
    4   12   24      1.24      0.00
   -9   13   24     -0.42      0.00
    1   13   24      0.62      0.00
   -4   14   24     -1.45      0.00
  -19    1   25     -0.17      0.00
   10    2   25     -0.03      0.00
    9    5   25      0.46      0.00
    8    6   25      0.35      0.00
    7    7   25     -0.01      0.00
  -16    8   25      0.42      0.00
  -15    9   25      0.32      0.00
    5    9   25      0.53      0.00
    4   10   25     -0.60      0.00
  -11   11   25     -0.51      0.00
   -8   12   25      0.42      0.00
   -2   12   25      2.02      0.00
    0   12   25      1.13      0.00
    8    0   26      6.43      0.00
  -17    1   26      0.79      0.00
  -17    3   26      0.71      0.00
    7    3   26     -2.59      0.00
    6    6   26      0.52      0.00
    5    7   26      1.40      0.00
    4    8   26     -1.00      0.00
  -11    9   26     -1.30      0.00
  -10   10   26      1.20      0.00
    0   10   26     -1.03      0.00
   -5   11   26     -0.93      0.00
  -15    1   27     -0.07      0.00
    5    1   27     -0.53      0.00
    5    3   27     -0.04      0.00
  -14    4   27      0.42      0.00
    4    4   27      1.31      0.00
  -13    5   27     -1.37      0.00
    3    5   27     -1.44      0.00
  -12    6   27     -0.50      0.00
    2    6   27      0.98      0.00
  -11    7   27      0.48      0.00
    1    7   27     -0.50      0.00
   -8    8   27      0.05      0.00
   -2    8   27      1.06      0.00
    0    8   27      0.38      0.00
   -5    9   27     -1.89      0.00
  -12    0   28      2.90      0.00
    2    0   28      0.00      0.00
    1    1   28      0.52      0.00
  -12    2   28      1.34      0.00
  -11    3   28     -0.05      0.00
    1    3   28      1.36      0.00
  -10    4   28      0.26      0.00
    0    4   28     -0.94      0.00
   -9    5   28      0.01      0.00
   -7    5   28     -1.73      0.00
   -3    5   28      0.10      0.00
   -1    5   28      1.08      0.00
   -6    6   28      1.57      0.00
   -4    6   28      1.32      0.00
    0    0    0      0.00      0.00
# SQUEEZE RESULTS (Version = 160617)
# Note: Data are Listed for all Voids in the P1 Unit Cell
# i.e. Centre of Gravity, Solvent Accessible Volume,
# Recovered number of Electrons in the Void and
# Details about the Squeezed Material
loop_
  _platon_squeeze_void_nr
  _platon_squeeze_void_average_x
  _platon_squeeze_void_average_y
  _platon_squeeze_void_average_z
  _platon_squeeze_void_volume
  _platon_squeeze_void_count_electrons
  _platon_squeeze_void_content
   1  0.500  0.000  0.014       661        43 ' '
   2  1.000  0.037  0.750        29        -3 ' '
   3  0.184  0.207  0.071        13        -1 ' '
   4  0.816  0.207  0.429        13        -1 ' '
   5  0.684  0.292  0.571        13        -1 ' '
   6  0.316  0.292  0.929        13        -1 ' '
   7  0.000  0.500  0.726       661        43 ' '
   8  0.500  0.463  0.250        29        -3 ' '
   9  0.500  0.537  0.750        29        -3 ' '
  10  0.684  0.707  0.071        13        -1 ' '
  11  0.316  0.707  0.429        13        -1 ' '
  12  0.184  0.792  0.571        13        -1 ' '
  13  0.816  0.792  0.929        13        -1 ' '
  14  1.000  0.963  0.250        29        -3 ' '
# Missing Reflections Below sin(th)/lambda = 0.25
loop_
  _platon_missing_refln_index_h
  _platon_missing_refln_index_k
  _platon_missing_refln_index_l
  _platon_missing_refln_theta
    0    2    0     3.681
   -1    1    2     3.824
   -3    5    4    11.841
   -3    1    5     8.870
   -3    3    6    11.541
   -3    3    7    12.874
_platon_squeeze_void_probe_radius                  1.20
_platon_squeeze_details
)
TITL KHL181115CC 2/c        R = 0.12
CELL   24.8150   20.8910   24.0430     90.00    100.17     90.00
SPGR C2/c
# Solvent Accessible Volume =      1526
# Electrons Found in S.A.V. =        86
# Note: Atoms in Void are Labelled as Cxxx and Qxxx for all Others
Q101 0.280 0.455 0.129 !       2.19 eA-3
C102 0.530 0.047 0.386 !       2.10 eA-3
Q103 0.687 0.454 0.368 !       2.02 eA-3
Q104 0.812 0.046 0.128 !       1.89 eA-3
C105 0.008 0.453 0.920 !       1.88 eA-3
C106 0.500 0.094 0.248 !       1.81 eA-3
C107 0.992 0.454 0.680 !       1.80 eA-3
Q108 0.220 0.049 0.351 !       1.79 eA-3
C109 0.970 0.500 0.600 !       1.72 eA-3
C110 0.523 0.016 0.914 !       1.70 eA-3
C111 0.490 0.014 0.034 !       1.36 eA-3
Q112 0.289 0.422 0.633 !       1.31 eA-3
Q113 0.658 0.500 0.393 !       1.30 eA-3
Q114 0.813 0.110 0.613 !       1.26 eA-3
Q115 0.235 0.015 0.003 !       1.25 eA-3
Q116 0.663 0.389 0.392 !       1.24 eA-3
C117 1.000 0.359 0.752 !       1.23 eA-3
Q118 0.336 0.470 0.553 !       1.19 eA-3
Q119 0.336 0.485 0.038 !       1.19 eA-3
Q120 0.421 0.482 0.610 !       1.11 eA-3
Q121 0.867 0.031 0.038 !       1.11 eA-3
Q122 0.601 0.017 0.169 !       1.09 eA-3
C123 0.032 0.456 0.762 !       1.08 eA-3
Q124 0.367 0.361 0.650 !       1.07 eA-3
Q125 0.500 0.109 0.753 !       1.05 eA-3
Q126 0.727 0.343 0.374 !       1.04 eA-3
Q127 0.797 0.202 0.661 !       1.04 eA-3
C128 0.961 0.407 0.777 !       1.03 eA-3
Q129 0.602 0.142 0.388 !       1.02 eA-3
Q130 0.383 0.015 0.404 !       1.00 eA-3
Q131 0.282 0.454 0.028 !       0.99 eA-3
Q132 0.751 0.497 0.337 !       0.98 eA-3
Q133 0.359 0.015 0.326 !       0.97 eA-3
Q134 0.726 0.298 0.408 !       0.96 eA-3
Q135 0.610 0.013 0.130 !       0.96 eA-3
Q136 0.297 0.409 0.184 !       0.95 eA-3
Q137 0.273 0.393 0.124 !       0.95 eA-3
Q138 0.430 0.095 0.290 !       0.95 eA-3
Q139 0.736 0.390 0.344 !       0.95 eA-3
Q140 0.681 0.406 0.337 !       0.94 eA-3
Q141 0.999 0.282 0.290 !       0.94 eA-3
C142 1.000 0.500 0.000 !       0.94 eA-3
Q143 0.469 0.062 0.764 !       0.94 eA-3
Q144 0.195 0.099 0.859 !       0.94 eA-3
Q145 0.728 0.360 0.324 !       0.94 eA-3
Q146 0.368 0.187 0.827 !       0.93 eA-3
Q147 0.788 0.486 0.268 !       0.93 eA-3
Q148 0.758 0.404 0.363 !       0.93 eA-3
Q149 0.321 0.466 0.766 !       0.91 eA-3
Q150 0.445 0.484 0.588 !       0.91 eA-3
Q151 0.327 0.017 0.272 !       0.91 eA-3
Q152 1.000 0.437 0.254 !       0.91 eA-3
Q153 0.280 0.343 0.193 !       0.90 eA-3
Q154 0.906 0.440 0.833 !       0.90 eA-3
Q155 0.523 0.483 0.858 !       0.90 eA-3
Q156 0.906 0.219 0.297 !       0.90 eA-3
Q157 0.812 0.047 0.249 !       0.89 eA-3
C158 0.008 0.346 0.673 !       0.89 eA-3
Q159 0.383 0.032 0.875 !       0.89 eA-3
Q160 0.758 0.128 0.137 !       0.89 eA-3
Q161 0.079 0.125 0.187 !       0.89 eA-3
Q162 0.061 0.265 0.052 !       0.89 eA-3
Q163 0.414 0.470 0.093 !       0.88 eA-3
Q164 0.164 0.187 0.380 !       0.88 eA-3
Q165 0.617 0.488 0.396 !       0.88 eA-3
Q166 0.220 0.016 0.667 !       0.88 eA-3
Q167 0.820 0.094 0.072 !       0.88 eA-3
Q168 0.344 0.348 0.359 !       0.87 eA-3
Q169 0.828 0.095 0.156 !       0.87 eA-3
Q170 0.696 0.316 0.842 !       0.86 eA-3
Q171 0.562 0.330 0.063 !       0.86 eA-3
Q172 0.493 0.420 0.085 !       0.86 eA-3
Q173 0.860 0.218 0.313 !       0.86 eA-3
Q174 0.205 0.354 0.133 !       0.86 eA-3
Q175 0.212 0.342 0.155 !       0.85 eA-3
Q176 0.272 0.106 0.838 !       0.85 eA-3
C177 0.492 0.014 0.787 !       0.85 eA-3
Q178 0.735 0.408 0.310 !       0.85 eA-3
C179 0.508 0.094 0.406 !       0.84 eA-3
Q180 0.884 0.029 0.117 !       0.84 eA-3
Q181 0.164 0.047 0.207 !       0.84 eA-3
Q182 0.344 0.423 0.043 !       0.84 eA-3
Q183 0.578 0.094 0.352 !       0.83 eA-3
Q184 0.125 0.469 0.089 !       0.83 eA-3
Q185 0.304 0.501 0.502 !       0.82 eA-3
Q186 0.765 0.095 0.113 !       0.81 eA-3
Q187 0.180 0.236 0.361 !       0.81 eA-3
Q188 0.765 0.343 0.353 !       0.81 eA-3
Q189 0.304 0.344 0.174 !       0.81 eA-3
Q190 0.320 0.095 0.467 !       0.80 eA-3
Q191 0.765 0.359 0.370 !       0.80 eA-3
Q192 0.553 0.282 0.556 !       0.79 eA-3
Q193 0.053 0.782 0.556 !       0.79 eA-3
Q194 0.313 0.232 0.144 !       0.79 eA-3
Q195 0.874 0.186 0.869 !       0.78 eA-3
Q196 0.522 0.310 0.039 !       0.77 eA-3
Q197 0.984 0.219 0.526 !       0.77 eA-3
Q198 0.649 0.127 0.071 !       0.77 eA-3
Q199 0.412 0.483 0.544 !       0.77 eA-3
)
;
_shelx_fab_checksum              43286
loop_
_space_group_symop_operation_xyz
'x, y, z'
'-x, y, -z+1/2'
'x+1/2, y+1/2, z'
'-x+1/2, y+1/2, -z+1/2'
'-x, -y, -z'
'x, -y, z-1/2'
'-x+1/2, -y+1/2, -z'
'x+1/2, -y+1/2, z-1/2'
loop_
_atom_site_label
_atom_site_type_symbol
_atom_site_fract_x
_atom_site_fract_y
_atom_site_fract_z
_atom_site_U_iso_or_equiv
_atom_site_adp_type
_atom_site_occupancy
_atom_site_site_symmetry_order
_atom_site_calc_flag
_atom_site_refinement_flags_posn
_atom_site_refinement_flags_adp
Ru1 Ru 0.29441(2) 0.50188(2) 0.63275(2) 0.0475(3) Uani 1 1 d . .
F1 F 0.36410(17) 0.2551(2) 0.5932(2) 0.0726(12) Uani 1 1 d . .
F2 F 0.4359(2) 0.1701(2) 0.5650(2) 0.0842(14) Uani 1 1 d . .
F3 F 0.5377(2) 0.2076(3) 0.5531(2) 0.0885(15) Uani 1 1 d . .
F4 F 0.56917(17) 0.3308(3) 0.5750(2) 0.0836(14) Uani 1 1 d . .
F5 F 0.49801(16) 0.4173(2) 0.60311(16) 0.0627(10) Uani 1 1 d . .
F6 F 0.3301(2) 0.4303(2) 0.85319(18) 0.0805(13) Uani 1 1 d . .
F7 F 0.3715(3) 0.4366(3) 0.96437(19) 0.0966(17) Uani 1 1 d . .
F8 F 0.4469(2) 0.5277(4) 1.00329(18) 0.0946(17) Uani 1 1 d . .
F9 F 0.4795(3) 0.6125(4) 0.9313(2) 0.116(2) Uani 1 1 d . .
F10 F 0.4377(2) 0.6058(3) 0.8191(2) 0.0995(18) Uani 1 1 d . .
F11 F 0.08787(18) 0.5647(3) 0.6633(2) 0.0815(13) Uani 1 1 d . .
F12 F 0.0089(2) 0.6431(4) 0.6882(2) 0.1046(19) Uani 1 1 d . .
F13 F 0.0292(2) 0.7688(3) 0.7082(2) 0.109(2) Uani 1 1 d . .
F14 F 0.1300(3) 0.8178(3) 0.7038(3) 0.119(2) Uani 1 1 d . .
F15 F 0.2093(2) 0.7402(3) 0.6792(3) 0.0929(16) Uani 1 1 d . .
F16 F 0.1722(2) 0.3917(3) 0.43398(19) 0.0814(13) Uani 1 1 d . .
F17 F 0.1279(2) 0.3955(4) 0.3232(2) 0.109(2) Uani 1 1 d . .
F18 F 0.1409(3) 0.5017(3) 0.2609(2) 0.113(3) Uani 1 1 d . .
F19 F 0.1980(3) 0.6026(3) 0.31019(19) 0.1002(18) Uani 1 1 d . .
F20 F 0.2431(2) 0.5995(2) 0.42038(18) 0.0742(12) Uani 1 1 d . .
N1 N 0.3066(2) 0.4490(3) 0.5642(2) 0.0494(12) Uani 1 1 d . .
N2 N 0.3609(2) 0.4592(3) 0.6810(2) 0.0481(12) Uani 1 1 d . .
N3 N 0.2807(2) 0.5538(3) 0.7009(2) 0.0535(13) Uani 1 1 d . .
N4 N 0.2277(2) 0.5443(3) 0.5844(2) 0.0533(13) Uani 1 1 d . .
N5 N 0.2491(2) 0.4347(3) 0.6593(2) 0.0555(13) Uani 1 1 d . .
N6 N 0.2418(3) 0.4120(4) 0.7054(3) 0.082(2) Uani 1 1 d . .
N7 N 0.3458(2) 0.5673(3) 0.6115(2) 0.0537(13) Uani 1 1 d . .
N8 N 0.3912(3) 0.5685(3) 0.5960(3) 0.0691(17) Uani 1 1 d . .
C1 C 0.2778(3) 0.4533(3) 0.5100(3) 0.0493(14) Uani 1 1 d . .
C2 C 0.3008(3) 0.4104(4) 0.4740(3) 0.0567(16) Uani 1 1 d . .
H2 H 0.2886 0.4042 0.4346 0.068 Uiso 1 1 calc R U
C3 C 0.3434(3) 0.3806(4) 0.5069(3) 0.0561(16) Uani 1 1 d . .
H3 H 0.3665 0.3492 0.4949 0.067 Uiso 1 1 calc R U
C4 C 0.3472(3) 0.4049(3) 0.5628(3) 0.0496(15) Uani 1 1 d . .
C5 C 0.3875(3) 0.3872(4) 0.6095(3) 0.0512(15) Uani 1 1 d . .
C6 C 0.3934(2) 0.4133(3) 0.6631(3) 0.0497(15) Uani 1 1 d . .
C7 C 0.4361(3) 0.3961(4) 0.7106(3) 0.0546(16) Uani 1 1 d . .
H7 H 0.4643 0.3653 0.7104 0.066 Uiso 1 1 calc R U
C8 C 0.4280(3) 0.4320(4) 0.7547(3) 0.0545(16) Uani 1 1 d . .
H8 H 0.4501 0.4314 0.7913 0.065 Uiso 1 1 calc R U
C9 C 0.3804(3) 0.4717(4) 0.7373(2) 0.0492(14) Uani 1 1 d . .
C10 C 0.3577(3) 0.5139(4) 0.7711(3) 0.0510(15) Uani 1 1 d . .
C11 C 0.3111(3) 0.5505(3) 0.7552(3) 0.0525(15) Uani 1 1 d . .
C12 C 0.2857(3) 0.5909(4) 0.7918(3) 0.0623(18) Uani 1 1 d . .
H12 H 0.2988 0.5985 0.8308 0.075 Uiso 1 1 calc R U
C13 C 0.2403(3) 0.6158(4) 0.7609(3) 0.0590(17) Uani 1 1 d . .
H13 H 0.2150 0.6436 0.7740 0.071 Uiso 1 1 calc R U
C14 C 0.2371(3) 0.5925(3) 0.7037(3) 0.0519(15) Uani 1 1 d . .
C15 C 0.1956(3) 0.6072(4) 0.6582(3) 0.0582(17) Uani 1 1 d . .
C16 C 0.1913(3) 0.5855(4) 0.6032(3) 0.0591(17) Uani 1 1 d . .
C17 C 0.1493(3) 0.6034(4) 0.5557(3) 0.068(2) Uani 1 1 d . .
H17 H 0.1193 0.6313 0.5568 0.081 Uiso 1 1 calc R U
C18 C 0.1609(3) 0.5729(4) 0.5097(3) 0.0635(19) Uani 1 1 d . .
H18 H 0.1406 0.5760 0.4724 0.076 Uiso 1 1 calc R U
C19 C 0.2094(3) 0.5351(4) 0.5271(3) 0.0571(17) Uani 1 1 d . .
C20 C 0.2335(3) 0.4948(3) 0.4933(3) 0.0522(17) Uani 1 1 d . .
C21 C 0.4278(2) 0.3399(4) 0.5977(2) 0.0512(15) Uani 1 1 d . .
C22 C 0.4140(3) 0.2754(4) 0.5879(3) 0.0583(18) Uani 1 1 d . .
C23 C 0.4499(3) 0.2307(4) 0.5732(3) 0.0651(19) Uani 1 1 d . .
C24 C 0.5026(3) 0.2511(4) 0.5679(3) 0.0644(19) Uani 1 1 d . .
C25 C 0.5178(3) 0.3129(4) 0.5792(3) 0.0621(18) Uani 1 1 d . .
C26 C 0.4818(3) 0.3561(4) 0.5932(3) 0.0558(17) Uani 1 1 d . .
C27 C 0.3833(3) 0.5170(4) 0.8329(3) 0.0541(16) Uani 1 1 d . .
C28 C 0.3681(3) 0.4753(4) 0.8710(3) 0.0611(17) Uani 1 1 d . .
C29 C 0.3884(3) 0.4782(5) 0.9279(3) 0.070(2) Uani 1 1 d . .
C30 C 0.4265(3) 0.5233(5) 0.9480(3) 0.071(2) Uani 1 1 d . .
C31 C 0.4436(3) 0.5664(5) 0.9113(3) 0.079(2) Uani 1 1 d . .
C32 C 0.4210(3) 0.5631(4) 0.8542(3) 0.067(2) Uani 1 1 d . .
C33 C 0.1513(3) 0.6497(4) 0.6714(3) 0.0625(19) Uani 1 1 d . .
C34 C 0.0993(3) 0.6278(5) 0.6738(3) 0.070(2) Uani 1 1 d . .
C35 C 0.0585(3) 0.6685(6) 0.6868(3) 0.082(3) Uani 1 1 d . .
C36 C 0.0703(4) 0.7314(5) 0.6970(4) 0.080(2) Uani 1 1 d . .
C37 C 0.1204(4) 0.7545(5) 0.6946(4) 0.084(3) Uani 1 1 d . .
C38 C 0.1599(4) 0.7145(5) 0.6817(3) 0.073(2) Uani 1 1 d . .
C39 C 0.2093(3) 0.4950(4) 0.4306(3) 0.0569(19) Uani 1 1 d . .
C40 C 0.1792(3) 0.4442(4) 0.4048(3) 0.0636(19) Uani 1 1 d . .
C41 C 0.1560(3) 0.4456(6) 0.3472(3) 0.079(3) Uani 1 1 d . .
C42 C 0.1627(4) 0.4996(6) 0.3158(4) 0.086(3) Uani 1 1 d . .
C43 C 0.1919(4) 0.5501(5) 0.3410(3) 0.077(3) Uani 1 1 d . .
C44 C 0.2146(3) 0.5485(4) 0.3977(3) 0.067(2) Uani 1 1 d . .
C45 C 0.2142(3) 0.3777(4) 0.6536(3) 0.0608(18) Uani 1 1 d . .
C46 C 0.1532(3) 0.3831(5) 0.6364(4) 0.076(2) Uani 1 1 d . .
H46 H 0.1406 0.4269 0.6449 0.091 Uiso 1 1 calc R U
C47 C 0.2366(4) 0.3144(5) 0.6401(4) 0.085(2) Uani 1 1 d . .
H47 H 0.2773 0.3141 0.6518 0.102 Uiso 1 1 calc R U
C48 C 0.1271(5) 0.3325(6) 0.6692(5) 0.110(4) Uani 1 1 d . .
H48A H 0.1373 0.3406 0.7103 0.132 Uiso 1 1 calc R U
H48B H 0.0867 0.3346 0.6587 0.132 Uiso 1 1 calc R U
C49 C 0.1392(4) 0.3693(6) 0.5720(4) 0.096(3) Uani 1 1 d . .
H49A H 0.0990 0.3713 0.5593 0.115 Uiso 1 1 calc R U
H49B H 0.1562 0.4023 0.5511 0.115 Uiso 1 1 calc R U
C50 C 0.2111(7) 0.2623(6) 0.6724(5) 0.122(5) Uani 1 1 d . .
H50A H 0.2219 0.2690 0.7136 0.146 Uiso 1 1 calc R U
H50B H 0.2241 0.2196 0.6629 0.146 Uiso 1 1 calc R U
C51 C 0.2213(5) 0.3022(5) 0.5768(4) 0.097(3) Uani 1 1 d . .
H51A H 0.2380 0.3353 0.5559 0.116 Uiso 1 1 calc R U
H51B H 0.2355 0.2599 0.5676 0.116 Uiso 1 1 calc R U
C52 C 0.1474(6) 0.2666(6) 0.6549(4) 0.108(4) Uani 1 1 d . U
H52 H 0.1301 0.2332 0.6759 0.130 Uiso 1 1 calc R U
C53 C 0.1601(5) 0.3036(6) 0.5593(4) 0.098(3) Uani 1 1 d . .
H53 H 0.1502 0.2948 0.5179 0.118 Uiso 1 1 calc R U
C54 C 0.1327(5) 0.2535(7) 0.5922(4) 0.115(4) Uani 1 1 d . .
H54A H 0.0925 0.2553 0.5802 0.138 Uiso 1 1 calc R U
H54B H 0.1453 0.2101 0.5839 0.138 Uiso 1 1 calc R U
C55 C 0.3670(3) 0.6316(4) 0.6086(3) 0.0643(19) Uani 1 1 d . .
C56 C 0.3443(4) 0.6763(4) 0.5608(3) 0.077(2) Uani 1 1 d . .
H56 H 0.3285 0.6510 0.5264 0.093 Uiso 1 1 calc R U
C57 C 0.3910(4) 0.6664(5) 0.6617(3) 0.075(2) Uani 1 1 d . .
H57 H 0.4056 0.6350 0.6921 0.091 Uiso 1 1 calc R U
C58 C 0.3912(5) 0.7172(5) 0.5488(4) 0.096(3) Uani 1 1 d . .
H58A H 0.4202 0.6896 0.5381 0.115 Uiso 1 1 calc R U
H58B H 0.3781 0.7464 0.5168 0.115 Uiso 1 1 calc R U
C59 C 0.2996(4) 0.7173(5) 0.5797(5) 0.095(3) Uani 1 1 d . .
H59A H 0.2697 0.6896 0.5882 0.114 Uiso 1 1 calc R U
H59B H 0.2841 0.7473 0.5492 0.114 Uiso 1 1 calc R U
C60 C 0.4381(4) 0.7084(5) 0.6476(5) 0.094(3) Uani 1 1 d . .
H60A H 0.4556 0.7321 0.6817 0.112 Uiso 1 1 calc R U
H60B H 0.4661 0.6811 0.6349 0.112 Uiso 1 1 calc R U
C61 C 0.3479(4) 0.7087(5) 0.6809(4) 0.085(3) Uani 1 1 d . .
H61A H 0.3643 0.7332 0.7150 0.102 Uiso 1 1 calc R U
H61B H 0.3178 0.6821 0.6905 0.102 Uiso 1 1 calc R U
C62 C 0.4145(5) 0.7559(5) 0.6006(5) 0.094(3) Uani 1 1 d . .
H62 H 0.4447 0.7836 0.5919 0.113 Uiso 1 1 calc R U
C63 C 0.3255(4) 0.7548(5) 0.6328(5) 0.089(3) Uani 1 1 d . .
H63 H 0.2968 0.7824 0.6451 0.107 Uiso 1 1 calc R U
C64 C 0.3713(4) 0.7976(5) 0.6192(5) 0.097(3) Uani 1 1 d . .
H64A H 0.3565 0.8280 0.5887 0.116 Uiso 1 1 calc R U
H64B H 0.3875 0.8226 0.6530 0.116 Uiso 1 1 calc R U
loop_
_atom_site_aniso_label
_atom_site_aniso_U_11
_atom_site_aniso_U_22
_atom_site_aniso_U_33
_atom_site_aniso_U_23
_atom_site_aniso_U_13
_atom_site_aniso_U_12
Ru1 0.0397(4) 0.0591(4) 0.0429(4) -0.00113(19) 0.0049(2) 0.0053(2)
F1 0.052(2) 0.071(3) 0.094(3) -0.010(2) 0.010(2) -0.003(2)
F2 0.072(3) 0.071(3) 0.104(3) -0.018(2) 0.002(2) 0.015(2)
F3 0.069(3) 0.112(4) 0.087(3) -0.013(3) 0.020(2) 0.042(3)
F4 0.047(2) 0.120(4) 0.088(3) 0.001(3) 0.024(2) 0.011(2)
F5 0.047(2) 0.079(3) 0.060(2) 0.0017(19) 0.0048(16) -0.0061(19)
F6 0.091(3) 0.087(3) 0.065(2) 0.001(2) 0.016(2) -0.025(3)
F7 0.115(4) 0.119(4) 0.058(3) 0.012(3) 0.022(3) 0.006(3)
F8 0.075(3) 0.157(5) 0.045(2) -0.020(3) -0.008(2) 0.025(3)
F9 0.094(4) 0.161(6) 0.089(4) -0.040(4) 0.002(3) -0.050(4)
F10 0.106(4) 0.113(4) 0.076(3) -0.004(3) 0.006(3) -0.054(3)
F11 0.055(3) 0.110(4) 0.079(3) 0.002(3) 0.012(2) 0.001(3)
F12 0.058(3) 0.168(6) 0.089(3) -0.003(3) 0.017(2) 0.016(3)
F13 0.098(4) 0.143(5) 0.091(3) -0.008(3) 0.030(3) 0.067(4)
F14 0.131(5) 0.092(5) 0.145(5) -0.009(4) 0.056(4) 0.037(4)
F15 0.085(4) 0.083(4) 0.118(4) -0.010(3) 0.039(3) 0.007(3)
F16 0.077(3) 0.099(4) 0.065(3) -0.003(2) 0.004(2) -0.018(3)
F17 0.078(3) 0.161(6) 0.080(3) -0.046(3) -0.008(3) -0.015(4)
F18 0.107(5) 0.179(7) 0.045(3) -0.010(3) -0.010(3) 0.045(4)
F19 0.132(5) 0.114(4) 0.057(3) 0.014(3) 0.022(3) 0.044(4)
F20 0.079(3) 0.082(3) 0.063(2) 0.003(2) 0.016(2) 0.004(2)
N1 0.038(3) 0.060(3) 0.049(3) 0.003(2) 0.006(2) 0.008(2)
N2 0.039(3) 0.057(3) 0.046(3) 0.001(2) 0.003(2) 0.005(2)
N3 0.043(3) 0.064(4) 0.053(3) -0.001(2) 0.007(2) 0.004(3)
N4 0.046(3) 0.068(4) 0.045(3) 0.003(2) 0.004(2) 0.011(3)
N5 0.050(3) 0.067(4) 0.049(3) -0.003(2) 0.008(2) -0.005(3)
N6 0.082(5) 0.110(6) 0.055(4) -0.003(4) 0.012(3) -0.033(4)
N7 0.052(3) 0.054(3) 0.057(3) 0.000(2) 0.016(2) 0.002(3)
N8 0.062(4) 0.078(5) 0.070(4) -0.006(3) 0.020(3) 0.003(3)
C1 0.042(3) 0.055(4) 0.049(3) 0.000(3) 0.004(2) 0.005(3)
C2 0.053(4) 0.069(5) 0.048(3) -0.006(3) 0.009(3) 0.002(3)
C3 0.051(4) 0.067(5) 0.050(3) -0.008(3) 0.009(3) 0.004(3)
C4 0.038(3) 0.054(4) 0.053(3) -0.002(3) 0.001(3) 0.006(3)
C5 0.044(3) 0.060(4) 0.049(3) 0.003(3) 0.006(3) 0.002(3)
C6 0.036(3) 0.061(4) 0.052(3) -0.001(3) 0.009(2) -0.003(3)
C7 0.041(3) 0.070(5) 0.052(3) 0.000(3) 0.006(3) 0.003(3)
C8 0.042(3) 0.067(4) 0.053(4) -0.002(3) 0.004(3) 0.004(3)
C9 0.040(3) 0.061(4) 0.045(3) 0.004(3) 0.003(2) 0.003(3)
C10 0.042(4) 0.065(4) 0.046(3) -0.001(3) 0.008(3) -0.001(3)
C11 0.046(4) 0.059(4) 0.053(3) 0.000(3) 0.007(3) 0.003(3)
C12 0.058(4) 0.083(5) 0.047(3) -0.001(3) 0.012(3) 0.004(4)
C13 0.056(4) 0.069(5) 0.053(4) -0.005(3) 0.013(3) 0.007(3)
C14 0.052(4) 0.049(4) 0.057(4) 0.001(3) 0.015(3) 0.007(3)
C15 0.051(4) 0.072(5) 0.053(4) -0.004(3) 0.010(3) 0.006(3)
C16 0.045(4) 0.076(5) 0.056(4) 0.001(3) 0.008(3) 0.011(3)
C17 0.056(4) 0.084(6) 0.061(4) 0.002(4) 0.006(3) 0.025(4)
C18 0.053(4) 0.085(6) 0.052(4) 0.001(3) 0.006(3) 0.019(4)
C19 0.049(4) 0.075(5) 0.047(3) 0.001(3) 0.007(3) 0.007(3)
C20 0.041(4) 0.065(5) 0.049(4) 0.003(3) 0.002(3) 0.000(3)
C21 0.035(3) 0.068(4) 0.049(3) -0.003(3) 0.000(2) 0.004(3)
C22 0.042(4) 0.074(5) 0.057(4) -0.005(3) 0.004(3) 0.006(3)
C23 0.061(5) 0.061(5) 0.068(4) -0.010(3) -0.002(3) 0.006(4)
C24 0.053(4) 0.080(6) 0.059(4) -0.001(4) 0.006(3) 0.022(4)
C25 0.043(4) 0.083(6) 0.061(4) 0.001(4) 0.013(3) 0.003(4)
C26 0.042(4) 0.082(5) 0.044(3) 0.000(3) 0.006(2) 0.005(3)
C27 0.040(4) 0.068(4) 0.053(4) -0.008(3) 0.005(3) 0.004(3)
C28 0.063(4) 0.070(5) 0.049(4) 0.000(3) 0.008(3) 0.007(4)
C29 0.058(5) 0.098(6) 0.055(4) 0.010(4) 0.012(3) 0.016(4)
C30 0.055(5) 0.108(6) 0.047(4) -0.012(4) 0.003(3) 0.014(5)
C31 0.052(4) 0.114(7) 0.065(5) -0.027(5) -0.006(3) -0.006(5)
C32 0.058(4) 0.085(6) 0.060(4) -0.006(4) 0.013(3) -0.011(4)
C33 0.060(5) 0.077(5) 0.050(4) 0.005(3) 0.011(3) 0.020(4)
C34 0.061(5) 0.093(7) 0.056(4) 0.003(4) 0.012(3) 0.011(4)
C35 0.048(5) 0.141(10) 0.057(4) 0.011(5) 0.011(3) 0.004(5)
C36 0.085(6) 0.088(7) 0.070(5) -0.001(4) 0.024(4) 0.032(5)
C37 0.091(7) 0.084(7) 0.079(5) 0.002(4) 0.021(5) 0.027(5)
C38 0.072(5) 0.085(6) 0.064(4) 0.001(4) 0.015(4) 0.028(5)
C39 0.039(4) 0.081(5) 0.048(4) -0.003(3) -0.001(3) 0.017(3)
C40 0.052(4) 0.081(5) 0.054(4) -0.005(4) -0.001(3) 0.010(4)
C41 0.048(4) 0.123(8) 0.064(5) -0.018(5) 0.002(3) 0.015(5)
C42 0.075(6) 0.137(10) 0.042(4) -0.005(5) 0.000(4) 0.037(6)
C43 0.078(5) 0.104(7) 0.051(4) 0.014(4) 0.013(4) 0.037(5)
C44 0.057(4) 0.086(6) 0.058(4) 0.015(4) 0.013(3) 0.023(4)
C45 0.056(4) 0.068(5) 0.057(4) -0.004(3) 0.008(3) -0.001(3)
C46 0.046(4) 0.087(6) 0.093(6) -0.013(4) 0.008(4) -0.008(4)
C47 0.077(6) 0.078(6) 0.092(6) 0.010(5) -0.005(5) 0.001(5)
C48 0.114(9) 0.126(10) 0.099(7) -0.032(6) 0.045(7) -0.057(8)
C49 0.074(6) 0.120(9) 0.085(6) 0.011(6) -0.010(5) -0.004(6)
C50 0.169(14) 0.091(8) 0.098(8) 0.015(6) 0.004(8) -0.038(8)
C51 0.106(8) 0.093(7) 0.098(7) -0.025(5) 0.037(6) -0.021(6)
C52 0.140(10) 0.112(9) 0.074(6) -0.008(5) 0.023(6) -0.066(8)
C53 0.109(8) 0.122(9) 0.062(5) -0.022(5) 0.011(5) -0.038(7)
C54 0.125(9) 0.140(10) 0.084(6) -0.028(6) 0.025(6) -0.065(8)
C55 0.067(5) 0.073(5) 0.057(4) 0.001(3) 0.021(3) 0.008(4)
C56 0.096(6) 0.071(6) 0.065(5) 0.008(4) 0.016(4) 0.002(5)
C57 0.078(5) 0.080(6) 0.068(5) -0.008(4) 0.012(4) 0.001(4)
C58 0.117(8) 0.086(7) 0.093(7) 0.019(5) 0.046(6) -0.008(6)
C59 0.091(7) 0.086(7) 0.106(7) 0.020(5) 0.015(6) 0.023(5)
C60 0.078(6) 0.087(7) 0.125(8) -0.014(6) 0.042(6) -0.014(5)
C61 0.084(6) 0.094(7) 0.085(6) -0.023(5) 0.034(5) -0.016(5)
C62 0.097(7) 0.066(6) 0.135(9) 0.003(6) 0.063(7) -0.002(5)
C63 0.084(6) 0.066(6) 0.124(8) -0.005(5) 0.035(6) 0.005(5)
C64 0.101(7) 0.069(6) 0.132(9) 0.003(5) 0.056(7) -0.006(5)
loop_
_atom_type_symbol
_atom_type_description
_atom_type_scat_dispersion_real
_atom_type_scat_dispersion_imag
_atom_type_scat_source
C C 0.0137 0.0067 'International Tables Vol C Tables 4.2.6.8 and 6.1.1.4'
H H 0.0000 0.0000 'International Tables Vol C Tables 4.2.6.8 and 6.1.1.4'
F F 0.0583 0.0400 'International Tables Vol C Tables 4.2.6.8 and 6.1.1.4'
N N 0.0241 0.0134 'International Tables Vol C Tables 4.2.6.8 and 6.1.1.4'
Ru Ru -0.0760 2.5955 'International Tables Vol C Tables 4.2.6.8 and 6.1.1.4'
loop_
_geom_angle_atom_site_label_1
_geom_angle_atom_site_label_2
_geom_angle_atom_site_label_3
_geom_angle
N5 Ru1 N7 174.7(2)
N5 Ru1 N3 86.2(2)
N7 Ru1 N3 92.6(2)
N5 Ru1 N2 87.4(2)
N7 Ru1 N2 87.5(2)
N3 Ru1 N2 90.5(2)
N5 Ru1 N4 92.4(2)
N7 Ru1 N4 92.7(2)
N3 Ru1 N4 89.6(2)
N2 Ru1 N4 179.8(2)
N5 Ru1 N1 92.9(2)
N7 Ru1 N1 88.4(2)
N3 Ru1 N1 178.9(2)
N2 Ru1 N1 90.1(2)
N4 Ru1 N1 89.8(2)
C4 N1 C1 106.5(5)
C4 N1 Ru1 126.5(4)
C1 N1 Ru1 126.9(4)
C6 N2 C9 108.5(5)
C6 N2 Ru1 126.0(4)
C9 N2 Ru1 125.5(4)
C14 N3 C11 106.6(5)
C14 N3 Ru1 126.9(4)
C11 N3 Ru1 126.1(4)
C16 N4 C19 107.0(5)
C16 N4 Ru1 126.5(4)
C19 N4 Ru1 126.5(4)
N6 N5 C45 66.3(5)
N6 N5 Ru1 137.6(5)
C45 N5 Ru1 155.4(4)
N5 N6 C45 63.8(5)
N8 N7 C55 67.1(5)
N8 N7 Ru1 137.8(5)
C55 N7 Ru1 154.3(4)
N7 N8 C55 62.8(5)
N1 C1 C20 124.3(6)
N1 C1 C2 109.6(5)
C20 C1 C2 126.1(6)
C3 C2 C1 106.6(6)
C3 C2 H2 126.7
C1 C2 H2 126.7
C2 C3 C4 107.7(6)
C2 C3 H3 126.2
C4 C3 H3 126.2
N1 C4 C5 125.3(6)
N1 C4 C3 109.6(6)
C5 C4 C3 125.2(6)
C6 C5 C4 125.5(6)
C6 C5 C21 118.7(6)
C4 C5 C21 115.7(6)
N2 C6 C5 126.6(6)
N2 C6 C7 108.3(5)
C5 C6 C7 125.1(6)
C8 C7 C6 106.9(6)
C8 C7 H7 126.6
C6 C7 H7 126.6
C7 C8 C9 108.8(6)
C7 C8 H8 125.6
C9 C8 H8 125.6
N2 C9 C10 126.1(6)
N2 C9 C8 107.5(5)
C10 C9 C8 126.4(6)
C9 C10 C11 126.6(6)
C9 C10 C27 117.5(6)
C11 C10 C27 115.7(6)
C10 C11 N3 125.1(6)
C10 C11 C12 126.1(6)
N3 C11 C12 108.8(6)
C13 C12 C11 107.7(6)
C13 C12 H12 126.1
C11 C12 H12 126.1
C12 C13 C14 107.2(6)
C12 C13 H13 126.4
C14 C13 H13 126.4
N3 C14 C15 125.0(6)
N3 C14 C13 109.6(6)
C15 C14 C13 125.4(6)
C16 C15 C14 126.6(7)
C16 C15 C33 117.7(7)
C14 C15 C33 115.7(6)
N4 C16 C15 125.0(7)
N4 C16 C17 108.9(6)
C15 C16 C17 126.1(7)
C18 C17 C16 107.1(6)
C18 C17 H17 126.4
C16 C17 H17 126.4
C17 C18 C19 108.0(6)
C17 C18 H18 126.0
C19 C18 H18 126.0
C20 C19 N4 124.8(6)
C20 C19 C18 126.3(6)
N4 C19 C18 108.9(6)
C19 C20 C1 127.5(7)
C19 C20 C39 116.4(6)
C1 C20 C39 116.1(6)
C22 C21 C26 115.2(6)
C22 C21 C5 121.8(6)
C26 C21 C5 123.0(7)
F1 C22 C23 117.5(7)
F1 C22 C21 119.4(6)
C23 C22 C21 123.1(7)
F2 C23 C22 121.6(7)
F2 C23 C24 120.2(7)
C22 C23 C24 118.2(7)
F3 C24 C25 121.6(7)
F3 C24 C23 118.4(8)
C25 C24 C23 120.0(7)
F4 C25 C26 120.6(8)
F4 C25 C24 118.7(7)
C26 C25 C24 120.8(7)
F5 C26 C25 119.1(6)
F5 C26 C21 118.2(6)
C25 C26 C21 122.7(7)
C28 C27 C32 116.6(7)
C28 C27 C10 120.9(7)
C32 C27 C10 122.5(7)
F6 C28 C27 119.6(6)
F6 C28 C29 117.5(7)
C27 C28 C29 122.9(8)
F7 C29 C30 119.3(7)
F7 C29 C28 121.1(9)
C30 C29 C28 119.7(8)
F8 C30 C29 121.2(9)
F8 C30 C31 119.0(8)
C29 C30 C31 119.8(7)
F9 C31 C30 120.0(8)
F9 C31 C32 120.9(9)
C30 C31 C32 119.0(8)
F10 C32 C27 119.7(7)
F10 C32 C31 118.3(7)
C27 C32 C31 122.0(8)
C34 C33 C38 115.7(7)
C34 C33 C15 122.7(8)
C38 C33 C15 121.6(7)
F11 C34 C33 118.7(7)
F11 C34 C35 119.6(8)
C33 C34 C35 121.7(9)
F12 C35 C36 123.0(9)
F12 C35 C34 117.9(10)
C36 C35 C34 119.1(8)
C37 C36 F13 122.5(10)
C37 C36 C35 120.8(8)
F13 C36 C35 116.7(10)
C36 C37 F14 118.8(8)
C36 C37 C38 119.7(10)
F14 C37 C38 121.5(10)
F15 C38 C37 117.4(9)
F15 C38 C33 119.6(7)
C37 C38 C33 123.0(9)
C40 C39 C44 117.5(7)
C40 C39 C20 122.0(7)
C44 C39 C20 120.4(7)
F16 C40 C39 120.6(6)
F16 C40 C41 117.9(8)
C39 C40 C41 121.5(8)
F17 C41 C42 120.6(8)
F17 C41 C40 120.2(10)
C42 C41 C40 119.1(9)
F18 C42 C43 120.4(10)
F18 C42 C41 119.8(10)
C43 C42 C41 119.7(8)
F19 C43 C42 119.3(8)
F19 C43 C44 119.7(10)
C42 C43 C44 121.0(9)
F20 C44 C43 118.5(8)
F20 C44 C39 120.3(7)
C43 C44 C39 121.1(9)
N5 C45 N6 49.9(4)
N5 C45 C47 120.4(7)
N6 C45 C47 118.2(7)
N5 C45 C46 121.1(7)
N6 C45 C46 119.0(7)
C47 C45 C46 113.6(7)
C45 C46 C48 107.8(9)
C45 C46 C49 107.4(7)
C48 C46 C49 110.2(8)
C45 C46 H46 110.4
C48 C46 H46 110.4
C49 C46 H46 110.4
C45 C47 C51 109.2(8)
C45 C47 C50 108.5(9)
C51 C47 C50 109.5(9)
C45 C47 H47 109.9
C51 C47 H47 109.9
C50 C47 H47 109.9
C52 C48 C46 108.7(8)
C52 C48 H48A 110.0
C46 C48 H48A 110.0
C52 C48 H48B 110.0
C46 C48 H48B 110.0
H48A C48 H48B 108.3
C53 C49 C46 110.0(8)
C53 C49 H49A 109.7
C46 C49 H49A 109.7
C53 C49 H49B 109.7
C46 C49 H49B 109.7
H49A C49 H49B 108.2
C47 C50 C52 108.1(10)
C47 C50 H50A 110.1
C52 C50 H50A 110.1
C47 C50 H50B 110.1
C52 C50 H50B 110.1
H50A C50 H50B 108.4
C53 C51 C47 109.7(8)
C53 C51 H51A 109.7
C47 C51 H51A 109.7
C53 C51 H51B 109.7
C47 C51 H51B 109.7
H51A C51 H51B 108.2
C54 C52 C48 110.9(11)
C54 C52 C50 108.1(10)
C48 C52 C50 110.4(9)
C54 C52 H52 109.1
C48 C52 H52 109.1
C50 C52 H52 109.1
C51 C53 C49 109.0(8)
C51 C53 C54 111.0(10)
C49 C53 C54 108.4(9)
C51 C53 H53 109.5
C49 C53 H53 109.5
C54 C53 H53 109.5
C52 C54 C53 109.8(8)
C52 C54 H54A 109.7
C53 C54 H54A 109.7
C52 C54 H54B 109.7
C53 C54 H54B 109.7
H54A C54 H54B 108.2
N7 C55 C57 120.1(6)
N7 C55 N8 50.1(4)
C57 C55 N8 119.0(7)
N7 C55 C56 121.3(7)
C57 C55 C56 112.8(8)
N8 C55 C56 119.8(6)
C55 C56 C58 107.4(8)
C55 C56 C59 108.2(7)
C58 C56 C59 111.2(8)
C55 C56 H56 110.0
C58 C56 H56 110.0
C59 C56 H56 110.0
C55 C57 C61 110.3(7)
C55 C57 C60 106.9(7)
C61 C57 C60 109.5(8)
C55 C57 H57 110.0
C61 C57 H57 110.0
C60 C57 H57 110.0
C62 C58 C56 109.8(7)
C62 C58 H58A 109.7
C56 C58 H58A 109.7
C62 C58 H58B 109.7
C56 C58 H58B 109.7
H58A C58 H58B 108.2
C56 C59 C63 108.2(8)
C56 C59 H59A 110.0
C63 C59 H59A 110.0
C56 C59 H59B 110.0
C63 C59 H59B 110.0
H59A C59 H59B 108.4
C62 C60 C57 108.8(9)
C62 C60 H60A 109.9
C57 C60 H60A 109.9
C62 C60 H60B 109.9
C57 C60 H60B 109.9
H60A C60 H60B 108.3
C57 C61 C63 108.5(7)
C57 C61 H61A 110.0
C63 C61 H61A 110.0
C57 C61 H61B 110.0
C63 C61 H61B 110.0
H61A C61 H61B 108.4
C64 C62 C58 111.4(10)
C64 C62 C60 110.7(8)
C58 C62 C60 107.6(9)
C64 C62 H62 109.0
C58 C62 H62 109.0
C60 C62 H62 109.0
C64 C63 C61 110.2(9)
C64 C63 C59 109.7(9)
C61 C63 C59 110.4(8)
C64 C63 H63 108.8
C61 C63 H63 108.8
C59 C63 H63 108.8
C62 C64 C63 108.6(8)
C62 C64 H64A 110.0
C63 C64 H64A 110.0
C62 C64 H64B 110.0
C63 C64 H64B 110.0
H64A C64 H64B 108.3
loop_
_geom_bond_atom_site_label_1
_geom_bond_atom_site_label_2
_geom_bond_distance
Ru1 N5 1.973(6)
Ru1 N7 1.996(6)
Ru1 N3 2.042(5)
Ru1 N2 2.047(5)
Ru1 N4 2.049(5)
Ru1 N1 2.051(5)
F1 C22 1.336(8)
F2 C23 1.318(9)
F3 C24 1.347(8)
F4 C25 1.349(8)
F5 C26 1.350(9)
F6 C28 1.346(9)
F7 C29 1.353(10)
F8 C30 1.339(8)
F9 C31 1.342(10)
F10 C32 1.344(9)
F11 C34 1.363(11)
F12 C35 1.347(10)
F13 C36 1.350(9)
F14 C37 1.353(12)
F15 C38 1.350(11)
F16 C40 1.329(10)
F17 C41 1.330(12)
F18 C42 1.336(10)
F19 C43 1.347(11)
F20 C44 1.339(10)
N1 C4 1.369(8)
N1 C1 1.374(8)
N2 C6 1.370(8)
N2 C9 1.380(8)
N3 C14 1.364(9)
N3 C11 1.388(8)
N4 C16 1.380(9)
N4 C19 1.385(8)
N5 N6 1.247(8)
N5 C45 1.463(10)
N6 C45 1.492(10)
N7 N8 1.249(8)
N7 C55 1.448(10)
N8 C55 1.501(10)
C1 C20 1.400(9)
C1 C2 1.433(9)
C2 C3 1.356(10)
C2 H2 0.9500
C3 C4 1.424(9)
C3 H3 0.9500
C4 C5 1.413(9)
C5 C6 1.383(9)
C5 C21 1.469(9)
C6 C7 1.459(9)
C7 C8 1.342(10)
C7 H7 0.9500
C8 C9 1.445(9)
C8 H8 0.9500
C9 C10 1.383(10)
C10 C11 1.385(10)
C10 C27 1.511(9)
C11 C12 1.440(10)
C12 C13 1.340(11)
C12 H12 0.9500
C13 C14 1.447(10)
C13 H13 0.9500
C14 C15 1.397(10)
C15 C16 1.385(10)
C15 C33 1.489(10)
C16 C17 1.453(10)
C17 C18 1.351(10)
C17 H17 0.9500
C18 C19 1.438(10)
C18 H18 0.9500
C19 C20 1.380(10)
C20 C39 1.521(10)
C21 C22 1.400(11)
C21 C26 1.406(9)
C22 C23 1.378(10)
C23 C24 1.403(11)
C24 C25 1.359(12)
C25 C26 1.353(10)
C27 C28 1.365(11)
C27 C32 1.377(11)
C28 C29 1.374(11)
C29 C30 1.360(14)
C30 C31 1.378(14)
C31 C32 1.390(11)
C33 C34 1.379(12)
C33 C38 1.385(13)
C34 C35 1.400(13)
C35 C36 1.360(14)
C36 C37 1.343(15)
C37 C38 1.367(12)
C39 C40 1.380(11)
C39 C44 1.390(11)
C40 C41 1.405(11)
C41 C42 1.384(15)
C42 C43 1.359(15)
C43 C44 1.381(12)
C45 C47 1.493(12)
C45 C46 1.502(11)
C46 C48 1.529(14)
C46 C49 1.553(13)
C46 H46 1.0000
C47 C51 1.524(14)
C47 C50 1.535(14)
C47 H47 1.0000
C48 C52 1.527(18)
C48 H48A 0.9900
C48 H48B 0.9900
C49 C53 1.518(16)
C49 H49A 0.9900
C49 H49B 0.9900
C50 C52 1.56(2)
C50 H50A 0.9900
C50 H50B 0.9900
C51 C53 1.503(16)
C51 H51A 0.9900
C51 H51B 0.9900
C52 C54 1.512(14)
C52 H52 1.0000
C53 C54 1.539(14)
C53 H53 1.0000
C54 H54A 0.9900
C54 H54B 0.9900
C55 C57 1.498(11)
C55 C56 1.512(11)
C56 C58 1.514(13)
C56 C59 1.532(13)
C56 H56 1.0000
C57 C61 1.521(13)
C57 C60 1.546(13)
C57 H57 1.0000
C58 C62 1.512(16)
C58 H58A 0.9900
C58 H58B 0.9900
C59 C63 1.540(16)
C59 H59A 0.9900
C59 H59B 0.9900
C60 C62 1.539(16)
C60 H60A 0.9900
C60 H60B 0.9900
C61 C63 1.531(15)
C61 H61A 0.9900
C61 H61B 0.9900
C62 C64 1.508(13)
C62 H62 1.0000
C63 C64 1.527(13)
C63 H63 1.0000
C64 H64A 0.9900
C64 H64B 0.9900
