#------------------------------------------------------------------------------
#$Date: 2020-04-05 13:26:44 +0300 (Sun, 05 Apr 2020) $
#$Revision: 250219 $
#$URL: file:///home/coder/svn-repositories/cod/cif/1/55/68/1556871.cif $
#------------------------------------------------------------------------------
#
# This file is available in the Crystallography Open Database (COD),
# http://www.crystallography.net/
#
# All data on this site have been placed in the public domain by the
# contributors.
#
data_1556871
loop_
_publ_author_name
'Wang, Hai-Xu'
'Wan, Qingyun'
'Low, Kam-Hung'
'Zhou, Cong-Ying'
'Huang, Jie-Sheng'
'Zhang, Jun-Long'
'Che, Chi-Ming'
_publ_section_title
;
 Stable group 8 metal porphyrin mono- and bis(dialkylcarbene) complexes:
 synthesis, characterization, and catalytic activity.
;
_journal_issue                   8
_journal_name_full               'Chemical science'
_journal_page_first              2243
_journal_page_last               2259
_journal_paper_doi               10.1039/c9sc05432d
_journal_volume                  11
_journal_year                    2020
_chemical_formula_moiety         'C59 H27 F20 Fe N5'
_chemical_formula_sum            'C59 H27 F20 Fe N5'
_chemical_formula_weight         1241.70
_space_group_crystal_system      triclinic
_space_group_IT_number           1
_space_group_name_Hall           'P 1'
_space_group_name_H-M_alt        'P 1'
_atom_sites_solution_hydrogens   geom
_audit_creation_method           SHELXL-2014/7
_audit_update_record
;
2019-10-26 deposited with the CCDC.	2019-12-30 downloaded from the CCDC.
;
_cell_angle_alpha                76.710(5)
_cell_angle_beta                 80.147(4)
_cell_angle_gamma                84.826(4)
_cell_formula_units_Z            2
_cell_length_a                   10.5317(15)
_cell_length_b                   14.347(2)
_cell_length_c                   17.434(3)
_cell_measurement_reflns_used    1213
_cell_measurement_temperature    173(2)
_cell_measurement_theta_max      53.16
_cell_measurement_theta_min      3.07
_cell_volume                     2522.3(7)
_computing_cell_refinement       'SAINT v8.34A (Bruker-AXS, 2007)'
_computing_data_collection       'APEX3 v2015.5-2 (Bruker-AXS, 2015)'
_computing_data_reduction        'SAINT v8.34A (Bruker-AXS, 2007)'
_computing_molecular_graphics    'Bruker SHELXTL'
_computing_publication_material  'Bruker SHELXTL'
_computing_structure_refinement  'SHELXL-2016/6 (Sheldrick, 2016)'
_computing_structure_solution    'SHELXT 2014/5 (Sheldrick, 2014)'
_diffrn_ambient_temperature      173(2)
_diffrn_detector_area_resol_mean 10.24
_diffrn_measured_fraction_theta_full 0.988
_diffrn_measured_fraction_theta_max 0.988
_diffrn_measurement_device_type
;
'Bruker D8 VENTURE KAPPA goniometer PHOTON II CPAD'
;
_diffrn_measurement_method       '\f and \w scans'
_diffrn_radiation_type           GaK\a
_diffrn_radiation_wavelength     1.34138
_diffrn_reflns_av_R_equivalents  0.0855
_diffrn_reflns_av_unetI/netI     0.0822
_diffrn_reflns_Laue_measured_fraction_full 0.988
_diffrn_reflns_Laue_measured_fraction_max 0.988
_diffrn_reflns_limit_h_max       12
_diffrn_reflns_limit_h_min       -12
_diffrn_reflns_limit_k_max       17
_diffrn_reflns_limit_k_min       -17
_diffrn_reflns_limit_l_max       20
_diffrn_reflns_limit_l_min       -20
_diffrn_reflns_number            56653
_diffrn_reflns_point_group_measured_fraction_full 0.988
_diffrn_reflns_point_group_measured_fraction_max 0.988
_diffrn_reflns_theta_full        53.254
_diffrn_reflns_theta_max         53.254
_diffrn_reflns_theta_min         2.293
_diffrn_source                   'Excillum MetalJet D2'
_exptl_absorpt_coefficient_mu    2.358
_exptl_absorpt_correction_T_max  0.7504
_exptl_absorpt_correction_T_min  0.3981
_exptl_absorpt_correction_type   multi-scan
_exptl_absorpt_process_details
;
SADABS-2014/5 - Bruker AXS area detector scaling and absorption correction
;
_exptl_crystal_colour            red
_exptl_crystal_density_diffrn    1.635
_exptl_crystal_description       plate
_exptl_crystal_F_000             1244
_exptl_crystal_size_max          0.224
_exptl_crystal_size_mid          0.187
_exptl_crystal_size_min          0.113
_refine_diff_density_max         0.617
_refine_diff_density_min         -0.582
_refine_diff_density_rms         0.081
_refine_ls_abs_structure_details
;
 Refined as an inversion twin.
;
_refine_ls_abs_structure_Flack   0.450(12)
_refine_ls_extinction_method     none
_refine_ls_goodness_of_fit_ref   1.082
_refine_ls_hydrogen_treatment    constr
_refine_ls_matrix_type           full
_refine_ls_number_parameters     1350
_refine_ls_number_reflns         17368
_refine_ls_number_restraints     2893
_refine_ls_restrained_S_all      1.016
_refine_ls_R_factor_all          0.1307
_refine_ls_R_factor_gt           0.0898
_refine_ls_shift/su_max          0.004
_refine_ls_shift/su_mean         0.000
_refine_ls_structure_factor_coef Fsqd
_refine_ls_weighting_details
'w=1/[\s^2^(Fo^2^)+(0.1507P)^2^+1.4068P] where P=(Fo^2^+2Fc^2^)/3'
_refine_ls_weighting_scheme      calc
_refine_ls_wR_factor_gt          0.2437
_refine_ls_wR_factor_ref         0.2779
_reflns_Friedel_coverage         1.000
_reflns_Friedel_fraction_full    0.988
_reflns_Friedel_fraction_max     0.988
_reflns_number_gt                11105
_reflns_number_total             17368
_reflns_threshold_expression     'I > 2\s(I)'
_cod_data_source_file            c9sc05432d2.cif
_cod_data_source_block           ga_CHEM0587
_cod_depositor_comments
;Adding full bibliography for 1556869--1556873.cif.

 Adding full bibliography for 1556869--1556873.cif.
;
_cod_original_cell_volume        2522.4(6)
_cod_database_code               1556871
_shelx_shelxl_version_number     2014/7
_shelx_space_group_comment
;
The symmetry employed for this shelxl refinement is uniquely defined
by the following loop, which should always be used as a source of
symmetry information in preference to the above space-group names.
They are only intended as comments.
;
_shelx_estimated_absorpt_t_min   0.620
_shelx_estimated_absorpt_t_max   0.776
_shelx_res_file
;

    ga_CHEM0587.res created by SHELXL-2014/7


TITL KHL180711A_0m_b.res in P1
REM Old TITL KHL180711A_0m in P1
REM SHELXT solution in P1
REM R1 0.189,  Rweak 0.058,  Alpha 0.000,  Orientation as input
REM Flack x =  0.475 ( 0.003 ) from Parsons' quotients
REM Formula found by SHELXT:  C107 F36 Fe2 N18
CELL  1.34138  10.5317  14.3472  17.4344   76.710   80.147   84.826
ZERR    2.000   0.0015   0.0021   0.0025    0.005    0.004    0.004
LATT -1
SFAC C H F FE N
UNIT 118 54 40 2 10
TEMP -100.160
SIZE 0.113 0.187 0.224
ACTA
L.S. 4
TWIN
BOND $H
LIST 6
FMAP 2
PLAN 4
REM FE
SADI 0.002 FE1_1 C50_1 FE1_1 C50B_1 FE1_2 C50_2 FE1_2 C50B_2
SADI 0.002 FE1_1 N1_1 FE1_1 N2_1 FE1_1 N3_1 FE1_1 N4_1 =
 FE1_2 N1_2 FE1_2 N2_2 FE1_2 N3_2 FE1_2 N4_2
SADI 0.001 FE1_1 N5_1 FE1_2 N5_2

REM AD
SADI_A 0.002 C50 C51 C50 C52 C51 C53 C51 C54 C52 C55 C52 C56 C57 C53 C57 C55 =
 C58 C54 C58 C56 C59 C57 C59 C58 =
 C50B C51B C50B C52B C51B C53B C51B C54B C52B C55B C52B C56B C57B C53B =
 C57B C55B C58B C54B C58B C56B C59B C57B C59B C58B
SIMU_A 0.03 C50 > C59
EADP_A C50 C50B
EADP_A C51 C51B
EADP_A C52 C52B
EADP_A C53 C53B
EADP_A C54 C54B
EADP_A C55 C55B
EADP_A C56 C56B
EADP_A C57 C57B
EADP_A C58 C58B
EADP_A C59 C59B

REM POR RING
SADI_A 0.002 C1 C2 C3 C4 C6 C7 C8 C9 C11 C12 C13 C14 C16 C17 C18 C19
SADI_A 0.002 C2 C3 C7 C8 C12 C13 C17 C18
SADI_A 0.002 C4 C5 C5 C6 C9 C10 C10 C11 C14 C15 C15 C16 C19 C20 C20 C1
SADI_A 0.002 C5 C21 C10 C27 C15 C33 C20 C39
SADI_A 0.002 N1 C1 N1 C4 N2 C6 N2 C9 N3 C11 N3 C14 N4 C16 N4 C19
EADP N1_1 N1_2
EADP N2_1 N2_2
EADP N3_1 N3_2
EADP N4_1 N4_2

SADI 0.01 N5_1 C49_1 C49_1 C48_1 C48_1 C47_1

CHIV_A 0.01 C5 C15
SADI_A 0.002 C15 C33 C15 C33B C5 C21 C5 C21B

REM PY RING
SADI 0.002 C45_1 C46_1 C49_1 C48_1 C45_2 C46_2 C49_2 C48_2
SADI 0.002 C46_1 C47_1 C47_1 C48_1 C46_2 C47_2 C47_2 C48_2
SADI 0.002 N5_1 C45_1 N5_1 C49_1 N5_2 C45_2 N5_2 C49_2
EADP N5_1 N5_2
EADP C45_1 C45_2
EADP C46_1 C46_2
EADP C47_1 C47_2
EADP C48_1 C48_2
EADP C49_1 C49_2

REM PhF5 CF
SADI_A 0.01 C22 F1 C23 F2 C24 F3 C25 F4 C26 F5 =
 C28 F6 C29 F7 C30 F8 C31 F9 C32 F10 =
 C34 F11 C35 F12 C36 F13 C37 F14 C38 F15 =
 C40 F16 C41 F17 C42 F18 C43 F19 C44 F20

WGHT    0.150700    1.406800
BASF   0.45013
FVAR       0.51617   0.56212   0.66617   0.31283   0.45793
RESI 1 A
FE1   4    0.298224    0.277481    0.758092    11.00000    0.05379    0.05874 =
         0.06613   -0.00896   -0.00953   -0.00982
F1    3    0.609766    0.530565    0.789825    11.00000    0.10222    0.07895 =
         0.12478   -0.00376   -0.04913   -0.02988
F2    3    0.723920    0.698567    0.762468    11.00000    0.11038    0.09263 =
         0.10245   -0.02434   -0.02794   -0.03901
F3    3    0.646661    0.851318    0.655127    11.00000    0.09605    0.07607 =
         0.08278   -0.01918   -0.00735   -0.02529
F4    3    0.457244    0.836280    0.572863    11.00000    0.13128    0.09431 =
         0.09959    0.01206   -0.04040   -0.03341
F5    3    0.344288    0.668222    0.597208    11.00000    0.09980    0.09630 =
         0.09739   -0.00610   -0.03946   -0.02254
F6    3    0.736309    0.081569    0.659978    11.00000    0.09763    0.14148 =
         0.07954   -0.00174   -0.01680    0.03047
F7    3    0.934950    0.028938    0.556315    11.00000    0.08803    0.18039 =
         0.12249   -0.04787   -0.02428    0.05143
F8    3    0.941945    0.098337    0.398474    11.00000    0.08006    0.15738 =
         0.10263   -0.03327    0.00958    0.00252
F9    3    0.745125    0.215180    0.343471    11.00000    0.11701    0.14814 =
         0.06604   -0.00977   -0.01195   -0.03123
F10   3    0.545495    0.267067    0.446598    11.00000    0.10041    0.08337 =
         0.08426   -0.01160   -0.01849   -0.00146
F11   3    0.242284   -0.107391    0.910721    11.00000    0.08492    0.09155 =
         0.09434    0.00006   -0.03247   -0.01346
F12   3    0.124019   -0.274502    0.943675    11.00000    0.12945    0.08217 =
         0.09577   -0.00315   -0.02316   -0.01624
F13   3   -0.069744   -0.292992    0.865791    11.00000    0.11914    0.08900 =
         0.09176   -0.01391   -0.00954   -0.03492
F14   3   -0.140960   -0.146527    0.750831    11.00000    0.11723    0.11578 =
         0.13309   -0.00156   -0.05254   -0.04269
F15   3   -0.025407    0.021777    0.717060    11.00000    0.11701    0.10487 =
         0.10110    0.00017   -0.04522   -0.02350
F16   3    0.049661    0.271825    1.068100    11.00000    0.09706    0.08968 =
         0.08168   -0.00044   -0.03322   -0.01229
F17   3   -0.154865    0.309676    1.175643    11.00000    0.11206    0.13882 =
         0.07703   -0.00957    0.00882   -0.03426
F18   3   -0.352489    0.427947    1.127634    11.00000    0.08611    0.16554 =
         0.10002   -0.05073    0.02491   -0.02787
F19   3   -0.347292    0.511563    0.970976    11.00000    0.06001    0.11254 =
         0.13507   -0.03380   -0.00515    0.01034
F20   3   -0.150242    0.471238    0.863406    11.00000    0.08669    0.09430 =
         0.07820   -0.00737   -0.01945    0.01366
N1    5    0.246940    0.397603    0.797468    11.00000    0.04750    0.07239 =
         0.07028   -0.01467   -0.00195   -0.00939
N2    5    0.436485    0.343649    0.676005    11.00000    0.06948    0.06159 =
         0.06565   -0.00725   -0.01732   -0.01260
N3    5    0.341700    0.158635    0.715676    11.00000    0.06145    0.07390 =
         0.06552    0.00013   -0.02097   -0.01086
N4    5    0.150058    0.214121    0.833126    11.00000    0.05338    0.06951 =
         0.06956   -0.00655   -0.01180   -0.00559
N5    5    0.163206    0.321648    0.671442    11.00000    0.07043    0.07578 =
         0.09025   -0.02109   -0.00802   -0.01455
C1    1    0.152229    0.410816    0.859569    11.00000    0.04719    0.07150 =
         0.07490   -0.00761   -0.01149   -0.00726
C2    1    0.155224    0.505492    0.873092    11.00000    0.05362    0.06317 =
         0.09465   -0.02242   -0.00813   -0.00778
AFIX  43
H2    2    0.098093    0.532664    0.911512    11.00000   -1.20000
AFIX   0
C3    1    0.252673    0.548353    0.821979    11.00000    0.05048    0.07069 =
         0.06526   -0.01191   -0.00524    0.00152
AFIX  43
H3    2    0.280525    0.610487    0.818773    11.00000   -1.20000
AFIX   0
C4    1    0.307595    0.482869    0.772684    11.00000    0.05704    0.05838 =
         0.07127   -0.00928   -0.02670   -0.00730
C5    1    0.412088    0.500122    0.711969    11.00000    0.05265    0.07685 =
         0.06173   -0.01337   -0.00891   -0.01725
C6    1    0.471411    0.436249    0.666382    11.00000    0.05174    0.06030 =
         0.07153   -0.02510   -0.00909   -0.01751
C7    1    0.580332    0.454509    0.604116    11.00000    0.05666    0.08903 =
         0.07884   -0.02168   -0.00010   -0.03063
AFIX  43
H7    2    0.621430    0.513548    0.585169    11.00000   -1.20000
AFIX   0
C8    1    0.613940    0.374514    0.577436    11.00000    0.05939    0.07977 =
         0.09927   -0.02955    0.01279   -0.03083
AFIX  43
H8    2    0.682925    0.365575    0.536453    11.00000   -1.20000
AFIX   0
C9    1    0.525229    0.304532    0.622907    11.00000    0.05899    0.06619 =
         0.06334   -0.01940   -0.01570    0.00231
C10   1    0.528135    0.210938    0.613523    11.00000    0.07286    0.06721 =
         0.06992   -0.01468   -0.00563   -0.01323
C11   1    0.443130    0.143083    0.657986    11.00000    0.06008    0.05280 =
         0.06308   -0.02116   -0.01072   -0.00123
C12   1    0.438689    0.048270    0.645042    11.00000    0.08487    0.07738 =
         0.05204   -0.01457   -0.00348   -0.00374
AFIX  43
H12   2    0.497376    0.020458    0.607691    11.00000   -1.20000
AFIX   0
C13   1    0.338921    0.005596    0.693900    11.00000    0.08458    0.05159 =
         0.09129   -0.02642   -0.01340   -0.01529
AFIX  43
H13   2    0.313127   -0.057416    0.698265    11.00000   -1.20000
AFIX   0
C14   1    0.278497    0.074416    0.738548    11.00000    0.05837    0.05907 =
         0.06791   -0.01339   -0.01372   -0.01074
C15   1    0.169724    0.057865    0.796054    11.00000    0.04481    0.07339 =
         0.07193   -0.02266   -0.00117   -0.01667
C16   1    0.109522    0.123860    0.839263    11.00000    0.05041    0.06490 =
         0.07427   -0.00676   -0.01737   -0.01351
C17   1   -0.005908    0.105784    0.896328    11.00000    0.05963    0.06295 =
         0.09061   -0.01475   -0.01583   -0.01796
AFIX  43
H17   2   -0.054233    0.049953    0.909393    11.00000   -1.20000
AFIX   0
C18   1   -0.031345    0.183407    0.927210    11.00000    0.05866    0.07466 =
         0.08107   -0.01557    0.00551   -0.01710
AFIX  43
H18   2   -0.099421    0.191536    0.968946    11.00000   -1.20000
AFIX   0
C19   1    0.061571    0.252681    0.886716    11.00000    0.04372    0.06466 =
         0.07347    0.00217   -0.01404   -0.01109
C20   1    0.063195    0.344042    0.900323    11.00000    0.04967    0.06234 =
         0.06676   -0.00064   -0.01213   -0.00620
AFIX  66
C21   1    0.473466    0.596510    0.694679    11.00000    0.06602    0.06050 =
         0.06839   -0.01803   -0.01136   -0.01215
C22   1    0.571848    0.604019    0.736515    11.00000    0.06972    0.07068 =
         0.08809   -0.01863   -0.01336   -0.01274
C23   1    0.632195    0.689962    0.722183    11.00000    0.08871    0.06052 =
         0.07155   -0.02231   -0.01986   -0.01902
C24   1    0.594160    0.768397    0.666014    11.00000    0.08579    0.07430 =
         0.05978   -0.01344   -0.00002   -0.01623
C25   1    0.495778    0.760890    0.624177    11.00000    0.07562    0.07651 =
         0.10234   -0.01753   -0.01137   -0.01841
C26   1    0.435430    0.674948    0.638509    11.00000    0.07926    0.09037 =
         0.07516   -0.01192   -0.00464   -0.01281
AFIX  66
C27   1    0.638796    0.178438    0.555240    11.00000    0.07425    0.06507 =
         0.07631   -0.02771   -0.00095   -0.01354
C28   1    0.738913    0.117989    0.584040    11.00000    0.07471    0.12531 =
         0.06525    0.00638   -0.01765    0.01591
C29   1    0.842015    0.090555    0.531125    11.00000    0.07206    0.12703 =
         0.08599   -0.03332   -0.00582    0.01238
C30   1    0.845002    0.123570    0.449410    11.00000    0.05546    0.09774 =
         0.09126   -0.02358   -0.00952    0.00018
C31   1    0.744886    0.184019    0.420609    11.00000    0.08726    0.08670 =
         0.07340   -0.02166    0.00653   -0.03498
C32   1    0.641783    0.211454    0.473523    11.00000    0.06054    0.06885 =
         0.07050   -0.00434   -0.01069   -0.00916
AFIX  66
C33   1    0.109528   -0.038952    0.813832    11.00000    0.05804    0.08726 =
         0.07348   -0.01231   -0.00067   -0.00599
C34   1    0.147096   -0.114680    0.872461    11.00000    0.06632    0.08209 =
         0.06086   -0.01485   -0.00911   -0.01370
C35   1    0.086759   -0.200987    0.889948    11.00000    0.09071    0.06335 =
         0.06506   -0.00930    0.00470   -0.00813
C36   1   -0.011146   -0.211566    0.848806    11.00000    0.06956    0.07482 =
         0.07867   -0.02564   -0.00391   -0.02725
C37   1   -0.048715   -0.135838    0.790178    11.00000    0.08550    0.09910 =
         0.07087    0.00025   -0.01477   -0.00960
C38   1    0.011621   -0.049531    0.772690    11.00000    0.07504    0.08237 =
         0.08476   -0.01907   -0.02101   -0.01549
AFIX  66
C39   1   -0.044060    0.372091    0.962773    11.00000    0.06918    0.06967 =
         0.06167   -0.00299   -0.00994   -0.01320
C40   1   -0.046303    0.328978    1.042976    11.00000    0.07475    0.07289 =
         0.07065   -0.02104   -0.01932   -0.00051
C41   1   -0.151079    0.347117    1.098881    11.00000    0.07843    0.10175 =
         0.07691   -0.01723   -0.00813   -0.03167
C42   1   -0.253613    0.408369    1.074582    11.00000    0.06206    0.09424 =
         0.10864   -0.04718    0.01985   -0.02007
C43   1   -0.251371    0.451483    0.994379    11.00000    0.04822    0.08630 =
         0.08930   -0.01985   -0.01642   -0.00898
C44   1   -0.146596    0.433345    0.938474    11.00000    0.06607    0.06052 =
         0.08028   -0.02287   -0.00676   -0.00738
AFIX   0
C45   1    0.042101    0.358000    0.691021    11.00000    0.08731    0.08736 =
         0.10581   -0.02426   -0.01564   -0.00827
AFIX  43
H45   2    0.018353    0.369771    0.743159    11.00000   -1.20000
AFIX   0
C46   1   -0.051303    0.379662    0.639814    11.00000    0.11182    0.10459 =
         0.12444   -0.00481   -0.03918   -0.02034
AFIX  43
H46   2   -0.136989    0.400455    0.658198    11.00000   -1.20000
AFIX   0
C47   1   -0.014337    0.369696    0.561195    11.00000    0.09295    0.12946 =
         0.11389    0.00138    0.00223   -0.02566
AFIX  43
H47   2   -0.074799    0.384661    0.524911    11.00000   -1.20000
AFIX   0
C48   1    0.111628    0.337702    0.536024    11.00000    0.10295    0.15422 =
         0.09082   -0.02398   -0.00230   -0.00607
AFIX  43
H48   2    0.141277    0.333615    0.482224    11.00000   -1.20000
AFIX   0
C49   1    0.192124    0.311863    0.594921    11.00000    0.07456    0.12919 =
         0.10727   -0.03266    0.00074   -0.01619
AFIX  43
H49   2    0.275540    0.284693    0.579377    11.00000   -1.20000
AFIX   0
PART 1 31
C50   1    0.406789    0.241248    0.832361    31.00000    0.05224    0.06288 =
         0.08800   -0.03719    0.00233   -0.01109
C51   1    0.503732    0.303107    0.847311    31.00000    0.06415    0.08587 =
         0.08799   -0.03237   -0.01228    0.00451
AFIX  13
H51   2    0.500824    0.367321    0.809940    31.00000   -1.20000
AFIX   0
C52   1    0.406497    0.144583    0.888572    31.00000    0.05883    0.08698 =
         0.08083   -0.01335   -0.02096   -0.01183
AFIX  13
H52   2    0.339252    0.105635    0.878750    31.00000   -1.20000
AFIX   0
C53   1    0.637154    0.256490    0.835568    31.00000    0.04526    0.12894 =
         0.11597   -0.02249   -0.00938   -0.02465
AFIX  23
H53A  2    0.663993    0.254398    0.778698    31.00000   -1.20000
H53B  2    0.699153    0.294206    0.850873    31.00000   -1.20000
AFIX   0
C54   1    0.476178    0.315266    0.932025    31.00000    0.09636    0.06734 =
         0.09020   -0.01672   -0.02279   -0.02279
AFIX  23
H54A  2    0.390354    0.348347    0.942186    31.00000   -1.20000
H54B  2    0.541988    0.354371    0.941895    31.00000   -1.20000
AFIX   0
C55   1    0.537274    0.094498    0.874758    31.00000    0.10619    0.06653 =
         0.09860   -0.01690   -0.02859    0.00334
AFIX  23
H55A  2    0.555079    0.083122    0.819938    31.00000   -1.20000
H55B  2    0.539885    0.031700    0.912841    31.00000   -1.20000
AFIX   0
C56   1    0.374949    0.161258    0.971904    31.00000    0.08599    0.09889 =
         0.10331    0.00358   -0.01095   -0.01318
AFIX  23
H56A  2    0.369263    0.099045    1.010955    31.00000   -1.20000
H56B  2    0.290605    0.197337    0.978638    31.00000   -1.20000
AFIX   0
C57   1    0.637232    0.156405    0.886211    31.00000    0.04725    0.09805 =
         0.08087   -0.02808   -0.01295   -0.00325
AFIX  13
H57   2    0.724734    0.124071    0.876198    31.00000   -1.20000
AFIX   0
C58   1    0.479140    0.217334    0.986205    31.00000    0.07032    0.11087 =
         0.09118    0.01736   -0.02384    0.00384
AFIX  13
H58   2    0.461673    0.224339    1.042869    31.00000   -1.20000
AFIX   0
C59   1    0.612436    0.171933    0.969969    31.00000    0.06951    0.09476 =
         0.10701   -0.00199   -0.02135   -0.01037
AFIX  23
H59A  2    0.677148    0.214129    0.976769    31.00000   -1.20000
H59B  2    0.620229    0.109775    1.008294    31.00000   -1.20000
AFIX   0
PART 2 -31
C50B  1    0.407594    0.234128    0.831135   -31.00000    0.05224    0.06288 =
         0.08800   -0.03719    0.00233   -0.01109
C51B  1    0.380429    0.232479    0.918910   -31.00000    0.06415    0.08587 =
         0.08799   -0.03237   -0.01228    0.00451
AFIX  13
H51B  2    0.291762    0.261528    0.932279   -31.00000   -1.20000
AFIX   0
C52B  1    0.544975    0.196131    0.814936   -31.00000    0.05883    0.08698 =
         0.08083   -0.01335   -0.02096   -0.01183
AFIX  13
H52B  2    0.565752    0.197192    0.756595   -31.00000   -1.20000
AFIX   0
C53B  1    0.475794    0.283191    0.947581   -31.00000    0.04526    0.12894 =
         0.11597   -0.02249   -0.00938   -0.02465
AFIX  23
H53C  2    0.457459    0.272008    1.006499   -31.00000   -1.20000
H53D  2    0.465275    0.353044    0.925830   -31.00000   -1.20000
AFIX   0
C54B  1    0.393292    0.135306    0.973101   -31.00000    0.09636    0.06734 =
         0.09020   -0.01672   -0.02279   -0.02279
AFIX  23
H54C  2    0.385777    0.141528    1.029109   -31.00000   -1.20000
H54D  2    0.324439    0.094604    0.969454   -31.00000   -1.20000
AFIX   0
C55B  1    0.646149    0.249845    0.835311   -31.00000    0.10619    0.06653 =
         0.09860   -0.01690   -0.02859    0.00334
AFIX  23
H55C  2    0.732631    0.218210    0.823895   -31.00000   -1.20000
H55D  2    0.646743    0.316511    0.803359   -31.00000   -1.20000
AFIX   0
C56B  1    0.557365    0.093388    0.859005   -31.00000    0.08599    0.09889 =
         0.10331    0.00358   -0.01095   -0.01318
AFIX  23
H56C  2    0.646727    0.066895    0.846700   -31.00000   -1.20000
H56D  2    0.498058    0.054297    0.842846   -31.00000   -1.20000
AFIX   0
C57B  1    0.612717    0.249407    0.922723   -31.00000    0.04725    0.09805 =
         0.08087   -0.02808   -0.01295   -0.00325
AFIX  13
H57B  2    0.674001    0.288220    0.938594   -31.00000   -1.20000
AFIX   0
C58B  1    0.523679    0.091194    0.946711   -31.00000    0.07032    0.11087 =
         0.09118    0.01736   -0.02384    0.00384
AFIX  13
H58B  2    0.530263    0.023230    0.977175   -31.00000   -1.20000
AFIX   0
C59B  1    0.614213    0.148908    0.972565   -31.00000    0.06951    0.09476 =
         0.10701   -0.00199   -0.02135   -0.01037
AFIX  23
H59C  2    0.587179    0.150218    1.029575   -31.00000   -1.20000
H59D  2    0.702742    0.119007    0.966135   -31.00000   -1.20000
AFIX   0
PART 0
RESI 0
RESI 2 A
FE1   4    0.785868    0.761850    0.266951    11.00000    0.05756    0.07518 =
         0.06335    0.00098   -0.01217   -0.00978
F6    3    1.213950    0.587123    0.116518    11.00000    0.08589    0.09615 =
         0.14934   -0.00912   -0.00867   -0.01837
F7    3    1.362683    0.434075    0.080270    11.00000    0.10254    0.15335 =
         0.15313   -0.06229   -0.00288    0.01218
F8    3    1.297391    0.254605    0.156491    11.00000    0.17257    0.11001 =
         0.14935   -0.05870   -0.04841    0.04290
F9    3    1.085623    0.227730    0.272992    11.00000    0.15353    0.07443 =
         0.15193    0.00185   -0.03449   -0.01230
F10   3    0.938762    0.379257    0.308616    11.00000    0.10930    0.10873 =
         0.12162   -0.00312    0.00047   -0.02209
F16   3    0.630554    1.140449    0.221589    11.00000    0.10614    0.09239 =
         0.08065   -0.00124    0.00165   -0.02513
F17   3    0.490273    1.295885    0.258412    11.00000    0.16691    0.07138 =
         0.12740   -0.00137   -0.03219   -0.00529
F18   3    0.284380    1.275373    0.371672    11.00000    0.13805    0.12706 =
         0.12865   -0.05034   -0.05131    0.04412
F19   3    0.214437    1.097772    0.454145    11.00000    0.07465    0.17118 =
         0.13368   -0.03815    0.00231    0.01652
F20   3    0.352350    0.940123    0.418823    11.00000    0.08026    0.09832 =
         0.12467    0.00330    0.01517   -0.00858
N1    5    0.648362    0.841988    0.212776    11.00000    0.04750    0.07239 =
         0.07028   -0.01467   -0.00195   -0.00939
N2    5    0.820990    0.689605    0.179849    11.00000    0.06948    0.06159 =
         0.06565   -0.00725   -0.01732   -0.01260
N3    5    0.912384    0.672702    0.324495    11.00000    0.06145    0.07390 =
         0.06552    0.00013   -0.02097   -0.01086
N4    5    0.745204    0.830247    0.356400    11.00000    0.05338    0.06951 =
         0.06956   -0.00655   -0.01180   -0.00559
N5    5    0.633805    0.662607    0.326890    11.00000    0.07043    0.07578 =
         0.09025   -0.02109   -0.00802   -0.01455
C1    1    0.574045    0.917434    0.236262    11.00000    0.07441    0.07433 =
         0.06983   -0.00357   -0.01863   -0.01654
C2    1    0.482665    0.954038    0.182853    11.00000    0.04599    0.08721 =
         0.10136   -0.01404   -0.00954    0.00043
AFIX  43
H2    2    0.417883    1.003866    0.187418    11.00000   -1.20000
AFIX   0
C3    1    0.506552    0.904402    0.125620    11.00000    0.06755    0.12152 =
         0.07892   -0.02042   -0.02161    0.01024
AFIX  43
H3    2    0.463499    0.914342    0.080537    11.00000   -1.20000
AFIX   0
C4    1    0.608418    0.833344    0.143674    11.00000    0.06500    0.12192 =
         0.05148   -0.00143   -0.02206    0.01268
C5    1    0.658936    0.769404    0.096083    11.00000    0.08517    0.10281 =
         0.06290   -0.00619   -0.02687    0.00679
C6    1    0.762358    0.705337    0.112946    11.00000    0.07302    0.08450 =
         0.05801   -0.00891   -0.01677   -0.00195
C7    1    0.820186    0.643616    0.060961    11.00000    0.06630    0.08635 =
         0.05980   -0.00096   -0.01831   -0.00173
AFIX  43
H7    2    0.797997    0.642513    0.010617    11.00000   -1.20000
AFIX   0
C8    1    0.910910    0.588169    0.096767    11.00000    0.07789    0.08143 =
         0.06190   -0.00759   -0.01467   -0.02154
AFIX  43
H8    2    0.964402    0.538994    0.077357    11.00000   -1.20000
AFIX   0
C9    1    0.912542    0.616792    0.170224    11.00000    0.07717    0.06776 =
         0.06306   -0.00565   -0.00451   -0.01666
C10   1    0.987456    0.573164    0.228022    11.00000    0.06330    0.08411 =
         0.07259   -0.01151   -0.01493   -0.00432
C11   1    0.987159    0.597794    0.300418    11.00000    0.04671    0.07657 =
         0.09114   -0.00468   -0.02472    0.00177
C12   1    1.069860    0.552831    0.357337    11.00000    0.08601    0.08643 =
         0.06379   -0.01493   -0.01958    0.01581
AFIX  43
H12   2    1.129948    0.499865    0.353955    11.00000   -1.20000
AFIX   0
C13   1    1.045219    0.600477    0.415871    11.00000    0.07691    0.10401 =
         0.08090   -0.00066   -0.03195    0.00768
AFIX  43
H13   2    1.086187    0.588241    0.461951    11.00000   -1.20000
AFIX   0
C14   1    0.946014    0.673490    0.397168    11.00000    0.06312    0.08031 =
         0.06705   -0.00904   -0.01362    0.01148
C15   1    0.899441    0.742221    0.440736    11.00000    0.06870    0.09788 =
         0.05814    0.00986   -0.03034    0.00085
C16   1    0.804989    0.813955    0.422838    11.00000    0.06101    0.07467 =
         0.05761   -0.00066   -0.00943   -0.02652
C17   1    0.758682    0.885339    0.468054    11.00000    0.05778    0.08992 =
         0.07990   -0.01007   -0.01483   -0.01444
AFIX  43
H17   2    0.787075    0.892251    0.515222    11.00000   -1.20000
AFIX   0
C18   1    0.668312    0.940107    0.431363    11.00000    0.05972    0.08321 =
         0.08762   -0.01527    0.00566   -0.01323
AFIX  43
H18   2    0.617248    0.991127    0.449519    11.00000   -1.20000
AFIX   0
C19   1    0.661222    0.908918    0.359742    11.00000    0.06156    0.07116 =
         0.07419    0.00231    0.00100   -0.02291
C20   1    0.581496    0.950277    0.304116    11.00000    0.07213    0.07289 =
         0.06981   -0.00095   -0.01727   -0.01140
EADP F1_1 F1_2 F1B_2
EADP F2_1 F2_2 F2B_2
EADP F3_1 F3_2 F3B_2
EADP F4_1 F4_2 F4B_2
EADP F5_1 F5_2 F5B_2

EADP C21_1 C21_2 C21B_2
EADP C22_1 C22_2 C22B_2
EADP C23_1 C23_2 C23B_2
EADP C24_1 C24_2 C24B_2
EADP C25_1 C25_2 C25B_2
EADP C26_1 C26_2 C26B_2

SADI_A 0.001 C22 F1 C23 F2 C24 F3 C25 F4 C26 F5 =
 C22B F1B C23B F2B C24B F3B C25B F4B C26B F5B
SADI_A 0.001 F1 F2 F2 F3 F3 F4 F4 F5 =
 F1B F2B F2B F3B F3B F4B F4B F5B

SADI 0.001 F3B_2 C25B_2 F3B_2 C23B_2

PART 1 41
F1B   3    0.746628    0.916559   -0.052425    41.00000    0.10222    0.07895 =
         0.12478   -0.00376   -0.04913   -0.02988
F2B   3    0.639309    0.930474   -0.184779    41.00000    0.11038    0.09263 =
         0.10245   -0.02434   -0.02794   -0.03901
F3B   3    0.457931    0.809007   -0.184626    41.00000    0.09605    0.07607 =
         0.08278   -0.01918   -0.00735   -0.02529
F4B   3    0.385819    0.671556   -0.053726    41.00000    0.13128    0.09431 =
         0.09959    0.01206   -0.04040   -0.03341
F5B   3    0.471408    0.672242    0.083442    41.00000    0.09980    0.09630 =
         0.09739   -0.00610   -0.03946   -0.02254
AFIX  66
C21B  1    0.603517    0.799892    0.018445    41.00000    0.06602    0.06050 =
         0.06839   -0.01803   -0.01136   -0.01215
C22B  1    0.652535    0.861818   -0.052115    41.00000    0.06972    0.07068 =
         0.08809   -0.01863   -0.01336   -0.01274
C23B  1    0.611318    0.858954   -0.123098    41.00000    0.08871    0.06052 =
         0.07155   -0.02231   -0.01986   -0.01902
C24B  1    0.521084    0.794165   -0.123521    41.00000    0.08579    0.07430 =
         0.05978   -0.01344   -0.00002   -0.01623
C25B  1    0.472065    0.732239   -0.052961    41.00000    0.07562    0.07651 =
         0.10234   -0.01753   -0.01137   -0.01841
C26B  1    0.513281    0.735102    0.018022    41.00000    0.07926    0.09037 =
         0.07516   -0.01192   -0.00464   -0.01281
AFIX   0
PART 2 -41
F1    3    0.710973    0.892549   -0.054515   -41.00000    0.10222    0.07895 =
         0.12478   -0.00376   -0.04913   -0.02988
F2    3    0.589007    0.890683   -0.178206   -41.00000    0.11038    0.09263 =
         0.10245   -0.02434   -0.02794   -0.03901
F3    3    0.414429    0.758758   -0.163976   -41.00000    0.09605    0.07607 =
         0.08278   -0.01918   -0.00735   -0.02529
F4    3    0.372934    0.620744   -0.029478   -41.00000    0.13128    0.09431 =
         0.09959    0.01206   -0.04040   -0.03341
F5    3    0.486743    0.624695    0.097058   -41.00000    0.09980    0.09630 =
         0.09739   -0.00610   -0.03946   -0.02254
AFIX  66
C21   1    0.597732    0.761397    0.024663   -41.00000    0.06602    0.06050 =
         0.06839   -0.01803   -0.01136   -0.01215
C22   1    0.624022    0.829075   -0.046389   -41.00000    0.06972    0.07068 =
         0.08809   -0.01863   -0.01336   -0.01274
C23   1    0.562763    0.827243   -0.110557   -41.00000    0.08871    0.06052 =
         0.07155   -0.02231   -0.01986   -0.01902
C24   1    0.475214    0.757732   -0.103674   -41.00000    0.08579    0.07430 =
         0.05978   -0.01344   -0.00002   -0.01623
C25   1    0.448923    0.690053   -0.032623   -41.00000    0.07562    0.07651 =
         0.10234   -0.01753   -0.01137   -0.01841
C26   1    0.510182    0.691885    0.031546   -41.00000    0.07926    0.09037 =
         0.07516   -0.01192   -0.00464   -0.01281
AFIX  66
PART 0
C27   1    1.073237    0.485968    0.212648    11.00000    0.06225    0.08595 =
         0.08269   -0.00724   -0.02375   -0.00100
C28   1    1.181433    0.499655    0.153988    11.00000    0.07703    0.10219 =
         0.10543   -0.03236   -0.02411   -0.00737
C29   1    1.257681    0.421069    0.135700    11.00000    0.09129    0.11526 =
         0.09013   -0.03976   -0.01932    0.01672
C30   1    1.225733    0.328796    0.176070    11.00000    0.14688    0.09585 =
         0.08971   -0.02143   -0.06584    0.01519
C31   1    1.117537    0.315108    0.234729    11.00000    0.09157    0.08623 =
         0.11301   -0.01312   -0.04959    0.00229
C32   1    1.041288    0.393693    0.253019    11.00000    0.10126    0.09311 =
         0.10548   -0.02727   -0.02926   -0.00936
AFIX   0
EADP F11_1 F11_2 F11B_2
EADP F12_1 F12_2 F12B_2
EADP F13_1 F13_2 F13B_2
EADP F14_1 F14_2 F14B_2
EADP F15_1 F15_2 F15B_2

EADP C33_1 C33_2 C33B_2
EADP C34_1 C34_2 C34B_2
EADP C35_1 C35_2 C35B_2
EADP C36_1 C36_2 C36B_2
EADP C37_1 C37_2 C37B_2
EADP C38_1 C38_2 C38B_2

SADI_A 0.001 F11 C34 F12 C35 F13 C36 F14 C37 F15 C38 =
 F11B C34B F12B C35B F13B C36B F14B C37B F15B C38B
SADI_A 0.001 F11 F12 F12 F13 F13 F14 F14 F15 =
 F11B F12B F12B F13B F13B F14B F14B F15B

PART 1 51
F11B  3    1.058459    0.886393    0.444263    51.00000    0.08492    0.09155 =
         0.09434    0.00006   -0.03247   -0.01346
F12B  3    1.178447    0.888825    0.568729    51.00000    0.12945    0.08217 =
         0.09577   -0.00315   -0.02316   -0.01624
F13B  3    1.147605    0.746583    0.700997    51.00000    0.11914    0.08900 =
         0.09176   -0.01391   -0.00954   -0.03492
F14B  3    0.987084    0.605833    0.712628    51.00000    0.11723    0.11578 =
         0.13309   -0.00156   -0.05254   -0.04269
F15B  3    0.857826    0.605993    0.591568    51.00000    0.11701    0.10487 =
         0.10110    0.00017   -0.04522   -0.02350
AFIX  66
C33B  1    0.963649    0.741500    0.513031    51.00000    0.05804    0.08726 =
         0.07348   -0.01231   -0.00067   -0.00599
C34B  1    1.045102    0.814634    0.507347    51.00000    0.06632    0.08209 =
         0.06086   -0.01485   -0.00911   -0.01370
C35B  1    1.106264    0.817219    0.571381    51.00000    0.09071    0.06335 =
         0.06506   -0.00930    0.00470   -0.00813
C36B  1    1.085974    0.746671    0.641099    51.00000    0.06956    0.07482 =
         0.07867   -0.02564   -0.00391   -0.02725
C37B  1    1.004521    0.673537    0.646785    51.00000    0.08550    0.09910 =
         0.07087    0.00025   -0.01477   -0.00960
C38B  1    0.943359    0.670951    0.582752    51.00000    0.07504    0.08237 =
         0.08476   -0.01907   -0.02101   -0.01549
AFIX   0
PART 2 -51
F11   3    1.073892    0.868418    0.457363   -51.00000    0.08492    0.09155 =
         0.09434    0.00006   -0.03247   -0.01346
F12   3    1.173803    0.856164    0.592211   -51.00000    0.12945    0.08217 =
         0.09577   -0.00315   -0.02316   -0.01624
F13   3    1.117007    0.708851    0.718123   -51.00000    0.11914    0.08900 =
         0.09176   -0.01391   -0.00954   -0.03492
F14   3    0.948737    0.579841    0.713234   -51.00000    0.11723    0.11578 =
         0.13309   -0.00156   -0.05254   -0.04269
F15   3    0.835353    0.597838    0.582551   -51.00000    0.11701    0.10487 =
         0.10110    0.00017   -0.04522   -0.02350
AFIX  66
C33   1    0.944833    0.739956    0.519433   -51.00000    0.05804    0.08726 =
         0.07348   -0.01231   -0.00067   -0.00599
C34   1    1.034120    0.804151    0.522544   -51.00000    0.06632    0.08209 =
         0.06086   -0.01485   -0.00911   -0.01370
C35   1    1.094350    0.791336    0.589489   -51.00000    0.09071    0.06335 =
         0.06506   -0.00930    0.00470   -0.00813
C36   1    1.065293    0.714326    0.653324   -51.00000    0.06956    0.07482 =
         0.07867   -0.02564   -0.00391   -0.02725
C37   1    0.976006    0.650131    0.650214   -51.00000    0.08550    0.09910 =
         0.07087    0.00025   -0.01477   -0.00960
C38   1    0.915776    0.662945    0.583269   -51.00000    0.07504    0.08237 =
         0.08476   -0.01907   -0.02101   -0.01549
AFIX  66
PART 0
C39   1    0.493824    1.036625    0.319589    11.00000    0.06593    0.09111 =
         0.07227   -0.02166   -0.01345   -0.00611
C40   1    0.528776    1.127583    0.277409    11.00000    0.07443    0.07490 =
         0.08913   -0.00907   -0.02983   -0.00634
C41   1    0.456948    1.208238    0.295055    11.00000    0.12207    0.07961 =
         0.09366   -0.00306   -0.03678   -0.01479
C42   1    0.350168    1.197935    0.354881    11.00000    0.09509    0.08992 =
         0.11419   -0.03410   -0.01859    0.02267
C43   1    0.315214    1.106977    0.397061    11.00000    0.06614    0.14792 =
         0.10641   -0.02767   -0.03559    0.00475
C44   1    0.387041    1.026322    0.379416    11.00000    0.06181    0.09335 =
         0.08248   -0.01450   -0.01949    0.00347
AFIX   0
C45   1    0.647044    0.569040    0.323221    11.00000    0.08731    0.08736 =
         0.10581   -0.02426   -0.01564   -0.00827
AFIX  43
H45   2    0.726801    0.546226    0.297520    11.00000   -1.20000
AFIX   0
C46   1    0.550022    0.503395    0.355107    11.00000    0.11182    0.10459 =
         0.12444   -0.00481   -0.03918   -0.02034
AFIX  43
H46   2    0.561296    0.440687    0.344885    11.00000   -1.20000
AFIX   0
C47   1    0.437258    0.530067    0.401708    11.00000    0.09295    0.12946 =
         0.11389    0.00138    0.00223   -0.02566
AFIX  43
H47   2    0.371353    0.486652    0.425508    11.00000   -1.20000
AFIX   0
C48   1    0.427483    0.624600    0.411117    11.00000    0.10295    0.15422 =
         0.09082   -0.02398   -0.00230   -0.00607
AFIX  43
H48   2    0.355400    0.646027    0.444718    11.00000   -1.20000
AFIX   0
C49   1    0.523577    0.688379    0.371215    11.00000    0.07456    0.12919 =
         0.10727   -0.03266    0.00074   -0.01619
AFIX  43
H49   2    0.510239    0.753419    0.375674    11.00000   -1.20000
AFIX   0
PART 1 21
C50   1    0.909720    0.845635    0.215154    21.00000    0.06864    0.08235 =
         0.06156   -0.01209   -0.01774   -0.00012
C51   1    1.017927    0.872393    0.250647    21.00000    0.04890    0.11353 =
         0.08543   -0.01784   -0.01040   -0.01712
AFIX  13
H51   2    1.012583    0.837812    0.307775    21.00000   -1.20000
AFIX   0
C52   1    0.913746    0.896272    0.129202    21.00000    0.07047    0.09799 =
         0.07018    0.00913   -0.02046   -0.01462
AFIX  13
H52   2    0.842316    0.874988    0.107217    21.00000   -1.20000
AFIX   0
C53   1    1.143147    0.844370    0.203600    21.00000    0.07405    0.12814 =
         0.10769   -0.02038   -0.00978    0.00418
AFIX  23
H53A  2    1.216918    0.859227    0.226326    21.00000   -1.20000
H53B  2    1.148314    0.774730    0.205170    21.00000   -1.20000
AFIX   0
C54   1    0.999999    0.978751    0.245000    21.00000    0.07067    0.11508 =
         0.11445   -0.01265   -0.01250   -0.01364
AFIX  23
H54A  2    1.070431    0.999867    0.266982    21.00000   -1.20000
H54B  2    0.917416    0.992719    0.278131    21.00000   -1.20000
AFIX   0
C55   1    1.041316    0.871868    0.082631    21.00000    0.08244    0.14931 =
         0.07867   -0.00888   -0.00123    0.00532
AFIX  23
H55A  2    1.050532    0.802166    0.084346    21.00000   -1.20000
H55B  2    1.046563    0.906576    0.026199    21.00000   -1.20000
AFIX   0
C56   1    0.893691    1.001762    0.127421    21.00000    0.08330    0.07565 =
         0.07570    0.00616   -0.00572   -0.01721
AFIX  23
H56A  2    0.893007    1.037848    0.071775    21.00000   -1.20000
H56B  2    0.809157    1.014503    0.159117    21.00000   -1.20000
AFIX   0
C57   1    1.146913    0.900624    0.119184    21.00000    0.07908    0.12964 =
         0.07516    0.00808   -0.00467   -0.01513
AFIX  13
H57   2    1.232424    0.887772    0.087293    21.00000   -1.20000
AFIX   0
C58   1    0.999349    1.035220    0.160972    21.00000    0.10344    0.08776 =
         0.09471   -0.00749   -0.01796   -0.03989
AFIX  13
H58   2    0.990230    1.105865    0.158138    21.00000   -1.20000
AFIX   0
C59   1    1.125214    1.006547    0.114980    21.00000    0.09320    0.11664 =
         0.09240    0.00761   -0.01717   -0.04655
AFIX  23
H59A  2    1.196595    1.028591    0.135499    21.00000   -1.20000
H59B  2    1.128784    1.040085    0.058342    21.00000   -1.20000
AFIX   0
PART 2 -21
C50B  1    0.906319    0.847880    0.213942   -21.00000    0.06864    0.08235 =
         0.06156   -0.01209   -0.01774   -0.00012
C51B  1    1.047681    0.825931    0.189273   -21.00000    0.04890    0.11353 =
         0.08543   -0.01784   -0.01040   -0.01712
AFIX  13
H51B  2    1.061624    0.754515    0.201328   -21.00000   -1.20000
AFIX   0
C52B  1    0.888436    0.954830    0.204459   -21.00000    0.07047    0.09799 =
         0.07018    0.00913   -0.02046   -0.01462
AFIX  13
H52B  2    0.796085    0.974318    0.221099   -21.00000   -1.20000
AFIX   0
C53B  1    1.084314    0.860182    0.100639   -21.00000    0.07405    0.12814 =
         0.10769   -0.02038   -0.00978    0.00418
AFIX  23
H53C  2    1.174592    0.839605    0.082558   -21.00000   -1.20000
H53D  2    1.026348    0.836033    0.071331   -21.00000   -1.20000
AFIX   0
C54B  1    1.135837    0.863692    0.232996   -21.00000    0.07067    0.11508 =
         0.11445   -0.01265   -0.01250   -0.01364
AFIX  23
H54C  2    1.117934    0.834117    0.290672   -21.00000   -1.20000
H54D  2    1.226781    0.846802    0.213025   -21.00000   -1.20000
AFIX   0
C55B  1    0.934192    1.002627    0.119172   -21.00000    0.08244    0.14931 =
         0.07867   -0.00888   -0.00123    0.00532
AFIX  23
H55C  2    0.932803    1.072786    0.114497   -21.00000   -1.20000
H55D  2    0.874034    0.990354    0.085184   -21.00000   -1.20000
AFIX   0
C56B  1    0.974872    0.990026    0.250820   -21.00000    0.08330    0.07565 =
         0.07570    0.00616   -0.00572   -0.01721
AFIX  23
H56C  2    0.955573    0.957679    0.307820   -21.00000   -1.20000
H56D  2    0.957249    1.059821    0.246651   -21.00000   -1.20000
AFIX   0
C57B  1    1.068223    0.967409    0.089325   -21.00000    0.07908    0.12964 =
         0.07516    0.00808   -0.00467   -0.01513
AFIX  13
H57B  2    1.088707    0.996362    0.030999   -21.00000   -1.20000
AFIX   0
C58B  1    1.114952    0.970816    0.220428   -21.00000    0.10344    0.08776 =
         0.09471   -0.00749   -0.01796   -0.03989
AFIX  13
H58B  2    1.170699    0.996370    0.251041   -21.00000   -1.20000
AFIX   0
C59B  1    1.148867    1.012688    0.132660   -21.00000    0.09320    0.11664 =
         0.09240    0.00761   -0.01717   -0.04655
AFIX  23
H59C  2    1.241704    0.999395    0.114597   -21.00000   -1.20000
H59D  2    1.131042    1.083045    0.121631   -21.00000   -1.20000
PART 0
RESI 0
AFIX   0
HKLF 4

REM  KHL180711A_0m_b.res in P1
REM R1 =  0.0898 for   11105 Fo > 4sig(Fo)  and  0.1307 for all   17368 data
REM   1350 parameters refined using   2893 restraints

END

WGHT      0.1508      1.4070

REM Highest difference peak  0.617,  deepest hole -0.582,  1-sigma level  0.081
Q1    1   0.3049  0.2203  0.7443  11.00000  0.05    0.62
Q2    1   0.8362  0.7214  0.2167  11.00000  0.05    0.54
Q3    1   0.2203  0.3020  0.8015  11.00000  0.05    0.53
Q4    1   0.7456  0.8267  0.3005  11.00000  0.05    0.51
;
_shelx_res_checksum              27712
loop_
_space_group_symop_operation_xyz
'x, y, z'
loop_
_atom_site_label
_atom_site_type_symbol
_atom_site_fract_x
_atom_site_fract_y
_atom_site_fract_z
_atom_site_U_iso_or_equiv
_atom_site_adp_type
_atom_site_occupancy
_atom_site_site_symmetry_order
_atom_site_calc_flag
_atom_site_refinement_flags_posn
_atom_site_refinement_flags_adp
_atom_site_refinement_flags_occupancy
_atom_site_disorder_assembly
_atom_site_disorder_group
Fe1_1 Fe 0.2982(3) 0.2775(2) 0.75809(16) 0.0599(4) Uani 1 1 d D . . . .
F1_1 F 0.6098(8) 0.5306(4) 0.7898(5) 0.100(2) Uani 1 1 d D . . . .
F2_1 F 0.7239(7) 0.6986(4) 0.7625(5) 0.098(2) Uani 1 1 d D . . . .
F3_1 F 0.6467(7) 0.8513(4) 0.6551(4) 0.0842(18) Uani 1 1 d D . . . .
F4_1 F 0.4572(9) 0.8363(4) 0.5729(5) 0.109(2) Uani 1 1 d D . . . .
F5_1 F 0.3443(8) 0.6682(5) 0.5972(5) 0.096(2) Uani 1 1 d D . . . .
F6_1 F 0.7363(11) 0.0816(9) 0.6600(5) 0.112(3) Uani 1 1 d D . . . .
F7_1 F 0.9350(10) 0.0289(10) 0.5563(7) 0.131(4) Uani 1 1 d D . . . .
F8_1 F 0.9419(9) 0.0983(9) 0.3985(6) 0.116(3) Uani 1 1 d D . . . .
F9_1 F 0.7451(11) 0.2152(9) 0.3435(5) 0.111(3) Uani 1 1 d D . . . .
F10_1 F 0.5455(9) 0.2671(6) 0.4466(5) 0.090(2) Uani 1 1 d D . . . .
F11_1 F 0.2423(7) -0.1074(5) 0.9107(5) 0.0908(19) Uani 1 1 d D . . . .
F12_1 F 0.1240(8) -0.2745(4) 0.9437(5) 0.104(2) Uani 1 1 d D . . . .
F13_1 F -0.0697(8) -0.2930(4) 0.8658(5) 0.100(2) Uani 1 1 d D . . . .
F14_1 F -0.1410(9) -0.1465(5) 0.7508(6) 0.120(3) Uani 1 1 d D . . . .
F15_1 F -0.0254(9) 0.0218(5) 0.7171(5) 0.107(2) Uani 1 1 d D . . . .
F16_1 F 0.0497(8) 0.2718(6) 1.0681(5) 0.090(2) Uani 1 1 d D . . . .
F17_1 F -0.1549(11) 0.3097(8) 1.1756(5) 0.113(3) Uani 1 1 d D . . . .
F18_1 F -0.3525(9) 0.4279(9) 1.1276(6) 0.117(4) Uani 1 1 d D . . . .
F19_1 F -0.3473(8) 0.5116(7) 0.9710(7) 0.104(3) Uani 1 1 d D . . . .
F20_1 F -0.1502(9) 0.4712(7) 0.8634(5) 0.089(2) Uani 1 1 d D . . . .
N1_1 N 0.2469(8) 0.3976(4) 0.7975(5) 0.0640(19) Uani 1 1 d D . . . .
N2_1 N 0.4365(8) 0.3436(5) 0.6760(5) 0.0653(19) Uani 1 1 d D . . . .
N3_1 N 0.3417(8) 0.1586(4) 0.7157(5) 0.068(2) Uani 1 1 d D . . . .
N4_1 N 0.1501(7) 0.2141(5) 0.8331(5) 0.065(2) Uani 1 1 d D . . . .
N5_1 N 0.1632(9) 0.3216(8) 0.6714(6) 0.078(2) Uani 1 1 d D . . . .
C1_1 C 0.1522(9) 0.4108(6) 0.8596(6) 0.065(3) Uani 1 1 d D . . . .
C2_1 C 0.1552(11) 0.5055(7) 0.8731(8) 0.070(4) Uani 1 1 d D . . . .
H2_1 H 0.0981 0.5327 0.9115 0.084 Uiso 1 1 calc R U . . .
C3_1 C 0.2527(10) 0.5484(7) 0.8220(6) 0.063(3) Uani 1 1 d D . . . .
H3_1 H 0.2805 0.6105 0.8188 0.076 Uiso 1 1 calc R U . . .
C4_1 C 0.3076(9) 0.4829(6) 0.7727(6) 0.061(3) Uani 1 1 d D . . . .
C5_1 C 0.4121(9) 0.5001(5) 0.7120(6) 0.063(3) Uani 1 1 d D . . . .
C6_1 C 0.4714(10) 0.4362(6) 0.6664(6) 0.059(3) Uani 1 1 d D . . . .
C7_1 C 0.5803(11) 0.4545(9) 0.6041(7) 0.074(4) Uani 1 1 d D . . . .
H7_1 H 0.6214 0.5135 0.5852 0.089 Uiso 1 1 calc R U . . .
C8_1 C 0.6139(12) 0.3745(8) 0.5774(9) 0.079(4) Uani 1 1 d D . . . .
H8_1 H 0.6829 0.3656 0.5365 0.095 Uiso 1 1 calc R U . . .
C9_1 C 0.5252(9) 0.3045(6) 0.6229(6) 0.062(3) Uani 1 1 d D . . . .
C10_1 C 0.5281(10) 0.2109(5) 0.6135(7) 0.070(4) Uani 1 1 d D . . . .
C11_1 C 0.4431(9) 0.1431(6) 0.6580(6) 0.057(3) Uani 1 1 d D . . . .
C12_1 C 0.4387(13) 0.0483(7) 0.6450(7) 0.072(4) Uani 1 1 d D . . . .
H12_1 H 0.4974 0.0205 0.6077 0.087 Uiso 1 1 calc R U . . .
C13_1 C 0.3389(12) 0.0056(7) 0.6939(8) 0.073(4) Uani 1 1 d D . . . .
H13_1 H 0.3131 -0.0574 0.6983 0.088 Uiso 1 1 calc R U . . .
C14_1 C 0.2785(9) 0.0744(6) 0.7385(6) 0.061(3) Uani 1 1 d D . . . .
C15_1 C 0.1697(9) 0.0579(5) 0.7961(6) 0.062(3) Uani 1 1 d D . . . .
C16_1 C 0.1095(9) 0.1239(6) 0.8393(6) 0.063(3) Uani 1 1 d D . . . .
C17_1 C -0.0059(10) 0.1058(8) 0.8963(7) 0.070(4) Uani 1 1 d D . . . .
H17_1 H -0.0542 0.0500 0.9094 0.084 Uiso 1 1 calc R U . . .
C18_1 C -0.0313(11) 0.1834(8) 0.9272(8) 0.073(4) Uani 1 1 d D . . . .
H18_1 H -0.0994 0.1915 0.9689 0.087 Uiso 1 1 calc R U . . .
C19_1 C 0.0616(9) 0.2527(6) 0.8867(6) 0.062(3) Uani 1 1 d D . . . .
C20_1 C 0.0632(9) 0.3440(5) 0.9003(6) 0.061(3) Uani 1 1 d D . . . .
C21_1 C 0.4735(7) 0.5965(4) 0.6947(5) 0.064(2) Uani 1 1 d DG . . . .
C22_1 C 0.5718(8) 0.6040(4) 0.7365(5) 0.075(3) Uani 1 1 d DG . . . .
C23_1 C 0.6322(7) 0.6900(5) 0.7222(5) 0.070(3) Uani 1 1 d DG . . . .
C24_1 C 0.5942(8) 0.7684(4) 0.6660(5) 0.074(3) Uani 1 1 d DG . . . .
C25_1 C 0.4958(9) 0.7609(4) 0.6242(5) 0.085(3) Uani 1 1 d DG . . . .
C26_1 C 0.4354(7) 0.6749(5) 0.6385(5) 0.083(3) Uani 1 1 d DG . . . .
C27_1 C 0.6388(7) 0.1784(7) 0.5552(4) 0.071(4) Uani 1 1 d DG . . . .
C28_1 C 0.7389(9) 0.1180(8) 0.5840(4) 0.093(5) Uani 1 1 d DG . . . .
C29_1 C 0.8420(8) 0.0906(8) 0.5311(6) 0.095(5) Uani 1 1 d DG . . . .
C30_1 C 0.8450(8) 0.1236(8) 0.4494(5) 0.081(4) Uani 1 1 d DG . . . .
C31_1 C 0.7449(9) 0.1840(7) 0.4206(3) 0.082(4) Uani 1 1 d DG . . . .
C32_1 C 0.6418(7) 0.2115(6) 0.4735(5) 0.068(3) Uani 1 1 d DG . . . .
C33_1 C 0.1095(7) -0.0390(4) 0.8138(5) 0.075(3) Uani 1 1 d DG . . . .
C34_1 C 0.1471(7) -0.1147(5) 0.8725(5) 0.069(2) Uani 1 1 d DG . . . .
C35_1 C 0.0868(8) -0.2010(4) 0.8899(5) 0.076(3) Uani 1 1 d DG . . . .
C36_1 C -0.0111(8) -0.2116(4) 0.8488(5) 0.072(3) Uani 1 1 d DG . . . .
C37_1 C -0.0487(8) -0.1358(6) 0.7902(5) 0.088(4) Uani 1 1 d DG . . . .
C38_1 C 0.0116(8) -0.0495(5) 0.7727(5) 0.079(3) Uani 1 1 d DG . . . .
C39_1 C -0.0441(7) 0.3721(6) 0.9628(4) 0.068(3) Uani 1 1 d DG . . . .
C40_1 C -0.0463(7) 0.3290(6) 1.0430(5) 0.071(4) Uani 1 1 d DG . . . .
C41_1 C -0.1511(9) 0.3471(7) 1.0989(3) 0.085(4) Uani 1 1 d DG . . . .
C42_1 C -0.2536(7) 0.4084(7) 1.0746(5) 0.087(5) Uani 1 1 d DG . . . .
C43_1 C -0.2514(7) 0.4515(6) 0.9944(6) 0.073(4) Uani 1 1 d DG . . . .
C44_1 C -0.1466(8) 0.4333(6) 0.9385(4) 0.068(4) Uani 1 1 d DG . . . .
C45_1 C 0.0421(11) 0.3580(11) 0.6910(10) 0.093(3) Uani 1 1 d D . . . .
H45_1 H 0.0184 0.3698 0.7432 0.111 Uiso 1 1 calc R U . . .
C46_1 C -0.0513(18) 0.3797(14) 0.6398(10) 0.113(4) Uani 1 1 d D . . . .
H46_1 H -0.1370 0.4005 0.6582 0.136 Uiso 1 1 calc R U . . .
C47_1 C -0.0143(16) 0.3697(14) 0.5612(11) 0.118(5) Uani 1 1 d D . . . .
H47_1 H -0.0748 0.3847 0.5249 0.141 Uiso 1 1 calc R U . . .
C48_1 C 0.1116(15) 0.3377(16) 0.5360(10) 0.118(5) Uani 1 1 d D . . . .
H48_1 H 0.1413 0.3336 0.4822 0.142 Uiso 1 1 calc R U . . .
C49_1 C 0.1921(16) 0.3119(14) 0.5949(7) 0.104(4) Uani 1 1 d D . . . .
H49_1 H 0.2755 0.2847 0.5794 0.124 Uiso 1 1 calc R U . . .
C50_1 C 0.4068(16) 0.2412(12) 0.8324(10) 0.065(3) Uani 0.666(11) 1 d D U P A 1
C51_1 C 0.5037(14) 0.3031(14) 0.8473(10) 0.078(5) Uani 0.666(11) 1 d D U P A 1
H51_1 H 0.5008 0.3673 0.8099 0.093 Uiso 0.666(11) 1 calc R U P A 1
C52_1 C 0.4065(16) 0.1446(11) 0.8886(9) 0.075(5) Uani 0.666(11) 1 d D U P A 1
H52_1 H 0.3393 0.1056 0.8788 0.090 Uiso 0.666(11) 1 calc R U P A 1
C53_1 C 0.6372(15) 0.2565(14) 0.8356(16) 0.097(7) Uani 0.666(11) 1 d D U P A 1
H53A_1 H 0.6640 0.2544 0.7787 0.116 Uiso 0.666(11) 1 calc R U P A 1
H53B_1 H 0.6992 0.2942 0.8509 0.116 Uiso 0.666(11) 1 calc R U P A 1
C54_1 C 0.476(3) 0.3153(12) 0.9320(9) 0.083(6) Uani 0.666(11) 1 d D U P A 1
H54A_1 H 0.3904 0.3483 0.9422 0.099 Uiso 0.666(11) 1 calc R U P A 1
H54B_1 H 0.5420 0.3544 0.9419 0.099 Uiso 0.666(11) 1 calc R U P A 1
C55_1 C 0.5373(15) 0.0945(14) 0.8748(17) 0.090(7) Uani 0.666(11) 1 d D U P A 1
H55A_1 H 0.5551 0.0831 0.8199 0.108 Uiso 0.666(11) 1 calc R U P A 1
H55B_1 H 0.5399 0.0317 0.9128 0.108 Uiso 0.666(11) 1 calc R U P A 1
C56_1 C 0.375(2) 0.1613(19) 0.9719(11) 0.100(8) Uani 0.666(11) 1 d D U P A 1
H56A_1 H 0.3693 0.0990 1.0110 0.120 Uiso 0.666(11) 1 calc R U P A 1
H56B_1 H 0.2906 0.1973 0.9786 0.120 Uiso 0.666(11) 1 calc R U P A 1
C57_1 C 0.6372(18) 0.1564(13) 0.8862(11) 0.074(4) Uani 0.666(11) 1 d D U P A 1
H57_1 H 0.7247 0.1241 0.8762 0.088 Uiso 0.666(11) 1 calc R U P A 1
C58_1 C 0.4791(17) 0.2173(13) 0.9862(14) 0.096(6) Uani 0.666(11) 1 d D U P A 1
H58_1 H 0.4617 0.2243 1.0429 0.116 Uiso 0.666(11) 1 calc R U P A 1
C59_1 C 0.612(2) 0.1719(19) 0.9700(12) 0.092(6) Uani 0.666(11) 1 d D U P A 1
H59A_1 H 0.6771 0.2141 0.9768 0.111 Uiso 0.666(11) 1 calc R U P A 1
H59B_1 H 0.6202 0.1098 1.0083 0.111 Uiso 0.666(11) 1 calc R U P A 1
C50B_1 C 0.408(2) 0.234(3) 0.8311(13) 0.065(3) Uani 0.334(11) 1 d D . P A 2
C51B_1 C 0.380(4) 0.232(2) 0.9189(14) 0.078(5) Uani 0.334(11) 1 d D . P A 2
H51B_1 H 0.2918 0.2615 0.9323 0.093 Uiso 0.334(11) 1 calc R U P A 2
C52B_1 C 0.545(2) 0.196(2) 0.815(2) 0.075(5) Uani 0.334(11) 1 d D . P A 2
H52B_1 H 0.5658 0.1972 0.7566 0.090 Uiso 0.334(11) 1 calc R U P A 2
C53B_1 C 0.476(2) 0.283(4) 0.948(4) 0.097(7) Uani 0.334(11) 1 d D . P A 2
H53C_1 H 0.4575 0.2720 1.0065 0.116 Uiso 0.334(11) 1 calc R U P A 2
H53D_1 H 0.4653 0.3530 0.9258 0.116 Uiso 0.334(11) 1 calc R U P A 2
C54B_1 C 0.393(4) 0.135(2) 0.973(3) 0.083(6) Uani 0.334(11) 1 d D . P A 2
H54C_1 H 0.3858 0.1415 1.0291 0.099 Uiso 0.334(11) 1 calc R U P A 2
H54D_1 H 0.3244 0.0946 0.9695 0.099 Uiso 0.334(11) 1 calc R U P A 2
C55B_1 C 0.646(4) 0.250(3) 0.8353(18) 0.090(7) Uani 0.334(11) 1 d D . P A 2
H55C_1 H 0.7326 0.2182 0.8239 0.108 Uiso 0.334(11) 1 calc R U P A 2
H55D_1 H 0.6467 0.3165 0.8034 0.108 Uiso 0.334(11) 1 calc R U P A 2
C56B_1 C 0.557(7) 0.093(2) 0.8590(19) 0.100(8) Uani 0.334(11) 1 d D . P A 2
H56C_1 H 0.6467 0.0669 0.8467 0.120 Uiso 0.334(11) 1 calc R U P A 2
H56D_1 H 0.4981 0.0543 0.8428 0.120 Uiso 0.334(11) 1 calc R U P A 2
C57B_1 C 0.613(3) 0.249(2) 0.9227(17) 0.074(4) Uani 0.334(11) 1 d D . P A 2
H57B_1 H 0.6740 0.2882 0.9386 0.088 Uiso 0.334(11) 1 calc R U P A 2
C58B_1 C 0.524(3) 0.091(3) 0.947(2) 0.096(6) Uani 0.334(11) 1 d D . P A 2
H58B_1 H 0.5303 0.0232 0.9772 0.116 Uiso 0.334(11) 1 calc R U P A 2
C59B_1 C 0.614(5) 0.149(2) 0.973(3) 0.092(6) Uani 0.334(11) 1 d D . P A 2
H59C_1 H 0.5872 0.1502 1.0296 0.111 Uiso 0.334(11) 1 calc R U P A 2
H59D_1 H 0.7027 0.1190 0.9661 0.111 Uiso 0.334(11) 1 calc R U P A 2
Fe1_2 Fe 0.7859(3) 0.7618(2) 0.26695(16) 0.0673(5) Uani 1 1 d D . . . .
F6_2 F 1.2139(10) 0.5871(7) 0.1165(7) 0.114(3) Uani 1 1 d D . . . .
F7_2 F 1.3627(11) 0.4341(10) 0.0803(8) 0.135(4) Uani 1 1 d D . . . .
F8_2 F 1.2974(14) 0.2546(8) 0.1565(8) 0.139(5) Uani 1 1 d D . . . .
F9_2 F 1.0856(13) 0.2277(6) 0.2730(8) 0.129(4) Uani 1 1 d D . . . .
F10_2 F 0.9388(10) 0.3793(8) 0.3086(6) 0.118(3) Uani 1 1 d D . . . .
F16_2 F 0.6306(9) 1.1404(7) 0.2216(5) 0.097(3) Uani 1 1 d D . . . .
F17_2 F 0.4903(13) 1.2959(6) 0.2584(7) 0.124(4) Uani 1 1 d D . . . .
F18_2 F 0.2844(12) 1.2754(8) 0.3717(8) 0.127(4) Uani 1 1 d D . . . .
F19_2 F 0.2144(9) 1.0978(10) 0.4541(7) 0.129(4) Uani 1 1 d D . . . .
F20_2 F 0.3524(10) 0.9401(6) 0.4188(7) 0.109(3) Uani 1 1 d D . . . .
N1_2 N 0.6484(7) 0.8420(6) 0.2128(5) 0.0640(19) Uani 1 1 d D . . . .
N2_2 N 0.8210(9) 0.6896(6) 0.1798(4) 0.0653(19) Uani 1 1 d D . . . .
N3_2 N 0.9124(8) 0.6727(6) 0.3245(5) 0.068(2) Uani 1 1 d D . . . .
N4_2 N 0.7452(9) 0.8302(6) 0.3564(4) 0.065(2) Uani 1 1 d D . . . .
N5_2 N 0.6338(9) 0.6626(7) 0.3269(7) 0.078(2) Uani 1 1 d D . . . .
C1_2 C 0.5740(11) 0.9174(7) 0.2363(6) 0.073(4) Uani 1 1 d D . . . .
C2_2 C 0.4827(11) 0.9540(10) 0.1829(7) 0.080(4) Uani 1 1 d D . . . .
H2_2 H 0.4179 1.0039 0.1874 0.096 Uiso 1 1 calc R U . . .
C3_2 C 0.5066(13) 0.9044(10) 0.1256(8) 0.089(5) Uani 1 1 d D . . . .
H3_2 H 0.4635 0.9143 0.0805 0.107 Uiso 1 1 calc R U . . .
C4_2 C 0.6084(12) 0.8333(9) 0.1437(6) 0.082(4) Uani 1 1 d D . . . .
C5_2 C 0.6589(10) 0.7694(7) 0.0961(5) 0.084(4) Uani 1 1 d D . . . .
C6_2 C 0.7624(10) 0.7053(8) 0.1129(6) 0.072(4) Uani 1 1 d D . . . .
C7_2 C 0.8202(12) 0.6436(8) 0.0610(7) 0.072(4) Uani 1 1 d D . . . .
H7_2 H 0.7980 0.6425 0.0106 0.087 Uiso 1 1 calc R U . . .
C8_2 C 0.9109(12) 0.5882(9) 0.0968(6) 0.074(4) Uani 1 1 d D . . . .
H8_2 H 0.9644 0.5390 0.0774 0.088 Uiso 1 1 calc R U . . .
C9_2 C 0.9125(10) 0.6168(7) 0.1702(6) 0.071(4) Uani 1 1 d D . . . .
C10_2 C 0.9875(11) 0.5732(7) 0.2280(5) 0.074(4) Uani 1 1 d D . . . .
C11_2 C 0.9872(10) 0.5978(7) 0.3004(6) 0.072(4) Uani 1 1 d D . . . .
C12_2 C 1.0699(13) 0.5528(10) 0.3573(7) 0.079(4) Uani 1 1 d D . . . .
H12_2 H 1.1299 0.4999 0.3540 0.095 Uiso 1 1 calc R U . . .
C13_2 C 1.0452(13) 0.6005(9) 0.4159(8) 0.089(5) Uani 1 1 d D . . . .
H13_2 H 1.0862 0.5882 0.4620 0.107 Uiso 1 1 calc R U . . .
C14_2 C 0.9460(11) 0.6735(8) 0.3972(5) 0.072(3) Uani 1 1 d D . . . .
C15_2 C 0.8994(9) 0.7422(7) 0.4407(4) 0.077(4) Uani 1 1 d D . . . .
C16_2 C 0.8050(9) 0.8140(7) 0.4228(5) 0.065(3) Uani 1 1 d D . . . .
C17_2 C 0.7587(12) 0.8853(8) 0.4681(7) 0.076(4) Uani 1 1 d D . . . .
H17_2 H 0.7871 0.8923 0.5152 0.091 Uiso 1 1 calc R U . . .
C18_2 C 0.6683(12) 0.9401(10) 0.4314(6) 0.079(4) Uani 1 1 d D . . . .
H18_2 H 0.6172 0.9911 0.4495 0.095 Uiso 1 1 calc R U . . .
C19_2 C 0.6612(10) 0.9089(7) 0.3597(6) 0.072(4) Uani 1 1 d D . . . .
C20_2 C 0.5815(10) 0.9503(7) 0.3041(5) 0.073(4) Uani 1 1 d D . . . .
F1B_2 F 0.747(2) 0.9166(16) -0.0524(9) 0.100(2) Uani 0.313(7) 1 d D . P B 1
F2B_2 F 0.639(2) 0.9305(12) -0.1848(8) 0.098(2) Uani 0.313(7) 1 d D . P B 1
F3B_2 F 0.4579(16) 0.8090(12) -0.1846(7) 0.0842(18) Uani 0.313(7) 1 d D . P B 1
F4B_2 F 0.386(2) 0.6716(14) -0.0537(8) 0.109(2) Uani 0.313(7) 1 d D . P B 1
F5B_2 F 0.471(2) 0.6722(16) 0.0834(6) 0.096(2) Uani 0.313(7) 1 d D . P B 1
C21B_2 C 0.6035(15) 0.7999(10) 0.0184(5) 0.064(2) Uani 0.313(7) 1 d DG . P B 1
C22B_2 C 0.6525(19) 0.8618(13) -0.0521(7) 0.075(3) Uani 0.313(7) 1 d DG . P B 1
C23B_2 C 0.6113(18) 0.8590(14) -0.1231(6) 0.070(3) Uani 0.313(7) 1 d DG . P B 1
C24B_2 C 0.521(2) 0.7942(14) -0.1235(6) 0.074(3) Uani 0.313(7) 1 d DG . P B 1
C25B_2 C 0.472(2) 0.7322(16) -0.0530(7) 0.085(3) Uani 0.313(7) 1 d DG . P B 1
C26B_2 C 0.5133(19) 0.7351(14) 0.0180(6) 0.083(3) Uani 0.313(7) 1 d DG . P B 1
F1_2 F 0.7110(12) 0.8925(8) -0.0545(6) 0.100(2) Uani 0.687(7) 1 d D . P B 2
F2_2 F 0.5890(11) 0.8907(7) -0.1782(4) 0.098(2) Uani 0.687(7) 1 d D . P B 2
F3_2 F 0.4144(9) 0.7588(6) -0.1640(4) 0.0842(18) Uani 0.687(7) 1 d D . P B 2
F4_2 F 0.3729(12) 0.6207(7) -0.0295(5) 0.109(2) Uani 0.687(7) 1 d D . P B 2
F5_2 F 0.4867(12) 0.6247(7) 0.0971(4) 0.096(2) Uani 0.687(7) 1 d D . P B 2
C21_2 C 0.5977(10) 0.7614(7) 0.0247(4) 0.064(2) Uani 0.687(7) 1 d DG . P B 2
C22_2 C 0.6240(11) 0.8291(7) -0.0464(6) 0.075(3) Uani 0.687(7) 1 d DG . P B 2
C23_2 C 0.5628(13) 0.8272(8) -0.1106(4) 0.070(3) Uani 0.687(7) 1 d DG . P B 2
C24_2 C 0.4752(13) 0.7577(9) -0.1037(5) 0.074(3) Uani 0.687(7) 1 d DG . P B 2
C25_2 C 0.4489(13) 0.6901(8) -0.0326(6) 0.085(3) Uani 0.687(7) 1 d DG . P B 2
C26_2 C 0.5102(13) 0.6919(7) 0.0315(4) 0.083(3) Uani 0.687(7) 1 d DG . P B 2
C27_2 C 1.0732(9) 0.4860(6) 0.2126(7) 0.077(4) Uani 1 1 d DG . . . .
C28_2 C 1.1814(10) 0.4997(5) 0.1540(6) 0.092(5) Uani 1 1 d DG . . . .
C29_2 C 1.2577(9) 0.4211(8) 0.1357(6) 0.097(5) Uani 1 1 d DG . . . .
C30_2 C 1.2257(11) 0.3288(6) 0.1761(7) 0.106(6) Uani 1 1 d DG . . . .
C31_2 C 1.1175(11) 0.3151(5) 0.2347(7) 0.095(5) Uani 1 1 d DG . . . .
C32_2 C 1.0413(9) 0.3937(7) 0.2530(6) 0.097(5) Uani 1 1 d DG . . . .
F11B_2 F 1.058(2) 0.8864(12) 0.4443(7) 0.0908(19) Uani 0.458(15) 1 d D . P C 1
F12B_2 F 1.1784(19) 0.8888(11) 0.5687(8) 0.104(2) Uani 0.458(15) 1 d D . P C 1
F13B_2 F 1.1476(17) 0.7466(12) 0.7010(7) 0.100(2) Uani 0.458(15) 1 d D . P C 1
F14B_2 F 0.987(2) 0.6058(12) 0.7126(7) 0.120(3) Uani 0.458(15) 1 d D . P C 1
F15B_2 F 0.858(2) 0.6060(15) 0.5916(10) 0.107(2) Uani 0.458(15) 1 d D . P C 1
C33B_2 C 0.9636(16) 0.7415(12) 0.5130(6) 0.075(3) Uani 0.458(15) 1 d DG . P C 1
C34B_2 C 1.045(2) 0.8146(11) 0.5073(7) 0.069(2) Uani 0.458(15) 1 d DG . P C 1
C35B_2 C 1.106(2) 0.8172(13) 0.5714(10) 0.076(3) Uani 0.458(15) 1 d DG . P C 1
C36B_2 C 1.086(2) 0.7467(15) 0.6411(8) 0.072(3) Uani 0.458(15) 1 d DG . P C 1
C37B_2 C 1.005(2) 0.6735(14) 0.6468(8) 0.088(4) Uani 0.458(15) 1 d DG . P C 1
C38B_2 C 0.943(2) 0.6710(13) 0.5828(9) 0.079(3) Uani 0.458(15) 1 d DG . P C 1
F11_2 F 1.0739(18) 0.8684(12) 0.4574(6) 0.0908(19) Uani 0.542(15) 1 d D . P C 2
F12_2 F 1.1738(16) 0.8562(10) 0.5922(7) 0.104(2) Uani 0.542(15) 1 d D . P C 2
F13_2 F 1.1170(15) 0.7089(10) 0.7181(5) 0.100(2) Uani 0.542(15) 1 d D . P C 2
F14_2 F 0.9487(17) 0.5798(10) 0.7132(7) 0.120(3) Uani 0.542(15) 1 d D . P C 2
F15_2 F 0.835(2) 0.5978(12) 0.5826(9) 0.107(2) Uani 0.542(15) 1 d D . P C 2
C33_2 C 0.9448(14) 0.7400(11) 0.5194(5) 0.075(3) Uani 0.542(15) 1 d DG . P C 2
C34_2 C 1.0341(17) 0.8042(10) 0.5225(6) 0.069(2) Uani 0.542(15) 1 d DG . P C 2
C35_2 C 1.0944(17) 0.7913(12) 0.5895(8) 0.076(3) Uani 0.542(15) 1 d DG . P C 2
C36_2 C 1.0653(18) 0.7143(13) 0.6533(7) 0.072(3) Uani 0.542(15) 1 d DG . P C 2
C37_2 C 0.976(2) 0.6501(12) 0.6502(7) 0.088(4) Uani 0.542(15) 1 d DG . P C 2
C38_2 C 0.9158(18) 0.6629(11) 0.5833(8) 0.079(3) Uani 0.542(15) 1 d DG . P C 2
C39_2 C 0.4938(9) 1.0366(5) 0.3196(6) 0.075(4) Uani 1 1 d DG . . . .
C40_2 C 0.5288(8) 1.1276(7) 0.2774(5) 0.079(4) Uani 1 1 d DG . . . .
C41_2 C 0.4569(11) 1.2082(5) 0.2951(7) 0.098(5) Uani 1 1 d DG . . . .
C42_2 C 0.3502(11) 1.1979(6) 0.3549(7) 0.099(5) Uani 1 1 d DG . . . .
C43_2 C 0.3152(9) 1.1070(8) 0.3971(6) 0.105(6) Uani 1 1 d DG . . . .
C44_2 C 0.3870(9) 1.0263(5) 0.3794(6) 0.079(4) Uani 1 1 d DG . . . .
C45_2 C 0.6470(15) 0.5690(8) 0.3232(11) 0.093(3) Uani 1 1 d D . . . .
H45_2 H 0.7268 0.5462 0.2975 0.111 Uiso 1 1 calc R U . . .
C46_2 C 0.5500(15) 0.5034(13) 0.3551(11) 0.113(4) Uani 1 1 d D . . . .
H46_2 H 0.5613 0.4407 0.3449 0.136 Uiso 1 1 calc R U . . .
C47_2 C 0.4373(18) 0.5301(12) 0.4017(12) 0.118(5) Uani 1 1 d D . . . .
H47_2 H 0.3714 0.4867 0.4255 0.141 Uiso 1 1 calc R U . . .
C48_2 C 0.4275(18) 0.6246(13) 0.4111(11) 0.118(5) Uani 1 1 d D . . . .
H48_2 H 0.3554 0.6460 0.4447 0.142 Uiso 1 1 calc R U . . .
C49_2 C 0.5236(12) 0.6884(13) 0.3712(10) 0.104(4) Uani 1 1 d D . . . .
H49_2 H 0.5102 0.7534 0.3757 0.124 Uiso 1 1 calc R U . . .
C50_2 C 0.9097(19) 0.8456(17) 0.2152(11) 0.071(3) Uani 0.562(11) 1 d D U P D 1
C51_2 C 1.0179(16) 0.8724(17) 0.2506(14) 0.082(5) Uani 0.562(11) 1 d D U P D 1
H51_2 H 1.0126 0.8378 0.3078 0.099 Uiso 0.562(11) 1 calc R U P D 1
C52_2 C 0.914(2) 0.8963(14) 0.1292(10) 0.082(5) Uani 0.562(11) 1 d D U P D 1
H52_2 H 0.8423 0.8750 0.1072 0.099 Uiso 0.562(11) 1 calc R U P D 1
C53_2 C 1.143(3) 0.844(3) 0.2036(12) 0.105(8) Uani 0.562(11) 1 d D U P D 1
H53A_2 H 1.2169 0.8592 0.2263 0.126 Uiso 0.562(11) 1 calc R U P D 1
H53B_2 H 1.1483 0.7747 0.2052 0.126 Uiso 0.562(11) 1 calc R U P D 1
C54_2 C 1.000(4) 0.9788(16) 0.2450(15) 0.102(8) Uani 0.562(11) 1 d D U P D 1
H54A_2 H 1.0704 0.9999 0.2670 0.122 Uiso 0.562(11) 1 calc R U P D 1
H54B_2 H 0.9174 0.9927 0.2781 0.122 Uiso 0.562(11) 1 calc R U P D 1
C55_2 C 1.0413(18) 0.872(3) 0.0826(18) 0.108(9) Uani 0.562(11) 1 d D U P D 1
H55A_2 H 1.0505 0.8022 0.0843 0.130 Uiso 0.562(11) 1 calc R U P D 1
H55B_2 H 1.0466 0.9066 0.0262 0.130 Uiso 0.562(11) 1 calc R U P D 1
C56_2 C 0.894(2) 1.0018(14) 0.1274(17) 0.082(7) Uani 0.562(11) 1 d D U P D 1
H56A_2 H 0.8930 1.0378 0.0718 0.098 Uiso 0.562(11) 1 calc R U P D 1
H56B_2 H 0.8092 1.0145 0.1591 0.098 Uiso 0.562(11) 1 calc R U P D 1
C57_2 C 1.147(3) 0.9006(18) 0.1192(13) 0.100(7) Uani 0.562(11) 1 d D U P D 1
H57_2 H 1.2324 0.8878 0.0873 0.120 Uiso 0.562(11) 1 calc R U P D 1
C58_2 C 0.999(2) 1.0352(19) 0.1610(13) 0.095(6) Uani 0.562(11) 1 d D U P D 1
H58_2 H 0.9902 1.1059 0.1581 0.114 Uiso 0.562(11) 1 calc R U P D 1
C59_2 C 1.125(3) 1.0065(19) 0.115(2) 0.103(9) Uani 0.562(11) 1 d D U P D 1
H59A_2 H 1.1966 1.0286 0.1355 0.123 Uiso 0.562(11) 1 calc R U P D 1
H59B_2 H 1.1288 1.0401 0.0583 0.123 Uiso 0.562(11) 1 calc R U P D 1
C50B_2 C 0.9063(18) 0.8479(14) 0.214(2) 0.071(3) Uani 0.438(11) 1 d D . P D 2
C51B_2 C 1.0477(19) 0.826(3) 0.1893(15) 0.082(5) Uani 0.438(11) 1 d D . P D 2
H51B_2 H 1.0616 0.7545 0.2013 0.099 Uiso 0.438(11) 1 calc R U P D 2
C52B_2 C 0.888(3) 0.9548(15) 0.2045(14) 0.082(5) Uani 0.438(11) 1 d D . P D 2
H52B_2 H 0.7961 0.9743 0.2211 0.099 Uiso 0.438(11) 1 calc R U P D 2
C53B_2 C 1.084(5) 0.860(2) 0.1006(15) 0.105(8) Uani 0.438(11) 1 d D . P D 2
H53C_2 H 1.1746 0.8396 0.0826 0.126 Uiso 0.438(11) 1 calc R U P D 2
H53D_2 H 1.0263 0.8360 0.0713 0.126 Uiso 0.438(11) 1 calc R U P D 2
C54B_2 C 1.136(4) 0.8637(18) 0.233(3) 0.102(8) Uani 0.438(11) 1 d D . P D 2
H54C_2 H 1.1179 0.8341 0.2907 0.122 Uiso 0.438(11) 1 calc R U P D 2
H54D_2 H 1.2268 0.8468 0.2130 0.122 Uiso 0.438(11) 1 calc R U P D 2
C55B_2 C 0.934(3) 1.003(4) 0.1192(17) 0.108(9) Uani 0.438(11) 1 d D . P D 2
H55C_2 H 0.9328 1.0728 0.1145 0.130 Uiso 0.438(11) 1 calc R U P D 2
H55D_2 H 0.8740 0.9904 0.0852 0.130 Uiso 0.438(11) 1 calc R U P D 2
C56B_2 C 0.975(2) 0.990(3) 0.2508(19) 0.082(7) Uani 0.438(11) 1 d D . P D 2
H56C_2 H 0.9556 0.9577 0.3078 0.098 Uiso 0.438(11) 1 calc R U P D 2
H56D_2 H 0.9572 1.0598 0.2467 0.098 Uiso 0.438(11) 1 calc R U P D 2
C57B_2 C 1.068(3) 0.967(2) 0.089(2) 0.100(7) Uani 0.438(11) 1 d D . P D 2
H57B_2 H 1.0887 0.9964 0.0310 0.120 Uiso 0.438(11) 1 calc R U P D 2
C58B_2 C 1.115(3) 0.9708(18) 0.2204(17) 0.095(6) Uani 0.438(11) 1 d D . P D 2
H58B_2 H 1.1707 0.9964 0.2510 0.114 Uiso 0.438(11) 1 calc R U P D 2
C59B_2 C 1.149(4) 1.013(3) 0.1327(15) 0.103(9) Uani 0.438(11) 1 d D . P D 2
H59C_2 H 1.2417 0.9994 0.1146 0.123 Uiso 0.438(11) 1 calc R U P D 2
H59D_2 H 1.1310 1.0830 0.1216 0.123 Uiso 0.438(11) 1 calc R U P D 2
loop_
_atom_site_aniso_label
_atom_site_aniso_U_11
_atom_site_aniso_U_22
_atom_site_aniso_U_33
_atom_site_aniso_U_23
_atom_site_aniso_U_13
_atom_site_aniso_U_12
Fe1_1 0.0538(9) 0.0587(9) 0.0661(10) -0.0090(7) -0.0095(7) -0.0098(7)
F1_1 0.102(6) 0.079(4) 0.125(5) -0.004(4) -0.049(4) -0.030(4)
F2_1 0.110(6) 0.093(5) 0.102(5) -0.024(4) -0.028(4) -0.039(4)
F3_1 0.096(5) 0.076(4) 0.083(4) -0.019(3) -0.007(4) -0.025(3)
F4_1 0.131(6) 0.094(5) 0.100(5) 0.012(4) -0.040(5) -0.033(5)
F5_1 0.100(5) 0.096(5) 0.097(5) -0.006(4) -0.039(4) -0.023(4)
F6_1 0.098(7) 0.141(8) 0.080(6) -0.002(6) -0.017(5) 0.030(6)
F7_1 0.088(7) 0.180(11) 0.122(9) -0.048(8) -0.024(6) 0.051(7)
F8_1 0.080(6) 0.157(9) 0.103(7) -0.033(6) 0.010(5) 0.003(6)
F9_1 0.117(8) 0.148(9) 0.066(5) -0.010(5) -0.012(5) -0.031(7)
F10_1 0.100(6) 0.083(5) 0.084(5) -0.012(4) -0.018(5) -0.001(5)
F11_1 0.085(4) 0.092(4) 0.094(4) 0.000(3) -0.032(4) -0.013(4)
F12_1 0.129(6) 0.082(5) 0.096(5) -0.003(4) -0.023(5) -0.016(4)
F13_1 0.119(6) 0.089(5) 0.092(5) -0.014(4) -0.010(4) -0.035(4)
F14_1 0.117(7) 0.116(6) 0.133(6) -0.002(5) -0.053(5) -0.043(5)
F15_1 0.117(6) 0.105(5) 0.101(5) 0.000(4) -0.045(4) -0.024(4)
F16_1 0.097(6) 0.090(5) 0.082(5) 0.000(4) -0.033(5) -0.012(5)
F17_1 0.112(7) 0.139(8) 0.077(6) -0.010(5) 0.009(5) -0.034(6)
F18_1 0.086(6) 0.166(10) 0.100(7) -0.051(7) 0.025(6) -0.028(6)
F19_1 0.060(5) 0.113(7) 0.135(8) -0.034(6) -0.005(5) 0.010(5)
F20_1 0.087(6) 0.094(6) 0.078(5) -0.007(4) -0.019(4) 0.014(5)
N1_1 0.048(4) 0.072(5) 0.070(5) -0.015(4) -0.002(4) -0.009(4)
N2_1 0.069(5) 0.062(4) 0.066(4) -0.007(3) -0.017(4) -0.013(4)
N3_1 0.061(5) 0.074(5) 0.066(4) 0.000(4) -0.021(4) -0.011(4)
N4_1 0.053(4) 0.070(4) 0.070(5) -0.007(4) -0.012(4) -0.006(4)
N5_1 0.070(5) 0.076(5) 0.090(6) -0.021(4) -0.008(4) -0.015(4)
C1_1 0.047(7) 0.072(8) 0.075(8) -0.008(7) -0.011(6) -0.007(6)
C2_1 0.054(8) 0.063(7) 0.095(10) -0.022(7) -0.008(7) -0.008(6)
C3_1 0.050(7) 0.071(8) 0.065(7) -0.012(6) -0.005(6) 0.002(6)
C4_1 0.057(7) 0.058(7) 0.071(8) -0.009(6) -0.027(6) -0.007(6)
C5_1 0.053(7) 0.077(8) 0.062(7) -0.013(6) -0.009(6) -0.017(6)
C6_1 0.052(7) 0.060(7) 0.072(7) -0.025(6) -0.009(6) -0.018(5)
C7_1 0.057(8) 0.089(10) 0.079(9) -0.022(7) 0.000(6) -0.031(7)
C8_1 0.059(8) 0.080(9) 0.099(10) -0.030(8) 0.013(7) -0.031(7)
C9_1 0.059(8) 0.066(7) 0.063(7) -0.019(6) -0.016(6) 0.002(6)
C10_1 0.073(9) 0.067(8) 0.070(8) -0.015(6) -0.006(7) -0.013(7)
C11_1 0.060(8) 0.053(6) 0.063(7) -0.021(6) -0.011(6) -0.001(6)
C12_1 0.085(10) 0.077(9) 0.052(7) -0.015(6) -0.003(7) -0.004(8)
C13_1 0.085(10) 0.052(7) 0.091(10) -0.026(7) -0.013(8) -0.015(7)
C14_1 0.058(7) 0.059(7) 0.068(7) -0.013(6) -0.014(6) -0.011(6)
C15_1 0.045(7) 0.073(8) 0.072(8) -0.023(6) -0.001(6) -0.017(6)
C16_1 0.050(7) 0.065(7) 0.074(8) -0.007(6) -0.017(6) -0.014(6)
C17_1 0.060(8) 0.063(7) 0.091(9) -0.015(7) -0.016(7) -0.018(6)
C18_1 0.059(8) 0.075(8) 0.081(9) -0.016(7) 0.006(7) -0.017(7)
C19_1 0.044(6) 0.065(7) 0.073(8) 0.002(6) -0.014(6) -0.011(6)
C20_1 0.050(7) 0.062(7) 0.067(7) -0.001(6) -0.012(6) -0.006(6)
C21_1 0.066(6) 0.060(6) 0.068(6) -0.018(5) -0.011(5) -0.012(5)
C22_1 0.070(7) 0.071(7) 0.088(7) -0.019(6) -0.013(6) -0.013(5)
C23_1 0.089(8) 0.061(6) 0.072(6) -0.022(5) -0.020(6) -0.019(5)
C24_1 0.086(8) 0.074(7) 0.060(6) -0.013(5) 0.000(6) -0.016(6)
C25_1 0.076(8) 0.077(8) 0.102(9) -0.018(7) -0.011(7) -0.018(6)
C26_1 0.079(7) 0.090(9) 0.075(7) -0.012(6) -0.005(6) -0.013(7)
C27_1 0.074(9) 0.065(7) 0.076(9) -0.028(6) -0.001(7) -0.014(7)
C28_1 0.075(10) 0.125(13) 0.065(9) 0.006(9) -0.018(8) 0.016(9)
C29_1 0.072(10) 0.127(14) 0.086(11) -0.033(10) -0.006(9) 0.012(10)
C30_1 0.055(8) 0.098(10) 0.091(11) -0.024(8) -0.010(8) 0.000(8)
C31_1 0.087(11) 0.087(10) 0.073(9) -0.022(7) 0.007(8) -0.035(9)
C32_1 0.061(8) 0.069(8) 0.071(8) -0.004(6) -0.011(7) -0.009(7)
C33_1 0.058(6) 0.087(7) 0.073(6) -0.012(5) -0.001(5) -0.006(5)
C34_1 0.066(6) 0.082(6) 0.061(6) -0.015(5) -0.009(5) -0.014(5)
C35_1 0.091(8) 0.063(7) 0.065(7) -0.009(5) 0.005(6) -0.008(6)
C36_1 0.070(7) 0.075(7) 0.079(7) -0.026(6) -0.004(6) -0.027(6)
C37_1 0.086(9) 0.099(9) 0.071(7) 0.000(6) -0.015(6) -0.010(7)
C38_1 0.075(8) 0.082(7) 0.085(7) -0.019(6) -0.021(6) -0.015(6)
C39_1 0.069(8) 0.070(8) 0.062(7) -0.003(6) -0.010(6) -0.013(7)
C40_1 0.075(9) 0.073(8) 0.071(8) -0.021(7) -0.019(7) -0.001(7)
C41_1 0.078(10) 0.102(11) 0.077(10) -0.017(8) -0.008(8) -0.032(9)
C42_1 0.062(9) 0.094(10) 0.109(13) -0.047(10) 0.020(9) -0.020(8)
C43_1 0.048(7) 0.086(9) 0.089(10) -0.020(8) -0.016(7) -0.009(7)
C44_1 0.066(8) 0.061(7) 0.080(9) -0.023(7) -0.007(7) -0.007(6)
C45_1 0.087(8) 0.087(7) 0.106(9) -0.024(6) -0.016(6) -0.008(6)
C46_1 0.112(10) 0.105(9) 0.124(11) -0.005(8) -0.039(9) -0.020(8)
C47_1 0.093(9) 0.129(11) 0.114(10) 0.001(9) 0.002(8) -0.026(8)
C48_1 0.103(10) 0.154(13) 0.091(9) -0.024(9) -0.002(8) -0.006(10)
C49_1 0.075(7) 0.129(10) 0.107(9) -0.033(8) 0.001(7) -0.016(7)
C50_1 0.052(6) 0.063(7) 0.088(8) -0.037(6) 0.002(6) -0.011(6)
C51_1 0.064(10) 0.086(11) 0.088(11) -0.032(9) -0.012(9) 0.005(9)
C52_1 0.059(9) 0.087(11) 0.081(11) -0.013(9) -0.021(8) -0.012(8)
C53_1 0.045(10) 0.129(18) 0.116(16) -0.022(14) -0.009(10) -0.025(11)
C54_1 0.096(14) 0.067(11) 0.090(13) -0.017(10) -0.023(11) -0.023(10)
C55_1 0.106(18) 0.067(12) 0.099(16) -0.017(11) -0.029(13) 0.003(11)
C56_1 0.086(14) 0.099(17) 0.103(16) 0.004(14) -0.011(13) -0.013(12)
C57_1 0.047(9) 0.098(12) 0.081(11) -0.028(9) -0.013(8) -0.003(8)
C58_1 0.070(11) 0.111(14) 0.091(12) 0.017(11) -0.024(10) 0.004(11)
C59_1 0.070(9) 0.095(14) 0.107(12) -0.002(11) -0.021(9) -0.010(9)
C50B_1 0.052(6) 0.063(7) 0.088(8) -0.037(6) 0.002(6) -0.011(6)
C51B_1 0.064(10) 0.086(11) 0.088(11) -0.032(9) -0.012(9) 0.005(9)
C52B_1 0.059(9) 0.087(11) 0.081(11) -0.013(9) -0.021(8) -0.012(8)
C53B_1 0.045(10) 0.129(18) 0.116(16) -0.022(14) -0.009(10) -0.025(11)
C54B_1 0.096(14) 0.067(11) 0.090(13) -0.017(10) -0.023(11) -0.023(10)
C55B_1 0.106(18) 0.067(12) 0.099(16) -0.017(11) -0.029(13) 0.003(11)
C56B_1 0.086(14) 0.099(17) 0.103(16) 0.004(14) -0.011(13) -0.013(12)
C57B_1 0.047(9) 0.098(12) 0.081(11) -0.028(9) -0.013(8) -0.003(8)
C58B_1 0.070(11) 0.111(14) 0.091(12) 0.017(11) -0.024(10) 0.004(11)
C59B_1 0.070(9) 0.095(14) 0.107(12) -0.002(11) -0.021(9) -0.010(9)
Fe1_2 0.0576(9) 0.0752(12) 0.0634(10) 0.0010(8) -0.0122(8) -0.0098(8)
F6_2 0.086(7) 0.096(7) 0.149(10) -0.009(6) -0.009(6) -0.018(5)
F7_2 0.103(8) 0.153(10) 0.153(10) -0.062(8) -0.003(7) 0.012(7)
F8_2 0.173(12) 0.110(8) 0.149(10) -0.059(7) -0.048(9) 0.043(8)
F9_2 0.154(10) 0.074(6) 0.152(10) 0.002(6) -0.034(8) -0.012(6)
F10_2 0.109(8) 0.109(7) 0.122(8) -0.003(6) 0.000(6) -0.022(6)
F16_2 0.106(7) 0.092(6) 0.081(5) -0.001(4) 0.002(5) -0.025(5)
F17_2 0.167(11) 0.071(5) 0.127(8) -0.001(5) -0.032(8) -0.005(6)
F18_2 0.138(10) 0.127(8) 0.129(8) -0.050(7) -0.051(7) 0.044(7)
F19_2 0.075(6) 0.171(11) 0.134(9) -0.038(8) 0.002(6) 0.017(7)
F20_2 0.080(6) 0.098(6) 0.125(8) 0.003(6) 0.015(6) -0.009(5)
N1_2 0.048(4) 0.072(5) 0.070(5) -0.015(4) -0.002(4) -0.009(4)
N2_2 0.069(5) 0.062(4) 0.066(4) -0.007(3) -0.017(4) -0.013(4)
N3_2 0.061(5) 0.074(5) 0.066(4) 0.000(4) -0.021(4) -0.011(4)
N4_2 0.053(4) 0.070(4) 0.070(5) -0.007(4) -0.012(4) -0.006(4)
N5_2 0.070(5) 0.076(5) 0.090(6) -0.021(4) -0.008(4) -0.015(4)
C1_2 0.074(9) 0.074(8) 0.070(8) -0.004(7) -0.019(7) -0.017(7)
C2_2 0.046(7) 0.087(10) 0.101(11) -0.014(8) -0.010(7) 0.000(7)
C3_2 0.068(9) 0.122(13) 0.079(10) -0.020(9) -0.022(8) 0.010(9)
C4_2 0.065(8) 0.122(12) 0.051(7) -0.001(8) -0.022(6) 0.013(8)
C5_2 0.085(10) 0.103(11) 0.063(8) -0.006(8) -0.027(8) 0.007(9)
C6_2 0.073(9) 0.085(9) 0.058(7) -0.009(7) -0.017(7) -0.002(7)
C7_2 0.066(9) 0.086(9) 0.060(7) -0.001(7) -0.018(7) -0.002(7)
C8_2 0.078(9) 0.081(9) 0.062(8) -0.008(7) -0.015(7) -0.022(8)
C9_2 0.077(9) 0.068(8) 0.063(8) -0.006(6) -0.005(7) -0.017(7)
C10_2 0.063(8) 0.084(9) 0.073(9) -0.012(7) -0.015(7) -0.004(7)
C11_2 0.047(7) 0.077(8) 0.091(10) -0.005(7) -0.025(7) 0.002(6)
C12_2 0.086(10) 0.086(9) 0.064(8) -0.015(7) -0.020(7) 0.016(8)
C13_2 0.077(10) 0.104(11) 0.081(10) -0.001(9) -0.032(8) 0.008(8)
C14_2 0.063(8) 0.080(8) 0.067(8) -0.009(7) -0.014(6) 0.011(7)
C15_2 0.069(8) 0.098(10) 0.058(7) 0.010(7) -0.030(7) 0.001(8)
C16_2 0.061(8) 0.075(8) 0.058(7) -0.001(6) -0.009(6) -0.027(6)
C17_2 0.058(8) 0.090(9) 0.080(9) -0.010(8) -0.015(7) -0.014(7)
C18_2 0.060(8) 0.083(9) 0.088(10) -0.015(8) 0.006(8) -0.013(7)
C19_2 0.062(8) 0.071(8) 0.074(9) 0.002(7) 0.001(7) -0.023(7)
C20_2 0.072(9) 0.073(8) 0.070(8) -0.001(7) -0.017(7) -0.011(7)
F1B_2 0.102(6) 0.079(4) 0.125(5) -0.004(4) -0.049(4) -0.030(4)
F2B_2 0.110(6) 0.093(5) 0.102(5) -0.024(4) -0.028(4) -0.039(4)
F3B_2 0.096(5) 0.076(4) 0.083(4) -0.019(3) -0.007(4) -0.025(3)
F4B_2 0.131(6) 0.094(5) 0.100(5) 0.012(4) -0.040(5) -0.033(5)
F5B_2 0.100(5) 0.096(5) 0.097(5) -0.006(4) -0.039(4) -0.023(4)
C21B_2 0.066(6) 0.060(6) 0.068(6) -0.018(5) -0.011(5) -0.012(5)
C22B_2 0.070(7) 0.071(7) 0.088(7) -0.019(6) -0.013(6) -0.013(5)
C23B_2 0.089(8) 0.061(6) 0.072(6) -0.022(5) -0.020(6) -0.019(5)
C24B_2 0.086(8) 0.074(7) 0.060(6) -0.013(5) 0.000(6) -0.016(6)
C25B_2 0.076(8) 0.077(8) 0.102(9) -0.018(7) -0.011(7) -0.018(6)
C26B_2 0.079(7) 0.090(9) 0.075(7) -0.012(6) -0.005(6) -0.013(7)
F1_2 0.102(6) 0.079(4) 0.125(5) -0.004(4) -0.049(4) -0.030(4)
F2_2 0.110(6) 0.093(5) 0.102(5) -0.024(4) -0.028(4) -0.039(4)
F3_2 0.096(5) 0.076(4) 0.083(4) -0.019(3) -0.007(4) -0.025(3)
F4_2 0.131(6) 0.094(5) 0.100(5) 0.012(4) -0.040(5) -0.033(5)
F5_2 0.100(5) 0.096(5) 0.097(5) -0.006(4) -0.039(4) -0.023(4)
C21_2 0.066(6) 0.060(6) 0.068(6) -0.018(5) -0.011(5) -0.012(5)
C22_2 0.070(7) 0.071(7) 0.088(7) -0.019(6) -0.013(6) -0.013(5)
C23_2 0.089(8) 0.061(6) 0.072(6) -0.022(5) -0.020(6) -0.019(5)
C24_2 0.086(8) 0.074(7) 0.060(6) -0.013(5) 0.000(6) -0.016(6)
C25_2 0.076(8) 0.077(8) 0.102(9) -0.018(7) -0.011(7) -0.018(6)
C26_2 0.079(7) 0.090(9) 0.075(7) -0.012(6) -0.005(6) -0.013(7)
C27_2 0.062(8) 0.086(10) 0.083(9) -0.007(8) -0.024(7) -0.001(7)
C28_2 0.077(10) 0.102(12) 0.105(12) -0.032(10) -0.024(10) -0.007(9)
C29_2 0.091(12) 0.115(14) 0.090(11) -0.040(10) -0.019(10) 0.017(11)
C30_2 0.147(19) 0.096(12) 0.090(12) -0.021(10) -0.066(13) 0.015(13)
C31_2 0.092(12) 0.086(11) 0.113(14) -0.013(10) -0.050(11) 0.002(9)
C32_2 0.101(13) 0.093(11) 0.105(13) -0.027(10) -0.029(11) -0.009(10)
F11B_2 0.085(4) 0.092(4) 0.094(4) 0.000(3) -0.032(4) -0.013(4)
F12B_2 0.129(6) 0.082(5) 0.096(5) -0.003(4) -0.023(5) -0.016(4)
F13B_2 0.119(6) 0.089(5) 0.092(5) -0.014(4) -0.010(4) -0.035(4)
F14B_2 0.117(7) 0.116(6) 0.133(6) -0.002(5) -0.053(5) -0.043(5)
F15B_2 0.117(6) 0.105(5) 0.101(5) 0.000(4) -0.045(4) -0.024(4)
C33B_2 0.058(6) 0.087(7) 0.073(6) -0.012(5) -0.001(5) -0.006(5)
C34B_2 0.066(6) 0.082(6) 0.061(6) -0.015(5) -0.009(5) -0.014(5)
C35B_2 0.091(8) 0.063(7) 0.065(7) -0.009(5) 0.005(6) -0.008(6)
C36B_2 0.070(7) 0.075(7) 0.079(7) -0.026(6) -0.004(6) -0.027(6)
C37B_2 0.086(9) 0.099(9) 0.071(7) 0.000(6) -0.015(6) -0.010(7)
C38B_2 0.075(8) 0.082(7) 0.085(7) -0.019(6) -0.021(6) -0.015(6)
F11_2 0.085(4) 0.092(4) 0.094(4) 0.000(3) -0.032(4) -0.013(4)
F12_2 0.129(6) 0.082(5) 0.096(5) -0.003(4) -0.023(5) -0.016(4)
F13_2 0.119(6) 0.089(5) 0.092(5) -0.014(4) -0.010(4) -0.035(4)
F14_2 0.117(7) 0.116(6) 0.133(6) -0.002(5) -0.053(5) -0.043(5)
F15_2 0.117(6) 0.105(5) 0.101(5) 0.000(4) -0.045(4) -0.024(4)
C33_2 0.058(6) 0.087(7) 0.073(6) -0.012(5) -0.001(5) -0.006(5)
C34_2 0.066(6) 0.082(6) 0.061(6) -0.015(5) -0.009(5) -0.014(5)
C35_2 0.091(8) 0.063(7) 0.065(7) -0.009(5) 0.005(6) -0.008(6)
C36_2 0.070(7) 0.075(7) 0.079(7) -0.026(6) -0.004(6) -0.027(6)
C37_2 0.086(9) 0.099(9) 0.071(7) 0.000(6) -0.015(6) -0.010(7)
C38_2 0.075(8) 0.082(7) 0.085(7) -0.019(6) -0.021(6) -0.015(6)
C39_2 0.066(9) 0.091(10) 0.072(9) -0.022(7) -0.013(7) -0.006(7)
C40_2 0.074(9) 0.075(9) 0.089(10) -0.009(8) -0.030(8) -0.006(8)
C41_2 0.122(15) 0.080(10) 0.094(12) -0.003(9) -0.037(11) -0.015(10)
C42_2 0.095(13) 0.090(11) 0.114(14) -0.034(10) -0.019(11) 0.023(10)
C43_2 0.066(10) 0.148(17) 0.106(13) -0.028(13) -0.036(10) 0.005(11)
C44_2 0.062(8) 0.093(10) 0.082(10) -0.014(8) -0.019(7) 0.003(8)
C45_2 0.087(8) 0.087(7) 0.106(9) -0.024(6) -0.016(6) -0.008(6)
C46_2 0.112(10) 0.105(9) 0.124(11) -0.005(8) -0.039(9) -0.020(8)
C47_2 0.093(9) 0.129(11) 0.114(10) 0.001(9) 0.002(8) -0.026(8)
C48_2 0.103(10) 0.154(13) 0.091(9) -0.024(9) -0.002(8) -0.006(10)
C49_2 0.075(7) 0.129(10) 0.107(9) -0.033(8) 0.001(7) -0.016(7)
C50_2 0.069(8) 0.082(8) 0.062(7) -0.012(6) -0.018(6) 0.000(7)
C51_2 0.049(9) 0.114(14) 0.085(12) -0.018(10) -0.010(9) -0.017(10)
C52_2 0.070(11) 0.098(12) 0.070(10) 0.009(9) -0.020(9) -0.015(10)
C53_2 0.074(14) 0.128(18) 0.108(17) -0.020(15) -0.010(14) 0.004(14)
C54_2 0.071(15) 0.115(18) 0.114(17) -0.013(15) -0.013(14) -0.014(13)
C55_2 0.082(17) 0.15(2) 0.079(14) -0.009(14) -0.001(12) 0.005(14)
C56_2 0.083(15) 0.076(12) 0.076(13) 0.006(10) -0.006(11) -0.017(11)
C57_2 0.079(13) 0.130(17) 0.075(12) 0.008(12) -0.005(10) -0.015(12)
C58_2 0.103(14) 0.088(12) 0.095(13) -0.007(10) -0.018(12) -0.040(11)
C59_2 0.093(15) 0.117(13) 0.092(16) 0.008(12) -0.017(14) -0.047(13)
C50B_2 0.069(8) 0.082(8) 0.062(7) -0.012(6) -0.018(6) 0.000(7)
C51B_2 0.049(9) 0.114(14) 0.085(12) -0.018(10) -0.010(9) -0.017(10)
C52B_2 0.070(11) 0.098(12) 0.070(10) 0.009(9) -0.020(9) -0.015(10)
C53B_2 0.074(14) 0.128(18) 0.108(17) -0.020(15) -0.010(14) 0.004(14)
C54B_2 0.071(15) 0.115(18) 0.114(17) -0.013(15) -0.013(14) -0.014(13)
C55B_2 0.082(17) 0.15(2) 0.079(14) -0.009(14) -0.001(12) 0.005(14)
C56B_2 0.083(15) 0.076(12) 0.076(13) 0.006(10) -0.006(11) -0.017(11)
C57B_2 0.079(13) 0.130(17) 0.075(12) 0.008(12) -0.005(10) -0.015(12)
C58B_2 0.103(14) 0.088(12) 0.095(13) -0.007(10) -0.018(12) -0.040(11)
C59B_2 0.093(15) 0.117(13) 0.092(16) 0.008(12) -0.017(14) -0.047(13)
loop_
_atom_type_symbol
_atom_type_description
_atom_type_scat_dispersion_real
_atom_type_scat_dispersion_imag
_atom_type_scat_source
C C 0.0137 0.0067 'International Tables Vol C Tables 4.2.6.8 and 6.1.1.4'
H H 0.0000 0.0000 'International Tables Vol C Tables 4.2.6.8 and 6.1.1.4'
F F 0.0583 0.0400 'International Tables Vol C Tables 4.2.6.8 and 6.1.1.4'
Fe Fe -0.2673 2.5550 'International Tables Vol C Tables 4.2.6.8 and 6.1.1.4'
N N 0.0241 0.0134 'International Tables Vol C Tables 4.2.6.8 and 6.1.1.4'
loop_
_geom_angle_atom_site_label_1
_geom_angle_atom_site_label_2
_geom_angle_atom_site_label_3
_geom_angle
C50B_1 Fe1_1 N2_1 93.2(12)
C50_1 Fe1_1 N2_1 92.4(6)
C50B_1 Fe1_1 N1_1 92.9(14)
C50_1 Fe1_1 N1_1 89.6(7)
N2_1 Fe1_1 N1_1 91.0(3)
C50B_1 Fe1_1 N4_1 91.7(12)
C50_1 Fe1_1 N4_1 92.4(6)
N2_1 Fe1_1 N4_1 175.1(5)
N1_1 Fe1_1 N4_1 89.3(3)
C50B_1 Fe1_1 N3_1 89.9(14)
C50_1 Fe1_1 N3_1 93.3(7)
N2_1 Fe1_1 N3_1 89.6(3)
N1_1 Fe1_1 N3_1 177.0(5)
N4_1 Fe1_1 N3_1 89.8(3)
C50B_1 Fe1_1 N5_1 176.9(16)
C50_1 Fe1_1 N5_1 178.4(7)
N2_1 Fe1_1 N5_1 88.8(4)
N1_1 Fe1_1 N5_1 89.4(4)
N4_1 Fe1_1 N5_1 86.3(4)
N3_1 Fe1_1 N5_1 87.7(4)
C1_1 N1_1 C4_1 105.1(5)
C1_1 N1_1 Fe1_1 127.9(5)
C4_1 N1_1 Fe1_1 126.7(5)
C6_1 N2_1 C9_1 105.3(5)
C6_1 N2_1 Fe1_1 126.6(5)
C9_1 N2_1 Fe1_1 127.8(5)
C14_1 N3_1 C11_1 105.3(5)
C14_1 N3_1 Fe1_1 127.6(5)
C11_1 N3_1 Fe1_1 127.1(5)
C16_1 N4_1 C19_1 104.7(5)
C16_1 N4_1 Fe1_1 127.3(5)
C19_1 N4_1 Fe1_1 127.8(5)
C45_1 N5_1 C49_1 114.1(12)
C45_1 N5_1 Fe1_1 122.6(9)
C49_1 N5_1 Fe1_1 123.2(9)
N1_1 C1_1 C20_1 124.9(7)
N1_1 C1_1 C2_1 109.9(6)
C20_1 C1_1 C2_1 125.1(7)
C3_1 C2_1 C1_1 107.6(8)
C3_1 C2_1 H2_1 126.2
C1_1 C2_1 H2_1 126.2
C2_1 C3_1 C4_1 107.0(8)
C2_1 C3_1 H3_1 126.5
C4_1 C3_1 H3_1 126.5
N1_1 C4_1 C5_1 124.4(7)
N1_1 C4_1 C3_1 110.3(7)
C5_1 C4_1 C3_1 125.2(6)
C4_1 C5_1 C6_1 126.4(6)
C4_1 C5_1 C21_1 118.1(6)
C6_1 C5_1 C21_1 115.5(6)
N2_1 C6_1 C5_1 124.7(7)
N2_1 C6_1 C7_1 109.4(7)
C5_1 C6_1 C7_1 125.9(7)
C8_1 C7_1 C6_1 108.3(9)
C8_1 C7_1 H7_1 125.8
C6_1 C7_1 H7_1 125.8
C7_1 C8_1 C9_1 106.4(9)
C7_1 C8_1 H8_1 126.8
C9_1 C8_1 H8_1 126.8
N2_1 C9_1 C10_1 125.0(7)
N2_1 C9_1 C8_1 110.6(7)
C10_1 C9_1 C8_1 124.4(7)
C9_1 C10_1 C11_1 124.4(7)
C9_1 C10_1 C27_1 117.6(6)
C11_1 C10_1 C27_1 117.8(6)
N3_1 C11_1 C10_1 125.7(7)
N3_1 C11_1 C12_1 109.0(6)
C10_1 C11_1 C12_1 125.0(7)
C13_1 C12_1 C11_1 108.9(8)
C13_1 C12_1 H12_1 125.5
C11_1 C12_1 H12_1 125.5
C12_1 C13_1 C14_1 105.8(8)
C12_1 C13_1 H13_1 127.1
C14_1 C13_1 H13_1 127.1
N3_1 C14_1 C15_1 125.1(7)
N3_1 C14_1 C13_1 111.0(6)
C15_1 C14_1 C13_1 124.0(7)
C14_1 C15_1 C16_1 124.7(6)
C14_1 C15_1 C33_1 118.8(6)
C16_1 C15_1 C33_1 116.5(6)
N4_1 C16_1 C15_1 125.4(7)
N4_1 C16_1 C17_1 111.3(6)
C15_1 C16_1 C17_1 123.3(7)
C18_1 C17_1 C16_1 105.8(8)
C18_1 C17_1 H17_1 127.1
C16_1 C17_1 H17_1 127.1
C17_1 C18_1 C19_1 108.4(8)
C17_1 C18_1 H18_1 125.8
C19_1 C18_1 H18_1 125.8
N4_1 C19_1 C20_1 125.1(7)
N4_1 C19_1 C18_1 109.6(7)
C20_1 C19_1 C18_1 125.2(7)
C1_1 C20_1 C19_1 124.5(7)
C1_1 C20_1 C39_1 119.0(6)
C19_1 C20_1 C39_1 116.4(6)
C22_1 C21_1 C26_1 120.0
C22_1 C21_1 C5_1 117.7(6)
C26_1 C21_1 C5_1 122.3(6)
F1_1 C22_1 C21_1 121.1(6)
F1_1 C22_1 C23_1 118.9(6)
C21_1 C22_1 C23_1 120.0
F2_1 C23_1 C22_1 120.6(5)
F2_1 C23_1 C24_1 119.4(5)
C22_1 C23_1 C24_1 120.0
F3_1 C24_1 C25_1 119.8(5)
F3_1 C24_1 C23_1 120.1(5)
C25_1 C24_1 C23_1 120.0
F4_1 C25_1 C24_1 119.8(5)
F4_1 C25_1 C26_1 120.2(5)
C24_1 C25_1 C26_1 120.0
F5_1 C26_1 C25_1 119.3(6)
F5_1 C26_1 C21_1 120.6(6)
C25_1 C26_1 C21_1 120.0
C28_1 C27_1 C32_1 120.0
C28_1 C27_1 C10_1 119.8(8)
C32_1 C27_1 C10_1 120.2(8)
F6_1 C28_1 C29_1 118.1(8)
F6_1 C28_1 C27_1 121.8(8)
C29_1 C28_1 C27_1 120.0
F7_1 C29_1 C28_1 121.5(8)
F7_1 C29_1 C30_1 118.4(8)
C28_1 C29_1 C30_1 120.0
F8_1 C30_1 C31_1 119.2(8)
F8_1 C30_1 C29_1 120.8(8)
C31_1 C30_1 C29_1 120.0
F9_1 C31_1 C32_1 119.0(8)
F9_1 C31_1 C30_1 121.0(8)
C32_1 C31_1 C30_1 120.0
F10_1 C32_1 C31_1 120.3(7)
F10_1 C32_1 C27_1 119.7(7)
C31_1 C32_1 C27_1 120.0
C34_1 C33_1 C38_1 120.0
C34_1 C33_1 C15_1 121.1(7)
C38_1 C33_1 C15_1 118.8(7)
F11_1 C34_1 C33_1 121.2(6)
F11_1 C34_1 C35_1 118.8(6)
C33_1 C34_1 C35_1 120.0
F12_1 C35_1 C34_1 120.7(6)
F12_1 C35_1 C36_1 119.2(6)
C34_1 C35_1 C36_1 120.0
F13_1 C36_1 C37_1 119.7(6)
F13_1 C36_1 C35_1 120.2(6)
C37_1 C36_1 C35_1 120.0
F14_1 C37_1 C38_1 120.2(6)
F14_1 C37_1 C36_1 119.8(6)
C38_1 C37_1 C36_1 120.0
F15_1 C38_1 C37_1 119.3(6)
F15_1 C38_1 C33_1 120.7(6)
C37_1 C38_1 C33_1 120.0
C40_1 C39_1 C44_1 120.0
C40_1 C39_1 C20_1 120.1(7)
C44_1 C39_1 C20_1 119.6(7)
F16_1 C40_1 C41_1 118.4(7)
F16_1 C40_1 C39_1 121.6(7)
C41_1 C40_1 C39_1 120.0
F17_1 C41_1 C40_1 121.7(8)
F17_1 C41_1 C42_1 118.3(8)
C40_1 C41_1 C42_1 120.0
F18_1 C42_1 C43_1 119.5(9)
F18_1 C42_1 C41_1 120.5(9)
C43_1 C42_1 C41_1 120.0
F19_1 C43_1 C42_1 120.4(8)
F19_1 C43_1 C44_1 119.6(8)
C42_1 C43_1 C44_1 120.0
F20_1 C44_1 C43_1 118.5(7)
F20_1 C44_1 C39_1 121.5(7)
C43_1 C44_1 C39_1 120.0
N5_1 C45_1 C46_1 124.8(15)
N5_1 C45_1 H45_1 117.6
C46_1 C45_1 H45_1 117.6
C47_1 C46_1 C45_1 118.0(19)
C47_1 C46_1 H46_1 121.0
C45_1 C46_1 H46_1 121.0
C48_1 C47_1 C46_1 119.8(19)
C48_1 C47_1 H47_1 120.1
C46_1 C47_1 H47_1 120.1
C47_1 C48_1 C49_1 116.1(17)
C47_1 C48_1 H48_1 121.9
C49_1 C48_1 H48_1 121.9
N5_1 C49_1 C48_1 126.8(15)
N5_1 C49_1 H49_1 116.6
C48_1 C49_1 H49_1 116.6
C52_1 C50_1 C51_1 111.2(12)
C52_1 C50_1 Fe1_1 123.2(11)
C51_1 C50_1 Fe1_1 125.5(11)
C54_1 C51_1 C53_1 106.9(19)
C54_1 C51_1 C50_1 110.6(15)
C53_1 C51_1 C50_1 110.3(15)
C54_1 C51_1 H51_1 109.7
C53_1 C51_1 H51_1 109.7
C50_1 C51_1 H51_1 109.7
C56_1 C52_1 C50_1 107.2(16)
C56_1 C52_1 C55_1 111.4(18)
C50_1 C52_1 C55_1 108.9(15)
C56_1 C52_1 H52_1 109.8
C50_1 C52_1 H52_1 109.8
C55_1 C52_1 H52_1 109.8
C57_1 C53_1 C51_1 109.2(16)
C57_1 C53_1 H53A_1 109.8
C51_1 C53_1 H53A_1 109.8
C57_1 C53_1 H53B_1 109.8
C51_1 C53_1 H53B_1 109.8
H53A_1 C53_1 H53B_1 108.3
C51_1 C54_1 C58_1 108.1(18)
C51_1 C54_1 H54A_1 110.1
C58_1 C54_1 H54A_1 110.1
C51_1 C54_1 H54B_1 110.1
C58_1 C54_1 H54B_1 110.1
H54A_1 C54_1 H54B_1 108.4
C52_1 C55_1 C57_1 108.8(15)
C52_1 C55_1 H55A_1 109.9
C57_1 C55_1 H55A_1 109.9
C52_1 C55_1 H55B_1 109.9
C57_1 C55_1 H55B_1 109.9
H55A_1 C55_1 H55B_1 108.3
C52_1 C56_1 C58_1 108.9(19)
C52_1 C56_1 H56A_1 109.9
C58_1 C56_1 H56A_1 109.9
C52_1 C56_1 H56B_1 109.9
C58_1 C56_1 H56B_1 109.9
H56A_1 C56_1 H56B_1 108.3
C53_1 C57_1 C59_1 103.5(19)
C53_1 C57_1 C55_1 115.2(18)
C59_1 C57_1 C55_1 110.1(19)
C53_1 C57_1 H57_1 109.3
C59_1 C57_1 H57_1 109.3
C55_1 C57_1 H57_1 109.3
C56_1 C58_1 C59_1 113(2)
C56_1 C58_1 C54_1 108.7(18)
C59_1 C58_1 C54_1 107.7(19)
C56_1 C58_1 H58_1 108.9
C59_1 C58_1 H58_1 108.9
C54_1 C58_1 H58_1 108.9
C57_1 C59_1 C58_1 109.4(19)
C57_1 C59_1 H59A_1 109.8
C58_1 C59_1 H59A_1 109.8
C57_1 C59_1 H59B_1 109.8
C58_1 C59_1 H59B_1 109.8
H59A_1 C59_1 H59B_1 108.2
C51B_1 C50B_1 C52B_1 106(2)
C51B_1 C50B_1 Fe1_1 127(2)
C52B_1 C50B_1 Fe1_1 127(2)
C53B_1 C51B_1 C54B_1 99(4)
C53B_1 C51B_1 C50B_1 114(3)
C54B_1 C51B_1 C50B_1 115(3)
C53B_1 C51B_1 H51B_1 109.2
C54B_1 C51B_1 H51B_1 109.2
C50B_1 C51B_1 H51B_1 109.2
C55B_1 C52B_1 C50B_1 117(3)
C55B_1 C52B_1 C56B_1 108(4)
C50B_1 C52B_1 C56B_1 110(4)
C55B_1 C52B_1 H52B_1 107.5
C50B_1 C52B_1 H52B_1 107.5
C56B_1 C52B_1 H52B_1 107.5
C51B_1 C53B_1 C57B_1 112(3)
C51B_1 C53B_1 H53C_1 109.2
C57B_1 C53B_1 H53C_1 109.2
C51B_1 C53B_1 H53D_1 109.2
C57B_1 C53B_1 H53D_1 109.2
H53C_1 C53B_1 H53D_1 107.9
C58B_1 C54B_1 C51B_1 107(3)
C58B_1 C54B_1 H54C_1 110.2
C51B_1 C54B_1 H54C_1 110.2
C58B_1 C54B_1 H54D_1 110.2
C51B_1 C54B_1 H54D_1 110.2
H54C_1 C54B_1 H54D_1 108.5
C57B_1 C55B_1 C52B_1 107(3)
C57B_1 C55B_1 H55C_1 110.3
C52B_1 C55B_1 H55C_1 110.3
C57B_1 C55B_1 H55D_1 110.3
C52B_1 C55B_1 H55D_1 110.3
H55C_1 C55B_1 H55D_1 108.6
C52B_1 C56B_1 C58B_1 108(3)
C52B_1 C56B_1 H56C_1 110.2
C58B_1 C56B_1 H56C_1 110.2
C52B_1 C56B_1 H56D_1 110.2
C58B_1 C56B_1 H56D_1 110.2
H56C_1 C56B_1 H56D_1 108.5
C53B_1 C57B_1 C55B_1 114(3)
C53B_1 C57B_1 C59B_1 101(4)
C55B_1 C57B_1 C59B_1 111(3)
C53B_1 C57B_1 H57B_1 110.2
C55B_1 C57B_1 H57B_1 110.2
C59B_1 C57B_1 H57B_1 110.2
C54B_1 C58B_1 C59B_1 103(4)
C54B_1 C58B_1 C56B_1 116(4)
C59B_1 C58B_1 C56B_1 111(4)
C54B_1 C58B_1 H58B_1 109.0
C59B_1 C58B_1 H58B_1 109.0
C56B_1 C58B_1 H58B_1 109.0
C57B_1 C59B_1 C58B_1 109(3)
C57B_1 C59B_1 H59C_1 109.8
C58B_1 C59B_1 H59C_1 109.8
C57B_1 C59B_1 H59D_1 109.8
C58B_1 C59B_1 H59D_1 109.8
H59C_1 C59B_1 H59D_1 108.2
C50_2 Fe1_2 N4_2 91.2(9)
C50B_2 Fe1_2 N4_2 91.1(12)
C50_2 Fe1_2 N3_2 92.4(8)
C50B_2 Fe1_2 N3_2 93.9(9)
N4_2 Fe1_2 N3_2 90.6(3)
C50_2 Fe1_2 N2_2 91.2(9)
C50B_2 Fe1_2 N2_2 91.3(12)
N4_2 Fe1_2 N2_2 177.6(4)
N3_2 Fe1_2 N2_2 89.2(3)
C50_2 Fe1_2 N1_2 92.6(7)
C50B_2 Fe1_2 N1_2 91.0(9)
N4_2 Fe1_2 N1_2 90.2(3)
N3_2 Fe1_2 N1_2 175.0(4)
N2_2 Fe1_2 N1_2 89.7(3)
C50_2 Fe1_2 N5_2 178.5(7)
C50B_2 Fe1_2 N5_2 177.0(11)
N4_2 Fe1_2 N5_2 89.3(4)
N3_2 Fe1_2 N5_2 89.0(4)
N2_2 Fe1_2 N5_2 88.3(4)
N1_2 Fe1_2 N5_2 86.1(4)
C1_2 N1_2 C4_2 105.6(6)
C1_2 N1_2 Fe1_2 127.4(6)
C4_2 N1_2 Fe1_2 127.0(6)
C9_2 N2_2 C6_2 104.1(6)
C9_2 N2_2 Fe1_2 128.6(6)
C6_2 N2_2 Fe1_2 127.2(6)
C14_2 N3_2 C11_2 104.3(6)
C14_2 N3_2 Fe1_2 127.5(6)
C11_2 N3_2 Fe1_2 128.2(6)
C16_2 N4_2 C19_2 106.7(6)
C16_2 N4_2 Fe1_2 126.5(6)
C19_2 N4_2 Fe1_2 126.5(6)
C45_2 N5_2 C49_2 115.1(12)
C45_2 N5_2 Fe1_2 121.1(8)
C49_2 N5_2 Fe1_2 123.7(8)
N1_2 C1_2 C20_2 125.0(8)
N1_2 C1_2 C2_2 110.3(8)
C20_2 C1_2 C2_2 124.7(9)
C3_2 C2_2 C1_2 106.5(10)
C3_2 C2_2 H2_2 126.8
C1_2 C2_2 H2_2 126.8
C2_2 C3_2 C4_2 108.4(10)
C2_2 C3_2 H3_2 125.8
C4_2 C3_2 H3_2 125.8
N1_2 C4_2 C5_2 126.9(8)
N1_2 C4_2 C3_2 109.1(8)
C5_2 C4_2 C3_2 123.9(8)
C6_2 C5_2 C4_2 122.4(7)
C6_2 C5_2 C21B_2 128.4(10)
C4_2 C5_2 C21B_2 107.7(9)
C6_2 C5_2 C21_2 116.0(7)
C4_2 C5_2 C21_2 121.5(7)
N2_2 C6_2 C5_2 126.6(8)
N2_2 C6_2 C7_2 111.0(7)
C5_2 C6_2 C7_2 122.4(7)
C8_2 C7_2 C6_2 106.9(9)
C8_2 C7_2 H7_2 126.5
C6_2 C7_2 H7_2 126.5
C7_2 C8_2 C9_2 107.0(9)
C7_2 C8_2 H8_2 126.5
C9_2 C8_2 H8_2 126.5
N2_2 C9_2 C10_2 123.1(8)
N2_2 C9_2 C8_2 110.9(7)
C10_2 C9_2 C8_2 125.7(8)
C11_2 C10_2 C9_2 126.5(7)
C11_2 C10_2 C27_2 116.5(7)
C9_2 C10_2 C27_2 116.9(7)
N3_2 C11_2 C10_2 123.8(7)
N3_2 C11_2 C12_2 111.4(7)
C10_2 C11_2 C12_2 124.6(8)
C13_2 C12_2 C11_2 106.0(10)
C13_2 C12_2 H12_2 127.0
C11_2 C12_2 H12_2 127.0
C12_2 C13_2 C14_2 108.1(10)
C12_2 C13_2 H13_2 126.0
C14_2 C13_2 H13_2 126.0
N3_2 C14_2 C15_2 123.8(7)
N3_2 C14_2 C13_2 110.2(7)
C15_2 C14_2 C13_2 125.7(8)
C14_2 C15_2 C16_2 126.3(7)
C14_2 C15_2 C33_2 120.6(9)
C16_2 C15_2 C33_2 113.0(8)
C14_2 C15_2 C33B_2 116.5(9)
C16_2 C15_2 C33B_2 117.1(9)
N4_2 C16_2 C15_2 124.8(8)
N4_2 C16_2 C17_2 109.4(8)
C15_2 C16_2 C17_2 125.7(8)
C18_2 C17_2 C16_2 107.0(10)
C18_2 C17_2 H17_2 126.5
C16_2 C17_2 H17_2 126.5
C17_2 C18_2 C19_2 108.4(10)
C17_2 C18_2 H18_2 125.8
C19_2 C18_2 H18_2 125.8
N4_2 C19_2 C20_2 125.9(8)
N4_2 C19_2 C18_2 108.5(8)
C20_2 C19_2 C18_2 125.6(8)
C19_2 C20_2 C1_2 124.6(8)
C19_2 C20_2 C39_2 117.7(7)
C1_2 C20_2 C39_2 117.7(7)
C22B_2 C21B_2 C26B_2 120.0
C22B_2 C21B_2 C5_2 128.9(8)
C26B_2 C21B_2 C5_2 108.7(7)
F1B_2 C22B_2 C21B_2 119.4(5)
F1B_2 C22B_2 C23B_2 120.3(6)
C21B_2 C22B_2 C23B_2 120.0
F2B_2 C23B_2 C24B_2 120.8(3)
F2B_2 C23B_2 C22B_2 117.8(6)
C24B_2 C23B_2 C22B_2 120.0
F3B_2 C24B_2 C25B_2 118.8(3)
F3B_2 C24B_2 C23B_2 118.8(3)
C25B_2 C24B_2 C23B_2 120.0
F4B_2 C25B_2 C24B_2 119.7(4)
F4B_2 C25B_2 C26B_2 120.3(4)
C24B_2 C25B_2 C26B_2 120.0
F5B_2 C26B_2 C25B_2 119.1(5)
F5B_2 C26B_2 C21B_2 120.7(4)
C25B_2 C26B_2 C21B_2 120.0
C22_2 C21_2 C26_2 120.0
C22_2 C21_2 C5_2 118.9(8)
C26_2 C21_2 C5_2 121.0(8)
F1_2 C22_2 C21_2 120.3(8)
F1_2 C22_2 C23_2 119.6(8)
C21_2 C22_2 C23_2 120.0
F2_2 C23_2 C24_2 120.1(7)
F2_2 C23_2 C22_2 119.9(7)
C24_2 C23_2 C22_2 120.0
F3_2 C24_2 C23_2 119.4(7)
F3_2 C24_2 C25_2 120.5(7)
C23_2 C24_2 C25_2 120.0
F4_2 C25_2 C24_2 118.8(7)
F4_2 C25_2 C26_2 121.0(7)
C24_2 C25_2 C26_2 120.0
F5_2 C26_2 C25_2 118.5(8)
F5_2 C26_2 C21_2 121.4(8)
C25_2 C26_2 C21_2 120.0
C28_2 C27_2 C32_2 120.0
C28_2 C27_2 C10_2 118.7(8)
C32_2 C27_2 C10_2 121.2(8)
F6_2 C28_2 C27_2 120.4(9)
F6_2 C28_2 C29_2 119.6(9)
C27_2 C28_2 C29_2 120.0
F7_2 C29_2 C28_2 120.1(10)
F7_2 C29_2 C30_2 119.9(10)
C28_2 C29_2 C30_2 120.0
F8_2 C30_2 C31_2 120.7(11)
F8_2 C30_2 C29_2 119.3(11)
C31_2 C30_2 C29_2 120.0
F9_2 C31_2 C30_2 120.5(10)
F9_2 C31_2 C32_2 119.5(10)
C30_2 C31_2 C32_2 120.0
F10_2 C32_2 C31_2 119.1(9)
F10_2 C32_2 C27_2 120.9(9)
C31_2 C32_2 C27_2 120.0
C34B_2 C33B_2 C38B_2 120.0
C34B_2 C33B_2 C15_2 117.7(11)
C38B_2 C33B_2 C15_2 122.3(11)
F11B_2 C34B_2 C33B_2 121.2(11)
F11B_2 C34B_2 C35B_2 118.6(11)
C33B_2 C34B_2 C35B_2 120.0
F12B_2 C35B_2 C34B_2 120.9(11)
F12B_2 C35B_2 C36B_2 119.0(11)
C34B_2 C35B_2 C36B_2 120.0
F13B_2 C36B_2 C37B_2 119.6(11)
F13B_2 C36B_2 C35B_2 120.3(11)
C37B_2 C36B_2 C35B_2 120.0
F14B_2 C37B_2 C38B_2 120.2(11)
F14B_2 C37B_2 C36B_2 119.8(11)
C38B_2 C37B_2 C36B_2 120.0
F15B_2 C38B_2 C37B_2 119.1(11)
F15B_2 C38B_2 C33B_2 120.6(11)
C37B_2 C38B_2 C33B_2 120.0
C34_2 C33_2 C38_2 120.0
C34_2 C33_2 C15_2 119.7(10)
C38_2 C33_2 C15_2 119.2(10)
F11_2 C34_2 C35_2 120.4(10)
F11_2 C34_2 C33_2 118.9(10)
C35_2 C34_2 C33_2 120.0
F12_2 C35_2 C34_2 118.5(10)
F12_2 C35_2 C36_2 121.5(10)
C34_2 C35_2 C36_2 120.0
F13_2 C36_2 C35_2 118.1(10)
F13_2 C36_2 C37_2 121.7(10)
C35_2 C36_2 C37_2 120.0
F14_2 C37_2 C38_2 122.2(10)
F14_2 C37_2 C36_2 117.8(9)
C38_2 C37_2 C36_2 120.0
F15_2 C38_2 C37_2 117.3(10)
F15_2 C38_2 C33_2 122.7(9)
C37_2 C38_2 C33_2 120.0
C40_2 C39_2 C44_2 120.0
C40_2 C39_2 C20_2 118.7(8)
C44_2 C39_2 C20_2 121.1(8)
F16_2 C40_2 C41_2 118.1(8)
F16_2 C40_2 C39_2 121.9(8)
C41_2 C40_2 C39_2 120.0
F17_2 C41_2 C40_2 121.7(10)
F17_2 C41_2 C42_2 118.3(10)
C40_2 C41_2 C42_2 120.0
F18_2 C42_2 C43_2 120.8(10)
F18_2 C42_2 C41_2 119.1(10)
C43_2 C42_2 C41_2 120.0
F19_2 C43_2 C44_2 120.3(10)
F19_2 C43_2 C42_2 119.7(10)
C44_2 C43_2 C42_2 120.0
F20_2 C44_2 C43_2 119.8(8)
F20_2 C44_2 C39_2 120.2(8)
C43_2 C44_2 C39_2 120.0
N5_2 C45_2 C46_2 124.0(14)
N5_2 C45_2 H45_2 118.0
C46_2 C45_2 H45_2 118.0
C47_2 C46_2 C45_2 120.2(16)
C47_2 C46_2 H46_2 119.9
C45_2 C46_2 H46_2 119.9
C46_2 C47_2 C48_2 115.7(17)
C46_2 C47_2 H47_2 122.1
C48_2 C47_2 H47_2 122.1
C47_2 C48_2 C49_2 120.5(17)
C47_2 C48_2 H48_2 119.8
C49_2 C48_2 H48_2 119.8
N5_2 C49_2 C48_2 123.9(15)
N5_2 C49_2 H49_2 118.1
C48_2 C49_2 H49_2 118.1
C52_2 C50_2 C51_2 111.9(14)
C52_2 C50_2 Fe1_2 122.2(12)
C51_2 C50_2 Fe1_2 125.9(13)
C50_2 C51_2 C54_2 106(2)
C50_2 C51_2 C53_2 108(2)
C54_2 C51_2 C53_2 113(2)
C50_2 C51_2 H51_2 110.0
C54_2 C51_2 H51_2 110.0
C53_2 C51_2 H51_2 110.0
C50_2 C52_2 C56_2 106.9(17)
C50_2 C52_2 C55_2 109(2)
C56_2 C52_2 C55_2 112(2)
C50_2 C52_2 H52_2 109.5
C56_2 C52_2 H52_2 109.5
C55_2 C52_2 H52_2 109.5
C57_2 C53_2 C51_2 107(2)
C57_2 C53_2 H53A_2 110.2
C51_2 C53_2 H53A_2 110.2
C57_2 C53_2 H53B_2 110.2
C51_2 C53_2 H53B_2 110.2
H53A_2 C53_2 H53B_2 108.5
C51_2 C54_2 C58_2 113(2)
C51_2 C54_2 H54A_2 109.0
C58_2 C54_2 H54A_2 109.0
C51_2 C54_2 H54B_2 109.0
C58_2 C54_2 H54B_2 109.0
H54A_2 C54_2 H54B_2 107.8
C57_2 C55_2 C52_2 108(2)
C57_2 C55_2 H55A_2 110.0
C52_2 C55_2 H55A_2 110.0
C57_2 C55_2 H55B_2 110.0
C52_2 C55_2 H55B_2 110.0
H55A_2 C55_2 H55B_2 108.4
C58_2 C56_2 C52_2 110(2)
C58_2 C56_2 H56A_2 109.6
C52_2 C56_2 H56A_2 109.6
C58_2 C56_2 H56B_2 109.6
C52_2 C56_2 H56B_2 109.6
H56A_2 C56_2 H56B_2 108.1
C53_2 C57_2 C59_2 112(3)
C53_2 C57_2 C55_2 110(3)
C59_2 C57_2 C55_2 107(3)
C53_2 C57_2 H57_2 109.4
C59_2 C57_2 H57_2 109.4
C55_2 C57_2 H57_2 109.4
C59_2 C58_2 C56_2 107(2)
C59_2 C58_2 C54_2 105(2)
C56_2 C58_2 C54_2 109(2)
C59_2 C58_2 H58_2 111.9
C56_2 C58_2 H58_2 111.9
C54_2 C58_2 H58_2 111.9
C58_2 C59_2 C57_2 115(2)
C58_2 C59_2 H59A_2 108.6
C57_2 C59_2 H59A_2 108.6
C58_2 C59_2 H59B_2 108.6
C57_2 C59_2 H59B_2 108.6
H59A_2 C59_2 H59B_2 107.6
C52B_2 C50B_2 C51B_2 106.7(19)
C52B_2 C50B_2 Fe1_2 125.2(16)
C51B_2 C50B_2 Fe1_2 126.7(17)
C50B_2 C51B_2 C53B_2 110(3)
C50B_2 C51B_2 C54B_2 115(3)
C53B_2 C51B_2 C54B_2 111(3)
C50B_2 C51B_2 H51B_2 106.9
C53B_2 C51B_2 H51B_2 106.9
C54B_2 C51B_2 H51B_2 106.9
C55B_2 C52B_2 C50B_2 109(3)
C55B_2 C52B_2 C56B_2 104(3)
C50B_2 C52B_2 C56B_2 111(3)
C55B_2 C52B_2 H52B_2 110.8
C50B_2 C52B_2 H52B_2 110.8
C56B_2 C52B_2 H52B_2 110.8
C57B_2 C53B_2 C51B_2 103(3)
C57B_2 C53B_2 H53C_2 111.2
C51B_2 C53B_2 H53C_2 111.2
C57B_2 C53B_2 H53D_2 111.2
C51B_2 C53B_2 H53D_2 111.2
H53C_2 C53B_2 H53D_2 109.1
C58B_2 C54B_2 C51B_2 110(3)
C58B_2 C54B_2 H54C_2 109.8
C51B_2 C54B_2 H54C_2 109.8
C58B_2 C54B_2 H54D_2 109.8
C51B_2 C54B_2 H54D_2 109.8
H54C_2 C54B_2 H54D_2 108.2
C52B_2 C55B_2 C57B_2 112(3)
C52B_2 C55B_2 H55C_2 109.1
C57B_2 C55B_2 H55C_2 109.1
C52B_2 C55B_2 H55D_2 109.1
C57B_2 C55B_2 H55D_2 109.1
H55C_2 C55B_2 H55D_2 107.9
C52B_2 C56B_2 C58B_2 112(3)
C52B_2 C56B_2 H56C_2 109.3
C58B_2 C56B_2 H56C_2 109.3
C52B_2 C56B_2 H56D_2 109.3
C58B_2 C56B_2 H56D_2 109.3
H56C_2 C56B_2 H56D_2 108.0
C59B_2 C57B_2 C53B_2 116(4)
C59B_2 C57B_2 C55B_2 102(3)
C53B_2 C57B_2 C55B_2 114(3)
C59B_2 C57B_2 H57B_2 108.2
C53B_2 C57B_2 H57B_2 108.2
C55B_2 C57B_2 H57B_2 108.2
C59B_2 C58B_2 C54B_2 108(3)
C59B_2 C58B_2 C56B_2 112(3)
C54B_2 C58B_2 C56B_2 106(3)
C59B_2 C58B_2 H58B_2 110.2
C54B_2 C58B_2 H58B_2 110.2
C56B_2 C58B_2 H58B_2 110.2
C58B_2 C59B_2 C57B_2 108(3)
C58B_2 C59B_2 H59C_2 110.1
C57B_2 C59B_2 H59C_2 110.1
C58B_2 C59B_2 H59D_2 110.1
C57B_2 C59B_2 H59D_2 110.1
H59C_2 C59B_2 H59D_2 108.4
loop_
_geom_bond_atom_site_label_1
_geom_bond_atom_site_label_2
_geom_bond_distance
Fe1_1 C50B_1 1.829(9)
Fe1_1 C50_1 1.829(9)
Fe1_1 N2_1 1.995(4)
Fe1_1 N1_1 1.996(4)
Fe1_1 N4_1 1.996(4)
Fe1_1 N3_1 1.997(4)
Fe1_1 N5_1 2.200(8)
F1_1 C22_1 1.317(3)
F2_1 C23_1 1.317(3)
F3_1 C24_1 1.318(3)
F4_1 C25_1 1.317(3)
F5_1 C26_1 1.317(3)
F6_1 C28_1 1.303(8)
F7_1 C29_1 1.321(8)
F8_1 C30_1 1.316(8)
F9_1 C31_1 1.316(7)
F10_1 C32_1 1.315(8)
F11_1 C34_1 1.319(3)
F12_1 C35_1 1.319(3)
F13_1 C36_1 1.320(3)
F14_1 C37_1 1.320(3)
F15_1 C38_1 1.319(3)
F16_1 C40_1 1.312(7)
F17_1 C41_1 1.318(8)
F18_1 C42_1 1.325(7)
F19_1 C43_1 1.324(8)
F20_1 C44_1 1.302(7)
N1_1 C1_1 1.376(4)
N1_1 C4_1 1.377(4)
N2_1 C6_1 1.376(4)
N2_1 C9_1 1.376(4)
N3_1 C14_1 1.377(4)
N3_1 C11_1 1.377(4)
N4_1 C16_1 1.375(4)
N4_1 C19_1 1.376(4)
N5_1 C45_1 1.352(8)
N5_1 C49_1 1.353(8)
C1_1 C20_1 1.387(4)
C1_1 C2_1 1.435(4)
C2_1 C3_1 1.332(6)
C2_1 H2_1 0.9500
C3_1 C4_1 1.435(4)
C3_1 H3_1 0.9500
C4_1 C5_1 1.387(4)
C5_1 C6_1 1.387(4)
C5_1 C21_1 1.524(5)
C6_1 C7_1 1.435(4)
C7_1 C8_1 1.332(6)
C7_1 H7_1 0.9500
C8_1 C9_1 1.435(4)
C8_1 H8_1 0.9500
C9_1 C10_1 1.387(4)
C10_1 C11_1 1.387(4)
C10_1 C27_1 1.524(5)
C11_1 C12_1 1.435(4)
C12_1 C13_1 1.332(6)
C12_1 H12_1 0.9500
C13_1 C14_1 1.434(4)
C13_1 H13_1 0.9500
C14_1 C15_1 1.386(4)
C15_1 C16_1 1.386(4)
C15_1 C33_1 1.524(5)
C16_1 C17_1 1.435(4)
C17_1 C18_1 1.332(6)
C17_1 H17_1 0.9500
C18_1 C19_1 1.435(4)
C18_1 H18_1 0.9500
C19_1 C20_1 1.387(4)
C20_1 C39_1 1.524(5)
C21_1 C22_1 1.3900
C21_1 C26_1 1.3900
C22_1 C23_1 1.3900
C23_1 C24_1 1.3900
C24_1 C25_1 1.3900
C25_1 C26_1 1.3900
C27_1 C28_1 1.3900
C27_1 C32_1 1.3900
C28_1 C29_1 1.3900
C29_1 C30_1 1.3900
C30_1 C31_1 1.3900
C31_1 C32_1 1.3900
C33_1 C34_1 1.3900
C33_1 C38_1 1.3900
C34_1 C35_1 1.3900
C35_1 C36_1 1.3900
C36_1 C37_1 1.3900
C37_1 C38_1 1.3900
C39_1 C40_1 1.3900
C39_1 C44_1 1.3900
C40_1 C41_1 1.3900
C41_1 C42_1 1.3900
C42_1 C43_1 1.3900
C43_1 C44_1 1.3900
C45_1 C46_1 1.407(9)
C45_1 H45_1 0.9500
C46_1 C47_1 1.396(9)
C46_1 H46_1 0.9500
C47_1 C48_1 1.395(9)
C47_1 H47_1 0.9500
C48_1 C49_1 1.406(9)
C48_1 H48_1 0.9500
C49_1 H49_1 0.9500
C50_1 C52_1 1.503(4)
C50_1 C51_1 1.503(4)
C51_1 C54_1 1.503(4)
C51_1 C53_1 1.503(4)
C51_1 H51_1 1.0000
C52_1 C56_1 1.503(4)
C52_1 C55_1 1.503(4)
C52_1 H52_1 1.0000
C53_1 C57_1 1.503(4)
C53_1 H53A_1 0.9900
C53_1 H53B_1 0.9900
C54_1 C58_1 1.503(4)
C54_1 H54A_1 0.9900
C54_1 H54B_1 0.9900
C55_1 C57_1 1.503(4)
C55_1 H55A_1 0.9900
C55_1 H55B_1 0.9900
C56_1 C58_1 1.503(4)
C56_1 H56A_1 0.9900
C56_1 H56B_1 0.9900
C57_1 C59_1 1.503(4)
C57_1 H57_1 1.0000
C58_1 C59_1 1.503(4)
C58_1 H58_1 1.0000
C59_1 H59A_1 0.9900
C59_1 H59B_1 0.9900
C50B_1 C51B_1 1.503(4)
C50B_1 C52B_1 1.503(4)
C51B_1 C53B_1 1.503(4)
C51B_1 C54B_1 1.503(4)
C51B_1 H51B_1 1.0000
C52B_1 C55B_1 1.503(4)
C52B_1 C56B_1 1.503(4)
C52B_1 H52B_1 1.0000
C53B_1 C57B_1 1.503(4)
C53B_1 H53C_1 0.9900
C53B_1 H53D_1 0.9900
C54B_1 C58B_1 1.503(4)
C54B_1 H54C_1 0.9900
C54B_1 H54D_1 0.9900
C55B_1 C57B_1 1.503(4)
C55B_1 H55C_1 0.9900
C55B_1 H55D_1 0.9900
C56B_1 C58B_1 1.503(4)
C56B_1 H56C_1 0.9900
C56B_1 H56D_1 0.9900
C57B_1 C59B_1 1.503(4)
C57B_1 H57B_1 1.0000
C58B_1 C59B_1 1.503(4)
C58B_1 H58B_1 1.0000
C59B_1 H59C_1 0.9900
C59B_1 H59D_1 0.9900
Fe1_2 C50_2 1.828(9)
Fe1_2 C50B_2 1.829(9)
Fe1_2 N4_2 1.994(4)
Fe1_2 N3_2 1.994(4)
Fe1_2 N2_2 1.995(4)
Fe1_2 N1_2 1.995(4)
Fe1_2 N5_2 2.200(8)
F6_2 C28_2 1.320(8)
F7_2 C29_2 1.334(9)
F8_2 C30_2 1.324(8)
F9_2 C31_2 1.321(8)
F10_2 C32_2 1.318(8)
F16_2 C40_2 1.314(8)
F17_2 C41_2 1.321(8)
F18_2 C42_2 1.320(8)
F19_2 C43_2 1.318(8)
F20_2 C44_2 1.319(8)
N1_2 C1_2 1.376(4)
N1_2 C4_2 1.377(4)
N2_2 C9_2 1.376(4)
N2_2 C6_2 1.376(4)
N3_2 C14_2 1.375(4)
N3_2 C11_2 1.376(4)
N4_2 C16_2 1.375(4)
N4_2 C19_2 1.376(4)
N5_2 C45_2 1.352(8)
N5_2 C49_2 1.352(8)
C1_2 C20_2 1.387(4)
C1_2 C2_2 1.435(4)
C2_2 C3_2 1.332(6)
C2_2 H2_2 0.9500
C3_2 C4_2 1.435(4)
C3_2 H3_2 0.9500
C4_2 C5_2 1.387(4)
C5_2 C6_2 1.387(4)
C5_2 C21B_2 1.522(5)
C5_2 C21_2 1.527(5)
C6_2 C7_2 1.435(4)
C7_2 C8_2 1.332(6)
C7_2 H7_2 0.9500
C8_2 C9_2 1.435(4)
C8_2 H8_2 0.9500
C9_2 C10_2 1.387(4)
C10_2 C11_2 1.386(4)
C10_2 C27_2 1.523(5)
C11_2 C12_2 1.435(4)
C12_2 C13_2 1.332(6)
C12_2 H12_2 0.9500
C13_2 C14_2 1.434(4)
C13_2 H13_2 0.9500
C14_2 C15_2 1.385(4)
C15_2 C16_2 1.386(4)
C15_2 C33_2 1.521(5)
C15_2 C33B_2 1.527(5)
C16_2 C17_2 1.434(4)
C17_2 C18_2 1.332(6)
C17_2 H17_2 0.9500
C18_2 C19_2 1.435(4)
C18_2 H18_2 0.9500
C19_2 C20_2 1.386(4)
C20_2 C39_2 1.524(5)
F1B_2 C22B_2 1.317(3)
F2B_2 C23B_2 1.317(3)
F3B_2 C24B_2 1.317(3)
F4B_2 C25B_2 1.317(3)
F5B_2 C26B_2 1.317(3)
C21B_2 C22B_2 1.3900
C21B_2 C26B_2 1.3900
C22B_2 C23B_2 1.3900
C23B_2 C24B_2 1.3900
C24B_2 C25B_2 1.3900
C25B_2 C26B_2 1.3900
F1_2 C22_2 1.317(3)
F2_2 C23_2 1.318(3)
F3_2 C24_2 1.318(3)
F4_2 C25_2 1.317(3)
F5_2 C26_2 1.317(3)
C21_2 C22_2 1.3900
C21_2 C26_2 1.3900
C22_2 C23_2 1.3900
C23_2 C24_2 1.3900
C24_2 C25_2 1.3900
C25_2 C26_2 1.3900
C27_2 C28_2 1.3900
C27_2 C32_2 1.3900
C28_2 C29_2 1.3900
C29_2 C30_2 1.3900
C30_2 C31_2 1.3900
C31_2 C32_2 1.3900
F11B_2 C34B_2 1.320(3)
F12B_2 C35B_2 1.320(3)
F13B_2 C36B_2 1.320(3)
F14B_2 C37B_2 1.320(3)
F15B_2 C38B_2 1.320(3)
C33B_2 C34B_2 1.3900
C33B_2 C38B_2 1.3900
C34B_2 C35B_2 1.3900
C35B_2 C36B_2 1.3900
C36B_2 C37B_2 1.3900
C37B_2 C38B_2 1.3900
F11_2 C34_2 1.320(3)
F12_2 C35_2 1.320(3)
F13_2 C36_2 1.320(3)
F14_2 C37_2 1.320(3)
F15_2 C38_2 1.320(3)
C33_2 C34_2 1.3900
C33_2 C38_2 1.3900
C34_2 C35_2 1.3900
C35_2 C36_2 1.3900
C36_2 C37_2 1.3900
C37_2 C38_2 1.3900
C39_2 C40_2 1.3900
C39_2 C44_2 1.3900
C40_2 C41_2 1.3900
C41_2 C42_2 1.3900
C42_2 C43_2 1.3900
C43_2 C44_2 1.3900
C45_2 C46_2 1.407(9)
C45_2 H45_2 0.9500
C46_2 C47_2 1.396(9)
C46_2 H46_2 0.9500
C47_2 C48_2 1.396(9)
C47_2 H47_2 0.9500
C48_2 C49_2 1.407(9)
C48_2 H48_2 0.9500
C49_2 H49_2 0.9500
C50_2 C52_2 1.503(4)
C50_2 C51_2 1.503(4)
C51_2 C54_2 1.503(4)
C51_2 C53_2 1.503(4)
C51_2 H51_2 1.0000
C52_2 C56_2 1.503(4)
C52_2 C55_2 1.503(4)
C52_2 H52_2 1.0000
C53_2 C57_2 1.503(4)
C53_2 H53A_2 0.9900
C53_2 H53B_2 0.9900
C54_2 C58_2 1.503(4)
C54_2 H54A_2 0.9900
C54_2 H54B_2 0.9900
C55_2 C57_2 1.503(4)
C55_2 H55A_2 0.9900
C55_2 H55B_2 0.9900
C56_2 C58_2 1.503(4)
C56_2 H56A_2 0.9900
C56_2 H56B_2 0.9900
C57_2 C59_2 1.503(4)
C57_2 H57_2 1.0000
C58_2 C59_2 1.503(4)
C58_2 H58_2 1.0000
C59_2 H59A_2 0.9900
C59_2 H59B_2 0.9900
C50B_2 C52B_2 1.503(4)
C50B_2 C51B_2 1.503(4)
C51B_2 C53B_2 1.503(4)
C51B_2 C54B_2 1.503(4)
C51B_2 H51B_2 1.0000
C52B_2 C55B_2 1.503(4)
C52B_2 C56B_2 1.503(4)
C52B_2 H52B_2 1.0000
C53B_2 C57B_2 1.503(4)
C53B_2 H53C_2 0.9900
C53B_2 H53D_2 0.9900
C54B_2 C58B_2 1.503(4)
C54B_2 H54C_2 0.9900
C54B_2 H54D_2 0.9900
C55B_2 C57B_2 1.503(4)
C55B_2 H55C_2 0.9900
C55B_2 H55D_2 0.9900
C56B_2 C58B_2 1.503(4)
C56B_2 H56C_2 0.9900
C56B_2 H56D_2 0.9900
C57B_2 C59B_2 1.503(4)
C57B_2 H57B_2 1.0000
C58B_2 C59B_2 1.503(4)
C58B_2 H58B_2 1.0000
C59B_2 H59C_2 0.9900
C59B_2 H59D_2 0.9900
