#------------------------------------------------------------------------------
#$Date: 2021-06-05 21:00:10 +0300 (Sat, 05 Jun 2021) $
#$Revision: 265929 $
#$URL: file:///home/coder/svn-repositories/cod/cif/1/56/11/1561102.cif $
#------------------------------------------------------------------------------
#
# This file is available in the Crystallography Open Database (COD),
# http://www.crystallography.net/
#
# All data on this site have been placed in the public domain by the
# contributors.
#
data_1561102
loop_
_publ_author_name
'Gimeno, Ignacio'
'Urtizberea, Ainhoa'
'Rom\'an-Roche, Juan'
'Zueco, David'
'Cam\'on, Agust\'in'
'Alonso, Pablo J.'
'Roubeau, Olivier'
'Luis, Fernando'
_publ_section_title
;
 Broad-band spectroscopy of a vanadyl porphyrin: a model electronuclear
 spin qudit
;
_journal_issue                   15
_journal_name_full               'Chemical Science'
_journal_page_first              5621
_journal_page_last               5630
_journal_paper_doi               10.1039/D1SC00564B
_journal_volume                  12
_journal_year                    2021
_chemical_formula_moiety         'C56 H45 N4 O8.50 Ti0.50'
_chemical_formula_sum            'C56 H45 N4 O8.5 Ti0.5'
_chemical_formula_weight         933.91
_space_group_crystal_system      monoclinic
_space_group_IT_number           14
_space_group_name_Hall           '-P 2yn'
_space_group_name_H-M_alt        'P 1 21/n 1'
_atom_sites_solution_hydrogens   geom
_audit_creation_method           SHELXL-2018/3
_audit_update_record
;
2021-01-26 deposited with the CCDC.	2021-03-10 downloaded from the CCDC.
;
_cell_angle_alpha                90
_cell_angle_beta                 90.524(13)
_cell_angle_gamma                90
_cell_formula_units_Z            2
_cell_length_a                   9.4036(14)
_cell_length_b                   10.8957(13)
_cell_length_c                   22.319(3)
_cell_measurement_reflns_used    1218
_cell_measurement_temperature    295(2)
_cell_measurement_theta_max      13.8360
_cell_measurement_theta_min      3.3710
_cell_volume                     2286.7(5)
_computing_cell_refinement       'CrysAlisPro 1.171.38.41r (Rigaku OD, 2015)'
_computing_data_collection       'CrysAlisPro 1.171.38.41r (Rigaku OD, 2015)'
_computing_data_reduction        'CrysAlisPro 1.171.38.41r (Rigaku OD, 2015)'
_computing_structure_refinement  'SHELXL-2018/3 (Sheldrick, 2018)'
_computing_structure_solution    'SHELXT 2014/5 (Sheldrick, 2015)'
_diffrn_ambient_temperature      295(2)
_diffrn_detector                 'CCD plate'
_diffrn_detector_area_resol_mean 16.3990
_diffrn_detector_type            Sapphire3
_diffrn_measured_fraction_theta_full 0.990
_diffrn_measured_fraction_theta_max 0.990
_diffrn_measurement_device       'four-circle diffractometer'
_diffrn_measurement_device_type  'Xcalibur, Sapphire3'
_diffrn_radiation_monochromator  graphite
_diffrn_radiation_type           MoK\a
_diffrn_radiation_wavelength     0.71073
_diffrn_reflns_av_R_equivalents  0.1029
_diffrn_reflns_av_unetI/netI     0.0664
_diffrn_reflns_Laue_measured_fraction_full 0.990
_diffrn_reflns_Laue_measured_fraction_max 0.990
_diffrn_reflns_limit_h_max       7
_diffrn_reflns_limit_h_min       -7
_diffrn_reflns_limit_k_max       9
_diffrn_reflns_limit_k_min       -9
_diffrn_reflns_limit_l_max       18
_diffrn_reflns_limit_l_min       -18
_diffrn_reflns_number            14032
_diffrn_reflns_point_group_measured_fraction_full 0.990
_diffrn_reflns_point_group_measured_fraction_max 0.990
_diffrn_reflns_theta_full        17.219
_diffrn_reflns_theta_max         17.219
_diffrn_reflns_theta_min         3.316
_diffrn_source                   'fine-focus sealed X-ray tube'
_diffrn_source_type              'Enhance (Mo) X-ray Source'
_exptl_absorpt_coefficient_mu    0.171
_exptl_absorpt_correction_T_max  1.00000
_exptl_absorpt_correction_T_min  0.58288
_exptl_absorpt_correction_type   multi-scan
_exptl_absorpt_process_details
;
CrysAlisPro 1.171.38.41r (Rigaku Oxford Diffraction, 2015)
Empirical absorption correction using spherical harmonics,
 implemented in SCALE3 ABSPACK scaling algorithm.
;
_exptl_crystal_colour            violet
_exptl_crystal_density_diffrn    1.356
_exptl_crystal_description       rod
_exptl_crystal_F_000             976
_exptl_crystal_size_max          0.220
_exptl_crystal_size_mid          0.060
_exptl_crystal_size_min          0.030
_refine_diff_density_max         0.152
_refine_diff_density_min         -0.187
_refine_diff_density_rms         0.043
_refine_ls_extinction_method     none
_refine_ls_goodness_of_fit_ref   1.016
_refine_ls_hydrogen_treatment    constr
_refine_ls_matrix_type           full
_refine_ls_number_parameters     324
_refine_ls_number_reflns         1359
_refine_ls_number_restraints     7
_refine_ls_restrained_S_all      1.041
_refine_ls_R_factor_all          0.1054
_refine_ls_R_factor_gt           0.0672
_refine_ls_shift/su_max          0.000
_refine_ls_shift/su_mean         0.000
_refine_ls_structure_factor_coef Fsqd
_refine_ls_weighting_details
'w=1/[\s^2^(Fo^2^)+(0.1217P)^2^+0.1909P] where P=(Fo^2^+2Fc^2^)/3'
_refine_ls_weighting_scheme      calc
_refine_ls_wR_factor_gt          0.1724
_refine_ls_wR_factor_ref         0.2071
_reflns_Friedel_coverage         0.000
_reflns_number_gt                817
_reflns_number_total             1359
_reflns_threshold_expression     'I > 2\s(I)'
_cod_data_source_file            d1sc00564b2.cif
_cod_data_source_block           orz233a-TiOTCPPEt
_cod_depositor_comments
'Adding full bibliography for 1561101--1561103.cif.'
_cod_original_sg_symbol_H-M      'P 21/n'
_cod_original_formula_sum        'C56 H45 N4 O8.50 Ti0.50'
_cod_database_code               1561102
_shelx_shelxl_version_number     2018/3
_shelx_space_group_comment
;
The symmetry employed for this shelxl refinement is uniquely defined
by the following loop, which should always be used as a source of
symmetry information in preference to the above space-group names.
They are only intended as comments.
;
_shelx_estimated_absorpt_t_min   0.963
_shelx_estimated_absorpt_t_max   0.995
_shelx_res_file
;
TITL t1_a.res in P2(1)/n
    t2.res
    created by SHELXL-2018/3 at 12:14:58 on 08-Apr-2020
REM Old TITL t1 in P2(1)/n

REM SHELXT solution in P2(1)/n
REM R1 0.314,  Rweak 0.046,  Alpha 0.064,  Orientation as input
REM Formula found by SHELXT:  C27 N4 O2

CELL  0.71073   9.4036  10.8957  22.319   90.000   90.524   90.000
ZERR    2.000   0.0014   0.0013   0.003    0.000    0.013    0.000
LATT  1
SYMM 1/2-X, 1/2+Y, 1/2-Z
SFAC C H N O TI
UNIT 112 90.00 8 17.00 1.00
TEMP 22
SIZE 0.22 0.06 0.03

REM violet lath

REM data cut at 1.20 angstroms

REM inconsistent equivalents
OMIT   4   1   1
OMIT  -1   7  10
OMIT  -3   5  11
OMIT   6   1  13
OMIT   4   3  13
OMIT   7   1  14
OMIT   0   5  15
OMIT   0   6  16
OMIT   0   7  16
OMIT   2   0  18

REM negative Io2
OMIT    -6   5  12
OMIT    -2   1  18
OMIT    -2   7   2

EQIV_$1 -x+1, -y, -z+1
EQIV_$2 x-1/2, -y+1/2, z+1/2
EQIV_$3 x+1/2, -y+1/2, z-1/2

L.S. 24
BOND $H
ACTA 43.93
LIST 6
FMAP 2
PLAN 10
ISOR 0.01 O5
SIMU 0.008 O5
DELU 0.002 O5
FREE C18B O1_$2
FREE N1 TI1
FREE N1 TI1_$1
SADI C18A C19A C18B C19B
WGHT    0.121700    0.190900
FVAR       0.41107   0.57127   0.17412
PART   2
TI1   5    0.556970    0.023893    0.502476    10.25000    0.14010    0.09375 =
         0.13227   -0.01427   -0.00946    0.00928
O1    4    0.715265    0.087950    0.514158    10.25000    0.09455    0.11368 =
         0.14735    0.01701   -0.00592   -0.06247
PART   0
O2    4    0.214212    0.134754    0.922777    11.00000    0.14553    0.12141 =
         0.11446    0.02555    0.03943   -0.00663
O3    4    0.341745    0.303313    0.906936    11.00000    0.14855    0.11478 =
         0.09653   -0.01613    0.01799    0.00040
O4    4    0.020552    0.728168    0.326655    11.00000    0.09446    0.09580 =
         0.14668    0.00758   -0.01898    0.00337
O5    4    0.220977    0.816072    0.356694    11.00000    0.11918    0.09533 =
         0.17689    0.04581   -0.04442    0.00369
N1    3    0.401710    0.145918    0.539285    11.00000    0.08935    0.03138 =
         0.10668   -0.00374   -0.01397    0.00831
AFIX  43
PART   1
H1    2    0.446530    0.084394    0.524422    10.50000   -1.20000
AFIX   0
PART   0
N2    3    0.485202    0.080165    0.420579    11.00000    0.09856    0.05660 =
         0.07558    0.00495   -0.00504   -0.00516
C1    1    0.396874    0.078399    0.644960    11.00000    0.08389    0.05665 =
         0.08247    0.01027   -0.01460   -0.01025
C2    1    0.364683    0.162245    0.599337    11.00000    0.08396    0.07083 =
         0.06521   -0.00940   -0.00540   -0.02093
C3    1    0.288676    0.276980    0.604200    11.00000    0.09317    0.04044 =
         0.11254   -0.01877   -0.00037    0.02104
AFIX  43
H3A   2    0.251334    0.310202    0.639066    11.00000   -1.20000
AFIX   0
C4    1    0.281815    0.326207    0.550107    11.00000    0.10626    0.05894 =
         0.09462    0.01897   -0.02338    0.00246
AFIX  43
H4A   2    0.237840    0.400332    0.540797    11.00000   -1.20000
AFIX   0
C5    1    0.351947    0.248665    0.508102    11.00000    0.06345    0.05171 =
         0.10727   -0.03661   -0.00341    0.00018
C6    1    0.362263    0.273307    0.447644    11.00000    0.09051    0.07947 =
         0.05343   -0.03360    0.00164   -0.01837
C7    1    0.420910    0.195675    0.407531    11.00000    0.08474    0.06705 =
         0.05735    0.00494   -0.00726   -0.01962
C8    1    0.433635    0.216657    0.344538    11.00000    0.12143    0.05511 =
         0.09910   -0.00293   -0.00737    0.00342
AFIX  43
H8A   2    0.401355    0.286902    0.325040    11.00000   -1.20000
AFIX   0
C9    1    0.498402    0.121744    0.316819    11.00000    0.12931    0.07235 =
         0.06858   -0.01827    0.00517   -0.01259
AFIX  43
H9A   2    0.517251    0.112754    0.276223    11.00000   -1.20000
AFIX   0
C10   1    0.531500    0.037502    0.365057    11.00000    0.09113    0.05241 =
         0.08423    0.02285   -0.01263   -0.01784
C11   1    0.362112    0.112355    0.707167    11.00000    0.08944    0.07320 =
         0.06716   -0.00139    0.01240   -0.00099
C12   1    0.263974    0.050065    0.739725    11.00000    0.09754    0.06766 =
         0.10772   -0.00710    0.02749    0.00179
AFIX  43
H12A  2    0.215125   -0.014791    0.721921    11.00000   -1.20000
AFIX   0
C13   1    0.434896    0.208056    0.733990    11.00000    0.09325    0.07318 =
         0.08290   -0.00289   -0.00701   -0.00994
AFIX  43
H13A  2    0.501765    0.252291    0.712424    11.00000   -1.20000
AFIX   0
C14   1    0.235207    0.079966    0.797655    11.00000    0.09596    0.05814 =
         0.10281   -0.00577    0.02983   -0.00345
AFIX  43
H14A  2    0.166241    0.037159    0.818727    11.00000   -1.20000
AFIX   0
C15   1    0.408183    0.237693    0.792644    11.00000    0.10511    0.07375 =
         0.07855    0.00216   -0.00506   -0.00699
AFIX  43
H15A  2    0.457918    0.301663    0.810778    11.00000   -1.20000
AFIX   0
C16   1    0.309184    0.174041    0.824605    11.00000    0.09639    0.06421 =
         0.06785    0.00230    0.01149    0.02351
C17   1    0.282258    0.196664    0.890251    11.00000    0.08202    0.06526 =
         0.10408    0.00511    0.00236    0.01696
PART   1
C18A  1    0.331304    0.317198    0.973332   -21.00000   31.00000
AFIX  23
H18A  2    0.365881    0.244266    0.993687   -21.00000   -1.20000
H18B  2    0.233800    0.332181    0.985115   -21.00000   -1.20000
AFIX   0
C19A  1    0.428566    0.431627    0.988243   -21.00000   31.00000
AFIX 137
H19A  2    0.524033    0.415339    0.975606   -21.00000   -1.50000
H19B  2    0.428123    0.446527    1.030635   -21.00000   -1.50000
H19C  2    0.392643    0.502543    0.967551   -21.00000   -1.50000
AFIX   0
PART   2
C18B  1    0.318732    0.346824    0.969180    21.00000   31.00000
AFIX  23
H18C  2    0.238587    0.305741    0.987485    21.00000   -1.20000
H18D  2    0.303958    0.434884    0.970537    21.00000   -1.20000
AFIX   0
C19B  1    0.462442    0.309508    0.999912    21.00000   31.00000
AFIX 137
H19D  2    0.476437    0.222645    0.995824    21.00000   -1.50000
H19E  2    0.459800    0.330629    1.041645    21.00000   -1.50000
H19F  2    0.539319    0.352340    0.981134    21.00000   -1.50000
AFIX   0
PART   0
C21   1    0.302891    0.393898    0.423603    11.00000    0.08484    0.04258 =
         0.08988    0.00242   -0.02067    0.02029
C22   1    0.170837    0.398068    0.399349    11.00000    0.11246    0.04681 =
         0.16804    0.02417   -0.03487   -0.01674
AFIX  43
H22A  2    0.116229    0.326924    0.398292    11.00000   -1.20000
AFIX   0
C23   1    0.383134    0.498145    0.424751    11.00000    0.10270    0.05452 =
         0.12222    0.01284   -0.01900   -0.02694
AFIX  43
H23A  2    0.474525    0.496826    0.441019    11.00000   -1.20000
AFIX   0
C24   1    0.115938    0.503327    0.376518    11.00000    0.08368    0.05735 =
         0.16094    0.01687   -0.02730   -0.01473
AFIX  43
H24A  2    0.024240    0.504214    0.360559    11.00000   -1.20000
AFIX   0
C25   1    0.327828    0.605430    0.401636    11.00000    0.11137    0.03781 =
         0.13099    0.02935   -0.01930   -0.01503
AFIX  43
H25A  2    0.381754    0.676948    0.402915    11.00000   -1.20000
AFIX   0
C26   1    0.195352    0.607674    0.377014    11.00000    0.08157    0.06386 =
         0.09683    0.01196   -0.00972    0.00891
C27   1    0.132801    0.721619    0.348876    11.00000    0.07185    0.10142 =
         0.12703   -0.00572   -0.02402   -0.03666
C28   1    0.154697    0.950707    0.340940    11.00000    0.13872    0.14217 =
         0.15086    0.03302   -0.03089   -0.01783
AFIX  23
H28A  2    0.054305    0.954044    0.350412    11.00000   -1.20000
H28B  2    0.204091    1.014763    0.362992    11.00000   -1.20000
AFIX   0
C29   1    0.176963    0.963970    0.275711    11.00000    0.21707    0.14865 =
         0.12965   -0.00483    0.01336   -0.00737
AFIX 137
H29A  2    0.166508    1.048620    0.264580    11.00000   -1.50000
H29B  2    0.107959    0.915467    0.254368    11.00000   -1.50000
H29C  2    0.270866    0.936429    0.265868    11.00000   -1.50000

AFIX   0
HKLF 4




REM  t1_a.res in P2(1)/n
REM wR2 = 0.2071, GooF = S = 1.016, Restrained GooF = 1.041 for all data
REM R1 = 0.0672 for 817 Fo > 4sig(Fo) and 0.1054 for all 1359 data
REM 324 parameters refined using 7 restraints

END

WGHT      0.1344      0.0000

REM Highest difference peak  0.152,  deepest hole -0.187,  1-sigma level  0.043
Q1    1   0.2666  0.8032  0.2993  11.00000  0.05    0.15
Q2    1   0.1989  0.1065  0.8633  11.00000  0.05    0.15
Q3    1   0.4548  0.1710  0.3433  11.00000  0.05    0.13
Q4    1   0.4120  0.8454  0.4009  11.00000  0.05    0.13
Q5    1   0.3517  0.1972  0.9930  11.00000  0.05    0.12
Q6    1   0.0163  0.5006  0.3216  11.00000  0.05    0.12
Q7    1   0.2026  0.8329  0.3804  11.00000  0.05    0.12
Q8    1   0.4439  0.1467  0.8224  11.00000  0.05    0.12
Q9    1   0.5408  0.3870  0.3881  11.00000  0.05    0.12
Q10   1   0.2576  0.7418  0.2651  11.00000  0.05    0.12
;
_shelx_res_checksum              13185
_shelx_hkl_file
;
   0   0   4 2604.19   80.86
   0   0  -4 2714.72   84.03
   0   0   4 2690.23  111.83
   0   0  -4 2664.36  111.23
   0   0  -4 2585.36   76.97
   0   0  -4 2673.87   82.74
   0   0   4 2634.77   84.58
   0   0   4 2686.39   81.21
   0   0  -5    4.23    6.36
   0   0   5   12.74    6.20
   0   0   5    4.93    4.28
   0   0  -5    4.39    5.12
   0   0  -5    2.33    6.26
   0   0  -5    4.55    5.93
   0   0   5    1.00    4.74
   0   0   5    4.36    6.42
   0   0  -6  145.01   23.30
   0   0   6  148.45   25.33
   0   0   6  126.90   25.69
   0   0   6  158.45   24.49
   0   0  -6  140.95   32.54
   0   0   6  141.93   23.25
   0   0   6  160.97   33.57
   0   0  -6  161.79   25.16
   0   0  -6  145.96   22.03
   0   0   7   -0.57    2.12
   0   0  -7   -3.85    4.14
   0   0  -7    3.14    3.42
   0   0  -7   -0.71    4.23
   0   0  -7    3.12    3.60
   0   0   7    2.27    3.19
   0   0   7    1.84    1.08
   0   0   7    9.65    6.37
   0   0   8   -3.31    4.03
   0   0   8   10.94    7.23
   0   0   8    6.59    2.69
   0   0  -8    4.31    4.26
   0   0   8    4.36    3.77
   0   0  -8   14.82   11.32
   0   0  -9   -3.79    6.29
   0   0   9    6.90    6.20
   0   0  -9    0.44    1.78
   0   0   9    3.30    3.85
   0   0   9   -7.29    8.40
   0   0   9   -1.70    3.49
   0   0   9    1.74    3.08
   0   0  10  195.84   35.46
   0   0 -10  213.58   50.39
   0   0  10  185.59   46.76
   0   0 -10  221.81   34.37
   0   0  10  246.31   44.62
   0   0  10  246.76   42.80
   0   0  11   -7.74    8.21
   0   0 -11    5.53    8.48
   0   0  11    6.80    7.42
   0   0  11   -2.38    4.01
   0   0 -11    2.79    3.36
   0   0  11    1.14    3.69
   0   0  12  168.09   40.59
   0   0 -12  163.81   49.57
   0   0 -12  174.73   32.32
   0   0  12  154.33   46.94
   0   0  12  194.32   42.39
   0   0 -13   -0.25    1.27
   0   0  13   -4.71    6.97
   0   0  13   -7.43   10.29
   0   0  13    3.68    5.71
   0   0 -13   -2.16    5.82
   0   0 -14    6.72   10.73
   0   0 -14   19.86   11.44
   0   0  14   17.37   13.90
   0   0  14   10.33   12.63
   0   0  14   12.28   11.59
   0   0 -15   -5.09    5.93
   0   0  15    1.85    3.09
   0   0  15    5.28    9.38
   0   0 -15    5.09    9.75
   0   0  15   -0.81    3.11
   0   0  15   -5.64    8.21
   0   0  16    8.54   10.45
   0   0  16   10.40    7.53
   0   0  16    9.30   11.02
   0   0  16   12.87   15.20
   0   0 -16   32.24   25.50
   0   0  17    6.55    9.45
   0   0  17   -1.44    4.50
   0   0 -17    1.55    5.82
   0   0  17   -8.27   12.62
   0   0 -18    2.44    4.95
   0   0  18   10.91   15.00
   0   0  18   -5.60    9.00
   0   0 -18    6.78   12.60
   0   0  18    1.17    4.23
   0  -1   3   18.61    7.51
   0  -1   3   18.94    6.61
   0   1  -3   20.27    8.00
   0  -1  -3    9.40    6.39
   0  -1  -3   10.59    6.13
   0  -1   3   16.17    8.05
   0   1   3   15.99    7.72
   0   1  -4  458.27   32.75
   0   1   4  409.47   42.73
   0   1  -4  422.18   44.64
   0  -1  -4  431.10   41.63
   0  -1   4  476.87   44.24
   0   1   4  407.96   45.56
   0   1   4  457.61   44.83
   0   1  -4  505.29   39.56
   0  -1  -4  390.68   43.70
   0  -1   4  459.15   33.34
   0   1  -4  469.16   40.80
   0   1  -4  441.65   41.94
   0  -1   4  485.73   38.74
   0  -1   4  452.00   39.31
   0   1   4  453.26   47.54
   0   1   4  419.98   40.33
   0  -1   4  457.69   46.05
   0  -1  -4  431.48   43.24
   0  -1  -4  422.67   41.85
   0  -1   4  421.48   26.53
   0   1  -4  433.61   25.43
   0  -1  -5 2015.19   93.74
   0   1   5 1903.30   99.48
   0   1  -5 1802.79   90.51
   0   1  -5 1773.10  100.77
   0  -1   5 1909.67   84.57
   0  -1   5 1937.03   70.49
   0   1   5 1800.17   98.01
   0   1  -5 1931.70   85.45
   0  -1   5 1933.48   87.69
   0  -1  -5 1826.50  105.62
   0  -1   5 1955.39  106.42
   0   1   5 1860.04   92.48
   0  -1   5 2053.42   97.47
   0   1  -5 1854.32   68.37
   0   1  -5 2018.12   90.92
   0  -1   5 1803.42   54.42
   0   1   5 1909.24  107.12
   0  -1  -5 1762.32   90.84
   0   1   5 1815.24  104.84
   0   1  -5 1829.94   60.73
   0  -1   6  103.67   14.85
   0   1  -6  108.23   28.12
   0   1   6  103.22   23.35
   0  -1   6  146.58   28.06
   0   1  -6  104.17   23.87
   0  -1   6  133.67   24.19
   0  -1  -6  111.53   24.68
   0  -1  -6   89.35   25.63
   0   1  -6  141.22   24.38
   0  -1  -6  102.45   23.46
   0   1   6  118.30   28.36
   0   1  -6  129.31   24.81
   0   1   6   95.79   25.77
   0   1   6   82.09   24.06
   0  -1   6  121.74   18.17
   0   1  -6  113.97   17.37
   0   1   6  140.30   28.02
   0  -1   6  112.23   22.81
   0  -1   6  110.97   28.31
   0  -1   7  426.97   50.30
   0   1   7  407.34   55.54
   0   1  -7  379.92   46.87
   0  -1   7  400.23   46.00
   0   1  -7  424.68   46.24
   0  -1   7  400.37   34.84
   0   1   7  409.45   49.06
   0  -1   7  400.70   33.21
   0  -1  -7  416.03   49.50
   0   1   7  438.33   52.71
   0   1   7  388.75   34.76
   0   1  -7  375.53   55.84
   0  -1   7  351.83   37.35
   0   1   7  427.09   56.59
   0  -1  -7  389.61   46.22
   0  -1  -7  379.59   57.22
   0   1  -7  358.28   33.97
   0  -1   7  410.23   45.65
   0   1  -7  420.07   47.90
   0   1   8  473.21   65.20
   0   1  -8  427.57   63.61
   0  -1  -8  470.42   69.08
   0  -1   8  477.83   53.34
   0  -1   8  464.96   47.05
   0  -1   8  485.79   39.69
   0   1   8  530.51   59.19
   0  -1   8  468.07   39.56
   0  -1   8  444.21   50.79
   0   1   8  458.75   61.95
   0   1   8  463.92   41.61
   0  -1  -8  474.00   55.51
   0   1  -8  469.86   55.04
   0   1   8  578.38   62.91
   0   1  -8  445.48   41.31
   0  -1  -9   97.63   32.27
   0  -1   9   65.66   20.65
   0  -1  -9   80.94   24.41
   0   1   9   91.91   20.12
   0   1  -9  100.26   26.80
   0  -1   9   77.20   16.55
   0  -1   9   74.45   16.82
   0   1   9   70.32   23.55
   0   1   9   58.55   24.20
   0   1  -9   58.51   24.57
   0   1  -9   68.70   17.20
   0  -1   9   82.85   23.57
   0   1   9   74.98   26.60
   0  -1   9   71.04   19.99
   0  -1  10  619.38   53.53
   0  -1 -10  579.98   85.91
   0  -1  10  552.92   63.34
   0   1  10  642.72   57.06
   0  -1 -10  694.47   72.14
   0   1  10  612.77   71.49
   0  -1  10  580.36   47.01
   0   1  10  564.19   75.58
   0  -1  10  570.26   59.89
   0   1 -10  589.76   84.72
   0   1  10  604.18   82.51
   0   1 -10  565.46   52.75
   0  -1  11   78.65   17.80
   0   1  11   83.25   21.40
   0  -1  11   74.96   24.52
   0  -1  11   86.77   24.57
   0   1  11   90.34   28.79
   0  -1  11   64.10   17.39
   0   1 -11   80.08   20.42
   0   1  11   71.14   29.02
   0  -1 -11   63.21   29.01
   0  -1 -11   72.57   23.94
   0   1  11   53.66   24.13
   0   1 -11   77.94   31.58
   0   1  12   71.71   30.51
   0  -1 -12   69.05   25.49
   0   1  12   58.19   24.16
   0  -1  12   40.90   15.22
   0  -1  12   67.10   17.25
   0   1 -12   49.66   26.88
   0  -1 -12   52.59   27.79
   0  -1  12   72.88   25.41
   0   1  12   73.38   21.95
   0  -1  12   63.48   22.06
   0   1  12   53.48   24.74
   0   1 -12   67.03   19.61
   0   1  13  128.25   43.02
   0   1  13   83.65   30.10
   0  -1 -13   79.13   35.67
   0  -1  13   94.77   24.62
   0   1 -13   80.08   23.03
   0  -1 -13   72.27   25.58
   0   1  13   99.12   35.09
   0   1 -13  111.61   43.89
   0  -1  13  102.32   31.53
   0  -1  13   77.58   19.08
   0  -1  13   89.12   26.90
   0  -1  14   18.24   17.07
   0  -1  14    6.69    5.79
   0   1 -14    0.94    2.49
   0  -1 -14    0.33    1.71
   0   1  14   27.31   18.96
   0   1 -14  -14.98   15.90
   0  -1  14    1.52    3.99
   0  -1  14   -5.36    7.01
   0   1  14    8.50   11.41
   0   1  14    4.90    7.61
   0  -1  14   -0.55    1.93
   0  -1 -14    4.82    9.19
   0   1  15   -3.47    6.96
   0   1  15   13.55   14.98
   0  -1  15   14.31   12.81
   0   1 -15   22.52   20.34
   0  -1 -15  -13.22   15.85
   0  -1  15   16.72    9.43
   0  -1 -15    6.50    7.77
   0   1 -15    4.36    5.56
   0  -1  15    9.16   12.57
   0   1  15   16.68   14.42
   0  -1  15    4.12    6.40
   0   1  16   20.67   19.20
   0   1  16   20.75   16.93
   0  -1 -16   -8.64   13.31
   0   1  16   26.52   19.83
   0   1 -16   35.93   16.42
   0  -1 -16   10.10    9.86
   0   1 -16   23.17   21.45
   0  -1  16   20.88   14.96
   0  -1  16   19.70   15.66
   0  -1  16    3.55    8.10
   0   1  17   11.33   14.71
   0   1  17   11.76   13.60
   0  -1  17   -6.80   11.62
   0  -1 -17    3.71    6.07
   0   1 -17    6.48    7.16
   0  -1  17   12.93   13.22
   0   1  17   17.69   16.23
   0  -1 -17   11.30   15.82
   0  -1  17    3.31    6.17
   0   1 -17    3.98    9.23
   0   1 -18   21.05   22.02
   0   1  18   12.60   14.47
   0  -1  18    0.70    2.93
   0   1 -18   -5.09    6.51
   0  -1 -18  -19.28   21.41
   0  -1  18    0.51    2.73
   0  -1 -18    3.17    5.69
   0   1  18    3.46    7.42
   0   1  18  -21.51   20.96
   0  -1  18   13.03   16.64
   0  -2   0 1669.65   77.69
   0   2   0 1658.45   75.55
   0   2   0 1618.75   70.79
   0  -2   0 1730.93   84.91
   0   2   0 1757.45   80.75
   0  -2   0 1600.97   79.21
   0  -2   0 1790.53   73.66
   0   2  -1 1005.28   64.15
   0   2  -1  959.76   59.71
   0   2   1  959.52   64.26
   0   2  -1 1040.25   58.33
   0   2   1  959.31   62.26
   0   2  -1  962.77   62.96
   0  -2  -1  929.42   62.79
   0   2   1  983.93   44.45
   0   2   1  998.07   66.15
   0  -2   1 1047.91   62.47
   0  -2   1  913.80   52.50
   0  -2   1  979.51   56.45
   0  -2  -1 1068.35   66.91
   0  -2  -1 1012.89   62.90
   0   2  -1  981.69   51.06
   0  -2  -1 1067.80   55.04
   0  -2   1 1008.39   65.35
   0  -2   1  983.20   63.10
   0  -2  -1  968.78   49.49
   0   2   1  938.22   49.23
   0   2   1  987.13   51.09
   0   2   1 1042.29   64.75
   0   2  -2  184.73   28.66
   0  -2  -2  189.64   29.86
   0  -2   2  211.74   30.29
   0   2   2  195.65   32.59
   0   2   2  170.21   19.51
   0  -2   2  186.43   19.81
   0  -2  -2  188.90   29.71
   0   2   2  160.29   26.47
   0  -2  -2  201.17   24.92
   0   2   2  166.77   27.11
   0   2  -2  181.80   28.06
   0   2  -2  177.61   27.90
   0  -2  -2  159.15   21.86
   0   2  -2  167.86   18.01
   0  -2  -2  166.83   26.09
   0  -2   2  174.01   27.09
   0  -2   2  173.32   22.18
   0   2   2  186.41   31.73
   0   2   2  200.71   24.74
   0  -2   2  182.30   21.45
   0   2  -2  181.15   23.49
   0   2  -2  179.42   20.89
   0  -2   2  202.64   30.40
   0   2   2  203.62   24.27
   0   2  -3  208.51   31.67
   0   2   3  175.20   34.24
   0  -2   3  195.08   22.13
   0   2   3  222.23   35.40
   0   2   3  199.87   30.09
   0   2  -3  216.34   31.42
   0  -2   3  221.58   23.76
   0  -2   3  243.06   33.51
   0   2   3  220.43   32.11
   0  -2   3  201.06   31.07
   0  -2  -3  191.64   32.45
   0  -2  -3  201.07   28.26
   0  -2   3  219.30   27.45
   0  -2  -3  214.36   29.86
   0  -2   3  243.30   35.87
   0   2   3  200.74   26.15
   0   2  -3  201.53   26.14
   0  -2  -3  221.74   30.53
   0   2   3  214.32   30.24
   0   2   3  200.69   18.96
   0  -2  -3  198.12   30.89
   0  -2   3  208.32   30.28
   0  -2   4   80.51   19.28
   0   2  -4   71.41   12.87
   0   2  -4   79.59   18.55
   0   2   4   71.47   17.52
   0   2  -4   68.57   19.24
   0  -2  -4   70.71   21.05
   0   2   4   66.72   21.13
   0  -2  -4   66.51   18.55
   0  -2   4  104.57   23.57
   0  -2   4   76.85   19.75
   0  -2   4   67.26   17.09
   0  -2   4   82.63   21.51
   0   2   4   73.44   18.72
   0  -2  -4   61.87   16.91
   0   2   4   88.02   21.45
   0   2  -4   74.07   18.01
   0   2   4   78.53   23.48
   0  -2   4   92.33   13.96
   0  -2   4   83.31   20.15
   0   2   4   65.59   17.79
   0  -2  -5  133.28   29.64
   0   2   5  122.09   25.09
   0   2  -5  124.29   17.29
   0   2  -5  128.84   28.23
   0  -2   5  141.38   28.50
   0   2   5  149.49   32.15
   0   2   5  138.90   29.99
   0   2   5  131.26   26.04
   0  -2  -5  131.33   26.80
   0  -2   5  135.04   27.83
   0   2   5  115.11   29.91
   0  -2   5  138.70   30.43
   0  -2  -5  124.94   28.75
   0  -2   5  146.02   27.04
   0  -2   5  128.57   16.31
   0   2  -5  117.14   23.08
   0   2   5  132.34   24.59
   0   2  -5  104.44   24.78
   0   2  -5  145.32   28.09
   0  -2   5  160.81   27.55
   0   2  -5  136.61   28.10
   0   2   6  142.14   32.04
   0   2   6  145.96   25.74
   0   2   6   91.41   28.85
   0   2  -6  130.41   29.63
   0   2   6   99.16   25.54
   0  -2   6  128.49   26.17
   0  -2   6  140.46   25.38
   0  -2   6  135.21   28.18
   0   2   6   99.93   22.11
   0  -2  -6   98.07   26.52
   0   2  -6  115.27   25.63
   0  -2  -6   96.06   27.63
   0   2  -6  111.77   27.72
   0   2  -6  103.94   21.61
   0  -2  -6   94.54   25.76
   0  -2   6  106.58   28.39
   0   2  -6  125.86   17.33
   0  -2   6  121.42   16.96
   0  -2   7    1.54    0.73
   0   2   7   10.62    9.13
   0   2   7    6.36    4.96
   0  -2  -7    5.82    9.95
   0   2   7   -2.01    3.01
   0   2  -7    0.62    2.27
   0   2  -7    2.79    3.96
   0  -2   7    2.77    5.67
   0  -2   7    9.08    4.20
   0   2   7    0.29    1.60
   0   2  -7   12.44    9.99
   0   2  -7    7.51    5.39
   0  -2  -7    8.45    9.05
   0  -2   7   -2.85    3.68
   0   2  -8  112.15   29.58
   0   2   8  125.40   33.38
   0  -2   8  131.75   17.47
   0  -2  -8  124.54   33.41
   0   2  -8  138.44   20.23
   0  -2   8  127.22   28.17
   0   2  -8   94.65   29.37
   0  -2   8  140.81   26.27
   0  -2  -8  163.36   41.32
   0   2  -8  148.92   26.66
   0   2   8  122.67   36.12
   0  -2   8   95.14   16.18
   0  -2   8  144.01   32.42
   0   2  -9   -5.82    7.67
   0  -2  -9    1.70    3.80
   0  -2   9   -3.27    4.93
   0   2  -9    0.63    4.44
   0  -2   9   -1.14    2.55
   0  -2   9    2.96    4.95
   0  -2   9   -1.87    3.60
   0   2  -9   -4.17    4.44
   0   2  -9    0.40    1.14
   0   2   9   -2.22    4.90
   0   2   9    1.55    3.87
   0  -2  -9    0.22    1.59
   0  -2   9    1.57    2.03
   0   2  10   31.69   10.70
   0  -2  10   25.24   10.22
   0  -2  10   26.14   15.20
   0   2 -10   10.65   11.00
   0  -2  10   24.81    8.77
   0  -2  10    9.83    7.23
   0  -2 -10   38.19   21.75
   0  -2  10   27.30   13.36
   0   2 -10   24.43   15.44
   0  -2 -10   24.27   16.66
   0   2 -10   29.97   10.45
   0   2  10   21.46   15.00
   0   2  10   13.41   10.60
   0  -2  11    3.93    4.37
   0  -2  11    6.15    5.85
   0  -2  11   18.32   12.70
   0  -2 -11   -0.44    2.47
   0  -2  11   13.52   10.87
   0   2 -11    3.25    3.76
   0   2  11   11.11   12.06
   0   2 -11   -0.90    3.38
   0   2  11   -0.49    2.46
   0   2  11    3.60    3.88
   0   2 -11    8.72    6.55
   0  -2 -11    5.31    7.18
   0  -2  11    0.98    1.87
   0   2  12   18.93   15.77
   0  -2  12    6.96    6.25
   0   2  12   23.10   18.12
   0  -2 -12   15.88   15.47
   0  -2  12   12.28    7.12
   0  -2  12   16.60   12.98
   0   2 -12   20.64   16.94
   0  -2 -12   17.59   13.57
   0  -2  12   19.01   13.39
   0  -2  12    9.92    7.61
   0   2 -12   10.95    5.94
   0   2  12   10.89    7.23
   0   2  13   27.42   21.84
   0  -2  13   51.18   22.86
   0   2  13   25.44   11.76
   0   2 -13   33.75   13.39
   0  -2  13   21.99   11.81
   0  -2  13   23.62   10.49
   0   2 -13   43.12   26.73
   0   2  13   48.24   26.30
   0  -2  13   20.73   14.30
   0  -2 -13   41.72   26.22
   0  -2 -13   45.00   23.65
   0  -2  14  102.32   23.71
   0  -2 -14  126.98   38.88
   0   2  14   83.28   36.62
   0   2  14  141.34   46.70
   0  -2  14  132.56   38.26
   0  -2  14   92.25   26.82
   0  -2  14  103.86   34.10
   0   2 -14  127.90   27.42
   0   2 -14  163.24   53.32
   0  -2 -14  125.86   47.51
   0   2  14   95.58   24.36
   0   2 -15   -7.42   11.59
   0   2  15    7.66   11.32
   0   2 -15    3.31    4.55
   0  -2  15   10.65   11.08
   0  -2 -15   -3.73    8.50
   0  -2 -15   22.92   16.44
   0   2  15   25.03   20.02
   0  -2  15    6.45    6.04
   0  -2  15   13.70   10.32
   0   2  16   30.89   22.87
   0  -2 -16   54.20   23.13
   0   2 -16   59.96   20.02
   0   2  16   48.54   29.56
   0  -2  16   40.75   22.65
   0  -2  16   43.67   19.28
   0  -2 -16   26.50   23.59
   0   2 -16   27.88   23.38
   0  -2  17    1.89    5.02
   0   2  17   -8.45   12.28
   0  -2 -17   14.41   18.04
   0   2 -17   -8.04    7.56
   0   2  17    1.73    5.79
   0  -2  17    5.04    6.82
   0  -2  17    0.55    3.39
   0  -2 -17    1.82    4.80
   0   2 -17   11.71   15.72
   0  -2  18   28.41   16.79
   0   2  18   50.68   34.27
   0  -2  18   32.02   26.68
   0   2 -18   24.70   23.70
   0   2  18   35.19   26.93
   0  -2 -18   41.51   23.25
   0  -2  18   19.01   16.58
   0   2 -18    9.73    8.56
   0  -2 -18   35.16   29.20
   0   3   0   10.94    9.89
   0   3   0    4.14    2.24
   0   3   0    4.72    6.88
   0  -3   0    5.17    6.61
   0  -3   0    9.04    7.07
   0  -3   0    7.20    6.09
   0  -3   0   14.96   11.03
   0  -3   0    2.68    3.87
   0   3   0   11.49    6.51
   0   3   0    6.09    4.90
   0   3  -1    8.21    5.72
   0   3   1    4.52    4.28
   0  -3  -1    3.53    5.48
   0   3  -1    1.46    2.69
   0   3   1   -0.87    4.98
   0   3  -1    2.01    5.34
   0   3   1    2.00    6.17
   0  -3   1   18.28   10.49
   0  -3   1   -2.63    3.93
   0  -3  -1   12.06    8.29
   0  -3  -1   -2.93    7.70
   0   3  -1   -0.21    1.00
   0   3   1    9.21    4.71
   0   3   1    6.15    4.47
   0  -3  -1    7.89    6.10
   0  -3  -1   12.09    7.91
   0  -3   1    1.57    3.34
   0   3  -1    4.85    6.77
   0  -3   1    1.52    3.49
   0   3   1   13.16    9.72
   0  -3  -2    6.82    5.55
   0   3  -2   35.67   15.58
   0   3   2   21.34    9.73
   0   3  -2   30.64   11.90
   0   3  -2   10.87    5.02
   0  -3   2   20.78   11.27
   0   3   2   26.27   11.52
   0   3   2   17.36    8.83
   0  -3   2   21.48    9.23
   0   3  -2   16.50    7.47
   0   3   2   13.65    7.78
   0   3  -2   18.47    6.71
   0  -3  -2   11.25    8.73
   0   3   2   15.58    6.78
   0  -3   2   10.37    7.62
   0   3   2   22.84    9.54
   0   3  -2   13.95    9.54
   0  -3  -2    8.05    6.10
   0  -3   2   10.32    8.42
   0  -3  -2   22.30    9.89
   0   3   2   16.17   10.84
   0  -3  -2    9.57    7.35
   0   3  -3   53.66   18.24
   0   3  -3   53.85   15.00
   0   3   3   43.57   14.09
   0   3  -3   34.52   11.63
   0   3  -3   42.15   16.56
   0  -3   3   47.03   13.46
   0  -3   3   43.34   17.44
   0   3  -3   33.57    9.91
   0   3   3   48.28   17.93
   0  -3  -3   51.53   15.30
   0  -3  -3   46.94   17.88
   0  -3   3   35.43   12.00
   0   3   3   47.28   13.76
   0  -3  -3   39.69   14.98
   0  -3  -3   53.24   19.50
   0   3  -3   46.05   19.01
   0   3   3   39.82   15.71
   0  -3  -3   51.02   16.17
   0  -3   3   58.44   19.18
   0  -3   3   34.65   15.26
   0  -3   3   55.72   15.95
   0   3   3   44.95   12.27
   0   3   3   33.32   15.93
   0  -3  -4    8.62    5.98
   0  -3  -4   17.82    9.53
   0   3   4    2.54    2.90
   0  -3  -4    7.99    9.10
   0   3  -4   15.87   11.38
   0  -3  -4   10.18   10.87
   0  -3  -4    7.50    6.59
   0  -3   4    9.99    9.29
   0  -3   4    7.55    7.29
   0  -3   4   16.18   10.21
   0   3   4   11.41    8.35
   0   3   4    7.83    8.13
   0   3   4    1.32    4.01
   0   3   4    7.15    5.83
   0   3  -4    8.45    5.01
   0  -3   4    5.99    5.69
   0   3  -4   10.62    4.69
   0   3  -4    9.45    7.50
   0  -3   4   12.35    6.71
   0   3   4   17.59   10.81
   0  -3   4    7.37    5.26
   0   3   5    4.03    5.10
   0  -3  -5   13.28   10.76
   0  -3  -5    3.53    4.57
   0  -3   5   10.26    7.32
   0  -3   5   10.07    7.75
   0   3   5    2.71    5.01
   0   3   5    5.28    3.57
   0   3  -5    9.62   11.71
   0   3  -5   11.16    9.02
   0  -3  -5    7.99    5.37
   0  -3   5   10.00    8.21
   0   3   5   13.68    9.64
   0  -3   5   13.25    6.72
   0   3   5   -3.25    4.61
   0   3   5    1.59    2.90
   0   3  -5    1.95    2.49
   0  -3   5    6.32    7.37
   0  -3   5    8.13    5.64
   0  -3   5    7.40    7.67
   0  -3   6    1.13    2.81
   0  -3   6    6.07    4.47
   0  -3   6   -0.68    2.12
   0   3  -6    0.87    2.33
   0  -3   6   -2.52    4.06
   0   3  -6   11.92   11.71
   0  -3  -6    7.16    6.97
   0  -3   6    0.25    1.38
   0   3  -6    5.36    5.94
   0  -3   6    0.59    1.32
   0   3   6    2.14    5.98
   0  -3  -6    1.44    4.50
   0   3  -6    1.24    1.95
   0  -3  -6   10.37    9.04
   0   3   6   -1.39    3.08
   0   3   6    9.19   14.57
   0  -3   7    5.88    4.12
   0   3   7   19.66   11.51
   0   3   7  -10.75   10.84
   0   3  -7   -2.16    2.55
   0  -3   7    7.47    7.77
   0   3  -7   11.02    5.72
   0   3  -7    9.42    8.53
   0  -3   7    7.85    8.70
   0  -3  -7    0.24    7.62
   0  -3  -7   10.35    9.67
   0   3   7   -0.73    2.09
   0   3  -7    3.85    6.55
   0  -3   7    7.78    4.68
   0  -3   7    3.84    4.63
   0  -3   8   10.03    5.56
   0   3  -8    9.65    5.47
   0  -3   8    1.84    3.73
   0  -3   8    8.24   11.70
   0   3   8    8.37    8.29
   0   3  -8    9.49    8.77
   0  -3  -8    6.34   10.86
   0   3   8   -7.10    9.16
   0   3   8   20.35   12.06
   0  -3   8   12.81   10.70
   0   3  -8   16.37   13.96
   0   3  -8    6.56    7.62
   0  -3  -8   -0.54    2.36
   0   3  -9   31.46   17.79
   0  -3   9   29.63   14.41
   0  -3  -9   33.84   19.73
   0  -3   9   10.91    8.92
   0   3  -9   26.06    9.26
   0   3   9    7.75    7.97
   0  -3   9    2.25    4.53
   0  -3   9   11.44    6.23
   0   3   9   15.52   10.14
   0  -3  -9   16.80   12.47
   0   3  -9   12.30   10.95
   0   3  -9   30.69   13.65
   0   3   9    8.10   10.57
   0  -3  10  202.12   42.34
   0  -3 -10  242.22   52.77
   0   3  10  226.81   56.97
   0  -3 -10  246.95   57.71
   0   3 -10  187.15   45.22
   0   3  10  203.58   39.93
   0  -3  10  237.36   48.69
   0   3 -10  212.04   27.57
   0   3 -10  217.49   50.53
   0  -3  10  195.18   22.70
   0   3 -10  205.68   37.87
   0   3  10  198.31   47.19
   0  -3 -11    8.07   10.67
   0   3 -11    4.01    9.97
   0  -3  11   -3.36    5.88
   0   3 -11   10.48   10.81
   0   3 -11    0.44    1.28
   0  -3  11    1.63    2.01
   0  -3  11    8.34    4.76
   0  -3 -11   18.77   14.46
   0  -3  11   -1.03    3.09
   0   3  11    1.70    2.30
   0   3 -11    5.79    8.51
   0   3  11   -2.27    5.18
   0   3  11   22.60   18.59
   0   3  11   41.10   17.71
   0  -3 -12   24.20   19.37
   0  -3 -12   18.67   15.00
   0   3  12    9.84    8.80
   0  -3  12   12.81    6.15
   0  -3  12   10.79    5.88
   0   3 -12    7.05    5.42
   0   3 -12   19.10   16.23
   0  -3  12    6.86    8.26
   0   3  12    9.88   12.33
   0   3  12    4.66    4.07
   0  -3  12    5.31    7.61
   0   3  12   12.73   12.92
   0   3 -12   12.09   16.79
   0   3 -13    5.93    4.98
   0   3  13   25.52   14.39
   0   3  13    7.83   10.60
   0  -3  13    7.83    9.13
   0   3  13   30.97   22.49
   0  -3 -13   23.05   17.09
   0   3 -13   31.18   21.72
   0   3  13   14.16    7.62
   0   3 -13   10.21    6.82
   0  -3  13   14.06    6.78
   0  -3 -13   34.06   24.00
   0  -3  13   15.47    7.77
   0  -3  13   10.79   11.22
   0  -3  14   30.85   19.39
   0   3 -14   12.33    7.83
   0   3  14    8.50   18.50
   0   3 -14   14.20   15.31
   0  -3 -14   43.32   28.22
   0   3  14   20.80   18.89
   0   3  14   19.92   12.93
   0   3  14    3.08    3.79
   0  -3  14   14.65    8.18
   0  -3  14    7.94    5.34
   0  -3  14   12.62   12.51
   0  -3 -14   13.12   13.19
   0   3  15   15.82   16.93
   0  -3  15   35.00   21.19
   0   3  15   21.87   10.73
   0   3 -15   45.52   28.58
   0  -3 -15   18.89   16.20
   0  -3  15   20.97    9.07
   0   3  15   29.13   15.90
   0  -3 -15   34.16   26.06
   0   3  15   17.40   16.30
   0   3 -15   32.00   13.16
   0  -3  15   27.80   19.12
   0  -3  15   29.21   12.35
   0   3 -16   18.88   10.51
   0   3  16   13.89   15.90
   0   3  16   -1.74    3.95
   0   3  16    6.77   11.38
   0  -3  16   -2.00    3.41
   0  -3  16   14.23   13.63
   0  -3 -16    3.09    6.69
   0  -3  16   16.37   15.14
   0   3 -16    2.65    7.18
   0  -3 -16   22.32   21.87
   0  -3  17   58.60   28.61
   0  -3 -17   91.13   38.33
   0   3  17   46.27   30.05
   0   3  17   71.95   25.79
   0   3 -17   77.12   40.17
   0   3  17   76.74   39.25
   0  -3  17   50.95   27.60
   0   3 -17   61.58   19.67
   0  -3 -17   87.75   44.97
   0   4   0   65.58   20.27
   0  -4   0   39.49   16.80
   0   4   0   42.35   16.20
   0  -4   0   52.59   19.31
   0   4   0   44.08   18.99
   0  -4   0   62.95   19.02
   0  -4   0   47.28   15.06
   0  -4   1  121.13   31.56
   0   4   1  127.82   26.50
   0   4   1  118.90   30.37
   0   4   1  133.93   33.54
   0  -4  -1  138.38   27.17
   0   4  -1  188.71   35.82
   0   4  -1  149.56   31.62
   0  -4  -1  155.06   34.94
   0   4  -1  145.12   29.29
   0  -4  -1  141.92   27.99
   0   4  -1  107.93   29.86
   0  -4  -1  139.41   33.54
   0  -4   1  125.64   28.69
   0   4   1  140.81   20.91
   0   4   2  141.90   26.95
   0   4  -2  131.14   32.65
   0  -4  -2  140.27   33.18
   0  -4   2  188.09   35.28
   0  -4  -2  155.71   36.38
   0   4   2  189.75   27.23
   0  -4   2  167.01   37.16
   0  -4  -2  161.78   28.71
   0   4   2  166.44   29.90
   0   4  -2  163.36   29.17
   0   4   2  175.73   38.60
   0   4  -2  160.19   34.32
   0   4   2  174.13   38.33
   0   4  -2  179.75   34.75
   0  -4  -2  206.26   33.51
   0   4  -2  163.08   21.53
   0  -4  -3   45.26   19.61
   0   4  -3   70.30   23.33
   0   4   3   55.65   17.69
   0   4   3   62.45   18.39
   0   4  -3   57.78   22.21
   0   4  -3   44.08   18.58
   0   4  -3   40.85   12.27
   0   4  -3   49.04   14.65
   0  -4  -3   47.09   16.18
   0   4   3   47.20   15.65
   0  -4   3   45.21   19.15
   0   4   3   53.86   24.13
   0  -4   3   51.72   18.13
   0   4   3   48.46   20.77
   0  -4  -3   41.58   18.26
   0  -4   4   42.91   15.49
   0   4  -4   43.16   19.54
   0   4  -4   35.36   12.09
   0   4   4   59.36   22.48
   0  -4   4   47.84   20.69
   0   4   4   40.66   13.41
   0   4  -4   32.91   15.39
   0  -4  -4   47.68   16.52
   0  -4   4   50.03   16.98
   0   4  -4   32.30   11.95
   0   4   4   42.54   15.72
   0  -4  -4   36.90   16.85
   0  -4  -4   50.33   17.39
   0  -4  -4   43.75   20.91
   0   4   4   37.95   19.75
   0   4   4   33.65   13.96
   0  -4   5   -3.25    5.20
   0   4   5   -2.87    4.44
   0   4   5    3.63    1.81
   0  -4  -5    7.89    7.89
   0  -4   5    4.47    5.44
   0  -4  -5    6.31    6.85
   0   4   5    5.23    5.50
   0  -4   5    9.32   10.40
   0   4   5    4.11    4.36
   0   4  -5   -0.57    1.28
   0   4  -5    0.43    1.95
   0   4   5   -4.99    6.59
   0   4  -5   -4.88    6.37
   0   4  -5    2.39    3.65
   0  -4  -5   13.25    9.42
   0  -4   5    2.17    3.49
   0  -4   5    8.50    6.42
   0  -4  -5   -9.75    9.75
   0  -4   6  392.09   59.33
   0  -4  -6  363.47   54.42
   0   4  -6  311.05   54.99
   0  -4   6  364.07   57.68
   0   4   6  340.75   55.57
   0   4   6  271.07   26.74
   0  -4   6  378.56   51.88
   0  -4   6  309.57   39.10
   0   4  -6  309.92   46.17
   0   4   6  359.63   49.66
   0   4  -6  357.92   55.26
   0  -4   6  369.40   41.39
   0  -4  -6  292.28   49.52
   0   4   6  373.87   67.92
   0  -4  -6  336.66   59.73
   0  -4   6  323.95   53.04
   0   4   6  315.71   32.97
   0   4  -7   24.98   14.47
   0  -4   7   14.46    7.93
   0  -4   7   12.95   10.60
   0   4   7   14.19   10.33
   0   4   7   29.02   16.14
   0   4   7    3.57    3.28
   0  -4   7   15.09    7.74
   0  -4   7   17.72   13.27
   0  -4   7   13.28   11.25
   0   4   7    6.40    7.20
   0  -4  -7   25.60   16.64
   0  -4  -7    5.58    7.26
   0   4  -7   20.94   12.71
   0   4  -7   15.91   12.62
   0  -4  -8  182.43   45.48
   0   4   8  172.86   22.24
   0   4  -8  196.68   42.28
   0  -4  -8  235.26   52.64
   0  -4   8  205.61   43.27
   0   4   8  215.78   45.02
   0  -4   8  211.19   28.15
   0  -4   8  191.69   44.89
   0   4  -8  238.37   45.54
   0  -4   8  179.05   27.14
   0   4   8  220.93   56.59
   0   4   8  200.56   41.15
   0  -4   8  195.22   42.26
   0   4  -8  198.33   46.95
   0   4   9   22.10   14.44
   0   4   9   20.69   16.31
   0   4  -9   16.61   11.90
   0   4  -9    6.21    7.89
   0  -4   9   11.43    8.97
   0  -4   9   28.26   15.98
   0  -4   9    6.48    8.32
   0   4  -9   21.87   15.88
   0  -4   9   19.94    8.54
   0  -4   9   15.01    7.37
   0  -4  -9   32.70   19.77
   0  -4  -9   24.03   16.91
   0   4   9   -1.49    4.68
   0   4  10   85.77   36.84
   0  -4 -10   49.36   25.84
   0  -4  10   33.92   10.68
   0   4  10   34.62   18.28
   0   4  10   25.81   17.37
   0  -4  10   49.84   21.03
   0  -4 -10   27.07   18.94
   0   4 -10   46.57   22.87
   0   4 -10   33.03   11.65
   0   4 -10   38.82   21.76
   0  -4  10   33.59   11.25
   0  -4  10   34.57   19.77
   0  -4  10   43.56   21.54
   0   4 -10   32.64   16.80
   0   4 -11   12.30    9.61
   0   4 -11   15.36   13.93
   0  -4  11    5.20    7.88
   0  -4 -11   12.47   12.81
   0   4  11    0.02    4.53
   0  -4 -11   -2.24    5.71
   0   4 -11    5.39    8.20
   0   4  11   14.23   11.84
   0   4  11    7.51   11.14
   0  -4  11    4.39    6.44
   0   4 -11    6.28    4.96
   0  -4  11    2.71    5.33
   0  -4  11    9.00    5.28
   0  -4  12   10.92    5.37
   0   4  12   11.82   12.27
   0  -4  12   14.39   13.46
   0  -4  12   14.11   11.68
   0   4 -12   46.40   25.27
   0   4  12   13.73   11.78
   0   4  12    3.12    2.82
   0   4  12   20.61   18.93
   0  -4  12    8.53    4.91
   0  -4 -12   18.85   17.34
   0   4 -12   10.07   10.73
   0  -4 -12   29.55   20.08
   0  -4  12   27.25   17.39
   0   4 -12    9.13    8.97
   0   4 -12   16.52    8.18
   0   4 -13    9.45    6.31
   0   4  13   15.74   16.49
   0  -4  13    4.74    3.41
   0  -4  13    7.43    8.58
   0  -4  13   11.98   11.90
   0  -4  13   22.89   17.48
   0   4  13   12.68   11.44
   0  -4 -13    3.69    8.00
   0  -4  13   10.16    5.14
   0  -4 -13   -1.11    4.01
   0   4 -13   38.30   24.03
   0   4  13    9.21    4.72
   0   4  13    1.54    5.31
   0   4 -13   15.99   11.94
   0   4 -13   21.43   17.44
   0   4  14   49.98   31.08
   0   4  14   12.08    6.23
   0   4 -14   23.94   10.26
   0   4  14   23.02   15.60
   0  -4  14   12.05   11.06
   0  -4  14   24.97   18.74
   0  -4  14    9.97    4.85
   0  -4 -14   26.79   22.48
   0  -4  14   21.68   16.47
   0   4 -14   11.00   12.84
   0  -4  14   15.20    6.01
   0  -4 -14   47.59   26.77
   0   4  14   33.35   22.67
   0   4 -14   28.17   21.53
   0   4  15   29.78   22.30
   0   4 -15   18.04    9.11
   0  -4  15   33.08   20.97
   0  -4  15   18.86   14.00
   0   4 -15   29.29   22.89
   0   4  15   38.17   20.31
   0  -4 -15   24.22   19.51
   0  -4  15   64.48   29.37
   0  -4 -15   49.95   31.89
   0   4  15   30.74   20.97
   0  -4 -16  -18.82   20.32
   0  -4  16   -0.81    2.92
   0   4  16   -1.05    4.72
   0   4  16   14.35   12.59
   0  -4 -16  -22.60   19.24
   0  -4  16  -16.85   16.28
   0  -4  16   -3.44    6.96
   0   4 -16    2.11    3.19
   0   4  16  -10.24   13.62
   0   4 -16   -4.98    9.81
   0  -5   0    4.01    5.29
   0   5   0    7.70    7.77
   0   5   0    9.81    9.19
   0  -5   0   15.50   13.66
   0   5   0   -0.89    1.60
   0  -5   0    4.04    7.10
   0   5   0  -12.19   11.21
   0   5   1   13.09   10.89
   0  -5   1   10.21    9.45
   0  -5  -1   21.65   12.05
   0   5  -1   30.35   15.34
   0  -5   1   21.40   15.57
   0  -5  -1   14.28   11.78
   0  -5  -1   17.12   12.14
   0   5  -1   12.17   12.25
   0  -5  -1    5.71    3.88
   0   5  -1    8.81    9.59
   0   5  -1   18.88    7.12
   0   5   1   11.10    6.71
   0   5   1   18.89   11.90
   0   5   1    8.80    5.56
   0   5  -2   -7.04    8.48
   0   5  -2    0.02    3.77
   0  -5   2   -9.78    9.95
   0  -5  -2   -5.26    7.21
   0   5   2   -7.13    5.55
   0   5  -2   -0.68    2.85
   0   5   2    1.55    4.01
   0   5   2    3.01    4.53
   0   5   2   -1.41    3.85
   0   5  -2    0.70    1.46
   0  -5   2    0.75    6.45
   0  -5  -2   -1.89    4.37
   0  -5  -2   -7.55    7.05
   0  -5   3    2.71    5.25
   0  -5  -3   12.79    9.26
   0   5  -3   12.32   12.24
   0  -5  -3    8.91    7.77
   0   5   3   15.82   12.97
   0   5   3    3.88    5.02
   0  -5  -3    3.82   10.95
   0   5  -3   25.00   11.14
   0  -5   3   27.06   14.54
   0   5  -3   21.89    8.21
   0   5   3   15.04   10.51
   0   5  -3    4.49    2.44
   0   5   3   20.91   10.46
   0   5   3    1.82   10.60
   0  -5   4  218.33   48.20
   0   5   4  220.90   52.32
   0   5  -4  189.14   44.16
   0   5  -4  201.29   30.80
   0  -5   4  198.19   37.96
   0   5  -4  178.83   31.05
   0   5   4  202.93   47.09
   0  -5  -4  189.33   46.95
   0   5   4  213.55   38.72
   0   5   4  169.59   31.70
   0  -5  -4  174.09   41.89
   0   5  -4  188.14   44.10
   0  -5   4  185.55   37.85
   0  -5  -4  220.03   40.80
   0   5   4  184.19   34.32
   0   5  -5  166.72   42.75
   0   5   5  130.80   42.12
   0  -5   5  145.47   32.04
   0   5  -5  143.31   28.47
   0  -5  -5  176.28   46.81
   0  -5   5  151.90   32.26
   0  -5  -5  167.52   35.41
   0   5   5  173.86   36.81
   0  -5   5  127.59   36.82
   0  -5  -5  187.38   39.53
   0  -5   5  121.13   34.62
   0   5  -5  164.71   42.02
   0   5  -5  146.83   26.50
   0   5   5  161.30   42.35
   0  -5  -5  162.44   39.60
   0   5   5  168.21   30.43
   0   5   5  157.53   34.05
   0   5   6   12.76   10.73
   0   5  -6   10.45   14.27
   0   5   6   32.80   16.18
   0  -5   6   22.92   11.75
   0  -5  -6   16.14   11.70
   0   5  -6    5.26    5.12
   0   5   6   10.14   10.00
   0  -5  -6    8.07    9.92
   0  -5   6   17.56   10.65
   0   5  -6   16.68    7.78
   0   5   6   23.51   10.64
   0  -5   6    0.62    2.52
   0  -5   6   20.24   14.80
   0   5  -6   12.33   11.29
   0   5   7    6.36    9.70
   0  -5   7    7.48    6.42
   0   5   7    2.60    2.24
   0  -5   7   -9.10    9.75
   0  -5  -7    8.80   10.59
   0  -5   7   -8.89    9.75
   0   5  -7   -2.24    4.83
   0   5   7   -0.21    1.52
   0   5  -7    7.24    7.48
   0  -5  -7   -0.89    2.95
   0   5   7   -3.44    5.36
   0   5   7   -8.94    6.23
   0   5  -7   -4.12    3.08
   0   5  -7   -0.63    3.52
   0  -5   7   13.19    7.88
   0   5   7    4.41    2.69
   0  -5   7    6.56    8.40
   0   5   8   -0.98    6.55
   0   5   8   17.25    8.15
   0  -5   8    9.11    9.88
   0   5   8    7.10    4.69
   0   5  -8    8.27   10.05
   0   5   8    3.74    5.74
   0  -5   8   -2.08    4.76
   0  -5  -8   -0.49    2.33
   0  -5   8    5.02    7.55
   0   5  -8    4.83    7.15
   0   5   8   -5.36    9.18
   0  -5  -8    0.60    2.82
   0   5  -8  -10.79    9.78
   0  -5   8    0.08    0.67
   0  -5   8   -3.09    3.92
   0   5  -9  179.55   49.99
   0  -5   9  165.61   42.51
   0   5   9  164.68   52.39
   0   5   9  155.33   23.48
   0  -5   9  178.55   46.78
   0   5   9  178.39   29.06
   0  -5  -9  215.35   54.85
   0   5  -9  240.70   51.60
   0  -5  -9  211.95   51.79
   0  -5   9  185.62   28.93
   0   5   9  176.07   46.57
   0   5  -9  154.88   39.79
   0  -5   9  177.79   30.69
   0  -5   9  189.64   46.22
   0   5   9  202.25   44.92
   0   5  10   23.05   20.15
   0  -5  10   46.92   22.98
   0   5 -10   38.07   20.31
   0   5 -10   37.77   22.84
   0  -5  10   34.60   12.70
   0  -5 -10    1.38    4.45
   0  -5  10   17.66   14.95
   0  -5  10   34.52   12.06
   0   5 -10   13.82   12.47
   0   5  10   24.28   14.31
   0   5  10   20.94    7.97
   0   5  10   11.46   11.63
   0  -5  10   28.17   17.88
   0  -5 -10   13.79   13.66
   0   5  11   11.95   11.65
   0  -5  11    7.59    5.63
   0  -5 -11    2.77    6.45
   0   5 -11    6.47    9.59
   0  -5  11   23.17    9.81
   0   5 -11   15.31   13.84
   0  -5  11   17.53   14.36
   0  -5  11    3.01    6.32
   0  -5  11   24.66   16.82
   0   5  11    3.93    3.17
   0   5  11    3.60    8.16
   0   5  11    8.83   10.30
   0  -5 -11   16.58   15.71
   0   5 -11   12.89   11.92
   0  -5  12   -2.81    3.39
   0  -5  12    2.12    5.47
   0   5 -12   13.35   13.57
   0   5  12    0.76    1.28
   0  -5  12   -2.16    5.15
   0   5 -12   -8.32   11.16
   0   5  12   -2.93    6.02
   0   5 -12    6.64    8.59
   0   5  12   14.87   17.04
   0   5  12  -10.84   11.52
   0  -5  12    3.85    6.71
   0  -5  12   -1.57    2.38
   0  -5 -12   -6.28   10.10
   0  -5 -12   -6.20    9.84
   0   5  13   34.92   24.70
   0   5 -13   35.46   25.68
   0   5  13   63.53   28.14
   0  -5  13   30.42   19.89
   0  -5  13   37.63   23.30
   0  -5 -13   42.12   26.12
   0  -5 -13   45.37   28.34
   0   5 -13   36.30   22.05
   0   5  13   77.86   40.01
   0   5 -13   58.92   29.85
   0  -5  13   33.35    9.99
   0  -5  13   48.77   24.66
   0   5  13   13.01    4.90
   0  -5 -14   86.15   38.12
   0   5 -14  101.75   43.97
   0   5  14   63.99   33.16
   0  -5  14  100.50   34.90
   0  -5  14   66.81   30.24
   0   5 -14  101.40   40.91
   0   5 -14   78.62   32.81
   0  -5  14   84.69   37.90
   0   5  14   70.57   29.72
   0   5  14  112.70   49.31
   0  -5 -14  102.07   44.22
   0   5 -15    7.09   11.29
   0   5  15   -1.39    4.23
   0   5 -15    9.83   13.11
   0   5  15   20.35   18.20
   0  -5 -15    2.76    6.94
   0   5  15  -23.89   23.24
   0  -5  15   -0.03    0.65
   0   5 -15   15.98   13.44
   0  -5  15   16.90   14.46
   0  -5  15   -5.06    9.13
   0  -5 -15  -13.24   16.55
   0   6   0   39.69   11.43
   0   6   0   31.59   17.37
   0  -6   0   16.23   13.49
   0  -6   0   19.18   15.31
   0   6   0   57.65   24.63
   0   6   0   40.25   22.59
   0  -6  -1    5.02    4.06
   0   6   1    0.44    2.00
   0  -6   1   -9.21    9.94
   0   6   1    7.96    5.53
   0  -6  -1   -1.41    3.36
   0  -6  -1   11.30   11.49
   0   6   1   -3.55    6.37
   0  -6  -1   -1.76    4.63
   0  -6   1    6.91    9.21
   0   6   1  -14.17   13.46
   0   6  -1    0.22    7.74
   0   6  -1  -11.13   11.82
   0   6  -1   -3.04    2.95
   0   6  -1   -4.50    6.72
   0   6   2   67.57   29.45
   0   6   2  113.92   31.10
   0   6  -2  149.24   36.19
   0   6  -2  125.95   37.33
   0  -6  -2  136.65   31.72
   0   6   2  155.82   26.88
   0  -6   2  147.73   43.31
   0  -6  -2  106.06   36.62
   0  -6  -2   79.07   31.24
   0  -6   2  106.69   33.45
   0   6  -2  115.29   37.49
   0   6  -2  144.31   21.46
   0   6   2  134.80   41.50
   0   6  -3  396.90   72.76
   0   6  -3  437.90   70.54
   0   6  -3  423.89   57.71
   0   6   3  410.36   57.68
   0  -6  -3  339.74   66.43
   0  -6   3  390.95   63.40
   0  -6   3  404.36   71.69
   0  -6  -3  379.65   68.05
   0  -6  -3  452.66   60.27
   0   6   3  463.47   51.71
   0   6   3  410.85   74.66
   0   6   3  399.24   72.53
   0   6  -3  424.10   40.67
   0  -6  -4    6.04    8.94
   0   6  -4    6.55    7.97
   0   6  -4    5.31    6.01
   0   6   4   12.02    8.91
   0  -6  -4  -12.36   12.06
   0   6  -4    4.30    4.47
   0   6  -4    0.73   10.03
   0  -6   4    8.83    9.04
   0   6   4   16.94   11.57
   0   6   4   -2.36    5.58
   0  -6   4    8.21   10.13
   0   6   4   20.75   12.44
   0   6   4    1.54    4.68
   0   6  -5    4.36    4.95
   0   6  -5   21.54   17.50
   0   6   5   15.57   10.94
   0  -6  -5    2.41    5.75
   0  -6   5   -6.06    8.70
   0   6   5   11.60   13.25
   0   6  -5   -6.75    9.08
   0   6   5   13.76   10.89
   0   6   5   -0.76    3.19
   0  -6  -5  -11.62   11.57
   0   6   5    1.90    3.63
   0   6  -5    9.35    7.42
   0  -6   5  -15.12   11.51
   0  -6   6   15.72   15.79
   0   6  -6    8.54   10.30
   0  -6  -6   13.51   17.06
   0   6  -6   10.24    7.24
   0   6   6   31.16   22.38
   0   6   6   21.75   14.14
   0   6  -6   16.80   11.48
   0   6   6   -4.03    7.35
   0  -6  -6   12.82    9.64
   0   6  -6    3.46    4.79
   0  -6   6    6.99    9.40
   0   6   6    8.50    7.35
   0  -6   6    4.41    6.04
   0  -6   7   17.96   14.77
   0   6   7    2.16    5.42
   0   6   7   -1.59    3.93
   0   6  -7    4.22    5.72
   0   6  -7   -2.58    3.30
   0  -6  -7    0.13    1.33
   0  -6  -7   14.57   12.02
   0   6   7    8.42   11.95
   0  -6   7   -7.93    7.85
   0   6  -7   -7.47    9.64
   0   6   7    5.18    5.48
   0  -6   7    2.03    5.10
   0  -6   7    5.55    8.18
   0   6  -7  -18.78   15.84
   0  -6  -8    3.76    6.47
   0  -6   8   -6.66    6.96
   0   6  -8    1.27    1.76
   0  -6   8   12.09   11.65
   0   6   8    6.66    8.24
   0   6   8    8.31    6.58
   0   6  -8    3.68    5.72
   0  -6   8   -0.03    0.55
   0   6  -8    9.43   10.92
   0  -6   8   -9.72   11.22
   0   6  -8   -1.87    5.12
   0   6   8   18.12   15.79
   0   6   8    9.24   12.87
   0  -6   8   15.11    9.92
   0  -6  -8    0.22    1.84
   0  -6   9   34.71   15.30
   0   6   9   37.87   26.74
   0   6   9   40.79   23.84
   0   6   9   27.71    7.35
   0  -6  -9   50.88   28.45
   0   6   9   33.37   12.41
   0   6   9   28.94    8.16
   0  -6   9   44.26   24.68
   0   6  -9   27.64   18.78
   0   6  -9   46.95   29.74
   0   6   9   50.25   23.08
   0  -6   9   46.41   16.45
   0  -6  -9   56.24   25.44
   0  -6   9   44.45   24.16
   0  -6   9   27.91   18.70
   0   6  -9   55.51   23.65
   0  -6 -10   36.79   24.57
   0   6  10   24.41    9.10
   0   6  10   35.97   22.54
   0  -6  10   40.69   23.29
   0  -6 -10   16.10   14.85
   0   6  10   11.05   11.13
   0   6 -10    5.60    7.96
   0   6  10   15.09    7.75
   0  -6  10   29.71   12.41
   0  -6  10   12.49    8.78
   0   6 -10    2.00    5.10
   0   6  10    6.66    4.93
   0   6  10   13.63   16.45
   0   6 -10   23.43   18.91
   0  -6  10   31.77   20.94
   0  -6  10    1.38    4.18
   0   6  11   -4.01    3.61
   0  -6 -11  -10.19   13.17
   0   6 -11   15.55   15.74
   0  -6  11   13.17   13.16
   0   6 -11    9.05   10.67
   0   6 -11   -7.59   10.02
   0   6  11    2.58    3.52
   0  -6  11   -5.29    8.46
   0   6  11   -7.67   10.48
   0  -6  11   10.94    7.80
   0   6  11   -3.47    6.40
   0   6  11   -4.88    5.64
   0  -6 -11   10.35   12.47
   0  -6  11    7.61   10.49
   0   6  12    2.25    5.71
   0  -6 -12   13.17   14.71
   0   6 -12   14.42   13.95
   0   6  12   -3.36    6.53
   0   6  12   -5.71    5.93
   0  -6  12  -16.07   14.87
   0  -6  12   -5.75    5.28
   0   6  12   -6.40   11.84
   0   6 -12   10.81   12.25
   0  -6  12   -5.09    8.31
   0   6 -12   -7.55   11.21
   0  -6 -12    2.30    6.37
   0  -6  12    4.90    8.62
   0   6  13   21.35   22.10
   0  -6  13   -3.04    6.97
   0   6  13    5.26    8.45
   0   6  13  -15.03   14.87
   0   6 -13   13.09   15.12
   0   6  13   -3.31    4.98
   0  -6 -13  -19.28   18.77
   0  -6  13    6.77    9.72
   0  -6 -13    6.53   10.79
   0  -6  13   12.44   13.24
   0   6 -13   -2.50    5.85
   0   6 -13   12.71   13.92
   0   7   0   -9.56   10.38
   0   7   0    1.14    4.17
   0  -7   0   -1.11    3.82
   0   7   0   -6.44    8.96
   0  -7   0   -0.05    0.54
   0   7   0    5.22    4.12
   0  -7   0   10.05   12.08
   0   7   1   -6.07    9.05
   0   7   1  -16.12   13.17
   0  -7  -1    6.45    9.67
   0   7  -1   -2.30    2.63
   0   7  -1  -26.20   19.81
   0  -7   1   15.11   14.93
   0   7   1    4.63    8.42
   0   7   1    1.16    2.12
   0   7  -1    3.71    6.53
   0  -7  -1  -10.60   12.08
   0   7  -1    5.10    3.77
   0  -7  -1   -0.97    1.87
   0   7  -1  -12.79   12.30
   0  -7   1   -5.50    8.35
   0  -7  -1   -2.30    2.62
   0  -7  -2   10.86   12.81
   0   7   2   15.36    8.54
   0  -7   2   13.28   13.95
   0   7   2    3.12    6.72
   0   7   2    2.84    6.63
   0  -7  -2   -2.65    6.15
   0   7  -2    4.69    8.35
   0  -7   2  -10.38   11.27
   0   7  -2   -3.33    5.90
   0   7  -2   -7.21    9.45
   0   7  -2    6.77    4.52
   0   7   2  -10.49   10.35
   0   7  -3   10.10    6.04
   0   7   3   16.90    9.86
   0  -7   3    9.04   11.51
   0  -7  -3    1.71    4.95
   0   7   3    5.98    9.65
   0  -7  -3   -7.47   10.53
   0  -7   3   10.64    9.86
   0   7  -3   -5.85    8.70
   0   7   3    4.22    6.37
   0   7  -3   11.84   13.22
   0   7   3    4.80    8.61
   0   7  -3    9.59    9.51
   0  -7  -4   -3.20    7.01
   0  -7   4   -5.17    7.61
   0  -7  -4    1.00    3.74
   0   7  -4   48.12   26.46
   0   7   4   23.10   19.07
   0   7   4   16.83   16.60
   0   7   4   13.62    9.65
   0   7  -4   25.65   14.69
   0   7  -4   36.41   20.45
   0   7  -4    9.10    6.37
   0  -7   4   25.66   19.45
   0   7   4    7.83    8.43
   0   7   5  129.62   47.36
   0   7  -5   67.11   19.13
   0   7  -5  101.78   37.76
   0  -7  -5   81.24   35.92
   0   7  -5   80.83   33.70
   0  -7   5   88.02   36.12
   0   7   5   90.62   26.99
   0  -7  -5   78.46   34.48
   0  -7   5   69.60   27.26
   0   7   5  122.32   43.88
   0   7  -5   93.27   26.31
   0  -7  -6   69.43   30.53
   0   7   6   72.76   27.06
   0   7   6   60.77   35.03
   0   7  -6   65.56   20.75
   0  -7   6   59.63   29.86
   0   7  -6  104.33   40.28
   0  -7   6   62.44   28.79
   0   7  -6   95.04   37.44
   0   7   6  102.95   40.53
   0  -7   6   68.24   26.31
   0  -7  -6   50.77   28.88
   0   7   6   88.39   26.88
   0   7  -6   58.27   19.51
   0  -7   7   -4.23    7.61
   0   7  -7    5.09    8.80
   0   7   7    2.63    6.53
   0   7  -7    1.44    3.33
   0   7   7  -12.22   15.36
   0  -7  -7   -6.75   10.72
   0   7   7   -0.95    2.63
   0   7   7   12.13   11.43
   0   7  -7   -4.20    4.91
   0  -7   7    9.88    9.75
   0  -7   7   13.44   14.25
   0   7  -7  -15.19   14.85
   0   7  -8  -18.42   17.07
   0  -7   8  -13.17   14.14
   0   7   8   -4.69    8.75
   0  -7   8   -0.67    3.04
   0   7   8    4.07    5.18
   0  -7  -8  -23.10   20.15
   0   7  -8    5.60    4.99
   0  -7   8    5.48    8.81
   0   7   8    2.85    5.72
   0   7  -8  -13.52   14.08
   0  -7   8   -9.73    9.38
   0   7   8   -4.17    9.19
   0   7  -8    6.25    7.43
   0   7   9    8.16   11.60
   0  -7  -9   27.77   22.45
   0   7   9    6.37    8.77
   0  -7   9   -7.72    8.07
   0   7  -9   12.28   14.22
   0   7   9    6.90    6.39
   0  -7   9   12.60   13.54
   0  -7   9    3.57    7.39
   0   7  -9  -13.49   14.12
   0   7   9   10.38   14.85
   0   7  -9   12.27   11.13
   0  -7   9   10.22   12.08
   0   7 -10    2.68    6.78
   0   7  10   24.82   23.49
   0   7 -10   23.63   16.37
   0   7  10    1.36    4.15
   0  -7  10    7.91    7.86
   0   7  10   -3.46    7.59
   0  -7 -10    3.44    6.91
   0  -7  10    9.07   11.44
   0   7 -10   15.47   18.09
   0  -7  10   -9.15   12.06
   0  -7  10    6.28    9.73
   0   7  10    2.19    3.34
   0  -7 -10   -8.62   12.68
   0  -7  11    1.38    3.14
   0  -7 -11   -7.21   11.79
   0   7 -11  -15.06   15.17
   0  -7  11   -4.41    8.32
   0  -7  11  -14.20   14.39
   0   7 -11    7.93   10.02
   0   7 -11  -13.93   15.76
   0   7  11   -7.62   10.02
   0   7  11    5.33    9.46
   0   7  11  -20.89   22.03
   0  -7  11  -21.37   18.32
   0  -7 -11   18.69   16.80
   0   8   0   -9.91   11.40
   0   8   0    6.15    3.88
   0   8   0   -6.06   10.37
   0  -8   0   13.06    7.89
   0  -8   0  -13.70   15.23
   0   8   0   12.60   13.52
   0   8   0    1.19    1.73
   0  -8   0   22.67   18.67
   0   8  -1   19.40   16.31
   0   8  -1   26.39   18.83
   0  -8  -1   13.31    6.07
   0   8  -1   39.66   26.42
   0  -8   1   -3.60    7.81
   0  -8  -1   25.57   20.78
   0   8   1   18.72   17.07
   0  -8  -1   24.84   19.89
   0   8   1   27.04   16.96
   0   8   1   30.53   19.58
   0  -8   1    7.67   10.67
   0   8  -2   29.82   20.64
   0   8   2   20.27   15.57
   0   8  -2   32.08   19.89
   0   8  -2   12.92   14.22
   0  -8   2   19.53   18.24
   0   8   2    4.26    8.43
   0  -8   2    7.94   10.65
   0  -8  -2   25.85   20.64
   0   8  -2    9.78    3.85
   0  -8  -2   50.64   26.47
   0   8   2  -12.51   15.07
   0  -8  -3   33.87   24.00
   0  -8   3   26.17   18.96
   0   8  -3   20.38    7.59
   0   8   3   16.90   17.26
   0   8  -3   43.67   22.14
   0   8  -3   60.69   31.86
   0  -8   3   30.40   22.02
   0   8   3   59.41   25.22
   0  -8  -3   15.26   15.91
   0   8   3   33.94   24.51
   0   8  -3   20.69   18.89
   0  -8   4   29.01   22.32
   0   8  -4   16.44   16.71
   0   8   4   35.65   25.65
   0  -8  -4   42.97   26.52
   0  -8   4   -5.37    8.42
   0   8   4    5.41    7.61
   0   8  -4   -4.82    8.62
   0   8  -4    1.90    2.71
   0   8  -4   12.57   11.27
   0   8   4   28.86   23.10
   0  -8  -4   12.60   16.85
   0   8   5   28.15   23.52
   0   8  -5   20.86   18.29
   0  -8  -5   33.40   24.62
   0   8  -5    0.57    1.68
   0   8   5   15.60   12.55
   0  -8  -5   -5.31    9.24
   0   8   5   38.93   25.35
   0   8  -5   13.70   15.20
   0  -8   5    1.62    5.28
   0   8  -5   11.56   10.19
   0  -8   5    3.84    6.96
   0  -8   6   -5.47    9.75
   0   8  -6    6.20    7.04
   0   8  -6   -6.17   10.13
   0  -8  -6    3.52    8.12
   0   8   6   -3.27    5.55
   0  -8   6  -12.32   13.66
   0   8  -6    2.81    4.15
   0   8   6   -8.88   13.54
   0   8  -6   10.79   13.49
   0  -8  -6   -6.69   10.24
   0   8   6   22.29   20.45
   0  -8   6  -13.22   12.62
   0  -8   7   -5.74    9.43
   0  -8  -7    1.22    4.85
   0   8   7   -5.29   10.70
   0   8  -7    0.62    2.09
   0  -8   7   -0.16    1.36
   0   8  -7  -17.37   17.31
   0   8   7    7.67    9.32
   0   8  -7    9.80    8.50
   0   8   7  -12.52   10.46
   0   8   7   27.28   22.71
   0   8  -7  -15.68   16.20
   0  -8   7   32.53   23.82
   0  -8   8    3.34    7.67
   0   8  -8   -1.09    4.30
   0   8  -8    9.48   13.01
   0  -8   8   10.41   12.82
   0   8   8   -3.88   11.05
   0   8   8   20.51   19.78
   0   8   8   24.33   17.26
   0  -8   8    5.99    8.07
   0   8   8   -7.39    7.69
   0  -8  -8    8.45   12.97
   0  -8   8  -10.18   12.90
   0   8  -8    5.74    7.04
   0   9   0  -13.41   14.93
   0  -9   0  -18.85   19.13
   0   9   0    6.66   11.71
   0  -9   0   -5.47    9.80
   0   9   0    8.24   11.14
   0   9   1  198.22   59.30
   0   9  -1  191.88   54.67
   0   9   1  160.81   56.78
   0  -9   1  194.75   57.57
   0  -9   1  124.40   49.82
   0   9  -1  186.16   61.57
   0   9   1  167.07   49.06
   0   9  -1  201.85   56.24
   0  -9  -1  131.39   47.76
   0  -9  -1  194.46   61.26
   0   9   2    5.17    8.43
   0  -9  -2    5.69   10.32
   0  -9   2   13.51   12.79
   0   9   2   17.09   18.94
   0   9  -2  -11.25   15.06
   0   9  -2   19.61   16.74
   0  -9   2   20.65   20.08
   0  -9  -2   25.74   22.22
   0   9  -2    4.25    8.32
   0   9   2   37.00   26.41
  -1   0  18    3.30    6.83
  -1   0  18    0.57    3.46
   1   0 -18    8.62   14.49
  -1   0  18  -14.09   14.57
   1   0 -18   -0.11    1.11
  -1   0  17    4.30    7.83
  -1   0  17    4.37    7.58
   1   0 -17   18.58   20.51
   1   0 -17   -2.98    5.60
  -1   0  17  -23.90   21.81
   1   0 -16   -0.48    3.15
  -1   0  16   19.34   18.96
  -1   0  16   -0.35    2.04
   1   0 -16   -2.90    5.41
  -1   0  16    4.25    7.58
   1   0 -15    7.31    8.40
   1   0 -15   -7.43   12.05
  -1   0  15   19.01   18.15
  -1   0  15   13.08   12.08
   1   0 -14   19.40   18.70
  -1   0  14   -4.30    8.32
  -1   0  14   12.46   11.25
   1   0 -14   -5.14    6.86
  -1   0  13   -0.82    2.76
  -1   0  13   -2.09    5.58
   1   0 -13   21.49   18.88
   1   0 -13   -7.70    8.20
  -1   0  12   -1.32    7.61
   1   0 -12    2.44    4.47
   1   0 -12    3.03    6.78
  -1   0  12    0.98    2.85
  -1   0  11  205.08   39.20
  -1   0  11  175.38   48.06
   1   0 -11  221.12   42.70
   1   0 -11  202.20   53.51
   1   0 -10   11.35   15.33
  -1   0  10   -0.38    1.60
  -1   0  10   13.76   15.60
   1   0 -10   -2.65    4.34
   1   0  -9   77.56   20.42
   1   0  -9   84.85   24.08
  -1   0   9   67.51   19.43
  -1   0   9   73.50   21.45
   1   0  -9   82.63   20.67
  -1   0   9   91.29   31.23
   1   0  -9   92.73   33.29
   1   0  -8   -3.77    4.77
   1   0  -8   -8.45    9.19
  -1   0   8    9.43    9.32
  -1   0   8   -0.51    0.89
   1   0  -8    1.22    0.76
   1   0  -8   -6.88    5.41
  -1   0   8   -2.81    3.96
   1   0  -7  777.31   53.83
  -1   0   7  762.47   80.00
   1   0  -7  768.99   83.41
  -1   0   7  735.61   56.45
   1   0  -7  719.94   63.82
   1   0  -7  777.36   54.54
  -1   0   7  811.91   65.08
   1   0  -6   -2.62    5.71
  -1   0   6    3.82    3.77
  -1   0   6    1.82    2.66
   1   0  -6    3.74    5.10
   1   0  -6    1.00    3.69
  -1   0   6   -1.28    4.64
   1   0  -6    3.92    5.17
   1   0  -6    1.62    3.42
  -1   0   6   -0.89    2.63
  -1   0   5 2253.09   80.46
   1   0  -5 2336.32  103.24
   1   0  -5 2343.88  125.35
   1   0  -5 2434.69   78.67
  -1   0   5 2475.81  124.72
  -1   0   5 2686.19  130.96
  -1   0   5 2465.03   99.64
   1   0  -5 2609.28  128.22
  -1   0   5 2426.32   77.70
   1   0  -5 2392.83   76.15
  -1   0   4   -0.41    1.09
   1   0  -4    0.92    1.27
  -1   0   4    0.36    5.69
   1   0  -4   -3.79    2.04
  -1   0   4    0.86    0.55
  -1   0   4    1.87    0.95
   1   0  -4   -6.34    5.52
   1   0  -4   -1.01    1.13
   1   0  -4   -0.60    2.98
  -1   0   4    4.30    5.50
  -1   0   3  724.81   56.30
   1   0  -3  714.87   56.07
  -1   0   3  711.73   53.83
   1   0  -3  729.34   53.97
   1   0  -3  684.77   47.03
  -1   0   3  660.61   49.87
   1   0  -3  678.72   31.32
  -1   0   3  689.87   29.13
  -1   0  -3    1.49    1.17
   1   0   3    5.20    4.79
  -1   0  -3   -0.62    3.04
   1   0   3   -2.00    3.85
  -1   0  -3   -0.62    5.67
  -1   0  -4    0.36    3.47
  -1   0  -4   -0.65    1.59
  -1   0  -4   -0.21    2.25
   1   0   4   -1.33    2.54
   1   0   4    3.42    4.39
  -1   0  -4    0.33    3.66
   1   0   4    2.52    2.25
   1   0   4   -3.93    4.20
  -1   0  -4    0.95    1.32
   1   0   5  381.24   34.75
   1   0   5  333.08   38.52
  -1   0  -5  356.22   34.03
   1   0   5  353.20   40.06
   1   0   5  407.42   53.40
  -1   0  -5  357.48   33.00
  -1   0  -5  380.27   42.34
  -1   0  -5  401.64   52.06
   1   0   5  380.87   35.30
  -1   0  -5  360.69   39.18
   1   0   6    3.33    5.58
   1   0   6    9.84    8.65
  -1   0  -6    0.89    1.71
   1   0   6   -6.37    5.64
  -1   0  -6    9.00    8.94
   1   0   6    6.13    6.18
   1   0   6   -2.12    2.73
  -1   0  -6   -4.47    5.79
  -1   0  -6    3.65    6.25
  -1   0  -7  111.66   26.04
   1   0   7  104.57   25.49
  -1   0  -7  115.86   21.18
   1   0   7  112.88   26.09
   1   0   7  117.38   21.99
  -1   0  -7  114.40   22.41
   1   0   7  112.97   21.75
  -1   0  -7  114.84   32.42
  -1   0  -8    0.89    4.66
   1   0   8    5.56    6.48
   1   0   8    5.42    5.98
  -1   0  -8   -2.63    5.04
  -1   0  -8   -0.30    3.99
   1   0   8    4.14    4.45
   1   0   8   -7.99    6.01
  -1   0  -8   -1.05    2.22
  -1   0  -9   86.88   21.37
   1   0   9   85.50   21.67
  -1   0  -9  101.92   22.54
   1   0   9  118.69   26.11
  -1   0  -9  121.83   37.63
  -1   0  -9  112.37   30.21
   1   0   9   96.57   27.41
   1   0   9  104.81   28.22
  -1   0 -10    0.59    1.76
  -1   0 -10   -9.86    7.55
   1   0  10   -1.17    3.11
  -1   0 -10  -10.65   11.30
   1   0  10    2.19    2.28
   1   0  10   -3.71    5.42
   1   0  10    7.77    6.85
   1   0  10   -2.09    3.44
   1   0  11  202.45   36.55
   1   0  11  146.12   16.09
  -1   0 -11  227.83   38.31
  -1   0 -11  278.57   62.37
  -1   0 -11  251.51   38.74
   1   0  11  255.16   49.31
   1   0  11  223.11   44.97
  -1   0 -12   -2.50    3.88
  -1   0 -12   11.33    8.84
   1   0  12    0.24    1.57
   1   0  12   16.39   12.46
   1   0  12    3.17    4.64
   1   0  12    2.98    2.43
  -1   0 -12   11.87   13.11
   1   0  13  198.93   47.08
   1   0  13  208.86   47.52
  -1   0 -13  242.94   62.85
  -1   0 -13  267.14   41.66
   1   0  13  149.29   18.28
   1   0  14   -3.44    2.92
   1   0  14   -5.56    7.85
  -1   0 -14   -1.28    2.88
   1   0  14   -1.05    3.55
  -1   0 -14  -13.25   15.07
  -1   0 -15   11.32    8.75
   1   0  15   -6.74    9.37
  -1   0 -15   -0.27    2.22
   1   0  15   -0.08    0.46
   1   0  15   -3.23    6.20
   1   0  16   13.30   12.98
   1   0  16    1.79    2.27
   1   0  16    6.90    3.52
  -1   0 -16   29.90   24.47
   1   0  16  -13.17   13.63
  -1   0 -16   -4.61    5.67
   1   0  17    2.71    6.42
  -1   0 -17   15.90   10.70
   1   0  17   21.97   20.54
   1   0  17    8.10   10.45
  -1   0 -17   12.40   16.36
   1   0  18   -7.85   11.37
   1   0  18   19.40   19.97
  -1   0 -18   14.27   18.20
   1   0  18   -1.05    3.87
  -1   0 -18    6.94    7.16
   1   1 -18   -4.11    6.32
  -1   1  18    6.51    9.67
   1  -1 -18   15.61   14.27
   1  -1 -18  -18.10   21.22
  -1  -1  18    9.10   11.05
  -1   1  18   51.10   33.08
  -1  -1  18   -9.04   10.84
  -1  -1  18   11.02   15.39
   1   1 -18   14.41   18.55
  -1   1  18  -15.15   16.10
   1  -1 -17   -9.92   11.16
   1   1 -17   15.69   12.13
  -1   1  17  -12.86   14.49
  -1  -1  17   -5.58   10.60
  -1  -1  17   -7.93    9.89
  -1   1  17   -5.82   10.81
  -1  -1  17    0.30    1.93
  -1   1  17    3.58    7.07
   1  -1 -17  -31.88   27.20
   1   1 -17   17.55   19.75
  -1   1  16   26.33   20.19
  -1  -1  16    2.58    5.41
  -1  -1  16    5.42   10.08
   1   1 -16    5.93   11.06
   1   1 -16    1.19    3.25
   1  -1 -16    4.09    9.40
  -1   1  16  -11.89   14.95
  -1  -1  16   -3.80    6.64
  -1   1  16    7.51    9.88
   1  -1 -15   16.14   11.57
   1   1 -15   -4.45    6.15
   1   1 -15    0.62    3.46
  -1   1  15   10.56   13.62
  -1  -1  15   13.25   11.70
  -1  -1  15    4.12    8.48
  -1   1  15   -9.61   10.75
   1  -1 -15    9.92   14.09
  -1   1  15   -5.67    9.13
   1  -1 -14    2.46    6.74
  -1  -1  14   -0.62    2.39
  -1   1  14   -9.67   10.35
  -1  -1  14    8.50   11.71
  -1   1  14    1.82    5.47
   1   1 -14  -14.12   15.79
   1   1 -14  -14.82   10.94
   1  -1 -14   -0.82    2.77
   1   1 -13    2.84    4.64
   1  -1 -13    3.73    5.75
  -1   1  13   -8.78    9.45
   1   1 -13   -9.21   12.22
  -1   1  13    5.33    8.97
  -1  -1  13    0.73    2.47
   1  -1 -13    0.84    3.77
  -1  -1  13    9.62   11.98
  -1  -1  12    0.62    2.90
   1   1 -12   23.30   12.92
   1   1 -12   25.81   19.54
   1  -1 -12   14.47   13.27
   1  -1 -12    4.31    8.21
  -1  -1  12    9.78    8.61
  -1   1  12    6.93    8.00
  -1   1  12   13.51   16.28
   1   1 -11  149.22   44.81
  -1   1  11  109.47   30.69
  -1  -1  11  119.83   39.58
   1  -1 -11  106.73   42.05
  -1  -1  11  100.48   26.50
  -1  -1  11  116.32   29.28
  -1  -1  11  108.12   26.44
   1  -1 -11  114.38   30.83
   1   1 -11  112.80   27.79
  -1   1  11   95.15   34.76
  -1   1  10   18.24   14.14
  -1  -1  10   24.73   11.60
  -1  -1  10   29.25   12.13
  -1  -1  10   26.27   17.21
  -1   1  10   17.98   11.63
   1  -1 -10   39.26   22.56
   1   1 -10   24.52   12.30
   1  -1 -10   27.53   15.82
   1   1 -10   38.01   22.11
  -1  -1  10   11.59    6.80
   1   1  -9   11.32    7.59
   1   1  -9   -2.82    3.99
   1  -1  -9    6.39    5.09
  -1  -1   9    0.65    1.81
  -1   1   9    7.88    5.77
  -1  -1   9    4.77    8.05
  -1  -1   9    0.62    2.55
   1  -1  -9    1.85    2.79
   1   1  -9    6.93    8.67
  -1  -1   9    0.54    2.36
   1  -1  -9    3.84    7.96
  -1  -1   9   -6.96    6.06
   1   1  -8  273.15   38.04
   1   1  -8  270.10   53.21
  -1  -1   8  300.74   38.34
  -1  -1   8  299.78   39.60
  -1  -1   8  252.67   33.91
   1  -1  -8  280.28   43.80
  -1  -1   8  274.04   52.31
   1   1  -8  286.99   36.71
  -1   1   8  313.87   54.67
   1  -1  -8  265.79   54.08
   1  -1  -8  273.77   39.37
  -1  -1   8  319.51   38.84
   1   1  -8  302.06   41.29
   1  -1  -7  534.91   58.22
  -1  -1   7  484.25   43.40
  -1  -1   7  485.78   47.84
   1  -1  -7  540.16   52.09
   1   1  -7  541.35   50.64
   1   1  -7  544.65   46.14
  -1  -1   7  542.82   54.21
  -1   1   7  510.42   65.50
   1  -1  -7  508.66   69.43
   1   1  -7  571.24   53.70
  -1   1   7  522.57   58.98
  -1  -1   7  518.86   47.38
  -1  -1   7  487.85   64.47
   1   1  -7  525.56   67.75
   1   1  -6  413.57   42.24
  -1  -1   6  402.78   54.45
   1  -1  -6  412.99   48.73
   1  -1  -6  504.65   60.87
  -1  -1   6  425.75   42.77
  -1   1   6  424.73   56.27
   1   1  -6  438.40   57.76
  -1  -1   6  436.84   55.42
  -1  -1   6  436.84   37.19
   1   1  -6  426.14   37.16
  -1  -1   6  439.06   45.41
   1  -1  -6  440.23   60.66
   1  -1  -6  458.76   47.22
   1   1  -6  487.28   47.08
  -1  -1   6  432.64   41.69
  -1   1   6  476.42   52.94
   1  -1  -5  704.08   67.27
  -1   1   5  692.76   69.02
  -1  -1   5  710.40   42.12
   1   1  -5  650.42   49.68
  -1  -1   5  675.53   50.01
   1   1  -5  667.46   52.90
  -1   1   5  660.91   65.48
  -1   1   5  688.24   60.98
   1  -1  -5  660.58   51.96
  -1  -1   5  702.21   64.64
   1   1  -5  672.71   41.99
   1  -1  -5  640.48   67.78
   1  -1  -5  613.66   56.45
  -1  -1   5  672.87   52.50
  -1  -1   5  639.18   49.96
  -1  -1   5  635.60   63.83
   1   1  -5  688.46   65.67
  -1  -1   4 1718.92   75.37
  -1  -1   4 1617.66   55.86
  -1   1   4 1560.14   90.84
  -1  -1   4 1668.08   77.56
   1   1  -4 1513.68   87.63
   1  -1  -4 1542.00   95.54
  -1   1   4 1662.84   98.04
  -1   1   4 1579.95   83.81
  -1  -1   4 1705.33   90.78
  -1   1   4 1739.06   89.81
   1  -1  -4 1652.56   87.26
   1  -1  -4 1711.69   97.09
   1   1  -4 1501.44   57.38
  -1  -1   4 1726.21   78.50
   1   1  -4 1605.23   75.29
  -1  -1   4 1490.55   86.14
  -1  -1   3  543.03   39.56
  -1  -1   3  570.50   43.51
   1   1  -3  482.84   43.48
   1  -1  -3  552.86   45.98
   1  -1  -3  502.20   49.30
  -1   1   3  501.72   42.32
  -1   1   3  503.13   48.65
  -1  -1   3  513.97   45.00
  -1  -1   3  496.00   27.72
  -1  -1   3  528.05   45.33
   1   1  -3  551.76   42.83
   1  -1  -3  595.34   53.80
  -1  -1   3  554.46   41.34
  -1   1   3  593.10   49.76
  -1   1   3  562.26   52.39
   1  -1  -3  506.37   45.67
   1   1  -3  605.09   49.30
   1  -1  -2  422.07   38.01
  -1   1   2  386.01   40.94
   1   1  -2  445.18   37.95
  -1  -1   2  480.20   36.58
  -1  -1   2  393.19   34.19
  -1   1   2  404.08   34.49
  -1  -1   2  426.51   34.81
  -1  -1   2  412.30   41.15
  -1  -1  -2  102.72   18.51
  -1   1  -2  102.18   14.90
  -1  -1  -2   95.31   19.61
   1  -1   2  108.47   17.01
  -1  -1  -2  108.04   21.61
  -1  -1  -2  107.98   16.42
  -1  -1  -2   86.72   16.06
   1  -1   2  110.55   19.29
   1   1   2  112.61   18.18
  -1   1  -3 1616.95   59.17
  -1  -1  -3 1770.35   94.66
  -1   1  -3 1522.35   58.11
  -1   1  -3 1755.80   82.36
  -1   1  -3 1626.76   90.57
   1  -1   3 1755.12   95.14
  -1  -1  -3 1618.18   76.42
   1   1   3 1639.38   82.73
   1   1   3 1551.97   55.89
   1   1   3 1691.46   78.15
  -1  -1  -3 1556.98   58.52
  -1  -1  -3 1756.55   79.21
  -1  -1  -3 1611.34   83.31
   1  -1   3 1689.96   80.24
  -1   1  -3 1681.46   76.05
  -1  -1  -3 1531.76   80.13
   1   1   3 1487.00   85.96
   1   1   3 1720.91   83.08
   1  -1   3 1767.64   82.92
  -1   1  -3 1489.79   74.55
  -1  -1  -3 1578.36   60.88
   1   1   3 1598.53   84.23
   1  -1   3 1731.44   75.83
  -1   1  -3 1596.24   59.51
   1  -1   3 1587.69   57.18
   1  -1   4   57.76   16.44
   1  -1   4   47.24   14.65
  -1  -1  -4   55.23   18.42
   1   1   4   61.90   18.13
  -1  -1  -4   39.37    8.84
   1  -1   4   52.51   17.17
   1  -1   4   49.27   14.52
   1   1   4   37.41   13.52
   1   1   4   48.66    9.67
  -1   1  -4   57.41   15.91
  -1  -1  -4   61.61   16.53
  -1   1  -4   36.98    8.35
  -1   1  -4   42.70   10.38
   1  -1   4   55.18   10.24
  -1   1  -4   47.90    9.75
  -1   1  -4   53.99   17.71
  -1  -1  -4   47.49   16.31
  -1  -1  -4   58.38   16.33
   1  -1   4   38.74    9.38
   1   1   4   64.23   20.07
  -1   1  -4   81.93   18.82
   1   1   4   52.21   15.50
  -1  -1  -4   45.68    9.57
   1  -1   4   53.34   10.51
  -1   1  -4   67.99   16.33
   1   1   4   48.28   14.12
  -1  -1  -5  790.70   39.74
  -1   1  -5  852.02   63.93
   1  -1   5  800.79   41.13
   1   1   5  865.51   67.15
   1  -1   5  868.72   64.83
  -1   1  -5  892.67   66.12
   1  -1   5  890.99   78.27
  -1  -1  -5  822.74   63.44
   1  -1   5  760.35   45.18
   1  -1   5  920.03   67.65
  -1  -1  -5  832.30   64.77
   1   1   5  790.01   39.18
  -1  -1  -5  802.80   38.61
  -1  -1  -5  747.84   35.52
  -1   1  -5  940.53   66.34
  -1   1  -5  811.04   41.34
   1   1   5  774.16   69.27
  -1   1  -5  794.19   49.31
  -1   1  -5  848.50   77.34
   1   1   5  902.93   78.46
  -1  -1  -5  922.65   77.20
   1   1   5  744.86   38.76
   1  -1   5  855.71   63.74
   1  -1   5  808.74   40.10
   1   1   5  937.50   68.71
  -1  -1  -5  839.37   73.87
   1  -1   6    7.69    3.88
  -1   1  -6   11.89    9.61
  -1   1  -6   10.49    4.60
   1  -1   6    4.23    3.55
   1   1   6   11.79    5.28
   1  -1   6    1.71    6.80
   1  -1   6    9.10    7.48
  -1   1  -6   14.36    9.24
  -1   1  -6    9.19    8.29
  -1  -1  -6   11.24    7.72
   1   1   6   24.93   13.73
   1   1   6    0.21    1.06
  -1  -1  -6    7.40    3.58
   1   1   6    8.40   10.19
   1  -1   6    6.04    3.09
   1  -1   6   31.46   15.58
   1   1   6    5.15    3.22
  -1   1  -6    9.00    5.83
  -1  -1  -6    5.80    8.32
   1  -1   6   15.25    8.92
  -1  -1  -6   18.80   12.65
   1   1   6    6.21    2.84
   1   1   6    9.61    8.27
  -1   1  -7    3.79    3.27
   1  -1   7    3.90    2.85
   1   1   7   -1.09    3.80
  -1  -1  -7   -0.52    1.98
   1   1   7    0.02    2.74
  -1   1  -7    4.18    5.53
  -1   1  -7    6.06    7.28
  -1  -1  -7    5.04    5.09
   1  -1   7    2.81    2.03
   1   1   7    4.96    4.17
   1  -1   7    8.40    5.75
   1   1   7    1.95    1.81
  -1  -1  -7    4.87    3.52
   1  -1   7    2.04    2.46
   1  -1   7    7.91    7.04
  -1   1  -7    1.35    1.57
   1   1   7   -5.29    5.58
   1  -1   7    2.74    3.23
   1   1   7    6.34    3.87
  -1  -1  -7    2.77    3.93
  -1   1  -7    2.65    3.25
  -1   1  -8    0.46    0.90
   1   1   8    1.52    1.82
   1  -1   8    0.63    1.25
  -1  -1  -8   -5.04    3.90
   1   1   8   -2.87    3.03
  -1   1  -8   -1.27    6.12
   1   1   8   -0.11    4.53
   1  -1   8   -1.68    1.98
   1   1   8   -0.29    0.79
   1  -1   8   -5.96    6.39
   1   1   8   -1.89    3.93
  -1   1  -8    2.74    0.67
   1   1   8   -4.22    5.22
   1  -1   8    0.84    1.97
  -1  -1  -8  -17.67   13.03
  -1   1  -8    2.35    4.60
  -1  -1  -8    1.71    3.23
   1  -1   8   -0.21    0.68
  -1  -1  -9   38.03   16.44
   1   1   9   27.66    8.21
  -1  -1  -9   27.41   17.20
   1  -1   9   17.29    6.55
  -1  -1  -9   29.26   10.19
  -1   1  -9   22.38    7.51
  -1   1  -9   28.64   14.22
   1  -1   9   24.43   11.33
   1  -1   9   23.36    7.66
   1   1   9   40.50   17.82
   1   1   9   25.63   10.56
   1   1   9   13.76   10.87
   1  -1   9   26.55    8.94
   1   1   9   45.73   17.94
  -1   1  -9   33.07   18.99
   1   1   9   27.03    8.15
   1  -1   9   26.88   14.25
   1  -1  10   79.18   26.46
   1  -1  10   84.99   17.63
   1   1  10  102.10   21.62
   1   1  10   61.01   28.06
  -1   1 -10  119.49   30.43
   1  -1  10   71.96   21.37
   1  -1  10   78.75   15.09
  -1  -1 -10   64.17   21.83
   1   1  10   80.67   26.63
   1   1  10   64.31   13.17
   1  -1  10   73.87   13.96
  -1   1 -10  119.99   39.34
   1   1  10   89.89   15.44
  -1   1 -10   96.41   16.20
  -1  -1 -10   93.14   34.10
   1  -1  11  555.55   71.87
  -1  -1 -11  627.99   72.03
   1  -1  11  573.26   62.99
   1   1  11  528.87   39.34
  -1   1 -11  646.44   93.78
   1  -1  11  430.36   37.11
   1   1  11  610.89   77.75
  -1   1 -11  569.58   42.96
   1  -1  11  525.82   39.53
  -1  -1 -11  584.39   89.54
   1   1  11  498.77   38.58
   1  -1  11  534.09   48.01
   1   1  11  643.40   84.06
  -1   1 -11  626.23   72.17
   1   1  11  628.20   57.83
  -1   1 -12  -13.19   13.82
   1   1  12    9.89   10.62
   1  -1  12    3.53    3.38
   1   1  12   -5.93    7.94
   1  -1  12    5.37    7.31
   1  -1  12   -3.01    4.76
   1   1  12    1.05    2.44
  -1  -1 -12   18.85   16.55
   1   1  12   -0.44    1.16
  -1  -1 -12   10.22    9.19
   1  -1  12    3.82    4.23
  -1   1 -12   -0.35    1.73
   1   1  12    6.32    8.91
  -1   1 -12   -5.56    4.41
   1   1  12   -4.96    3.92
   1   1  13  -11.78   12.02
   1   1  13   20.15   11.29
  -1   1 -13    4.11    8.04
  -1  -1 -13   -0.05    0.68
   1   1  13   -1.28    2.68
   1  -1  13   -6.06    8.10
  -1   1 -13   -3.76    5.88
  -1   1 -13   -3.66    3.73
   1   1  13    5.26    4.17
  -1  -1 -13    4.01    7.97
   1  -1  13    4.39    3.88
   1  -1  13   -0.65    2.31
   1  -1  13   15.47    9.00
   1   1  13   -3.68    7.10
   1   1  13    0.40    1.13
   1   1  14  -11.48   13.06
  -1   1 -14   -1.49    5.06
  -1  -1 -14   14.38   15.76
  -1  -1 -14    2.87    5.12
   1  -1  14    3.57    4.55
  -1   1 -14   -1.08    3.27
   1   1  14    1.68    2.43
  -1   1 -14    4.03    4.06
   1  -1  14    0.98    1.89
   1  -1  14    2.76    4.98
   1   1  14   -2.14    5.18
   1   1  14    1.57    4.53
   1  -1  14   13.82   12.76
   1   1  14    7.94    5.22
  -1  -1 -15   -4.64    9.32
   1  -1  15    9.11    5.90
   1  -1  15    5.23    7.69
   1   1  15    9.86    6.01
   1   1  15    2.71    3.12
  -1   1 -15    5.86    7.85
  -1  -1 -15    3.25    5.56
   1   1  15   41.32   23.76
   1   1  15   10.41   12.93
   1  -1  15    0.84    2.47
   1   1  15   19.91   16.64
   1  -1  15   17.42   10.49
   1  -1  15    8.97   10.68
  -1   1 -15   16.60   17.50
   1   1  16   -0.25    0.97
  -1   1 -16   -1.38    5.25
   1   1  16  -11.82   13.22
  -1  -1 -16   16.42   18.21
   1   1  16    2.47    6.04
   1  -1  16    4.44    6.82
   1  -1  16    2.66    4.17
   1  -1  16    5.63    6.21
   1  -1  16   -3.15    3.46
   1   1  16   -2.44    6.48
  -1  -1 -16    8.58    9.18
   1   1  17   27.63   20.78
   1   1  17   22.79   19.07
   1   1  17   11.03   14.33
  -1  -1 -17   41.75   30.15
  -1  -1 -17   31.16   17.74
   1  -1  17   14.54    7.50
   1   1  17   13.74    7.32
   1  -1  17    6.78   10.05
  -1   1 -17   47.65   31.94
   1  -1  17   33.75   19.47
   1   1  18   10.19   14.25
  -1  -1 -18    2.58    5.17
  -1   1 -18   -4.14    5.50
   1  -1  18    9.64   10.73
   1  -1  18  -21.49   18.53
   1   1  18   -1.92    5.63
  -1   1 -18  -18.32   20.53
   1   1  18   -6.01   10.14
  -1  -1 -18   -7.10   12.90
   1  -2 -18   -5.17   11.44
   1   2 -18   14.95   18.75
  -1   2  18   37.49   28.61
   1   2 -18    9.67    9.56
   1  -2 -18   14.82   14.01
  -1  -2  18   17.72   19.80
  -1   2  18   -4.87    9.67
  -1  -2  18    5.96    8.08
  -1  -2  18    7.56    9.91
  -1   2  17   35.09   26.84
  -1  -2  17   40.18   20.35
   1   2 -17   17.48   12.55
  -1  -2  17   -2.66    5.66
  -1  -2  17    7.88   12.78
  -1   2  17    8.00   12.11
   1  -2 -17   48.43   33.87
   1  -2 -17   29.37   19.43
   1   2 -17   37.20   28.53
  -1  -2  16   -3.90    8.67
  -1   2  16    8.50   12.19
   1  -2 -16   -7.97    9.97
   1  -2 -16   20.61   21.32
  -1  -2  16   -3.77    6.02
  -1  -2  16    2.60    5.36
   1   2 -16    0.38    2.76
   1   2 -16    5.72    7.01
  -1   2  16    8.50   12.78
   1  -2 -15   55.61   26.01
  -1  -2  15   71.60   26.88
  -1   2  15   50.38   29.96
  -1  -2  15   89.88   31.45
   1  -2 -15   41.24   29.07
  -1  -2  15   75.18   36.74
  -1   2  15   79.16   37.74
   1   2 -15   76.31   37.87
   1   2 -15   59.47   21.76
  -1   2  14    3.31    7.21
  -1  -2  14    6.23    7.97
   1   2 -14    5.33    6.40
   1   2 -14    0.43    2.71
  -1   2  14   19.62   18.07
  -1  -2  14   12.67   14.52
   1  -2 -14    1.55    5.42
   1  -2 -14   11.51    9.40
  -1  -2  14    6.50    7.77
   1  -2 -13   86.71   38.98
  -1  -2  13   95.38   39.44
   1   2 -13  105.66   40.96
  -1   2  13  113.22   41.89
  -1  -2  13   97.56   28.50
  -1  -2  13  113.56   32.89
   1   2 -13  102.26   26.95
   1  -2 -13  107.74   34.81
   1  -2 -12   11.08   10.79
  -1   2  12   10.78   14.84
  -1  -2  12   30.23   16.39
   1  -2 -12    5.91    9.75
   1   2 -12   15.23   10.13
  -1  -2  12    4.28    5.12
   1   2 -12    3.42   10.91
  -1  -2  12   10.10   10.08
  -1  -2  12   26.50   19.35
  -1  -2  11  349.46   54.16
  -1  -2  11  363.59   46.22
   1  -2 -11  336.22   70.92
  -1  -2  11  394.93   73.80
  -1   2  11  397.55   72.53
   1  -2 -11  404.70   64.82
  -1  -2  11  345.14   49.42
   1   2 -11  379.37   49.25
   1   2 -11  384.31   73.17
  -1  -2  10  330.42   51.28
  -1   2  10  355.11   65.26
   1   2 -10  324.09   43.83
  -1  -2  10  321.24   45.45
   1   2 -10  390.27   69.06
   1  -2 -10  343.07   58.57
  -1  -2  10  339.99   64.28
   1  -2 -10  326.30   67.03
   1   2  -9  137.64   27.39
  -1  -2   9  158.04   34.21
   1  -2  -9  143.07   36.54
  -1  -2   9  116.46   26.88
   1  -2  -9  133.44   41.13
  -1  -2   9  154.49   29.58
  -1  -2   9  118.27   35.68
   1   2  -9  166.15   43.88
  -1   2   9  136.62   39.23
  -1  -2   8   18.01   11.02
  -1  -2   8   12.33   12.08
   1   2  -8   13.39    9.57
   1  -2  -8   20.37   14.38
  -1   2   8    7.07    8.13
   1   2  -8   15.28   10.29
   1  -2  -8   10.22    9.73
  -1  -2   8    0.75    2.00
   1   2  -8   12.33    6.63
  -1  -2   8   18.97    9.02
  -1  -2   7  131.49   29.42
   1  -2  -7  145.62   38.93
   1   2  -7  117.79   32.05
  -1  -2   7  155.55   26.87
   1   2  -7  117.96   25.00
   1   2  -7  160.76   27.61
  -1  -2   7  130.52   25.84
   1  -2  -7  144.59   35.00
  -1   2   7  118.28   31.67
   1   2  -6   23.79   12.40
  -1  -2   6   12.22    7.18
   1  -2  -6    5.64    8.48
   1   2  -6   12.90    7.86
  -1  -2   6   21.13   10.19
  -1  -2   6   19.77   11.52
   1   2  -6   27.15   12.49
  -1  -2   6   11.98    7.26
  -1  -2   6   19.64   11.00
   1  -2  -6   18.39   13.31
  -1   2   6   19.91   11.98
  -1   2   6   15.55   10.92
  -1  -2   6   21.62    8.43
   1   2  -5  323.14   40.86
  -1   2   5  373.07   53.07
  -1  -2   5  297.75   41.24
  -1  -2   5  261.64   37.49
  -1  -2   5  294.59   34.33
   1  -2  -5  287.90   44.11
   1   2  -5  294.44   36.43
  -1   2   5  267.73   36.01
  -1   2   5  250.24   40.23
  -1  -2   5  307.31   30.56
   1   2  -5  279.27   40.91
  -1  -2   5  295.53   38.23
  -1  -2   5  335.81   38.14
   1  -2  -5  268.31   45.05
   1  -2  -5  304.91   47.40
  -1   2   4    9.30    6.67
  -1  -2   4    9.78    7.35
   1   2  -4   13.70    8.07
   1   2  -4    0.87    3.33
   1   2  -4    7.13    5.44
  -1   2   4   14.36   10.41
   1  -2  -4   11.16    8.65
  -1   2   4   12.57    6.99
  -1  -2   4    3.95    4.26
  -1   2   4    4.88    4.63
  -1  -2   4   15.61    6.18
   1  -2  -4   10.65   10.16
  -1  -2   4   26.68   11.43
  -1  -2   4   12.41    6.71
   1  -2  -4   17.94   12.71
   1   2  -4   15.34    8.08
  -1  -2   4   11.30    6.90
   1  -2  -3  349.91   46.06
  -1   2   3  272.39   28.58
   1  -2  -3  288.48   40.45
   1  -2  -3  285.59   30.81
  -1   2   3  296.43   41.09
   1   2  -3  276.70   36.00
  -1  -2   3  368.56   34.30
  -1  -2   3  296.12   39.14
  -1  -2   3  320.43   38.31
  -1   2   3  288.68   40.15
  -1  -2   3  300.08   31.53
   1   2  -3  300.84   32.53
   1   2  -3  320.91   37.68
  -1   2   3  320.99   43.86
  -1  -2   3  354.32   39.68
   1   2  -3  330.34   33.56
   1  -2  -2  938.83   72.92
  -1  -2   2  931.89   56.05
   1  -2  -2  833.22   49.96
   1   2  -2  909.43   63.29
  -1  -2   2  922.97   64.99
  -1   2   2  964.21   70.54
   1   2  -2  937.06   59.11
  -1  -2   2  891.06   65.61
  -1  -2   2  826.10   43.70
   1   2  -2  905.55   63.91
  -1   2   2  892.53   69.43
  -1  -2   2  972.06   66.40
   1  -2  -2  855.82   66.04
  -1  -2   2  940.28   65.97
  -1   2   2  864.19   48.74
  -1  -2   1  731.96   53.23
  -1  -2   1  715.43   58.54
   1  -2  -1  703.24   61.74
   1   2  -1  699.54   53.29
  -1  -2   1  734.53   53.05
   1   2  -1  695.91   55.45
  -1   2   1  684.85   59.65
  -1  -2   1  705.23   51.79
  -1   2   1  672.03   43.29
  -1   2   1  755.48   58.47
   1  -2  -1  696.41   55.54
   1  -2  -1  667.98   43.57
  -1  -2   1  698.01   56.30
   1   2  -1  708.82   58.00
   1  -2   0  381.68   35.67
   1   2   0  369.00   39.53
  -1  -2   0  362.26   41.55
   1  -2   0  385.66   45.90
   1   2   0  371.30   40.91
  -1   2   0  379.38   35.71
  -1  -2   0  401.10   45.73
  -1  -2   0  411.75   35.79
  -1   2   0  336.62   37.85
   1   2   0  339.29   32.46
  -1   2   0  404.20   39.37
  -1  -2   0  348.12   32.91
  -1  -2   0  387.32   41.69
  -1  -2   0  369.17   41.10
  -1   2   0  421.04   42.59
   1  -2   0  375.59   37.44
  -1  -2  -1   38.79    8.88
  -1  -2  -1   41.47   15.03
  -1  -2  -1   43.72   10.40
   1   2   1   24.76   11.22
  -1   2  -1   40.98   13.98
   1  -2   1   33.07    9.83
   1   2   1   44.29   13.17
   1  -2   1   35.59   12.98
  -1   2  -1   48.24   14.20
   1  -2   1   40.14   12.32
  -1   2  -1   49.53   12.98
  -1  -2  -1   29.90    8.67
   1   2   1   32.88    9.78
  -1  -2  -1   39.74   14.19
  -1   2  -1   51.64   15.60
  -1  -2  -1   41.88   13.46
  -1  -2  -1   40.91   15.04
  -1  -2  -2  336.08   39.36
   1  -2   2  320.37   40.15
  -1   2  -2  319.12   36.93
  -1  -2  -2  313.46   42.62
   1  -2   2  329.12   29.07
  -1   2  -2  321.21   37.49
  -1   2  -2  360.77   40.52
  -1  -2  -2  295.42   27.66
  -1  -2  -2  320.27   37.49
  -1   2  -2  306.82   38.99
   1   2   2  338.83   32.61
   1  -2   2  294.10   34.56
   1  -2   2  349.28   38.65
   1  -2   2  354.78   37.92
  -1  -2  -2  309.83   24.84
   1   2   2  317.67   42.43
   1  -2   2  326.44   41.24
  -1  -2  -2  349.50   45.38
  -1   2  -2  334.70   30.39
   1   2   2  288.22   42.50
   1   2   2  327.77   37.71
   1   2   2  292.41   27.69
  -1  -2  -2  331.46   31.70
  -1  -2  -3 1421.12   66.19
   1  -2   3 1378.80   51.44
   1   2   3 1491.22   80.30
   1  -2   3 1557.49   82.95
  -1  -2  -3 1469.55   86.47
  -1  -2  -3 1459.99   80.05
   1   2   3 1532.35   79.75
   1  -2   3 1381.08   75.61
  -1   2  -3 1446.53   78.26
  -1  -2  -3 1448.69   77.08
  -1   2  -3 1369.22   86.71
   1  -2   3 1699.53   99.21
  -1  -2  -3 1407.25   92.79
  -1   2  -3 1391.21   55.91
   1  -2   3 1503.58   89.34
   1   2   3 1328.91   74.22
   1  -2   3 1538.77   84.01
  -1   2  -3 1379.10   75.64
   1   2   3 1408.15   65.15
   1   2   3 1273.28   90.49
  -1   2  -3 1543.10   88.04
   1   2   3 1550.02   61.20
  -1  -2  -3 1426.05   77.04
  -1  -2  -3 1579.59  104.97
   1   2   3 1380.64   91.68
  -1   2  -3 1447.43   88.72
   1   2   4  195.86   28.09
   1  -2   4  180.67   26.61
  -1   2  -4  199.00   34.18
   1   2   4  219.95   34.94
  -1  -2  -4  222.47   30.16
   1   2   4  147.91   32.48
   1  -2   4  185.01   27.93
  -1  -2  -4  264.94   45.64
   1   2   4  223.06   38.52
  -1   2  -4  173.60   26.98
   1   2   4  223.68   30.66
  -1   2  -4  220.43   34.37
   1  -2   4  213.45   35.52
  -1   2  -4  274.45   40.74
  -1  -2  -4  201.26   32.45
   1   2   4  214.20   29.72
   1  -2   4  232.85   36.93
  -1   2  -4  205.99   28.74
  -1  -2  -4  167.66   33.53
  -1   2  -4  185.46   18.32
   1  -2   4  214.42   37.12
   1   2   4  202.78   27.15
  -1  -2  -4  202.58   29.34
  -1   2  -4  201.80   35.33
  -1  -2  -4  218.75   35.68
   1  -2   4  218.10   33.73
   1   2   5   59.74   22.03
   1  -2   5   41.96   13.20
  -1  -2  -5   35.22   15.39
   1   2   5   58.36   20.83
  -1   2  -5   37.77   16.01
  -1   2  -5   41.83   16.75
   1  -2   5   33.70   15.84
   1   2   5   32.32   11.13
   1   2   5   34.60   13.74
  -1  -2  -5   42.75   16.80
   1  -2   5   48.22   17.10
   1  -2   5   45.21   16.12
   1   2   5   49.95   19.64
   1   2   5   38.87   15.26
  -1  -2  -5   41.74   13.28
   1   2   5   27.79   11.10
   1  -2   5   27.01   14.01
  -1  -2  -5   40.56   12.24
  -1   2  -5   34.25   11.82
   1  -2   5   36.05   12.70
  -1   2  -5   46.81   13.74
   1   2   6  267.33   42.86
  -1   2  -6  235.10   44.37
   1  -2   6  243.57   32.65
   1   2   6  261.72   32.72
  -1  -2  -6  274.68   33.18
  -1   2  -6  196.38   19.66
   1  -2   6  252.13   40.04
   1   2   6  228.97   46.81
  -1  -2  -6  242.33   30.18
   1   2   6  280.45   40.69
   1   2   6  256.93   45.98
  -1  -2  -6  265.63   44.81
   1  -2   6  267.22   32.81
  -1   2  -6  257.19   33.02
  -1   2  -6  276.41   43.92
  -1  -2  -6  244.60   42.39
   1  -2   6  259.01   41.31
   1   2   6  214.47   29.83
   1  -2   6  240.19   20.05
   1   2   7  252.86   42.78
  -1   2  -7  194.86   21.78
  -1   2  -7  221.09   30.29
   1  -2   7  220.00   30.09
   1   2   7  162.92   41.55
   1   2   7  210.54   29.58
   1   2   7  266.30   33.02
   1  -2   7  225.99   40.15
  -1  -2  -7  250.64   43.83
  -1   2  -7  210.65   43.97
  -1  -2  -7  207.87   43.57
   1  -2   7  203.04   37.16
   1  -2   7  199.44   20.46
   1   2   7  273.29   45.70
   1  -2   7  254.11   33.08
  -1   2  -7  230.89   41.72
   1   2   8   49.09   20.70
   1  -2   8   47.52   18.85
   1  -2   8   49.99   11.16
   1   2   8   41.50   12.70
  -1   2  -8   51.77   23.55
   1   2   8   45.68   23.51
   1  -2   8   51.25   14.79
  -1  -2  -8   56.34   21.97
   1  -2   8   57.95   21.00
   1   2   8   60.35   15.66
   1  -2   8   43.54   13.44
   1   2   8   36.19   16.22
  -1   2  -8   52.29   14.41
  -1   2  -8   62.36   22.16
  -1  -2  -8   53.66   24.73
  -1  -2  -9   10.26   11.03
  -1   2  -9   26.08    6.77
   1   2   9   29.32   16.03
   1   2   9   27.47   10.78
   1   2   9   31.45   15.84
   1   2   9   14.04    5.41
   1  -2   9   41.89   11.38
  -1   2  -9   44.24   19.85
  -1   2  -9   38.26   20.13
  -1   2  -9   32.99   11.33
  -1  -2  -9   30.64   16.12
   1  -2   9   41.99   17.07
   1  -2   9   27.01   13.60
   1  -2   9   24.38   10.24
   1  -2   9   32.53   12.00
   1   2   9   39.04   12.95
   1   2   9   29.18   18.18
   1  -2  10    2.93    3.30
   1  -2  10    2.16    3.11
   1   2  10    8.64    6.15
  -1   2 -10    3.47    2.81
  -1  -2 -10    1.65    4.60
  -1  -2 -10   -5.88    8.42
   1   2  10    0.08    3.50
   1  -2  10    0.70    1.79
   1   2  10   -2.14    4.98
   1   2  10    3.57    3.99
   1   2  10   -5.25    7.10
  -1   2 -10   -9.08    9.04
   1   2  10   -3.23    2.93
   1  -2  10    1.35    7.39
  -1   2 -10    5.80    4.71
  -1   2 -10   24.30   17.15
   1  -2  10    8.39    8.65
   1  -2  11    4.03    6.18
  -1  -2 -11    2.55    4.66
   1  -2  11   -0.35    1.30
  -1   2 -11   -6.20    9.07
   1  -2  11    1.32    2.41
   1  -2  11    1.38    3.65
   1   2  11   -4.71    7.04
   1   2  11   -5.47    4.99
   1   2  11    3.96    3.60
  -1   2 -11   -2.71    5.09
  -1  -2 -11    2.31    5.55
   1   2  11    3.76    6.50
   1   2  11    0.35    1.27
  -1   2 -11    5.63    3.98
   1  -2  11    4.53    4.58
   1   2  11    2.03    5.04
   1  -2  12   -3.01    3.87
  -1   2 -12   -5.56    4.30
  -1  -2 -12   -0.10    1.01
   1   2  12    2.76    3.61
   1   2  12    5.09    4.95
   1   2  12    7.02    5.22
   1   2  12   -0.81    3.04
   1  -2  12   -6.63    8.32
   1   2  12    2.93    6.26
  -1   2 -12    1.93    3.36
  -1  -2 -12    5.71    9.15
   1  -2  12    4.12    2.90
   1  -2  12    2.93    3.76
   1   2  12    1.03    3.58
  -1   2 -12    2.39    5.88
   1  -2  12    0.67    1.85
   1  -2  12    6.56    8.23
  -1   2 -13   15.93    7.77
   1  -2  13    7.97    6.39
  -1  -2 -13   25.09   20.05
   1   2  13   11.81   10.51
   1   2  13   24.93   11.14
   1   2  13    2.35    3.25
  -1   2 -13    8.48   11.19
  -1  -2 -13   19.58   14.46
   1   2  13   13.19   12.78
   1   2  13   12.44   13.30
   1  -2  13    7.67    9.27
   1   2  13   19.96   18.26
  -1   2 -13    9.97   12.52
   1  -2  13    7.96    4.55
   1  -2  13   -3.22    4.34
   1  -2  13   12.09    7.75
  -1   2 -14    3.85    8.10
   1   2  14   20.94   10.27
   1  -2  14   -4.52    3.76
   1   2  14   17.72   16.37
  -1  -2 -14   -1.47    4.06
  -1   2 -14    2.92    3.52
   1  -2  14    3.49    4.77
   1   2  14    8.70   10.78
   1  -2  14    2.85    5.86
   1  -2  14    8.88    6.74
   1  -2  14    4.26    4.74
   1   2  14   11.33    7.62
   1   2  14   -9.69   11.94
  -1   2 -14   -1.22    3.76
  -1  -2 -14    0.03   10.29
   1   2  14  -10.62    7.35
   1   2  15   41.82   14.85
   1  -2  15   28.02   12.33
  -1   2 -15   57.86   32.61
  -1  -2 -15   65.61   27.79
   1  -2  15   32.70   10.84
   1   2  15   36.17   22.79
  -1   2 -15   52.18   25.31
   1  -2  15   17.91   16.56
   1  -2  15   42.96   15.01
   1   2  15   38.72   24.92
  -1  -2 -15   54.40   33.70
   1   2  15   26.95   12.41
   1   2  15   33.56   23.19
   1  -2  15   34.79   16.07
  -1   2 -15   48.43   15.09
   1   2  15   22.94   10.89
  -1  -2 -16   13.06   16.33
   1  -2  16   -8.51   10.87
   1   2  16    9.80   12.97
  -1   2 -16   -3.88    7.10
   1  -2  16    6.50    5.90
   1  -2  16   13.30   10.26
   1   2  16   -0.17    1.71
   1   2  16   -2.36    3.57
  -1  -2 -16   -2.98    6.06
  -1   2 -16    1.39    2.66
   1   2  16   10.07   12.46
  -1   2 -16    9.76   13.90
   1   2  17    0.24    1.13
  -1   2 -17    2.81    3.95
   1  -2  17    3.30    7.01
   1   2  17    0.14    1.66
   1   2  17    9.51   13.01
  -1  -2 -17    2.65    7.62
  -1  -2 -17   -1.06    3.68
  -1   2 -17   14.35   17.47
   1  -2  17   -9.78    9.15
   1   2  17   -6.23   10.16
   1  -2  17   -5.44    5.42
   1  -3 -17   40.75   31.37
  -1   3  17   38.85   28.20
   1   3 -17   59.03   22.59
  -1  -3  17   42.99   23.00
  -1  -3  17   36.20   17.12
  -1  -3  17   83.50   34.30
  -1  -3  17   29.37   25.17
  -1   3  17   76.29   37.93
   1  -3 -17  105.51   40.75
   1   3 -17   52.74   33.78
  -1  -3  16   14.08   16.83
   1  -3 -16   27.09   20.07
  -1  -3  16   13.17    9.97
  -1  -3  16   30.05   20.00
  -1  -3  16   31.32   18.91
  -1   3  16   13.66   16.28
   1   3 -16   33.14   16.49
   1   3 -16   11.29   15.06
   1  -3 -16   13.54   17.47
  -1   3  16   -3.52    8.29
   1   3 -15   24.57   21.35
   1  -3 -15   15.58   18.07
   1   3 -15   15.34   10.91
  -1   3  15   28.48   22.71
  -1  -3  15    9.43   10.89
  -1  -3  15    3.63   12.19
   1  -3 -15    7.39   10.27
  -1   3  15   22.87   20.64
   1   3 -14   77.40   23.79
  -1  -3  14   75.58   27.34
   1  -3 -14  126.95   51.96
  -1  -3  14   72.46   36.08
  -1   3  14   99.31   43.65
   1   3 -14  152.87   51.22
   1  -3 -14  113.22   40.59
  -1  -3  14   96.95   34.25
  -1  -3  14   69.55   20.94
  -1   3  14  110.55   43.92
   1   3 -13   -6.51   10.10
  -1  -3  13    6.85    7.94
  -1  -3  13   -0.67    3.27
  -1   3  13   15.44   16.09
  -1  -3  13   -6.25    8.37
   1  -3 -13    7.94   10.19
  -1  -3  13   17.28   10.22
  -1   3  13  -11.84   13.51
   1   3 -13    2.73    4.33
   1  -3 -13    6.23   10.57
  -1  -3  12    8.80    8.67
   1  -3 -12    9.81   12.84
  -1  -3  12   27.44   17.09
   1   3 -12   10.37   12.16
  -1   3  12    7.89   10.54
   1   3 -12    6.15    6.32
   1  -3 -12   31.12   20.92
   1   3 -11   33.89   14.44
  -1  -3  11   29.94   14.23
  -1  -3  11   21.46   13.01
  -1   3  11   13.19   12.98
   1   3 -11   15.31   14.06
  -1  -3  11   18.74    8.59
  -1  -3  11    9.18    9.59
   1  -3 -11    6.25    8.61
   1  -3 -11   22.70   18.55
   1  -3 -10   31.37   18.80
   1   3 -10   54.69   18.89
  -1  -3  10   28.75   13.41
  -1  -3  10   51.37   13.51
  -1  -3  10   53.77   23.17
   1   3 -10   46.97   23.35
  -1   3  10   30.48   21.35
  -1  -3  10   46.94   17.37
   1  -3 -10   73.66   31.91
   1   3  -9   12.16   11.21
   1  -3  -9    2.65    9.80
   1  -3  -9   12.17   12.35
   1   3  -9   35.25   14.09
  -1  -3   9    9.15    7.86
  -1   3   9    8.99    9.67
   1   3  -9   34.97   15.58
  -1  -3   9   10.32    8.62
  -1  -3   9    7.24    6.45
  -1  -3   9   22.43    8.13
   1   3  -8   67.18   21.64
  -1   3   8   69.17   21.99
   1   3  -8   54.13   22.87
  -1  -3   8   66.94   20.00
  -1  -3   8   70.05   19.61
   1  -3  -8   46.92   22.68
  -1   3   8   56.57   23.62
   1   3  -8   82.47   20.92
  -1  -3   8   69.00   24.65
  -1  -3   8   77.27   15.90
   1  -3  -8   82.73   30.59
  -1   3   7   53.36   21.38
  -1   3   7   42.66   15.23
  -1  -3   7   56.98   13.22
   1   3  -7   47.24   16.64
   1  -3  -7   41.09   20.78
  -1  -3   7   57.25   21.54
   1   3  -7   48.98   19.15
  -1  -3   7   63.53   22.32
  -1  -3   7   38.82   15.79
  -1  -3   7   56.59   17.07
   1   3  -7   46.33   18.86
   1  -3  -7   66.43   25.16
  -1   3   6   81.32   25.49
  -1  -3   6  121.61   27.66
  -1   3   6   95.92   21.19
  -1  -3   6  112.12   26.31
   1  -3  -6  115.05   32.54
   1   3  -6  116.36   28.83
   1  -3  -6  109.93   32.26
   1   3  -6  105.79   26.80
   1   3  -6  120.28   25.92
  -1  -3   6  112.92   28.85
  -1  -3   6  126.70   20.19
  -1  -3   6  124.21   25.30
   1   3  -5  284.27   39.30
   1  -3  -5  247.74   44.56
   1   3  -5  258.03   42.12
   1  -3  -5  225.37   43.84
  -1  -3   5  258.69   36.63
   1   3  -5  296.69   40.88
  -1  -3   5  308.51   41.12
   1   3  -5  286.24   32.23
  -1  -3   5  267.52   29.97
  -1   3   5  248.75   30.21
  -1   3   5  233.33   40.98
  -1   3   4    5.45    2.93
   1   3  -4    1.24    1.51
   1   3  -4    3.99    3.76
  -1   3   4    6.97    6.83
   1  -3  -4    1.41    5.75
  -1  -3   4    0.73    1.62
  -1   3   4    0.89    1.62
   1  -3  -4   -0.76    2.38
  -1  -3   4    6.42    5.94
   1   3  -4    4.14    4.53
  -1  -3   4    0.05    0.43
  -1   3   4   -4.57    5.61
   1   3  -4    6.47    5.91
   1   3  -4    1.95    3.53
  -1  -3   3    5.09    3.74
  -1   3   3    6.90    7.26
  -1   3   3   10.11    4.85
   1   3  -3   13.65    9.00
   1   3  -3    9.64    5.86
   1  -3  -3    7.75    4.85
  -1   3   3   10.95    7.97
   1   3  -3    5.04    5.31
   1  -3  -3    9.10    7.75
   1   3  -3    8.20    4.58
  -1  -3   3   16.07    9.57
   1  -3  -3    8.53    7.89
  -1  -3   3   19.77    9.78
  -1   3   3    5.07    6.02
   1   3  -3   16.66    9.64
   1  -3  -2   75.94   21.75
  -1  -3   2   69.55   19.39
   1  -3  -2   55.88   19.62
  -1   3   2   70.33   21.91
   1   3  -2   67.81   18.07
  -1   3   2   74.82   22.73
  -1   3   2   77.45   14.55
   1   3  -2   67.83   20.07
   1   3  -2   68.70   21.15
  -1  -3   2   61.28   20.48
  -1  -3   2   70.78   20.59
  -1  -3   2   72.87   18.55
  -1   3   2   55.19   19.67
   1  -3  -2   67.46   14.17
   1   3  -1  260.48   37.03
  -1  -3   1  217.94   38.04
  -1   3   1  201.06   36.33
  -1  -3   1  229.38   32.16
   1   3  -1  222.30   34.18
  -1  -3   1  269.66   43.19
   1  -3  -1  238.07   27.36
  -1  -3   1  253.59   36.20
  -1   3   1  252.41   40.75
  -1  -3   1  210.66   36.33
   1   3  -1  255.57   40.21
   1  -3  -1  226.26   39.50
   1  -3  -1  249.56   38.63
  -1  -3   1  278.17   39.44
  -1   3   1  248.17   40.80
  -1  -3   1  217.78   37.74
  -1   3   1  275.76   29.67
  -1   3   1  221.90   33.60
  -1   3   0  429.84   53.85
  -1   3   0  455.53   54.81
   1   3   0  433.26   52.10
  -1  -3   0  454.52   53.75
   1  -3   0  427.06   41.29
   1  -3   0  467.94   53.91
   1   3   0  413.64   49.65
  -1   3   0  468.07   52.55
  -1  -3   0  497.92   48.68
  -1  -3   0  479.04   56.92
   1  -3   0  425.83   53.94
  -1  -3   0  388.42   36.96
  -1  -3   0  460.05   54.43
   1   3   0  408.15   43.13
   1  -3   0  391.08   46.55
  -1   3   0  441.27   49.73
  -1  -3   0  443.17   52.74
   1  -3   0  397.74   48.54
   1   3   1   27.76   13.06
  -1  -3  -1   43.08   15.50
   1   3   1   44.56   16.31
  -1  -3  -1   32.26    9.34
   1  -3   1   36.28   14.50
  -1  -3  -1   61.28   15.99
   1  -3   1   33.26   12.49
  -1  -3  -1   23.78   13.16
   1   3   1   32.49   14.88
  -1   3  -1   51.64   15.91
  -1  -3  -1   59.09   21.70
   1   3   1   38.72   10.02
   1  -3   1   39.87   13.68
  -1  -3  -1   45.90   17.36
  -1   3  -1   49.19   18.66
   1  -3   1   61.93   19.67
  -1   3  -1   30.32   13.16
  -1   3  -1   38.01   15.69
   1  -3   1   42.24   16.07
  -1   3  -2  784.03   72.06
   1   3   2  770.97   75.42
  -1  -3  -2  832.14   81.25
   1  -3   2  906.96   75.75
  -1   3  -2  832.65   62.31
   1   3   2  817.60   49.39
  -1   3  -2  786.82   71.89
  -1   3  -2  837.70   74.01
   1  -3   2  831.87   68.73
   1  -3   2  720.91   64.88
   1  -3   2  822.71   59.36
   1  -3   2  849.04   71.68
  -1  -3  -2  849.35   54.88
   1   3   2  902.34   76.48
   1   3   2  836.89   43.88
  -1  -3  -2  773.89   76.40
  -1  -3  -2  789.07   46.98
  -1  -3  -2  791.89   71.84
   1   3   2  742.74   69.89
  -1  -3  -2  766.93   43.34
  -1  -3  -2  792.92   75.04
  -1  -3  -3  150.33   20.81
  -1  -3  -3  157.13   33.68
   1   3   3  179.80   20.56
   1   3   3  162.59   32.08
   1  -3   3  171.15   32.76
  -1  -3  -3  191.20   34.67
   1  -3   3  147.61   29.58
   1   3   3  143.82   31.02
  -1  -3  -3  147.54   19.58
   1   3   3  163.31   20.10
  -1   3  -3  181.15   32.23
  -1  -3  -3  155.86   19.97
  -1  -3  -3  149.97   34.84
   1  -3   3  174.43   25.31
   1   3   3  172.70   26.93
  -1   3  -3  156.29   32.13
  -1  -3  -3  159.76   25.12
  -1   3  -3  232.52   40.83
   1   3   3  187.87   39.36
   1  -3   3  178.72   33.41
  -1   3  -3  185.46   34.38
  -1   3  -3  150.70   24.93
   1   3   4   13.27    8.77
  -1  -3  -4    1.22    2.68
   1   3   4    7.85    6.29
  -1   3  -4    9.94    7.42
   1  -3   4    9.45    5.25
  -1   3  -4    2.77    7.29
   1   3   4    7.81    5.14
  -1   3  -4    0.22    2.47
   1   3   4    9.67   12.43
  -1  -3  -4   11.10    4.61
   1   3   4    1.97    6.02
  -1   3  -4   11.33    6.50
   1  -3   4    1.74    3.20
   1  -3   4    7.28    7.31
   1  -3   4    4.26    5.74
   1   3   4   10.33    5.36
  -1  -3  -4   16.45   10.21
  -1  -3  -4    8.13    7.86
  -1  -3  -4    3.50    4.58
   1  -3   4   10.67    8.00
  -1   3  -4   11.84    8.42
  -1   3  -5   89.94   26.19
  -1  -3  -5   71.60   21.45
   1  -3   5  115.79   30.42
  -1   3  -5   83.39   22.43
   1  -3   5   71.35   12.81
   1   3   5   89.99   24.81
   1   3   5   77.15   21.99
  -1   3  -5   93.47   27.22
   1   3   5  117.00   27.66
  -1   3  -5   70.08   13.24
   1   3   5   72.77   17.77
   1  -3   5   83.01   22.57
  -1  -3  -5   96.58   24.14
   1   3   5   60.00   23.71
   1  -3   5   95.17   26.31
  -1   3  -5  107.63   25.95
   1  -3   5   84.42   23.87
  -1  -3  -5   76.26   25.98
  -1  -3  -5   89.00   24.74
   1   3   5   80.75   18.42
  -1  -3  -6   21.30   11.06
  -1   3  -6   18.31   11.19
   1  -3   6   27.07   13.89
  -1   3  -6   22.62   13.49
   1   3   6   18.99    9.37
  -1   3  -6   25.87   15.23
  -1  -3  -6   15.44   10.64
   1   3   6   13.01    7.29
   1  -3   6   16.49   11.49
   1   3   6   14.47    8.77
   1   3   6    9.83   10.00
  -1   3  -6   14.54    9.35
  -1  -3  -6   19.34   10.67
   1   3   6   27.17   14.85
   1  -3   6   32.61   14.11
  -1  -3  -6   31.77   16.96
   1   3   6   17.85   12.09
   1  -3   6   26.25   12.49
   1  -3   7  246.99   39.04
   1   3   7  267.55   56.56
  -1  -3  -7  259.94   38.60
   1  -3   7  266.73   41.28
   1   3   7  264.87   41.36
  -1  -3  -7  290.87   42.96
   1  -3   7  287.94   49.38
   1   3   7  258.91   40.21
  -1   3  -7  235.82   46.95
  -1  -3  -7  278.06   49.34
  -1   3  -7  287.13   42.99
   1  -3   7  294.28   50.23
  -1  -3  -7  225.44   48.09
   1   3   7  273.23   42.45
   1   3   7  290.43   43.32
  -1   3  -7  277.98   50.90
  -1   3  -8  414.33   51.26
  -1   3  -8  325.42   56.70
   1   3   8  373.95   54.43
   1  -3   8  359.57   57.16
   1  -3   8  346.06   46.76
  -1  -3  -8  378.34   61.91
  -1   3  -8  324.55   57.71
  -1  -3  -8  333.32   58.92
   1  -3   8  337.36   54.78
   1   3   8  343.42   47.06
   1   3   8  376.47   67.59
   1   3   8  338.12   46.79
   1  -3   8  368.89   49.30
  -1   3  -9  200.09   48.00
   1   3   9  235.37   45.95
  -1  -3  -9  214.18   50.09
  -1   3  -9  152.73   41.02
   1  -3   9  203.20   44.40
   1   3   9  244.03   39.39
   1  -3   9  177.31   40.96
   1  -3   9  224.39   37.55
  -1   3  -9  211.26   36.63
   1   3   9  223.22   37.63
  -1  -3  -9  233.36   49.66
   1  -3   9  231.51   39.71
   1   3   9  147.23   44.43
  -1   3 -10   15.15   11.78
  -1  -3 -10    9.54   10.16
   1   3  10    8.04    7.18
  -1   3 -10    7.23    6.55
   1  -3  10    6.78    6.67
   1  -3  10   13.92   11.76
  -1   3 -10   14.12   12.21
   1   3  10   20.04   16.49
   1   3  10    8.61    7.47
   1  -3  10   16.33   10.22
   1  -3  10   27.96   17.09
   1   3  10    8.04    7.15
  -1  -3 -10    7.97    9.88
   1  -3  11    4.03    2.71
   1  -3  11    9.70    6.61
  -1   3 -11    7.80    9.24
   1  -3  11   10.21   10.43
   1  -3  11   -1.93    4.55
  -1   3 -11   26.66   19.37
  -1  -3 -11    4.79    7.37
   1   3  11   -0.41    1.63
   1   3  11   22.92   19.75
  -1   3 -11   -2.44    5.22
  -1  -3 -11   25.76   17.34
   1   3  11   -0.87    2.39
   1  -3  11   14.14    9.61
   1   3  11  -13.65   12.32
  -1   3 -12   53.74   27.91
   1  -3  12   41.28   19.97
  -1  -3 -12   57.52   26.61
   1  -3  12   45.52   17.44
   1  -3  12   35.84    9.51
  -1   3 -12   54.18   27.06
   1  -3  12   53.86   24.73
   1   3  12   48.60   17.99
   1   3  12   75.07   31.94
  -1  -3 -12   52.86   28.04
   1   3  12   64.83   31.56
   1   3  12   59.09   20.48
  -1   3 -12   59.70   18.69
   1  -3  13   -7.83    9.73
   1  -3  13   -2.96    4.50
  -1  -3 -13    4.34    7.35
   1   3  13   12.17   14.08
  -1   3 -13    3.87    2.84
   1   3  13   16.85   15.11
   1  -3  13    8.96   10.45
  -1   3 -13   10.64    7.89
   1   3  13    2.47    4.14
   1   3  13    9.48    4.45
  -1   3 -13   -3.04    6.91
  -1   3 -13   -0.08    7.66
  -1  -3 -13   24.16   19.81
   1  -3  13   -0.92    1.65
  -1   3 -14    8.51   12.03
   1  -3  14   11.48    6.40
   1   3  14   12.63   14.74
  -1  -3 -14   16.14   14.57
   1   3  14    3.69    5.10
  -1   3 -14    0.67    1.32
   1  -3  14    9.05   10.86
   1  -3  14   -5.72    8.59
  -1   3 -14    7.91   10.22
   1   3  14   12.44   13.55
   1   3  14    5.09    3.74
  -1  -3 -14    9.15   12.71
   1  -3  14   14.23    9.95
   1   3  15  -17.74   11.29
   1  -3  15   -8.39    8.86
  -1  -3 -15    3.12    7.74
   1  -3  15   11.27    8.94
   1   3  15   24.54   21.11
  -1   3 -15    7.21    4.69
  -1  -3 -15   -5.39    8.59
   1   3  15    3.68    7.67
  -1   3 -15    7.99   10.56
   1  -3  15   -2.35    3.11
  -1   3 -15  -15.15   16.66
   1  -3  15   -4.61    7.96
   1   3  16   33.08   24.05
  -1   3 -16   32.72   10.73
   1  -3  16   37.30   23.32
  -1   3 -16   43.99   29.44
   1  -3  16   11.94    9.26
  -1   3 -16   28.67   20.56
  -1  -3 -16   29.50   24.70
   1   3  16   43.53   28.85
   1   3  16   30.69   14.95
   1  -3  16   30.83   12.06
  -1  -3 -16   40.74   23.62
   1   3  17  -18.93   18.72
  -1   3 -17   17.83   16.68
   1   3  17   -4.60    5.82
   1   3  17    3.23    8.05
   1  -3  17    0.92    2.57
  -1  -3 -17   29.96   21.11
  -1   3 -17    3.93    9.11
  -1  -3 -17   -7.35   12.79
   1  -3  17    6.67   10.18
  -1  -4  16    9.99   14.54
   1   4 -16   31.39   25.01
  -1   4  16    4.17    8.96
  -1  -4  16   -3.12    6.25
  -1   4  16   -2.87    7.89
  -1   4  16   10.30   11.02
  -1  -4  16   32.67   22.24
   1  -4 -16   -0.86    3.82
   1   4 -16   14.33   10.45
   1  -4 -16   14.14   17.99
   1   4 -15  -10.16    8.62
   1  -4 -15   -5.22   10.54
  -1  -4  15    5.83   10.73
  -1   4  15    0.79    2.98
  -1   4  15    8.58   12.36
  -1   4  15   21.81   21.22
   1  -4 -15   -4.41    8.45
   1   4 -15   18.36   18.39
  -1  -4  15   16.09    8.59
  -1  -4  15   20.88   17.28
  -1  -4  15  -10.56   11.13
  -1  -4  14    8.81    9.88
   1   4 -14    3.65    5.07
   1   4 -14   11.40   13.90
  -1  -4  14    2.49    3.87
   1  -4 -14   16.06   17.83
  -1   4  14   -7.75    9.21
  -1  -4  14  -20.65   16.79
  -1   4  14   20.92   20.32
  -1   4  14   14.61   15.53
   1  -4 -14   -1.62    5.02
  -1   4  13   20.81   17.75
   1   4 -13   -5.69    6.26
  -1  -4  13  -18.42   13.81
   1  -4 -13  -17.33   17.82
   1   4 -13   20.16   17.69
  -1  -4  13    1.92    4.98
  -1   4  13   -1.33    5.01
   1  -4 -13    8.86   11.49
  -1  -4  13   -2.22    2.73
  -1   4  13   -2.22    8.29
  -1  -4  12   20.72   14.19
  -1   4  12   34.03   24.63
  -1   4  12   30.42   20.51
   1  -4 -12   34.78   22.24
   1   4 -12   37.60   15.85
   1  -4 -12   34.78   24.24
  -1  -4  12   23.43    8.51
  -1   4  12   51.72   22.19
  -1   4  12   25.92   16.25
   1   4 -12   19.08   16.42
  -1  -4  12   13.52   12.89
  -1   4  11   81.98   32.76
   1  -4 -11   84.49   36.19
  -1   4  11   97.75   42.10
  -1  -4  11  115.76   36.68
   1  -4 -11   92.62   35.44
  -1  -4  11   96.58   29.82
   1   4 -11  102.51   31.72
   1   4 -11  108.42   37.35
  -1   4  11  103.00   31.94
   1   4 -11   97.20   25.69
  -1  -4  11   73.60   14.55
  -1  -4  11   79.57   22.87
  -1   4  11   88.96   28.90
  -1   4  10    0.11    4.49
  -1  -4  10   12.95    8.96
   1   4 -10    3.95    6.10
  -1   4  10   -1.27    4.50
   1   4 -10   20.91   10.78
  -1  -4  10   18.56   14.30
  -1   4  10    5.93    6.59
   1  -4 -10   13.36   13.74
  -1  -4  10    5.02    3.77
  -1   4  10   -1.14    3.31
   1  -4 -10  -17.93   15.22
   1   4 -10    8.62    9.94
  -1  -4  10    2.41    4.55
   1   4  -9   26.60   13.01
   1  -4  -9   12.65   12.46
  -1   4   9    7.34    8.80
  -1  -4   9    9.83   10.11
   1   4  -9   16.85   12.84
  -1  -4   9   18.42    7.29
  -1  -4   9   23.44   14.31
  -1  -4   9   24.09   12.00
  -1   4   9   13.24   11.10
  -1   4   9   19.21   10.98
   1   4  -9    4.36    6.66
   1  -4  -9   23.21   17.28
  -1  -4   8   13.27   11.40
   1   4  -8   18.64   11.78
   1  -4  -8   28.61   18.26
   1   4  -8   16.25   12.13
  -1   4   8   16.77    9.70
  -1  -4   8   24.73   12.78
   1   4  -8    9.11   11.52
  -1   4   8   19.53   14.16
  -1  -4   8   14.44    6.88
  -1  -4   8   12.33   10.76
   1  -4  -8   20.27   15.33
  -1   4   8   16.44    9.26
   1  -4  -7  834.53   95.25
  -1  -4   7  796.41   70.97
  -1   4   7  852.87   88.66
  -1   4   7  791.97   58.92
  -1  -4   7  740.71   83.85
   1  -4  -7  819.52   97.03
  -1  -4   7  745.97   51.47
   1   4  -7  823.34   81.05
   1   4  -7  903.69   91.59
   1   4  -7  802.86   73.36
  -1   4   7  798.49   86.42
  -1  -4   7  823.28   78.19
  -1  -4   7  774.01   78.70
   1   4  -7  839.29   96.63
  -1   4   6   91.10   27.68
  -1  -4   6   52.56   18.75
  -1   4   6   74.42   25.60
   1   4  -6   68.84   16.87
   1   4  -6   95.27   32.46
  -1  -4   6   57.49   18.32
   1   4  -6   67.84   21.21
  -1  -4   6   61.12   15.45
   1   4  -6   69.68   20.38
  -1  -4   6   82.32   26.63
  -1   4   6   63.33   14.79
   1   4  -6   80.81   26.55
   1  -4  -6   48.79   22.68
   1   4  -5    8.20   10.46
  -1  -4   5   -1.60    3.73
  -1   4   5   -0.51    1.24
  -1   4   5   12.92   10.62
   1  -4  -5    7.91    8.83
   1   4  -5   -4.96    4.88
  -1  -4   5    1.62    3.20
   1   4  -5    7.13    8.70
  -1  -4   5    3.65    4.01
  -1  -4   5    0.46    1.47
   1   4  -5    4.52    4.80
  -1  -4   5   10.29    8.34
  -1   4   5    8.70    8.58
  -1  -4   4   40.21   18.53
  -1  -4   4   52.48   13.58
  -1   4   4   50.49   16.34
   1  -4  -4   42.40   20.62
  -1  -4   4   41.75   14.42
   1   4  -4   56.92   22.64
  -1   4   4   53.13   22.40
  -1  -4   4   32.65   15.07
   1   4  -4   50.14   20.69
  -1  -4   4   34.89   15.22
  -1   4   4   32.05   15.34
  -1   4   4   33.81   16.68
   1   4  -4   29.64   10.41
  -1   4   4   43.75   10.72
   1   4  -4   36.92   14.11
  -1   4   3  444.40   33.75
   1   4  -3  454.71   62.77
   1  -4  -3  448.24   34.97
  -1   4   3  526.31   60.14
  -1   4   3  455.64   64.36
  -1  -4   3  481.53   53.24
  -1  -4   3  475.44   64.88
   1   4  -3  489.69   63.12
  -1   4   3  454.77   51.12
  -1  -4   3  408.82   54.15
   1  -4  -3  426.36   61.96
  -1  -4   3  447.38   32.81
   1   4  -3  406.03   32.67
  -1   4   3  470.37   61.72
   1   4  -3  495.06   54.65
  -1   4   2   75.09   21.18
  -1  -4   2   94.85   27.88
   1   4  -2   77.61   23.81
   1  -4  -2   65.64   22.97
   1  -4  -2   81.81   26.98
   1   4  -2   86.47   26.88
  -1  -4   2   75.12   23.67
   1   4  -2  103.90   25.38
   1  -4  -2   68.97   13.89
  -1  -4   2   93.55   24.81
  -1   4   2   73.11   22.95
  -1   4   2   90.46   28.71
  -1   4   1   -0.79    3.22
  -1  -4   1   -1.87    3.49
   1  -4  -1   -3.27    3.38
  -1   4   1    2.90    5.56
  -1  -4   1   -2.43    4.49
  -1  -4   1   -6.96    6.94
   1   4  -1   10.22   10.98
   1   4  -1    2.16    3.84
  -1  -4   1    5.31    8.31
   1  -4  -1    0.81    8.84
   1  -4  -1    7.74    7.94
   1   4  -1   -0.52    4.72
   1  -4  -1   16.36   11.41
   1  -4   0   43.84   18.40
   1  -4   0   33.11   15.03
  -1  -4   0   29.01   14.16
   1   4   0   37.22   15.77
  -1   4   0   44.54   19.72
  -1  -4   0   33.00   18.01
   1   4   0   37.39   14.74
   1   4   0   30.85   15.85
  -1  -4   0   34.54   11.70
  -1   4   0   43.78   17.61
   1  -4   0   41.48   13.43
  -1  -4   0   39.87   17.96
   1  -4   0   32.99   14.30
   1  -4   1  115.22   27.25
  -1   4  -1  122.45   32.02
   1   4   1  120.39   25.19
   1  -4   1  125.07   26.23
   1  -4   1  152.28   35.22
  -1  -4  -1  148.54   28.96
  -1  -4  -1  123.43   18.43
  -1  -4  -1  109.06   31.16
   1   4   1  116.33   30.61
   1   4   1  134.88   33.76
  -1   4  -1  153.00   33.48
  -1  -4  -1  150.32   35.46
  -1  -4  -1  123.56   19.66
  -1   4  -1  140.09   32.99
  -1  -4  -2   71.47   18.97
  -1  -4  -2   62.47   23.05
  -1  -4  -2   62.33   12.98
  -1   4  -2   58.65   21.21
   1   4   2   60.79   13.11
   1   4   2   42.51   19.75
   1  -4   2   84.50   23.70
  -1   4  -2   57.44   21.59
   1  -4   2   62.99   19.07
  -1  -4  -2   71.63   14.28
   1   4   2   52.26   21.00
  -1  -4  -2   60.00   24.08
  -1  -4  -2   59.17   12.00
   1  -4   2   54.15   20.57
   1   4   2   58.92   16.58
  -1   4  -2   91.49   24.03
  -1  -4  -3  426.05   30.93
   1   4   3  460.25   29.32
  -1  -4  -3  457.48   62.07
  -1   4  -3  443.37   51.93
   1   4   3  479.02   69.68
   1   4   3  524.18   41.40
  -1   4  -3  482.65   64.04
   1   4   3  494.95   45.38
  -1   4  -3  512.53   56.26
  -1  -4  -3  494.78   69.97
   1  -4   3  492.92   51.99
   1   4   3  515.73   46.30
  -1  -4  -3  501.06   45.32
  -1  -4  -3  514.23   40.06
   1   4   3  472.46   62.99
   1  -4   3  524.50   63.01
   1  -4   3  467.64   63.21
  -1  -4  -3  503.15   46.94
  -1   4  -3  507.54   66.38
  -1  -4  -4   47.52   20.69
   1  -4   4   37.87   14.23
  -1   4  -4   36.27   14.92
  -1   4  -4   52.26   22.38
   1   4   4   31.73   17.42
   1   4   4   51.91   13.62
  -1   4  -4   40.67   14.11
   1  -4   4   22.79   13.54
   1  -4   4   41.07   18.26
   1   4   4   32.13    8.23
   1   4   4   27.15    9.54
   1   4   4   39.60   13.81
  -1  -4  -4   46.17   12.43
  -1  -4  -4   30.55   12.16
  -1   4  -4   37.69   16.50
  -1  -4  -4   31.16   11.14
  -1  -4  -4   20.81   14.42
   1   4   4   28.28   14.95
  -1  -4  -5   52.69   12.82
   1  -4   5   67.05   25.30
   1   4   5   59.28   25.52
   1  -4   5   52.21   19.50
   1   4   5   56.53   21.65
  -1  -4  -5   67.76   18.88
   1   4   5   61.09   20.80
  -1   4  -5   70.97   23.29
  -1  -4  -5   51.20   20.67
  -1   4  -5   73.88   25.43
   1  -4   5   71.31   24.95
   1   4   5   57.24   12.43
  -1   4  -5   80.84   18.91
  -1   4  -5   50.93   22.64
  -1  -4  -5   48.54   22.51
  -1   4  -5   50.68   12.49
   1   4   5   62.45   16.37
  -1  -4  -5   62.22   20.21
   1  -4   5   57.75   16.01
  -1  -4  -6    2.84    6.10
   1  -4   6   -1.19    4.31
   1   4   6   16.50   14.09
  -1  -4  -6   -6.40    8.34
  -1   4  -6   12.00    9.94
   1   4   6    1.68    2.90
   1  -4   6   -1.33    1.93
   1  -4   6    1.01    1.87
   1  -4   6   -4.68    6.78
   1  -4   6    5.22    6.47
  -1   4  -6    4.33    3.98
   1   4   6   -3.68    5.52
  -1  -4  -6    1.01    2.74
  -1   4  -6   -1.57    8.32
   1   4   6    7.62    5.04
  -1   4  -6   10.57   13.52
   1  -4   7   61.65   11.14
  -1   4  -7   76.20   24.59
   1   4   7   46.27   20.46
   1  -4   7   71.31   14.14
   1   4   7   81.70   22.97
   1   4   7   76.88   32.04
   1  -4   7   61.63   24.51
  -1  -4  -7   63.12   26.71
  -1   4  -7   76.29   26.06
  -1  -4  -7   77.78   24.44
   1  -4   7   72.55   24.25
   1  -4   7   90.07   29.91
  -1  -4  -7   79.11   26.95
  -1   4  -7  116.76   35.59
   1   4   7   91.64   20.65
   1   4   8  -12.65    8.51
  -1   4  -8    3.71    5.55
  -1  -4  -8   -6.02    7.35
  -1   4  -8   11.67   10.62
   1   4   8    7.67    8.05
  -1  -4  -8   -1.76    3.55
   1  -4   8    2.95    5.50
   1  -4   8    1.11    1.39
   1   4   8   -1.68    3.44
  -1  -4  -8   -1.92    4.77
   1   4   8    0.92    3.57
  -1   4  -8    5.99    7.80
   1  -4   8    2.55    5.17
   1  -4   8    5.15    6.51
   1  -4   9   12.14   11.51
   1   4   9    1.73    7.62
  -1   4  -9    0.40    2.16
   1  -4   9   25.33   16.15
  -1  -4  -9   28.02   17.71
   1  -4   9   21.46   13.38
  -1   4  -9    2.87    5.67
   1   4   9   18.97   16.68
   1   4   9    9.75    8.24
  -1  -4  -9   13.60   12.90
   1   4   9    4.57    6.10
  -1   4  -9    5.72    5.14
  -1  -4 -10   27.82   18.63
   1   4  10   36.62   18.23
  -1   4 -10   32.57   16.41
   1  -4  10   33.87   19.56
  -1  -4 -10   23.33   17.26
   1  -4  10   46.41   19.77
   1  -4  10   42.83   23.06
  -1   4 -10    6.10    8.65
  -1   4 -10   14.35   13.20
   1   4  10   16.18   18.20
   1   4  10   20.77   13.43
  -1   4 -11   47.01   25.08
  -1   4 -11   23.57   17.34
   1  -4  11   21.37   16.20
   1   4  11   23.94   14.55
   1  -4  11   19.99   13.06
  -1  -4 -11   16.90   14.98
   1   4  11   39.64   20.54
  -1   4 -11   21.22   13.19
   1   4  11   18.13   16.94
   1  -4  11   24.41   17.04
  -1  -4 -11   35.09   22.00
   1   4  12   57.43   22.65
   1  -4  12   57.54   27.31
   1   4  12   54.40   25.46
  -1   4 -12   82.09   25.95
  -1   4 -12   72.96   30.70
  -1  -4 -12   31.54   20.89
   1  -4  12   42.04   23.54
   1  -4  12   63.83   23.54
   1   4  12   55.91   31.23
  -1  -4 -12   39.37   26.39
  -1   4 -12   55.49   28.42
   1   4  13  138.90   43.72
  -1  -4 -13  140.31   46.57
  -1   4 -13  133.02   33.56
   1  -4  13   95.01   35.46
   1   4  13  106.55   31.29
   1  -4  13   68.37   24.92
   1   4  13  116.32   47.24
  -1  -4 -13   82.58   36.96
  -1   4 -13  105.39   40.25
  -1   4 -13  107.61   41.18
   1  -4  13  119.06   41.47
  -1   4 -14   -0.73    3.28
  -1  -4 -14    7.50   10.59
   1   4  14   25.43   22.21
  -1  -4 -14  -19.81   18.88
   1   4  14   25.76   15.41
   1  -4  14   10.64    9.75
   1  -4  14   12.17   13.06
  -1   4 -14   20.00   18.45
   1   4  14   35.36   22.62
  -1   4 -14   13.31   10.35
   1  -4  14    4.88    8.45
   1   4  15  -12.57   10.83
  -1   4 -15    6.85    7.39
   1   4  15    3.15    7.05
  -1  -4 -15  -24.30   21.76
   1  -4  15   -7.88    8.45
   1   4  15   -6.66   11.65
   1  -4  15    7.97   11.11
   1  -4  15   -1.90    5.31
  -1   4 -15   13.90   15.96
  -1  -4 -15    5.64    9.38
  -1   4 -15   -1.24    4.39
  -1  -4 -16   -3.20    7.21
  -1  -4 -16    0.48    3.14
  -1   4 -16    3.74    8.58
   1   4  16   -0.11    1.05
  -1   4 -16   -9.69   12.60
   1  -4  16    8.65    8.89
   1   4  16   15.96   16.53
   1   4  16  -14.61   17.69
   1  -4  16  -28.23   21.49
   1  -4  16  -18.99   17.23
  -1  -5  15    6.96   10.46
   1   5 -15   -0.94    2.66
   1  -5 -15    4.66   10.02
   1  -5 -15  -13.47   15.57
  -1  -5  15   -6.31    9.05
  -1  -5  15  -11.78   12.35
  -1   5  15   12.63   13.20
   1   5 -15  -26.79   22.21
  -1   5  15    5.60    8.15
  -1   5  15  -13.05   15.15
  -1   5  15   17.93   20.24
   1   5 -14  -10.38   13.25
  -1   5  14    9.81   10.22
  -1  -5  14   -4.04    7.78
   1   5 -14   -0.29    1.47
  -1  -5  14    4.04    7.15
   1  -5 -14   14.93   17.29
  -1   5  14    7.34   12.65
  -1   5  14   10.43   11.82
  -1   5  14   -0.24    1.93
   1  -5 -14    5.79   10.00
  -1  -5  14   -8.86   10.43
   1  -5 -13   14.14   16.20
  -1  -5  13    2.25    5.10
  -1   5  13   27.55   23.94
  -1  -5  13   -9.16   10.64
  -1  -5  13   -9.65   11.73
   1   5 -13   15.25   15.36
   1   5 -13   -1.97    4.87
  -1   5  13   -6.77    8.00
  -1   5  13    4.95    8.04
   1   5 -13   -4.45    5.75
   1  -5 -13    7.34   11.03
  -1   5  13   12.78   13.84
  -1  -5  12    4.91    8.16
  -1   5  12   34.18   26.06
  -1  -5  12   12.60   11.73
   1   5 -12   20.61   12.36
  -1  -5  12   16.25   14.01
   1  -5 -12   30.07   25.33
   1   5 -12   16.20   15.07
   1   5 -12   23.06   16.58
  -1   5  12   11.76   12.22
   1  -5 -12   45.14   26.79
  -1   5  12    7.40   10.11
  -1   5  12   24.49   14.23
  -1  -5  11   16.74   10.32
  -1  -5  11   31.46   20.13
   1   5 -11   22.52   12.90
   1  -5 -11   23.00   19.04
  -1   5  11   16.68   17.75
  -1   5  11   20.61   12.08
  -1   5  11   19.54   15.85
  -1   5  11   25.62   17.82
   1   5 -11   25.92   17.42
  -1  -5  11   22.45   15.30
   1   5 -11   23.86   17.39
   1  -5 -11   17.47   16.31
  -1  -5  11   17.28    5.99
  -1  -5  11   16.41   13.93
  -1   5  10    2.71    5.72
  -1  -5  10   16.71   14.30
  -1  -5  10    3.85    6.69
   1   5 -10    3.74    5.26
  -1  -5  10    8.16    7.34
  -1  -5  10    2.30    2.49
  -1   5  10    8.86   10.29
  -1   5  10   -2.46    6.64
  -1  -5  10   -2.19    4.68
   1  -5 -10   -0.06    0.94
   1  -5 -10   15.47   14.95
  -1   5  10    5.55    5.74
   1   5 -10   14.68   13.01
   1   5 -10    6.32    8.46
  -1  -5   9  -15.68   13.36
  -1  -5   9    6.91    8.16
  -1   5   9    5.45    9.64
   1  -5  -9   13.03   13.49
  -1   5   9    3.09    3.87
  -1   5   9    3.38    6.18
   1   5  -9  -16.26   14.69
   1   5  -9    7.97    8.92
   1   5  -9   10.30    8.77
   1   5  -9    5.82   11.57
  -1  -5   9    2.01    4.83
  -1  -5   9   10.56    8.51
  -1   5   9    1.39    4.06
  -1  -5   9   12.71    6.51
   1  -5  -9    4.93    8.05
   1   5  -8   52.09   21.03
  -1   5   8   70.14   33.65
  -1   5   8   49.95   24.68
   1   5  -8   58.49   26.50
   1  -5  -8   60.63   28.44
  -1   5   8   66.84   28.31
  -1  -5   8   30.83   18.77
  -1  -5   8   55.78   25.01
  -1  -5   8   38.82   18.97
   1  -5  -8   75.69   30.02
   1   5  -8   55.08   27.69
  -1  -5   8   37.39   16.33
  -1  -5   8   44.83   13.77
  -1   5   8   52.91   14.73
  -1   5   7    0.67    2.62
  -1  -5   7   17.34   12.71
  -1  -5   7    0.79    2.43
  -1  -5   7    3.44    3.98
   1   5  -7   11.35   11.13
   1   5  -7   -0.06    0.52
   1   5  -7    1.47    3.30
  -1  -5   7    9.13    7.81
  -1  -5   7   -8.64    9.78
  -1   5   7   10.18    7.50
  -1  -5   7    7.16    8.69
   1   5  -7    7.23   12.65
   1  -5  -7   -2.90    6.09
  -1   5   7   -0.73    1.57
  -1   5   7   -4.76    8.53
  -1   5   7   -2.65    5.50
  -1  -5   6   16.74    9.59
  -1   5   6   14.42    8.64
  -1  -5   6   17.61    9.59
   1   5  -6   11.52    8.37
   1   5  -6   15.85    8.32
  -1   5   6   16.56   13.65
  -1   5   6    5.79    9.13
  -1   5   6   14.85    6.36
  -1   5   6   16.77   13.01
  -1  -5   6   21.70   12.97
   1   5  -6   17.23   13.85
   1  -5  -6    7.31    9.43
  -1  -5   6    9.27   10.07
   1   5  -6   14.41   11.54
  -1   5   5   29.47   17.04
  -1  -5   5   26.96   17.04
   1   5  -5   24.22   10.73
  -1   5   5   28.64   19.70
   1  -5  -5   26.53   17.53
  -1   5   5   34.62    8.73
  -1  -5   5   15.41   11.18
  -1   5   5   34.27   14.92
   1   5  -5   35.28   21.08
  -1   5   5   34.27   17.99
   1   5  -5   30.37   18.99
  -1  -5   5   29.36   13.16
  -1  -5   5   39.85   13.06
   1   5  -5   18.77   10.89
   1  -5  -4   -3.39    6.10
  -1   5   4   13.96   11.37
  -1   5   4    8.81    4.15
  -1   5   4    7.74    9.24
  -1   5   4   -0.36    1.87
   1   5  -4   15.06   13.09
  -1  -5   4   12.06    6.06
  -1  -5   4   -8.04    7.26
  -1  -5   4   10.35   10.49
   1   5  -4   13.27    6.67
   1   5  -4    8.08    7.39
  -1  -5   4   -9.35    8.91
   1   5  -4   -0.82    7.48
  -1   5   3  147.11   33.91
  -1  -5   3  150.71   36.68
  -1  -5   3  148.32   39.85
  -1  -5   3  174.85   36.49
   1  -5  -3  107.33   34.63
  -1   5   3  161.03   35.14
   1  -5  -3  123.40   17.42
   1   5  -3  147.56   40.01
  -1   5   3  210.15   48.76
   1   5  -3  127.08   30.31
   1   5  -3  151.54   37.54
  -1   5   3  150.08   36.87
   1  -5  -2  101.27   29.72
  -1   5   2   86.55   25.84
  -1  -5   2  111.67   32.42
   1  -5  -2   99.53   31.80
   1   5  -2   97.66   29.28
  -1  -5   2  100.88   32.02
  -1   5   2  101.16   33.84
  -1   5   2  111.01   28.18
   1  -5  -2  112.07   18.80
   1   5  -2  110.61   29.12
   1   5  -2  116.71   34.90
  -1   5   1   38.84   17.14
  -1  -5   1   26.66   15.95
   1  -5  -1   43.56   13.09
   1  -5  -1   38.96   20.07
  -1  -5   1   38.71   15.06
   1   5  -1   55.32   20.34
  -1   5   1   44.00   21.81
  -1  -5   1   38.44   20.07
   1   5  -1   34.90   18.91
   1  -5  -1   34.32   16.30
   1   5  -1   30.81   16.03
  -1   5   0   -3.58    5.58
  -1  -5   0    7.10    5.56
   1  -5   0    9.45    7.09
  -1   5   0    2.30    4.61
   1   5   0   23.11   14.57
  -1  -5   0   -4.68    4.52
   1  -5   0    3.69    2.96
  -1  -5   0   -2.43    4.99
  -1  -5   0    2.81    5.34
   1  -5   0    9.81    9.29
   1   5   0    7.80    7.55
  -1   5   0    0.94    3.04
   1   5   0    4.95    4.79
   1   5   1  184.70   43.08
   1  -5   1  235.94   44.61
  -1  -5  -1  170.53   42.91
  -1   5  -1  252.83   49.20
   1  -5   1  191.26   43.27
  -1   5  -1  192.97   45.35
  -1  -5  -1  203.88   29.01
  -1  -5  -1  204.34   46.82
  -1   5  -1  208.87   41.80
   1  -5   1  196.59   35.74
   1   5   1  200.60   37.76
  -1  -5  -1  188.38   25.43
   1   5   1  254.98   51.48
   1  -5   2  710.61   73.80
  -1   5  -2  595.80   68.94
   1   5   2  596.10   80.02
   1   5   2  577.98   60.04
   1  -5   2  600.73   69.70
  -1  -5  -2  589.47   47.24
   1  -5   2  520.31   72.58
  -1   5  -2  580.50   76.66
  -1  -5  -2  607.88   63.25
  -1  -5  -2  557.23   79.49
   1   5   2  555.54   38.77
  -1  -5  -2  540.32   37.00
  -1  -5  -2  570.99   76.85
  -1   5  -2  648.19   83.55
   1   5   2  608.69   79.89
  -1   5  -3  257.85   52.32
   1  -5   3  228.97   45.27
   1   5   3  260.05   54.85
   1  -5   3  276.08   53.13
  -1  -5  -3  265.03   56.14
  -1   5  -3  291.41   44.80
  -1   5  -3  232.24   50.04
  -1  -5  -3  284.53   54.65
  -1  -5  -3  272.55   40.18
   1   5   3  237.01   36.66
  -1   5  -3  268.11   41.17
   1  -5   3  245.63   42.43
   1   5   3  243.74   31.59
  -1  -5  -3  238.15   31.29
  -1  -5  -3  295.88   34.73
   1   5   3  245.36   50.33
  -1   5  -4   -3.85    5.15
  -1   5  -4   -1.44    2.82
   1   5   4    0.13    1.24
  -1  -5  -4    3.76    4.28
  -1  -5  -4   -0.21    1.44
  -1  -5  -4   11.68    5.72
   1  -5   4    6.55    8.10
  -1  -5  -4    4.06    4.64
  -1   5  -4    0.94    5.06
  -1   5  -4   -1.49    3.17
   1   5   4    3.38    3.92
  -1   5  -4  -13.84   12.21
  -1  -5  -4   11.30   11.63
   1  -5   4   -4.71    5.56
   1   5   4    3.22    4.14
   1  -5   4   -1.63    3.92
   1   5   4   -2.36    3.36
   1   5   4    6.63    8.29
   1   5   5   92.90   35.74
   1  -5   5   78.26   28.50
  -1  -5  -5   93.28   33.89
  -1  -5  -5   77.50   28.99
   1   5   5   87.40   19.07
  -1  -5  -5   99.37   22.84
  -1   5  -5  106.88   28.72
   1   5   5   87.17   21.81
   1  -5   5   69.90   21.13
   1   5   5  106.30   33.10
  -1   5  -5   90.86   24.63
  -1  -5  -5   93.51   20.67
   1   5   5   83.19   24.51
  -1   5  -5   98.20   32.57
  -1   5  -5   90.56   33.48
   1  -5   5   87.80   31.16
  -1  -5  -5   80.65   23.24
  -1   5  -5   84.60   19.64
   1   5   6  346.16   70.30
   1  -5   6  297.19   59.00
  -1   5  -6  274.32   30.20
  -1  -5  -6  324.14   57.22
  -1   5  -6  328.75   62.87
  -1  -5  -6  321.26   66.13
   1   5   6  332.00   60.54
   1  -5   6  314.22   58.36
   1   5   6  298.98   25.22
   1  -5   6  272.80   37.27
  -1   5  -6  292.99   41.85
   1  -5   6  261.75   38.17
  -1   5  -6  357.98   55.76
  -1  -5  -6  332.84   51.74
  -1  -5  -6  279.31   42.99
  -1   5  -6  301.11   56.22
   1  -5   6  294.88   55.57
   1   5   6  363.63   46.87
  -1  -5  -7  110.58   31.86
   1   5   7   81.25   36.30
   1   5   7   80.11   22.73
   1  -5   7  100.72   21.54
   1   5   7   84.46   28.72
   1  -5   7   67.86   27.47
  -1   5  -7   89.04   28.80
  -1  -5  -7   75.45   34.86
  -1   5  -7   98.80   35.81
  -1  -5  -7   52.01   22.35
   1  -5   7   70.60   17.07
   1  -5   7   87.23   30.97
  -1  -5  -7   91.03   25.46
   1  -5   7  114.14   38.15
   1   5   7   95.41   16.82
  -1   5  -7   84.12   29.44
   1   5   8   89.46   25.03
   1  -5   8   87.21   16.33
  -1   5  -8  101.37   36.92
   1   5   8  102.05   33.11
   1  -5   8   93.90   32.75
   1  -5   8   77.37   17.25
   1  -5   8  113.65   37.14
   1   5   8  107.58   20.26
  -1   5  -8   98.69   32.35
   1   5   8  122.18   44.45
  -1   5  -8  107.44   33.59
   1  -5   8   95.93   35.13
  -1  -5  -8  125.43   35.71
  -1  -5  -8  125.68   34.16
  -1  -5  -8  118.52   43.27
   1  -5   9   30.91   19.50
   1   5   9   28.53   23.43
   1   5   9    7.35    9.16
  -1   5  -9   25.77   16.34
   1  -5   9    7.97    3.76
  -1  -5  -9   16.09   13.57
   1   5   9   33.95   12.92
   1   5   9    7.66    7.83
  -1   5  -9   12.32   15.19
   1  -5   9   18.63   13.96
   1  -5   9   -1.76    4.66
  -1   5  -9   11.98   11.65
  -1  -5  -9   18.28   17.80
  -1   5 -10   23.44   15.69
  -1  -5 -10   37.90   23.76
   1   5  10    5.29    9.69
  -1  -5 -10   14.90   13.77
   1  -5  10    2.36    5.56
   1  -5  10   -1.03    3.31
   1   5  10    6.21    6.25
   1  -5  10    5.06    2.90
   1   5  10    5.99    7.35
   1  -5  10    6.78    9.26
  -1   5 -10   26.87   19.29
   1   5  10   11.59   11.29
  -1   5 -10    9.42   10.81
  -1  -5 -11   18.32   16.06
  -1   5 -11   14.03   12.16
   1   5  11   -2.85    5.64
  -1  -5 -11   -8.53   11.46
   1   5  11   -1.11    4.53
   1   5  11    1.00    2.77
   1  -5  11   -6.39    9.19
   1  -5  11    0.48    2.55
  -1   5 -11   -1.24    4.09
  -1   5 -11    7.51   10.41
   1   5  11   -4.74    6.91
   1  -5  11    0.63    2.60
  -1  -5 -12   -1.70    5.12
   1  -5  12    6.34    9.57
   1   5  12    0.25    1.68
   1   5  12   17.69   18.64
  -1   5 -12   -5.69    9.26
   1  -5  12    6.83    8.61
  -1   5 -12    7.86    9.11
  -1  -5 -12   -5.36    9.24
  -1   5 -12   -7.96   10.81
   1   5  12   -5.36    7.77
   1  -5  12   10.08   11.78
   1  -5  13   14.35   14.42
   1  -5  13    0.71    3.33
  -1   5 -13  -26.47   20.50
   1  -5  13   18.36   14.19
  -1   5 -13   12.33   13.93
   1   5  13    3.99    9.08
  -1   5 -13   27.60   17.14
   1   5  13   27.36   18.59
   1   5  13    5.72    8.08
  -1  -5 -13   12.51   14.50
  -1  -5 -13    7.04   10.78
   1   5  14    5.85    8.23
   1  -5  14   -6.17    9.69
  -1   5 -14   -4.68    8.96
   1   5  14    8.73   11.00
  -1  -5 -14   28.72   22.92
   1  -5  14   -0.19    1.79
   1  -5  14   -8.64    9.78
  -1  -5 -14   18.78   17.88
  -1   5 -14   -9.11    9.81
   1   5  14   -0.27    2.39
  -1   5 -14   -2.22    6.04
  -1  -5 -15  -11.70   14.36
   1  -5  15   -7.09   10.67
   1  -5  15   18.36   14.35
  -1   5 -15    1.89    5.88
   1   5  15   -7.53   10.70
  -1   5 -15   -5.90   10.08
  -1  -5 -15   20.57   20.19
  -1   5 -15  -14.47   12.32
   1   5  15   -6.20   11.87
   1   5  15  -15.04   13.25
   1  -5  15  -14.82   15.95
  -1   6  13   35.14   23.16
  -1  -6  13   30.13   20.92
  -1  -6  13   67.97   32.35
  -1   6  13   14.35   18.17
  -1  -6  13   42.70   23.33
  -1  -6  13   45.62   18.12
   1   6 -13   46.46   26.80
  -1   6  13   13.16    8.40
  -1   6  13   38.38   17.06
   1  -6 -13   51.41   30.99
   1   6 -13   20.86   17.39
  -1   6  13   41.86   25.43
   1  -6 -13   14.46   16.30
  -1   6  12    4.98    5.26
   1  -6 -12   36.11   25.00
   1  -6 -12   25.41   21.22
  -1  -6  12    3.79    7.34
  -1   6  12   11.84    8.70
  -1  -6  12   10.26   12.28
   1   6 -12    6.21    9.34
   1   6 -12   19.08   18.82
  -1   6  12   44.99   26.08
  -1  -6  12   26.84   18.12
  -1   6  12   62.91   37.19
  -1   6  12   21.54   17.58
  -1  -6  12   17.29   11.41
  -1   6  11   23.44   18.63
  -1   6  11   15.38   14.50
   1   6 -11   27.22   18.50
  -1  -6  11    8.65   10.13
  -1   6  11   21.02   11.05
  -1  -6  11   36.90   22.79
  -1  -6  11   30.50   19.40
   1   6 -11   20.31   16.87
   1  -6 -11   35.38   24.55
  -1   6  11   13.19    8.37
  -1  -6  11    6.97    7.40
   1  -6 -11   39.49   25.12
  -1   6  11   42.18   29.75
  -1  -6  10   21.26   18.02
   1   6 -10   45.08   28.86
  -1  -6  10   44.00   28.56
  -1   6  10   26.68   10.83
   1  -6 -10   35.63   24.17
  -1  -6  10   45.30   25.00
  -1   6  10   23.84   18.58
   1   6 -10   37.39   20.45
  -1   6  10   37.11   15.01
   1   6 -10   27.15   20.61
  -1   6  10    1.51    5.50
  -1   6  10   36.92   21.95
  -1  -6  10   62.58   22.64
   1  -6  -9    6.28    9.94
  -1  -6   9   20.97   13.36
  -1  -6   9    0.95    1.97
  -1  -6   9    3.12    5.96
  -1   6   9   20.10   15.96
  -1   6   9    6.66    4.90
  -1   6   9   11.63    8.62
  -1   6   9   32.46   24.89
   1   6  -9    2.84    5.28
  -1  -6   9   13.31   13.12
   1   6  -9  -16.22   15.53
  -1  -6   9    6.07    9.08
  -1   6   9   -2.87    6.39
   1   6  -9   -4.83    8.07
   1   6  -8    6.58    9.30
   1   6  -8    2.39    3.49
   1   6  -8   12.78   10.38
  -1   6   8    3.38    2.96
  -1  -6   8    0.65    2.96
   1   6  -8   -1.16    4.04
  -1  -6   8   -2.19    5.25
  -1  -6   8    7.62    9.26
  -1   6   8   -3.55    4.90
   1  -6  -8    1.30    4.44
  -1  -6   8    2.39    4.60
  -1  -6   8   -2.12    3.27
  -1   6   8    6.04    9.19
  -1   6   8    8.88   12.71
  -1   6   8   -3.60    6.64
  -1  -6   7   30.48   21.97
  -1   6   7   22.86   16.50
  -1  -6   7   23.81   16.98
   1   6  -7   30.39   13.98
   1   6  -7   32.42   20.86
   1  -6  -7   13.57   14.06
  -1   6   7   29.97   14.65
  -1  -6   7   15.95    9.67
  -1  -6   7   11.78   10.41
   1   6  -7   23.29   17.40
  -1   6   7   21.02   17.01
  -1  -6   7   14.33    9.48
   1   6  -7   27.33   13.89
   1   6  -6   21.97   11.14
  -1  -6   6    5.55    6.09
   1  -6  -6   27.60   19.67
  -1  -6   6   -1.60    4.57
  -1   6   6   30.42   20.32
   1   6  -6   14.82   13.74
  -1   6   6   15.20   10.51
   1   6  -6   20.04   11.95
  -1  -6   6   26.93   11.30
   1   6  -6   12.81   12.78
  -1   6   6   27.28   21.16
  -1  -6   6   20.05   13.85
  -1   6   6   24.92   16.94
   1   6  -5    3.92    4.04
  -1   6   5    4.63   11.71
  -1  -6   5   10.72   10.33
  -1  -6   5    2.88    6.10
   1   6  -5    8.08    9.88
  -1  -6   5   12.35    9.59
   1  -6  -5   17.53   15.36
   1   6  -5   16.44   11.24
   1   6  -5   20.32   16.03
  -1   6   5   23.87   16.33
  -1   6   5   20.48   12.82
  -1   6   5    8.59   10.75
   1   6  -4  -19.45   14.90
  -1   6   4    5.69    7.78
  -1  -6   4   -1.01    3.60
   1   6  -4    0.16    0.62
   1  -6  -4   -1.52    7.78
  -1   6   4   -8.08   10.40
   1   6  -4    3.12    5.02
  -1   6   4   -9.40    8.94
  -1   6   4   13.60   14.12
   1   6  -4    4.14    7.20
  -1  -6   4  -14.38   12.21
   1   6  -3   94.82   34.22
   1   6  -3   96.63   32.27
   1   6  -3  108.50   30.78
   1  -6  -3   97.34   34.06
   1  -6  -3   67.11   11.60
  -1  -6   3  101.57   35.76
  -1   6   3   82.36   34.78
  -1   6   3  103.67   37.44
  -1  -6   3   78.32   29.02
  -1   6   3  102.13   30.43
   1  -6  -2  141.06   40.21
   1   6  -2  116.71   34.11
  -1  -6   2  133.64   39.99
   1  -6  -2  123.64   37.71
  -1   6   2  130.26   40.20
  -1   6   2  123.35   40.07
  -1  -6   2  120.37   38.34
  -1  -6   2  114.40   29.18
  -1   6   2  169.53   40.36
   1  -6  -2  120.82   20.12
   1   6  -2  160.70   39.07
   1   6  -2  110.94   37.52
  -1   6   2  146.46   32.81
   1   6  -1    6.39    7.97
   1  -6  -1   -5.96    5.20
   1   6  -1    2.36    4.76
  -1  -6   1   -5.79    8.21
   1  -6  -1    1.62    5.45
  -1   6   1   -4.98    7.09
  -1   6   1    4.14    4.22
  -1   6   1   -3.25    6.23
  -1  -6   1    4.85    5.39
   1  -6  -1   -5.55    7.89
  -1  -6   1    0.79    3.12
   1   6  -1   10.83   11.56
  -1  -6   0   71.31   18.29
   1  -6   0   87.48   30.94
  -1   6   0   80.25   29.80
  -1  -6   0   73.06   29.97
   1   6   0   80.40   31.50
  -1   6   0   99.64   32.13
  -1  -6   0   72.14   29.91
   1  -6   0  105.71   25.27
   1  -6   0   77.99   29.47
  -1   6   0   80.43   31.04
   1   6   0   89.27   31.67
   1   6   0   97.28   29.63
  -1  -6   0   91.98   22.57
  -1  -6  -1    1.65    2.46
  -1   6  -1  -17.83   14.09
  -1  -6  -1   -0.49    2.47
   1  -6   1    7.53    7.39
   1  -6   1   -0.76   11.14
   1   6   1  -14.14   13.28
   1   6   1    1.13    3.06
  -1   6  -1   -3.90    7.10
   1  -6   1    9.15    9.64
  -1   6  -1  -13.11   11.52
  -1  -6  -1   -4.03    7.07
   1   6   1    8.21   11.27
  -1  -6  -1   -1.70    2.92
  -1   6  -2   16.75   12.41
   1   6   2   18.37   13.43
  -1  -6  -2   -5.10    8.15
  -1  -6  -2    9.91    6.85
   1  -6   2   25.90   16.34
  -1  -6  -2    7.31    4.12
  -1   6  -2   21.54   12.71
  -1  -6  -2   11.81    5.31
   1   6   2   12.41   10.21
   1  -6   2    6.85    9.08
  -1   6  -2   22.00   14.58
   1  -6   2   17.91   13.09
   1   6   2   12.51    8.40
   1   6   2   13.60    5.47
   1   6   3  217.70   53.10
   1  -6   3  215.47   44.13
  -1  -6  -3  254.73   57.32
   1   6   3  210.88   53.16
  -1   6  -3  234.55   44.08
  -1   6  -3  240.00   40.15
  -1  -6  -3  214.18   32.64
   1   6   3  218.43   39.25
  -1   6  -3  176.95   47.00
   1   6   3  233.93   30.67
  -1  -6  -3  229.70   55.89
   1  -6   3  205.15   50.34
  -1   6  -3  201.33   50.90
  -1   6  -4   48.58   24.74
   1   6   4   48.35   16.03
  -1  -6  -4   64.39   29.50
  -1   6  -4   62.23   21.45
  -1  -6  -4   73.68   30.18
   1  -6   4   58.30   25.11
   1   6   4   54.12   26.90
  -1  -6  -4   50.60   16.44
  -1   6  -4   37.79   22.10
   1  -6   4   61.49   28.29
   1   6   4   32.80   21.57
   1  -6   4   48.52   20.21
  -1   6  -4   37.77   14.77
   1   6   4   53.10   18.21
   1  -6   5   85.88   26.57
  -1  -6  -5   87.45   24.09
  -1   6  -5   99.23   27.95
   1  -6   5   66.94   27.77
  -1  -6  -5   59.71   29.45
   1   6   5  107.41   42.31
   1  -6   5   68.27   27.20
  -1   6  -5   70.38   30.62
   1   6   5   72.73   20.53
  -1  -6  -5  108.04   25.33
  -1  -6  -5   98.20   24.14
   1   6   5   82.14   21.72
   1   6   5   84.57   33.86
  -1   6  -5   78.45   33.13
  -1  -6  -5   86.48   32.46
  -1   6  -5   76.99   21.41
   1   6   5   76.77   22.67
   1  -6   6   29.31   13.70
   1  -6   6   18.01   11.33
   1   6   6   14.61    8.45
  -1   6  -6   12.32    7.62
  -1  -6  -6    7.29   10.48
  -1  -6  -6    7.72    7.80
   1   6   6    2.22    5.96
  -1   6  -6   12.76   12.59
   1   6   6   12.70    9.27
  -1   6  -6   11.78    6.91
   1  -6   6    2.28    5.31
   1   6   6   -5.96    8.78
  -1   6  -6   19.77   13.11
  -1  -6  -6   17.91   12.40
  -1  -6  -6   -7.39    7.04
   1  -6   6   15.69   13.60
  -1  -6  -7   15.44   10.84
  -1  -6  -7  -10.64   11.22
   1  -6   7    3.42    4.36
   1  -6   7   -0.32    2.08
   1  -6   7   14.16   13.31
  -1   6  -7  -16.96   12.76
   1   6   7    3.52    5.15
  -1  -6  -7   13.44   11.08
   1   6   7   -3.04    7.18
  -1   6  -7   -6.85    9.84
  -1   6  -7    0.40    1.16
   1   6   7  -11.35   12.17
   1  -6   7    2.04    3.63
  -1  -6  -7  -11.97   13.65
  -1   6  -7   18.91   15.33
   1  -6   7    6.86    9.19
   1  -6   8    6.13    9.11
  -1  -6  -8    7.32   10.84
  -1  -6  -8   17.37   14.12
   1   6   8   -0.76    2.49
  -1  -6  -8   21.57   14.96
   1  -6   8   10.26    7.66
   1   6   8   14.23   13.71
   1   6   8    5.80   10.19
  -1   6  -8    7.18    8.70
   1  -6   8    3.58    4.11
   1  -6   8   24.28   17.50
  -1   6  -8   -6.37    8.88
   1  -6   8    1.66    4.63
  -1   6  -8   20.37   17.25
  -1   6  -9    5.04    7.62
   1  -6   9   12.03   12.78
   1   6   9    6.99    4.50
   1   6   9   18.74   12.76
   1  -6   9    6.06    4.69
  -1  -6  -9   35.13   24.14
  -1   6  -9   -1.33    4.49
  -1   6  -9   16.45   15.79
   1  -6   9   14.23   14.03
   1  -6   9   11.21    7.39
  -1  -6  -9   20.69   16.22
   1  -6   9   22.02   16.72
   1   6   9   -8.72   10.79
   1   6   9   25.38   21.92
   1   6  10    9.16    9.29
   1  -6  10    8.64   10.53
   1   6  10    4.33    4.07
   1  -6  10    7.51   12.97
   1  -6  10    8.45   10.92
   1   6  10    6.09   11.02
  -1  -6 -10    3.53    7.78
   1  -6  10    2.74    2.60
  -1   6 -10    8.00   10.02
  -1   6 -10   30.45   19.59
   1  -6  10    5.37    4.57
  -1   6 -10  -12.79   14.17
   1   6  10   -2.62    5.93
  -1  -6 -10   13.79   13.36
   1   6  11   11.87   11.00
  -1  -6 -11    9.53   11.10
   1  -6  11   15.98   14.38
  -1   6 -11    1.08    3.69
   1  -6  11    5.23    3.68
  -1   6 -11    3.71    7.78
  -1  -6 -11   28.42   20.15
   1   6  11   -5.07    8.31
   1   6  11    1.03    4.63
   1  -6  11    6.25    9.49
  -1   6 -11  -36.05   22.24
   1  -6  11   14.35   14.69
   1  -6  12   -5.69    9.48
  -1   6 -12   16.88   16.90
   1   6  12    4.12    7.53
   1  -6  12   -4.61    7.75
  -1  -6 -12   10.33   12.71
   1  -6  12    8.83   11.52
  -1   6 -12    2.84    6.04
  -1   6 -12   -9.99   12.19
  -1  -6 -12  -11.81   14.66
   1   6  12    1.03    4.76
   1   6  12  -12.19   11.67
   1  -6  13   20.67   17.96
  -1  -6 -13    1.87    5.66
   1   6  13   33.67   21.62
  -1   6 -13   31.04   23.35
   1  -6  13    9.23   12.36
   1  -6  13   18.39   15.58
  -1  -6 -13    9.61   13.44
   1   6  13   20.89   15.93
   1   6  13   41.24   30.80
  -1   6 -13   65.23   32.40
  -1   6 -13    6.31    9.05
  -1   7  11   53.78   28.55
  -1   7  11   42.78   31.58
  -1   7  11   32.38   23.59
  -1  -7  11   29.21   21.76
  -1  -7  11   31.77   23.92
   1  -7 -11   46.06   31.91
  -1   7  11   38.30   16.44
  -1  -7  11   55.69   22.89
  -1  -7  11   34.87   21.61
   1   7 -11   49.93   24.89
   1   7 -11   36.55   24.32
  -1  -7  10    5.14    9.07
   1  -7 -10   -3.34    7.85
  -1   7  10  -27.96   24.97
  -1   7  10   -0.05    0.59
   1   7 -10   32.86   18.96
  -1  -7  10   -0.92    3.71
  -1   7  10   -6.39    9.67
  -1  -7  10   14.00   13.65
  -1  -7  10    3.63    5.96
   1   7 -10    1.49    4.87
   1   7 -10  -20.78   19.02
  -1   7  10   19.20   18.01
  -1   7   9   -3.58    5.33
  -1   7   9    9.05   11.35
  -1  -7   9   14.63   12.22
   1   7  -9   29.67   16.75
   1   7  -9   -8.08   11.21
  -1  -7   9    3.53    7.16
   1   7  -9   -1.46    4.93
   1   7  -9   11.14    7.55
   1  -7  -9  -18.42   18.10
  -1  -7   9  -16.50   14.77
  -1  -7   9   23.30   19.16
  -1   7   9  -17.75   17.18
  -1   7   9  -17.96   19.58
  -1   7   8  -12.33   15.87
  -1   7   8   23.48   14.01
  -1   7   8   18.64   17.48
   1   7  -8   18.42   17.10
  -1  -7   8   22.57   15.49
  -1   7   8   16.20   14.93
   1   7  -8   40.06   16.22
   1  -7  -8    1.57    5.20
  -1  -7   8   10.87   12.44
   1   7  -8   34.38   16.56
  -1  -7   8   16.72   16.12
   1   7  -8    4.09    7.91
  -1  -7   7    2.92    5.67
   1   7  -7    0.70   10.78
  -1  -7   7   -4.11    7.56
  -1   7   7  -12.09   15.34
  -1   7   7   -2.71    6.01
   1   7  -7   17.50   16.30
  -1   7   7    6.15    7.37
  -1  -7   7   -4.79    8.58
   1   7  -7    0.63    2.22
   1   7  -7    1.73    3.34
   1  -7  -7   -1.22    4.50
  -1   7   7  -16.34   16.28
   1   7  -6   12.28   15.71
  -1   7   6    2.16    6.32
  -1  -7   6   22.40   18.43
   1  -7  -6   16.15   16.09
   1   7  -6   10.00    6.96
  -1  -7   6   28.12   17.94
   1   7  -6    6.61    7.50
   1   7  -6    7.09   10.13
  -1   7   6   29.12   16.47
  -1   7   6   13.36   14.61
  -1   7   6    7.43    9.76
  -1   7   5  -14.84   16.17
  -1  -7   5   25.36   17.34
   1  -7  -5   30.59   12.68
   1   7  -5    5.91    9.04
  -1   7   5    2.00    4.44
  -1  -7   5    4.14    7.88
   1   7  -5   -8.77   11.33
  -1   7   5   -9.19   10.57
   1   7  -5   11.38   10.13
   1   7  -5    0.49    1.19
  -1   7   5   -9.76   12.44
   1   7  -4   18.18   13.12
   1   7  -4   19.58   16.04
  -1   7   4   25.84   16.39
   1  -7  -4   46.10   26.19
  -1   7   4    7.91   18.01
  -1  -7   4   38.04   23.79
  -1   7   4   20.34   19.56
  -1  -7   4   34.37   21.19
   1   7  -4   27.01   19.81
   1   7  -3   20.56   16.03
  -1  -7   3   15.04   13.84
   1  -7  -3   15.49   14.88
  -1  -7   3   11.98   10.49
  -1   7   3   39.79   20.84
   1   7  -3   -2.25    4.76
   1   7  -3   23.97   18.63
  -1   7   3   23.21   19.15
  -1  -7   3   16.14   15.44
  -1   7   3   -2.20    5.90
  -1   7   2    6.18    9.59
   1  -7  -2    1.36    2.03
   1   7  -2   29.77   18.01
  -1   7   2    1.76    4.49
   1   7  -2    6.88   10.00
  -1   7   2  -16.14   15.90
  -1   7   2  -12.05    9.88
  -1  -7   2   18.83   15.74
   1   7  -2   -0.46    2.33
  -1  -7   2   -5.18    8.72
  -1  -7   2   -9.07    8.37
   1  -7  -2   -3.68    7.10
   1  -7  -2   -4.91    8.15
  -1   7   1   46.89   27.04
  -1   7   1   72.98   29.56
  -1  -7   1   51.31   19.50
  -1  -7   1   34.57   14.82
  -1   7   1   60.55   21.40
  -1   7   1   54.26   26.57
   1   7  -1   36.66   23.11
  -1  -7   1   51.34   27.42
   1  -7  -1   44.75   14.68
   1  -7  -1   49.46   25.54
   1   7  -1   53.24   24.13
   1  -7  -1   48.47   25.84
   1   7  -1   59.09   25.74
  -1  -7   1   60.14   28.63
  -1  -7   0    7.81   10.72
   1   7   0   34.14   22.33
   1  -7   0   45.76   24.03
  -1  -7   0   32.80   14.82
  -1   7   0   48.82   25.19
   1   7   0   33.65   18.88
  -1  -7   0   41.69   14.52
  -1  -7   0   15.30   14.69
  -1   7   0   65.40   28.61
  -1   7   0    8.89   11.75
   1   7   0   24.25   17.45
   1  -7   0   24.73   18.59
   1  -7   0   39.53   16.18
  -1  -7  -1   29.71   10.03
   1   7   1   53.32   28.10
   1  -7   1   50.28   20.18
   1  -7   1   63.98   28.20
  -1   7  -1   60.85   26.98
   1  -7   1   20.81   15.84
   1   7   1   46.14   21.41
  -1   7  -1   58.21   28.75
   1   7   1   33.26   21.16
  -1   7  -1   58.52   30.05
  -1  -7  -1   48.22   26.61
  -1  -7  -1   44.51   25.50
  -1  -7  -1   33.03   14.16
  -1   7  -2  116.93   36.49
  -1  -7  -2   85.25   13.36
  -1  -7  -2  102.56   39.63
   1  -7   2   98.74   37.66
  -1   7  -2  150.73   45.33
  -1   7  -2   96.12   37.68
  -1  -7  -2  115.54   39.37
   1   7   2  124.32   42.53
   1   7   2  132.29   35.17
  -1   7  -2   85.07   23.44
  -1  -7  -2  114.75   25.58
   1   7   2  112.78   40.28
   1  -7   2  110.07   37.28
   1  -7   3    6.94   10.00
   1   7   3   -5.50    6.90
  -1  -7  -3   18.12   10.22
   1   7   3   -4.22    8.04
   1  -7   3   -1.28    3.74
  -1   7  -3    3.58    4.96
  -1   7  -3    4.76    6.86
  -1   7  -3   17.72   15.79
  -1  -7  -3    3.69    7.39
   1   7   3    1.36    2.16
  -1  -7  -3   16.42   16.01
  -1   7  -3  -15.06   15.12
   1   7   3    3.22    6.96
   1   7   4   14.30    8.54
   1   7   4   18.80   16.88
  -1   7  -4    4.58    5.85
   1   7   4   22.59   13.39
  -1  -7  -4   34.03   14.41
  -1  -7  -4   23.19   18.48
   1  -7   4   17.47   13.39
   1  -7   4   20.61   17.31
   1   7   4    5.98    9.86
  -1   7  -4    3.04    6.77
   1  -7   4   33.98   20.56
  -1   7  -4    9.24   12.59
  -1   7  -4   18.04   12.57
   1  -7   5   25.66   19.37
  -1  -7  -5   16.20   10.38
   1   7   5    5.42    5.99
  -1   7  -5   41.05   17.61
  -1   7  -5   12.73   13.41
   1  -7   5   15.93   12.40
   1   7   5    9.15    8.13
   1  -7   5   13.25   13.03
  -1  -7  -5   29.40   22.16
   1   7   5   13.14   15.06
  -1  -7  -5   15.96   15.30
  -1   7  -5  -18.47   16.71
  -1   7  -5   37.11   17.39
   1   7   5   19.24   16.98
   1   7   6   27.77   20.75
   1  -7   6    0.33    2.20
  -1  -7  -6   -8.96   11.38
  -1   7  -6    6.25    7.05
  -1  -7  -6   -2.46    4.25
   1  -7   6    3.27    6.56
  -1  -7  -6   -4.82    9.11
  -1   7  -6    6.75    7.77
  -1   7  -6   -3.99    7.67
   1   7   6   -1.38    5.01
   1   7   6   -4.91    5.63
  -1   7  -6   -7.81    6.99
   1   7   6   10.51    8.61
   1  -7   6   -6.86    7.86
  -1   7  -7   32.13   23.44
  -1  -7  -7   51.64   21.80
   1   7   7  107.49   48.06
   1  -7   7   37.42   23.57
   1   7   7   70.44   34.62
  -1  -7  -7   75.78   35.57
   1  -7   7   65.02   29.85
  -1   7  -7   40.64   26.03
  -1   7  -7   66.80   18.09
   1  -7   7   62.34   31.42
   1  -7   7   77.96   25.46
  -1  -7  -7   62.61   22.60
  -1   7  -7   84.11   28.75
   1   7   7   79.00   25.19
  -1  -7  -7   57.86   29.50
   1   7   8   -4.50    8.43
  -1   7  -8    7.88    9.21
   1   7   8   -1.55    3.74
   1  -7   8   -1.74    5.10
   1  -7   8   15.57   14.88
  -1  -7  -8    2.43    6.67
   1  -7   8  -12.82   13.96
  -1  -7  -8    1.44    3.90
  -1   7  -8    3.58    3.46
  -1  -7  -8  -21.62   17.28
  -1   7  -8    1.98    5.36
  -1   7  -8   20.69   18.55
   1  -7   8    0.78    2.41
   1   7   8   14.66   17.21
   1  -7   9   18.43   16.68
   1   7   9    0.79    2.79
   1   7   9    4.45    8.42
   1  -7   9    4.85    5.72
  -1  -7  -9    2.82    7.29
  -1  -7  -9   -5.99    8.37
   1   7   9   -8.26   13.24
   1  -7   9   -0.03    4.28
   1  -7   9    6.53   10.03
  -1   7  -9    7.59   11.41
  -1   7  -9   -6.88    9.00
  -1   7  -9  -18.64   16.49
  -1   7 -10   28.53   20.40
  -1  -7 -10   10.67   11.78
   1  -7  10   17.09   16.25
   1  -7  10   18.83   16.91
  -1   7 -10   11.95   17.31
   1  -7  10    8.73    7.10
  -1  -7 -10   43.92   29.23
  -1   7 -10   16.52   14.57
   1   7  10   15.90   12.97
   1   7  10    9.16   14.28
   1   7  10    5.12    9.07
   1  -7  10   32.75   20.16
  -1   7 -11  -10.70   14.00
   1  -7  11   12.09   13.96
   1   7  11   14.76   18.55
   1  -7  11   31.70   29.25
   1   7  11    9.84   10.48
  -1   7 -11   -5.69    9.18
   1  -7  11    8.46   11.38
  -1   7 -11    3.68    7.16
  -1  -7 -11   19.53   19.78
  -1  -7 -11   28.22   20.08
   1   7  11   20.29   18.15
  -1   8   8   55.57   32.45
  -1  -8   8   52.12   25.46
   1   8  -8   51.22   29.80
   1   8  -8   81.62   25.65
  -1   8   8   48.33   27.01
   1   8  -8   76.88   37.03
  -1   8   8   82.06   28.77
  -1   8   8   35.97   28.55
   1  -8  -8   81.27   39.69
  -1  -8   8   79.72   35.95
  -1  -8   8   24.41   20.83
   1   8  -7   11.48   10.22
   1   8  -7   18.51   17.80
   1  -8  -7   29.26   23.19
  -1  -8   7   23.55   17.42
  -1   8   7   10.02   10.32
  -1   8   7   29.58   23.55
  -1  -8   7   18.39   17.14
  -1  -8   7   19.72   18.63
  -1   8   7   14.47   14.42
  -1   8   7   17.47   19.47
   1   8  -7   39.22   29.28
  -1   8   6   31.18   25.43
   1   8  -6   70.01   33.87
  -1   8   6   30.20   18.37
   1  -8  -6   14.74   16.39
   1   8  -6   41.01   20.02
   1   8  -6   26.79   17.99
  -1   8   6    2.35    6.61
  -1  -8   6   27.74   21.99
  -1  -8   6   32.75   20.91
  -1   8   5   64.70   34.10
  -1  -8   5   56.45   31.23
  -1   8   5   34.30   20.04
   1   8  -5   30.89   22.02
  -1   8   5   66.34   35.02
   1   8  -5   42.32   20.92
  -1  -8   5   29.42   20.16
   1   8  -5   41.43   26.42
   1  -8  -5   63.04   33.32
  -1   8   4   87.36   40.10
   1   8  -4   71.79   28.06
  -1   8   4  134.40   47.20
  -1  -8   4   81.92   38.98
  -1   8   4   52.42   25.35
  -1  -8   4   55.62   28.18
   1  -8  -4   50.49   29.31
   1   8  -4  107.80   42.08
  -1  -8   4   47.17   22.05
   1   8  -4   58.54   31.34
  -1   8   3  120.41   47.03
   1  -8  -3   48.00   28.09
  -1  -8   3   73.07   26.38
  -1  -8   3  133.26   46.27
  -1   8   3  109.69   45.64
  -1   8   3  123.66   42.08
   1   8  -3  119.01   37.33
  -1  -8   3   93.09   40.83
   1   8  -3   46.87   28.01
   1   8  -3  126.44   43.12
   1   8  -2   42.21   21.64
  -1   8   2   58.92   31.56
   1   8  -2   68.22   29.45
  -1  -8   2   49.55   19.94
   1  -8  -2   45.27   24.28
  -1   8   2   62.98   29.02
  -1   8   2   18.26   22.64
   1  -8  -2   44.86   24.87
  -1  -8   2   44.40   26.01
   1   8  -2   27.85   21.70
  -1  -8   2   25.55   20.89
  -1  -8   1   61.14   31.00
   1   8  -1   38.03   22.67
   1  -8  -1   53.21   28.50
   1   8  -1   52.31   26.12
   1  -8  -1   57.60   30.37
  -1  -8   1   84.11   37.87
  -1   8   1   44.41   24.89
  -1  -8   1   44.91   17.23
  -1   8   1   41.28   25.38
  -1   8   1   40.45   26.90
   1   8  -1   64.69   32.57
  -1   8   0   24.30   21.02
   1   8   0    5.83    9.19
   1  -8   0  -21.67   18.77
  -1  -8   0   12.59   14.28
   1   8   0    3.38    6.47
  -1   8   0  -11.03   12.84
  -1   8   0  -13.79   14.14
  -1  -8   0    4.80    4.99
   1  -8   0    8.13   10.92
  -1  -8   0   -9.15   12.49
   1   8   0   -1.63    5.28
  -1  -8  -1   12.25   14.49
  -1   8  -1   16.56   17.31
  -1  -8  -1    8.13    6.07
  -1   8  -1   16.94   17.48
   1   8   1    1.90    5.42
   1  -8   1   -3.65    7.16
   1  -8   1   -1.57    5.09
   1   8   1   15.85   13.62
  -1   8  -1   12.06   12.95
   1   8   1    5.75    9.94
  -1  -8  -1    6.69   10.57
   1  -8   2   16.72   13.33
  -1   8  -2   18.10   18.04
   1   8   2   26.76   17.18
  -1   8  -2   18.82   17.09
  -1   8  -2   35.82   21.41
   1   8   2   17.82   17.66
   1  -8   2    0.68    3.04
  -1  -8  -2   26.85   21.53
  -1   8  -2   30.81   14.36
   1   8   2   19.50   17.93
  -1  -8  -2   12.44   14.61
  -1   8  -3   -3.14    4.71
  -1   8  -3    0.86    3.71
   1   8   3   -6.94   11.06
   1   8   3    7.99   11.82
   1   8   3    3.82    6.28
  -1   8  -3   13.35   12.49
  -1   8  -3  -11.95   14.60
  -1  -8  -3    3.23    7.15
  -1  -8  -3   -4.03    8.31
   1  -8   3    3.96    8.16
   1  -8   3    0.41    2.31
  -1   8  -4   18.10   17.34
   1  -8   4   38.01   25.36
   1  -8   4   36.49   21.11
  -1   8  -4   37.71   19.86
   1   8   4   37.50   25.84
  -1  -8  -4   34.29   24.44
   1  -8   4   20.51   17.10
  -1   8  -4   39.07   17.26
  -1  -8  -4   20.70   18.85
   1   8   4   45.81   29.13
  -1   8  -4   28.72   22.48
   1   8   4   31.65   17.45
  -1   8  -5   28.06   22.10
  -1   8  -5   22.10   13.55
   1   8   5   16.93   17.44
   1  -8   5   11.38   12.89
  -1  -8  -5   -8.48   12.65
   1  -8   5   19.37   14.98
  -1  -8  -5   13.54   15.22
   1  -8   5    4.03    8.29
   1   8   5   24.74   14.80
  -1   8  -5    2.87    9.86
  -1   8  -5   10.18    9.67
   1   8   5   27.44   23.16
  -1   8  -6   46.79   28.75
  -1   8  -6   41.93   19.53
   1   8   6   23.44   20.62
   1  -8   6   -5.07    9.32
   1  -8   6   34.71   19.45
  -1  -8  -6   25.54   20.80
  -1   8  -6   31.45   15.66
  -1  -8  -6    6.44   11.21
   1   8   6   10.02    8.99
  -1   8  -6    3.58    7.86
   1   8   6   19.21   15.63
   1  -8   7    3.08    6.50
  -1   8  -7    7.28   11.51
  -1   8  -7    1.93    5.72
  -1   8  -7   10.32   10.14
  -1  -8  -7    2.88    6.93
   1   8   7   33.98   24.95
  -1  -8  -7   -9.88   14.08
   1  -8   7    7.07    8.48
   1  -8   7   21.46   19.24
  -1   8  -7   31.92   14.25
   1   8   7   -8.37   13.44
   1  -8   8  -11.02   13.84
   1   8   8   -7.81    8.42
   1  -8   8  -17.80   17.52
  -1   8  -8   -3.20    5.93
   1  -8   8   12.87   14.23
   1   8   8  -11.29   14.47
  -1  -8  -8  -33.86   23.44
  -1  -8  -8   -7.81   12.71
   1   8   8   -0.92    4.58
   1  -8   8    4.88    6.77
  -1   8  -8   -5.66    9.76
  -1   8  -8  -43.38   28.52
   1   9   0   23.44   21.51
   1  -9   0  -15.25   16.01
   1  -9   0  -13.84   16.04
  -1   9   0    6.69   10.48
  -1   9   0   -7.15   11.00
  -1   9   0   22.26   21.61
  -1  -9   0    9.18   13.41
   1   9   0   12.97   14.63
   1   9   0   28.39   20.13
  -1  -9   0   -1.70    5.58
   2   0 -18  -18.13   14.95
  -2   0  18   -3.23    6.51
  -2   0  18  -20.02   21.15
   2   0 -17   -4.63    7.42
  -2   0  17   -2.68    5.72
  -2   0  17   -2.44    7.15
   2   0 -17   -1.32    5.61
  -2   0  16   -7.48    9.18
  -2   0  16   -8.50   12.92
   2   0 -16    4.58    8.35
   2   0 -16   13.58   17.40
   2   0 -15    8.78    9.83
   2   0 -15  -18.51   19.61
  -2   0  15  -19.43   18.89
  -2   0  15   -2.00    4.55
  -2   0  14   37.57   18.02
   2   0 -14   51.39   31.45
   2   0 -14   44.30   21.61
  -2   0  14   38.15   24.33
   2   0 -13   -7.13    8.46
   2   0 -13   -3.92    8.35
  -2   0  13   -5.02    6.55
  -2   0  13   -8.59   11.70
  -2   0  12  188.95   38.26
   2   0 -12  150.86   50.26
  -2   0  12  187.35   52.53
   2   0 -12  192.50   43.45
   2   0 -11   -0.95    2.93
  -2   0  11   -3.49    4.87
  -2   0  11    2.63    5.98
   2   0 -11   -0.46    7.32
  -2   0  10  626.95   89.84
   2   0 -10  613.28   57.70
   2   0 -10  624.84   56.02
  -2   0  10  598.78   61.39
   2   0 -10  677.42   97.31
   2   0 -10  611.95   74.15
   2   0  -9    1.79    4.69
   2   0  -9    1.25    2.27
   2   0  -9   12.30    9.89
  -2   0   9    1.09    8.53
   2   0  -9    0.13    0.73
  -2   0   9   -0.06    0.55
  -2   0   9    8.16    8.97
   2   0  -8  213.80   27.61
   2   0  -8  211.12   29.09
  -2   0   8  230.46   28.99
   2   0  -8  198.20   39.49
   2   0  -8  206.29   49.28
  -2   0   8  270.90   53.69
  -2   0   8  200.42   45.56
   2   0  -7    0.30    1.00
   2   0  -7   -1.17    3.39
   2   0  -7    1.59    8.20
   2   0  -7    0.14    1.55
  -2   0   7   -3.20    3.06
  -2   0   7   -6.36    7.66
  -2   0   7  -13.46   11.10
  -2   0   6 1616.07   62.45
  -2   0   6 1690.29  121.61
   2   0  -6 1607.85   69.08
   2   0  -6 1493.37   99.75
  -2   0   6 1679.37  118.88
   2   0  -6 1695.00   64.02
   2   0  -6 1598.58  118.61
  -2   0   5   -4.26    5.07
   2   0  -5   -1.17    5.20
  -2   0   5    3.00    9.30
  -2   0   5    0.95    1.27
  -2   0   5   -0.59    4.95
   2   0  -5    3.04    6.04
   2   0  -5    1.33    0.54
   2   0  -4 1515.40  104.65
   2   0  -4 1353.36   93.84
   2   0  -4 1251.59   83.09
  -2   0   4 1254.13   46.21
  -2   0   4 1466.60  101.34
  -2   0   4 1320.01   92.73
  -2   0   4 1374.27   98.12
  -2   0   4 1456.79   93.47
   2   0  -3   -0.67    1.95
  -2   0   3   -0.54    4.17
  -2   0   3    2.03    0.82
  -2   0   3   -2.11    6.09
   2   0  -3    0.92    2.06
   2   0  -3    2.52    5.91
   2   0  -2  946.14   72.80
  -2   0   2  852.98   68.19
   2   0  -2  952.23   76.55
   2   0  -2  801.67   62.06
  -2   0   2  929.72   66.45
  -2   0   2  808.70   68.06
   2   0  -1    2.00    1.90
  -2   0   1    1.06    0.62
  -2   0   1    2.06    2.22
  -2   0   1    1.68    1.25
  -2   0   1   -5.53    4.85
   2   0  -1   -3.69    4.33
  -2   0   1   -1.11    4.34
   2   0  -1    4.61    4.23
   2   0  -1    4.01    7.42
  -2   0   0 1092.56   69.59
  -2   0   0  993.55   49.60
   2   0   0 1077.85   50.38
   2   0   0 1140.52   79.37
  -2   0   0 1068.21   75.72
   2   0   0 1028.84   70.30
   2   0   0 1219.43   78.50
   2   0   0 1054.33   69.03
  -2   0   0 1144.31   75.61
  -2   0   0 1036.21   72.19
   2   0   1    5.06    5.52
  -2   0  -1   -4.20    4.60
   2   0   1    1.32    3.00
   2   0   1   -1.47    5.47
  -2   0  -1    2.93    6.21
  -2   0  -1   -0.13    4.03
   2   0   1    1.13    4.58
  -2   0  -1   -0.57    1.70
   2   0   1  -14.00    8.12
  -2   0  -2  187.42   26.77
  -2   0  -2  146.97   29.15
   2   0   2  206.75   32.80
   2   0   2  196.48   27.09
  -2   0  -2  204.18   30.01
   2   0   2  145.77   27.39
  -2   0  -2  188.52   31.29
   2   0   2  191.12   34.65
  -2   0  -3    1.55    4.53
  -2   0  -3    2.63    5.93
   2   0   3    6.97    8.12
  -2   0  -3    2.57    2.87
   2   0   3    0.27    2.96
   2   0   3    3.87    4.09
  -2   0  -3    6.29    6.37
   2   0   3    3.09    3.41
  -2   0  -3    4.61    7.39
  -2   0  -4  195.10   33.29
  -2   0  -4  227.70   33.40
   2   0   4  203.96   42.66
  -2   0  -4  178.64   28.28
  -2   0  -4  191.86   39.10
   2   0   4  169.07   31.20
   2   0   4  227.46   33.68
   2   0   4  178.25   31.15
  -2   0  -4  181.05   35.52
   2   0   5   -2.62    1.03
   2   0   5    0.59    1.51
  -2   0  -5   -0.76    1.81
  -2   0  -5    7.07    6.51
  -2   0  -5   -2.03    5.74
  -2   0  -5    0.27    2.01
  -2   0  -6  166.90   29.07
   2   0   6  201.02   36.00
  -2   0  -6  184.16   30.05
  -2   0  -6  166.91   40.63
  -2   0  -6  177.63   28.56
   2   0   6  165.45   32.61
  -2   0  -6  204.27   37.68
   2   0   7    0.86    2.38
  -2   0  -7    5.64    5.52
  -2   0  -7   -1.27    1.33
  -2   0  -7    6.56    5.77
   2   0   7    0.33    1.52
  -2   0  -7    1.08    2.81
  -2   0  -7   -1.70    4.17
  -2   0  -8   42.92   22.59
   2   0   8   31.56   15.69
   2   0   8   51.99   20.07
  -2   0  -8   50.50   16.33
  -2   0  -8   46.21   16.15
  -2   0  -9    1.98    3.27
   2   0   9    0.22    7.26
  -2   0  -9   -2.90    5.98
   2   0   9    2.82    1.17
  -2   0  -9   -2.77    4.06
  -2   0 -10  428.96   53.62
  -2   0 -10  414.21   75.88
   2   0  10  418.15   60.87
   2   0  10  379.54   60.35
  -2   0 -10  374.01   47.59
   2   0  11    4.41    6.74
   2   0  11   10.59    9.88
  -2   0 -11   -2.73    4.09
  -2   0 -11   30.02   20.86
  -2   0 -11    4.03    5.31
   2   0  12  -10.41   10.21
  -2   0 -12    1.11    2.71
   2   0  12    1.46    4.06
  -2   0 -12   -1.14    2.93
  -2   0 -13    4.71    8.91
  -2   0 -13    9.78    8.27
   2   0  13  -10.87   11.52
  -2   0 -13   -7.89    7.93
   2   0  13    6.06    8.07
   2   0  14   -2.11    5.28
   2   0  14  -13.49   12.44
  -2   0 -14    6.20    7.23
  -2   0 -14    7.12    7.21
  -2   0 -14    7.26   11.48
   2   0  15    0.14    1.44
  -2   0 -15   -6.75    8.62
  -2   0 -15    7.12    7.96
  -2   0 -15   -2.25    4.11
   2   0  15    2.87    5.91
  -2   0 -16   -2.63    4.98
   2   0  16   -3.23    7.05
   2   0  16   -1.35    4.18
  -2   0 -16   -9.65   14.19
  -2   0 -16    2.30    4.18
   2   0  17   -2.74    6.13
  -2   0 -17   -2.65    4.52
   2   0  17    8.78   12.06
  -2   0 -17  -12.60   16.79
   2  -1 -17   -1.54    6.12
  -2  -1  17   -9.19   13.85
  -2   1  17   -1.09    4.83
   2  -1 -17    9.43   11.29
   2   1 -17   -0.84    3.08
  -2  -1  17    4.20    6.93
   2   1 -17   18.05   20.61
  -2  -1  16   61.58   34.67
  -2   1  16   27.71   23.59
   2   1 -16   46.73   32.00
   2  -1 -16   62.23   37.58
   2   1 -16   27.33   17.15
   2  -1 -16   34.11   21.07
  -2  -1  16   47.71   22.27
  -2  -1  15   14.17   16.06
  -2   1  15   13.25   15.79
   2  -1 -15    1.46    4.28
   2   1 -15   11.76   18.78
   2  -1 -15   16.85   18.86
   2   1 -15   16.64   13.11
  -2  -1  15    8.73    7.32
   2   1 -14    3.69    8.35
   2  -1 -14   -1.55    5.53
   2   1 -14   -3.46    5.83
  -2   1  14  -10.57   13.62
  -2  -1  14  -22.84   19.67
   2  -1 -14  -16.30   13.98
  -2  -1  14    5.25    6.69
   2   1 -13   32.15   23.68
   2   1 -13   15.42    9.59
   2  -1 -13   18.59   14.58
   2  -1 -13   16.33   17.21
  -2   1  13   16.93   16.61
  -2  -1  13   14.98   10.68
  -2  -1  13   27.44   14.52
  -2  -1  13   15.49   15.44
   2   1 -12   22.32   18.93
  -2   1  12    4.17    7.93
   2  -1 -12   -3.96    6.56
   2   1 -12    9.83    9.38
   2  -1 -12   13.51   15.04
  -2  -1  12    3.93    5.14
  -2  -1  12   -3.33    5.61
  -2  -1  12   19.12   16.64
   2  -1 -11  157.69   28.63
  -2  -1  11  259.88   58.98
  -2   1  11  270.29   62.58
   2  -1 -11  191.31   46.03
  -2  -1  11  211.72   35.65
   2  -1 -11  187.73   54.58
  -2   1  11  188.20   48.93
  -2  -1  11  208.98   36.74
   2   1 -11  218.27   43.50
   2   1 -11  262.08   63.37
   2   1 -11  197.78   33.32
   2  -1 -10   32.54   21.68
  -2   1  10   19.37   17.71
   2  -1 -10   40.33   12.98
   2   1 -10   28.48   15.09
   2   1 -10   31.32   12.16
  -2  -1  10   45.78   16.44
   2   1 -10   49.14   25.58
  -2  -1  10   30.45   12.71
   2  -1 -10   27.63   15.74
  -2  -1  10   32.45   19.59
  -2   1  10   14.88    8.83
  -2   1   9    0.27    1.65
  -2  -1   9   10.95   10.72
   2  -1  -9   15.69    7.48
  -2   1   9    0.11    4.37
  -2  -1   9    7.16    5.48
   2   1  -9    5.60    8.20
   2   1  -9   16.20    8.67
  -2  -1   9    4.72    4.96
   2  -1  -9    6.26    5.90
   2   1  -9    2.33    4.17
   2  -1  -9   14.82   10.37
   2  -1  -9    3.50    6.66
  -2   1   8   13.14   11.41
   2  -1  -8   12.46   11.13
   2   1  -8   14.57    7.21
  -2   1   8    8.21    7.53
   2  -1  -8   11.94    9.21
  -2  -1   8   20.38    8.35
  -2  -1   8   12.87    7.32
   2   1  -8    8.58   10.16
   2  -1  -8   13.96    6.42
   2   1  -8   13.65    9.78
   2  -1  -8   31.70   19.04
  -2  -1   8   26.36   16.75
   2   1  -7  118.87   28.31
  -2   1   7   81.22   28.93
  -2  -1   7  107.77   16.87
  -2  -1   7  117.73   23.89
   2  -1  -7  103.73   15.76
   2  -1  -7  122.99   24.46
   2   1  -7  108.63   17.34
  -2   1   7  106.58   31.92
   2  -1  -7   76.99   28.61
  -2  -1   7  100.27   30.01
   2   1  -7  102.54   32.45
   2  -1  -7   94.19   28.34
  -2  -1   7   94.54   31.85
   2  -1  -6  254.22   43.50
  -2  -1   6  291.42   36.70
   2  -1  -6  272.28   22.02
  -2  -1   6  278.49   23.63
   2   1  -6  285.91   42.50
  -2   1   6  284.59   49.60
   2   1  -6  257.71   46.79
  -2  -1   6  277.09   51.91
  -2  -1   6  259.78   45.89
  -2   1   6  271.80   47.43
   2   1  -6  247.44   22.71
  -2  -1   5  272.97   45.64
   2  -1  -5  267.36   45.18
  -2  -1   5  244.41   31.51
  -2  -1   5  258.69   47.52
   2   1  -5  265.11   42.59
  -2  -1   5  254.52   42.69
  -2   1   5  231.65   40.45
  -2   1   5  242.06   43.78
   2  -1  -5  246.07   41.74
  -2  -1   5  283.05   41.51
   2   1  -5  276.68   40.90
   2  -1  -4   11.05    8.15
   2   1  -4    4.99    5.41
  -2   1   4    8.05    9.27
   2   1  -4   17.80   11.33
   2  -1  -4    9.04    7.61
  -2  -1   4    2.55    6.50
   2   1  -4    9.95    8.00
  -2  -1   4    8.51    4.96
  -2  -1   4    4.69    6.42
  -2   1   4   13.39    9.49
  -2  -1   4    2.62    7.09
  -2  -1   4    2.24    5.60
   2  -1  -4   13.84    9.08
  -2   1   4    8.81   11.41
  -2   1   4   17.47   12.84
  -2  -1   3    6.28    4.85
  -2   1   3    3.06    4.15
  -2  -1   3    0.98    2.08
   2   1  -3    7.26    5.85
   2  -1  -3    4.23    8.58
  -2   1   3    4.17    6.13
  -2   1   3    4.47    4.95
   2  -1  -3    5.09    7.32
   2  -1  -3    7.80    6.85
   2   1  -3   -0.25    6.50
   2   1  -3    4.66    7.10
  -2  -1   3    5.71    6.58
  -2  -1   3   -2.25    5.69
  -2  -1   2    1.65    5.53
   2   1  -2    1.84    0.48
   2  -1  -2    4.09    5.79
   2   1  -2    1.03    2.57
   2  -1  -2    5.12    6.42
  -2  -1   2    3.15    2.43
   2   1  -2    2.57    4.99
   2  -1  -2    2.06    3.25
  -2   1   2   -1.13    5.04
  -2  -1   2    3.03    5.31
  -2  -1   2   -0.35    2.90
   2   1  -2    7.86    7.83
  -2   1   2    5.93    5.66
  -2   1   2    4.79    6.44
   2   1  -1  269.83   32.27
  -2   1   1  281.25   20.38
  -2  -1   1  289.14   35.00
  -2   1   1  306.99   40.86
  -2   1   1  300.60   37.44
  -2  -1   1  294.91   22.00
   2  -1  -1  290.46   35.90
   2   1  -1  325.16   44.54
   2   1  -1  287.98   39.60
  -2  -1   1  302.30   42.54
  -2  -1   1  323.87   41.51
  -2   1   1  289.09   42.99
   2  -1  -1  313.92   41.42
  -2  -1   1  280.87   40.36
   2   1  -1  264.89   38.33
   2  -1  -1  315.68   44.97
  -2   1   0 9329.70  140.87
  -2  -1   0 9999.00  233.25
   2  -1   0 9106.88  192.23
  -2  -1   0 9128.55  185.09
   2   1   0 9485.68  227.80
  -2  -1   0 8987.12  142.77
   2   1   0 8905.52  147.84
   2   1   0 9217.55  228.38
   2  -1   0 8678.28  192.32
  -2  -1   0 9079.44  182.88
  -2  -1   0 8990.34  221.14
  -2   1   0 9134.89  238.37
   2  -1   0 9433.94  244.63
  -2   1   0 9252.52  191.53
   2  -1   0 9578.55  227.97
   2   1   0 8931.71  224.55
  -2  -1   0 9120.84  223.91
   2   1   0 9854.91  190.90
  -2   1   0 9054.02  226.99
  -2   1  -1 3596.82  111.99
   2  -1   1 3545.08  116.54
   2   1   1 3395.37  139.92
   2  -1   1 3513.02  120.72
  -2  -1  -1 3579.66  102.41
   2   1   1 3689.19  106.04
   2   1   1 3359.18  108.79
  -2   1  -1 3575.95  143.48
   2  -1   1 3569.70  141.71
  -2  -1  -1 3757.84  147.56
  -2  -1  -1 3399.17  135.99
   2   1   1 3497.66  136.21
  -2  -1  -1 3612.99  139.97
   2   1   1 3548.36  142.76
  -2   1  -1 3866.26  135.91
   2  -1   1 3552.83  150.70
  -2   1  -1 3551.19  132.06
  -2   1  -1 3593.19  101.54
  -2  -1  -1 3632.47  111.56
  -2  -1  -2  192.78   32.80
   2   1   2  176.69   33.34
  -2   1  -2  190.69   24.35
  -2   1  -2  210.01   27.64
  -2   1  -2  214.62   37.47
  -2   1  -2  214.72   31.72
   2   1   2  221.84   28.45
   2  -1   2  188.31   29.04
   2   1   2  213.44   36.87
  -2  -1  -2  202.36   27.01
  -2  -1  -2  178.02   31.99
   2  -1   2  206.49   27.36
  -2  -1  -2  224.69   26.33
   2  -1   2  202.93   29.85
   2   1   2  182.24   31.73
   2  -1   2  197.73   35.11
  -2  -1  -2  208.17   35.84
  -2   1  -2  206.72   31.18
   2   1   3  121.71   27.91
   2  -1   3  119.44   20.84
   2   1   3  125.30   30.56
  -2   1  -3   98.74   21.76
  -2   1  -3  136.97   31.35
  -2   1  -3  121.12   24.81
  -2  -1  -3  128.68   23.19
   2   1   3  124.35   23.40
  -2  -1  -3  130.98   19.83
   2   1   3  126.19   28.77
   2  -1   3  125.38   25.76
   2  -1   3  137.87   25.04
  -2   1  -3  139.21   20.42
  -2   1  -3  125.07   23.33
  -2  -1  -3  131.80   30.67
  -2  -1  -3  132.58   28.48
   2  -1   3  179.74   36.70
  -2  -1  -3   96.85   24.63
  -2  -1  -3  126.06   29.21
  -2   1  -4   37.79   10.07
  -2  -1  -4   36.87   17.21
  -2  -1  -4   46.49   19.21
   2  -1   4   51.31   20.57
  -2   1  -4   38.50   14.19
  -2  -1  -4   34.57   12.98
   2   1   4   60.03   19.75
  -2   1  -4   41.88   13.84
  -2  -1  -4   59.08   19.80
  -2   1  -4   53.36   17.17
   2  -1   4   39.17   14.14
   2  -1   4   40.10   12.06
   2   1   4   39.66   14.87
  -2   1  -4   38.72   13.74
   2   1   4   34.62   15.33
  -2   1  -4   21.46   12.16
  -2   1  -4   42.34   18.74
   2  -1   4   37.20   13.35
  -2  -1  -4   48.85   19.70
   2   1   4   31.04   14.68
  -2  -1  -4   39.17   10.43
   2   1   5   68.64   20.13
  -2   1  -5   51.63   17.58
  -2   1  -5   67.03   25.98
   2  -1   5   70.57   16.14
   2  -1   5   53.02   17.93
  -2  -1  -5   80.87   25.41
   2  -1   5   69.06   18.63
  -2  -1  -5   70.47   22.79
   2   1   5   95.66   28.80
   2   1   5   46.65   20.29
  -2  -1  -5   51.82   21.02
  -2   1  -5   62.66   14.04
  -2   1  -5   97.12   22.30
  -2  -1  -5   88.73   25.69
  -2  -1  -5   55.46   19.15
  -2  -1  -5   64.12   13.09
   2   1   5   78.78   27.04
  -2   1  -6   10.59    7.74
   2  -1   6   21.03   11.57
   2   1   6   22.81   12.87
  -2   1  -6    8.75    4.52
  -2   1  -6   15.15    6.02
  -2  -1  -6   14.27    9.35
  -2  -1  -6   11.02    4.77
  -2   1  -6    3.57    2.09
  -2   1  -6   21.95   14.84
   2  -1   6    9.91    7.59
  -2   1  -6   20.73    8.05
  -2  -1  -6   20.50   13.49
  -2  -1  -6   23.08    8.80
  -2  -1  -6    6.71    3.74
   2   1   6    9.46    8.15
  -2   1  -7    0.51    1.73
  -2   1  -7   -5.50    5.90
  -2  -1  -7   -6.48    8.00
   2  -1   7    9.53    7.94
  -2   1  -7   -5.55    7.66
  -2   1  -7    0.48    1.41
   2  -1   7   -1.13    5.85
  -2   1  -7    0.86    1.14
  -2   1  -7    0.65    1.13
   2   1   7    0.49    6.91
  -2  -1  -7    0.03    0.24
  -2   1  -7    1.17    1.98
  -2  -1  -7    0.36    0.82
  -2  -1  -7   -2.63    3.01
  -2  -1  -7   -1.06    2.69
   2   1   7    2.49    3.88
   2   1   8   13.27   10.95
   2  -1   8    3.77    6.07
   2   1   8    8.13    7.50
  -2   1  -8   -1.85    4.64
   2  -1   8    1.08    5.34
  -2  -1  -8    2.74    4.41
  -2  -1  -8    8.35    4.80
  -2   1  -8    8.31    6.53
  -2   1  -8    8.04    5.42
  -2   1  -8    0.60    1.43
  -2   1  -8    0.79    1.16
  -2   1  -8   10.24    8.10
  -2  -1  -8    6.34   10.24
   2  -1   9    0.95    2.41
   2   1   9   15.00   14.25
  -2  -1  -9    6.67    7.85
   2   1   9    3.63    5.67
  -2  -1  -9    1.35    2.43
  -2   1  -9    7.16    8.13
  -2   1  -9    1.73    3.20
  -2  -1  -9   -3.74    5.23
   2  -1   9   -6.25    7.42
  -2   1  -9   -0.43    2.35
  -2   1  -9   -7.56    7.20
  -2   1  -9    5.14    4.64
  -2  -1 -10   31.70   15.58
  -2   1 -10   24.97   17.14
   2  -1  10   50.44   19.04
   2  -1  10   25.00   15.47
   2   1  10   31.89   17.88
  -2  -1 -10   24.00    9.99
  -2   1 -10   26.00   14.46
  -2  -1 -10   12.62   10.70
   2   1  10   17.18   13.39
  -2   1 -10   30.80   15.00
  -2   1 -10   15.39    7.62
   2  -1  11   -8.89    9.62
   2  -1  11   -1.52    3.31
  -2   1 -11   11.44   15.74
  -2  -1 -11    4.39    5.28
   2   1  11   13.20   11.89
   2   1  11    3.80    6.91
  -2  -1 -11   10.54    8.48
  -2   1 -11   -1.30    3.34
  -2   1 -11   12.30    7.09
  -2  -1 -11   14.98   14.58
  -2  -1 -12    2.85    5.64
   2   1  12   -3.85    5.79
  -2  -1 -12   11.11    7.85
  -2  -1 -12    3.15    5.17
  -2   1 -12    3.58    3.90
   2  -1  12   17.20   11.62
  -2   1 -12    5.10    6.85
  -2   1 -12   13.89   14.85
   2  -1  12    2.16    4.91
   2   1  12  -12.30   12.13
   2   1  13    0.57    2.68
   2   1  13   14.52   13.60
   2  -1  13    3.28    6.31
  -2  -1 -13   -7.61    8.26
  -2  -1 -13   14.87    9.38
  -2   1 -13   -6.77    8.13
  -2   1 -13  -16.49   16.77
   2  -1  13    5.96    7.13
  -2   1 -13   10.51    5.61
  -2  -1 -13    5.20    9.30
  -2   1 -14  -17.56   17.93
   2   1  14   23.55   17.83
   2  -1  14   11.24   12.13
   2  -1  14   12.60   10.76
  -2  -1 -14  -10.41    8.13
  -2   1 -14  -15.41   12.60
  -2   1 -14    7.83    4.58
  -2  -1 -14    7.05    8.18
  -2  -1 -14   18.70   18.32
   2   1  14   19.37   16.31
  -2  -1 -15   66.12   35.73
  -2   1 -15   55.02   15.57
   2  -1  15   58.97   28.85
   2   1  15   51.94   27.76
  -2   1 -15   69.79   27.47
   2   1  15   65.29   30.56
   2  -1  15   73.20   26.88
  -2  -1 -15   61.25   24.09
  -2   1 -15  114.68   47.44
  -2   1 -16   26.31   23.48
  -2  -1 -16   18.85   19.77
   2   1  16   -0.98    3.95
  -2   1 -16    5.91    5.15
   2  -1  16   -1.93    4.52
  -2  -1 -16    3.14    5.69
  -2   1 -16    3.66    6.48
   2  -1  16    0.98    3.87
   2   1  16   25.12   19.50
  -2  -1 -17  -12.82   16.88
  -2   1 -17   21.84   22.11
   2  -1  17    3.66    6.42
   2  -1  17   -3.25    7.26
   2   1  17   13.92   15.45
  -2   1 -17   -8.92   10.38
  -2  -1 -17   -4.53    6.94
   2   1  17   -4.33    8.31
  -2   1 -17   -4.06    4.31
   2   2 -17  149.18   40.83
   2   2 -17  163.96   64.85
   2  -2 -17  232.41   76.42
   2  -2 -17  159.08   50.17
  -2   2  17  153.31   58.09
  -2  -2  17  172.60   42.92
  -2  -2  17  159.10   57.59
   2   2 -16    4.42    6.90
   2   2 -16    5.45   10.86
  -2   2  16    6.67   11.71
   2  -2 -16    3.09    6.85
   2  -2 -16   -3.44    8.91
  -2  -2  16   -6.28    8.32
  -2  -2  16  -23.43   21.48
  -2  -2  16    2.60    5.02
   2   2 -15   96.42   43.99
   2  -2 -15   91.81   36.89
  -2  -2  15  117.54   32.16
   2  -2 -15  158.61   58.44
  -2   2  15  132.10   52.12
  -2  -2  15  128.32   36.52
   2   2 -15   74.55   27.83
  -2  -2  15   96.53   42.37
  -2  -2  14    8.80    8.51
   2  -2 -14   50.79   31.89
  -2  -2  14   30.34   15.52
   2   2 -14    0.60    3.36
  -2  -2  14   24.85   15.61
   2   2 -14   21.08   14.39
  -2   2  14    8.56   12.38
  -2   2  14   28.83   20.24
   2  -2 -14   26.85   18.07
  -2  -2  13   -2.38    6.10
   2  -2 -13   27.07   22.40
  -2   2  13    4.96    9.07
   2   2 -13    7.70    8.48
  -2  -2  13   13.08    7.56
  -2  -2  13   -3.53    5.64
   2   2 -13   11.52   14.04
   2  -2 -13   52.12   25.04
  -2   2  13   -1.05    3.71
  -2  -2  12   -1.39    4.49
  -2  -2  12   -9.88    9.13
  -2   2  12   -0.44    2.33
  -2   2  12   -3.68    7.48
   2   2 -12  -27.96   20.97
   2  -2 -12   13.74   12.40
   2  -2 -12  -14.95   15.99
  -2  -2  12    1.36    2.93
   2   2 -12    3.61    5.66
  -2  -2  11   78.78   33.57
  -2   2  11   75.21   32.83
   2  -2 -11   49.61   30.48
  -2  -2  11   77.53   20.96
   2   2 -11   77.35   33.32
   2   2 -11   78.64   25.68
   2  -2 -11   78.30   28.61
  -2  -2  11   78.30   25.44
  -2   2  11   59.62   26.01
  -2  -2  10    2.82    5.85
  -2   2  10    5.74    8.80
   2  -2 -10    1.27    8.12
   2   2 -10    3.66    4.44
  -2  -2  10   -6.69    7.09
   2   2 -10   -3.12    6.37
  -2  -2  10   -4.42    4.66
   2  -2 -10    0.57    2.43
   2   2 -10    2.73    4.66
  -2   2  10  -10.43   10.35
  -2   2   9  685.17   82.85
   2   2  -9  702.62   73.63
   2  -2  -9  669.55   94.63
  -2  -2   9  638.74   85.52
   2   2  -9  779.51   96.96
  -2   2   9  767.67   95.58
  -2  -2   9  716.71   72.77
   2  -2  -9  752.33   87.09
  -2  -2   9  691.89   54.65
   2   2  -9  640.34   57.48
   2   2  -8  130.76   30.62
  -2   2   8   68.68   25.19
  -2   2   8   74.67   29.59
  -2  -2   8   80.19   17.01
   2  -2  -8   79.30   32.15
  -2  -2   8   83.41   23.44
   2   2  -8   85.74   29.80
  -2  -2   8   92.03   30.66
  -2  -2   8   86.66   22.46
   2  -2  -8   85.74   28.86
  -2  -2   7   97.17   17.61
   2  -2  -7   91.73   29.01
   2   2  -7   88.45   24.70
  -2   2   7   90.29   30.40
  -2   2   7   80.73   26.20
   2   2  -7   88.53   29.37
  -2  -2   7   92.10   22.11
  -2  -2   7  111.62   27.22
  -2  -2   7   59.65   23.52
  -2   2   6   10.78    9.80
  -2  -2   6   -1.66    3.11
  -2  -2   6   10.19    8.70
  -2  -2   6    5.55    3.90
  -2   2   6    0.13    0.92
  -2  -2   6    8.62    8.53
   2   2  -6    5.86    6.23
   2  -2  -6    3.46    6.90
  -2  -2   6    7.86    3.80
   2   2  -6    1.17    4.99
  -2  -2   6    4.47    6.66
  -2  -2   5    5.50    6.01
  -2  -2   5    5.93    2.33
  -2  -2   5    5.25    3.47
   2  -2  -5    7.55    7.24
  -2   2   5    7.93    8.10
  -2  -2   5    3.98    3.57
   2   2  -5    4.11    6.78
   2  -2  -5   13.06   11.10
  -2   2   5   -0.70    1.43
  -2  -2   5    4.36    7.43
  -2  -2   4   75.72   25.09
   2   2  -4   73.28   21.19
  -2   2   4   57.87   17.85
  -2  -2   4   61.74   19.24
  -2  -2   4   77.92   22.68
   2  -2  -4   78.94   22.45
   2  -2  -4   73.36   23.30
   2   2  -4   74.61   20.96
   2   2  -4   79.11   23.11
  -2   2   4   68.52   24.20
  -2  -2   4  101.27   24.05
  -2  -2   4   59.11   19.21
  -2  -2   3  105.38   22.87
  -2  -2   3  125.21   25.25
  -2  -2   3  136.34   27.79
  -2   2   3  111.15   29.74
   2   2  -3  109.88   26.41
   2   2  -3  111.34   22.89
  -2   2   3  130.72   26.49
   2   2  -3  113.56   30.20
  -2  -2   3  124.40   28.22
   2  -2  -3  141.69   29.58
   2   2  -3  127.82   26.36
   2   2  -3  112.00   27.50
   2  -2  -3  112.53   27.03
  -2  -2   3  139.51   33.30
  -2   2   2  190.48   34.06
  -2   2   2  155.18   35.30
   2   2  -2  164.99   33.48
  -2  -2   2  214.32   37.73
   2  -2  -2  220.39   42.26
  -2  -2   2  195.08   32.70
   2   2  -2  182.95   31.72
   2  -2  -2  168.64   20.15
   2  -2  -2  187.11   33.43
   2   2  -2  160.14   24.19
   2   2  -2  201.04   35.59
   2   2  -2  163.55   33.65
  -2  -2   2  193.05   33.84
   2  -2  -2  159.13   31.65
  -2  -2   2  182.65   35.03
  -2   2   2  143.39   27.58
  -2  -2   2  175.87   26.60
   2  -2  -2  178.82   32.08
  -2   2   1    4.17    6.45
   2   2  -1    5.88    4.28
   2  -2  -1   10.43    8.61
  -2  -2   1    6.10    4.41
   2  -2  -1    4.36    4.71
   2   2  -1    2.92    2.31
  -2   2   1    4.64    7.39
   2  -2  -1    5.02    6.13
  -2  -2   1    7.86    7.29
  -2   2   1   19.56   10.53
   2  -2  -1    3.36    2.62
   2   2  -1   12.17   10.24
   2   2  -1    2.55    3.28
   2   2  -1   12.09    9.53
  -2  -2   1    8.56   12.70
  -2  -2   1    7.93    6.07
  -2  -2   1    3.44    7.55
  -2  -2   0   22.41   12.93
   2   2   0   11.94    7.96
   2  -2   0   19.50   10.30
   2  -2   0   16.71   11.06
   2  -2   0   24.81   10.78
  -2   2   0   31.40   14.00
  -2   2   0   22.64    9.75
   2  -2   0   22.00    7.61
  -2  -2   0   20.61    8.83
  -2  -2   0   27.06   12.95
  -2  -2   0   22.35   11.59
   2   2   0   19.91   11.97
  -2  -2   0   13.98    5.86
   2   2   0   21.07    9.35
   2   2   0   15.80   11.60
   2   2   0   23.95    7.23
  -2   2   0   25.58   11.00
  -2  -2   0   33.57   16.68
   2   2   1 4627.61  157.07
   2   2   1 4027.69   92.94
   2  -2   1 4506.62  189.91
  -2  -2  -1 4252.08  145.24
  -2  -2  -1 4440.99  141.69
   2  -2   1 4614.44  170.19
   2   2   1 4425.46  144.97
   2  -2   1 4400.43  126.40
  -2  -2  -1 4714.46  184.94
  -2   2  -1 4545.86  141.49
  -2   2  -1 4208.61  162.41
  -2   2  -1 4551.27  135.42
  -2  -2  -1 4182.06  150.36
   2   2   1 4358.44  173.86
  -2  -2  -1 4667.35  175.65
   2  -2   1 4459.52  132.98
   2   2   1 4144.31  174.89
  -2  -2  -2 3147.60  153.15
  -2  -2  -2 3081.88  128.60
   2   2   2 3296.81  122.07
   2  -2   2 3396.45  156.63
  -2   2  -2 3159.76  118.52
   2  -2   2 3401.90  150.67
  -2  -2  -2 3215.60  127.93
   2   2   2 2920.90  145.83
   2  -2   2 3135.24  115.25
  -2  -2  -2 3124.69  149.65
  -2  -2  -2 3005.59  127.03
  -2   2  -2 3189.34  110.47
   2   2   2 3318.57  132.23
  -2  -2  -2 3154.27  122.21
  -2   2  -2 3047.40  143.74
   2  -2   2 3440.07  109.36
  -2  -2  -3    9.72    2.28
   2  -2   3   10.32   11.29
   2   2   3   21.38   11.10
   2  -2   3    5.48    5.75
  -2  -2  -3   11.18    4.88
  -2  -2  -3   16.96   10.37
  -2   2  -3   13.96    7.13
   2  -2   3    6.66    4.53
  -2  -2  -3    8.46    6.26
  -2   2  -3   17.80    8.29
  -2   2  -3   14.96    9.56
  -2   2  -3   14.31    8.40
  -2  -2  -3   17.93   12.86
   2  -2   3    7.64    4.61
  -2   2  -3   20.21    9.27
   2   2   3    8.61    9.70
  -2   2  -3    1.17    1.63
  -2   2  -3   12.47    6.55
  -2   2  -3   19.77   10.18
   2   2   3   12.36    7.62
   2  -2   4 1210.78   56.75
   2  -2   4 1276.88   94.76
  -2   2  -4 1170.05   54.39
   2   2   4 1149.45   69.63
   2  -2   4 1220.83   82.66
  -2  -2  -4 1117.51   84.11
   2   2   4 1219.46  100.75
  -2   2  -4 1227.29   74.88
  -2   2  -4 1256.49   92.60
  -2  -2  -4 1249.17   77.91
   2   2   4 1198.70   84.33
  -2  -2  -4 1157.58   94.31
  -2   2  -4 1250.42  104.51
   2   2   4 1160.43   89.59
  -2  -2  -4 1180.52   90.59
  -2   2  -4 1182.10   73.12
   2   2   4 1257.82   87.31
  -2   2  -4 1167.11   72.74
   2   2   5  255.16   42.72
  -2   2  -5  195.40   29.99
   2   2   5  209.89   28.91
  -2   2  -5  204.88   30.24
  -2   2  -5  226.20   32.00
   2   2   5  231.76   39.85
  -2   2  -5  204.59   38.01
   2  -2   5  216.35   36.65
   2   2   5  196.02   42.02
  -2   2  -5  205.65   20.00
  -2  -2  -5  240.75   44.27
   2  -2   5  185.49   20.97
  -2  -2  -5  208.59   31.04
   2   2   5  231.43   43.50
  -2   2  -5  205.18   44.11
  -2  -2  -5  223.15   41.61
   2  -2   5  208.21   39.20
  -2  -2  -5  236.34   33.45
  -2  -2  -5  201.96   37.12
  -2   2  -6    6.15    5.07
   2   2   6   11.38   10.87
   2   2   6   23.32   13.27
   2  -2   6   21.54   13.77
  -2  -2  -6   22.87   12.63
   2   2   6   13.63    9.88
  -2   2  -6    8.54    7.62
  -2  -2  -6   16.20    7.89
   2  -2   6   13.92   12.05
   2   2   6   15.06    7.56
   2  -2   6   19.32    8.92
  -2   2  -6   16.45    9.11
  -2   2  -6   11.25    8.37
  -2  -2  -6   10.33    6.67
  -2   2  -6   16.31    5.20
  -2  -2  -6   11.71    5.09
  -2   2  -6   18.67    9.07
   2   2   7   65.43   23.21
  -2  -2  -7   61.58   16.12
   2   2   7   58.73   24.90
  -2  -2  -7   76.23   27.61
  -2   2  -7   76.53   29.59
   2  -2   7   50.25   20.77
  -2   2  -7   61.22   15.41
   2  -2   7   67.84   16.61
   2  -2   7   58.49   21.29
   2   2   7   59.14   14.61
  -2   2  -7   56.34   22.00
  -2  -2  -7   61.95   23.41
  -2   2  -7   64.05   17.50
  -2  -2  -7   55.23   15.06
  -2   2  -7   51.90   14.11
  -2  -2  -7   49.22   10.30
  -2  -2  -8   29.71   10.38
  -2  -2  -8   42.48   19.56
   2  -2   8   21.72   12.05
   2  -2   8   32.95   11.92
  -2   2  -8   34.24   12.65
   2   2   8   21.51   14.65
  -2   2  -8   23.05    9.19
  -2  -2  -8   22.92    7.24
  -2   2  -8   12.73   10.27
   2  -2   8   38.76   17.79
  -2  -2  -8   19.26   13.49
   2   2   8   30.89   20.00
  -2   2  -8   19.15    8.73
  -2   2  -8   25.62   17.37
  -2  -2  -8   21.51    8.42
   2   2   8   21.80    8.77
  -2   2  -9   73.52   31.53
  -2   2  -9   75.48   20.26
   2   2   9   53.04   23.55
   2   2   9   42.54   11.98
  -2  -2  -9   47.82   10.76
  -2   2  -9   57.38   15.17
  -2   2  -9   44.19   21.49
  -2  -2  -9   48.41   22.79
   2  -2   9   53.09   21.81
   2  -2   9   59.65   16.99
  -2   2  -9   36.71    8.77
   2  -2   9   68.18   25.52
  -2  -2  -9   43.72   21.65
   2   2   9   57.10   25.98
  -2  -2 -10   11.49    5.61
  -2   2 -10    1.65    2.38
   2   2  10   11.29   11.79
   2  -2  10   13.85   11.90
  -2   2 -10   11.81    4.98
   2  -2  10    9.04    6.72
   2   2  10   23.79   16.26
  -2  -2 -10    9.84   11.21
  -2   2 -10   22.19   17.52
  -2  -2 -10    7.86    8.70
  -2   2 -10   18.09   13.09
  -2   2 -10   19.37   10.38
   2   2  10   13.98    6.80
   2  -2  11   26.30   16.98
   2   2  11   33.97   21.08
  -2  -2 -11   11.29   11.43
   2  -2  11   14.92    8.97
  -2   2 -11   11.19    5.41
   2   2  11   26.96   18.32
  -2  -2 -11   16.85    7.13
  -2   2 -11   29.59   17.34
  -2   2 -11   11.00    5.36
  -2   2 -11   16.03    9.84
  -2  -2 -11   30.21   20.53
  -2   2 -11   19.43   17.01
   2   2  11   13.87    6.64
  -2  -2 -12  -10.86   12.82
  -2  -2 -12    4.77    7.05
  -2   2 -12    1.09    1.87
  -2   2 -12    3.09    4.53
  -2   2 -12   14.12   16.28
   2   2  12   14.28   13.27
  -2   2 -12  -10.32   10.56
   2   2  12    3.12    6.58
   2   2  12    7.15    4.64
   2  -2  12    8.70   10.13
  -2   2 -12    9.97    5.34
   2  -2  12   -7.59    6.66
   2  -2  13   17.39   14.77
   2   2  13   20.24   16.22
  -2  -2 -13   20.57   18.39
  -2   2 -13   25.04   20.75
  -2   2 -13   15.66    7.77
   2   2  13   -2.46    6.02
   2   2  13   12.09    5.85
   2  -2  13   18.82   10.94
  -2  -2 -13   25.22   16.58
  -2   2 -13   28.28   19.02
   2   2  14    0.92    3.63
   2   2  14   -4.34    8.23
  -2  -2 -14   -4.06    6.80
   2  -2  14   -4.47    7.75
   2   2  14   -3.49    7.09
   2   2  14   -4.22    3.30
   2  -2  14    3.77    5.09
  -2  -2 -14    1.85    5.74
  -2   2 -14   -0.63    3.42
   2   2  15  -16.60   16.12
   2  -2  15   -0.40    1.71
  -2   2 -15   12.82   12.73
  -2  -2 -15   -1.76    5.20
   2   2  15   23.38   19.59
   2   2  15   19.66   17.44
   2   2  15    2.08    2.14
  -2  -2 -15    9.24   10.51
   2  -2  15    7.37   10.30
  -2   2 -15  -27.61   23.30
  -2   2 -16  -23.82   22.35
  -2  -2 -16    8.02   12.87
   2   2  16  -20.04   18.40
  -2   2 -16   -2.47    3.17
   2  -2  16  -11.67   13.38
  -2   2 -16  -13.98   13.65
   2   2  16   -8.04   11.56
   2  -2  16   -9.29    8.61
  -2  -2 -16   15.19   13.73
   2   2  16   34.63   24.46
   2   2  17    4.93    9.46
   2  -2  17   18.12   12.44
   2  -2  17   12.52   14.33
  -2   2 -17   12.68    7.50
   2   2  17   -0.92    4.11
   2   2  17    5.98   10.29
  -2   2 -17   10.70   12.24
  -2   2 -17   -5.33   10.92
  -2  -2 -17   16.31   14.52
  -2  -2 -17   23.82   22.97
   2   3 -16   24.43   16.14
  -2   3  16   12.36   15.99
  -2   3  16   37.22   24.16
   2   3 -16   34.75   27.23
   2  -3 -16    6.71   12.54
  -2  -3  16    9.30   13.71
  -2  -3  16   17.99   13.28
  -2  -3  16    4.41    7.48
   2  -3 -16   23.21   18.93
  -2   3  15   30.91   24.49
   2  -3 -15    7.01   10.22
  -2  -3  15   -9.86   13.60
  -2   3  15   -0.03   21.91
  -2  -3  15   -1.81    4.03
   2   3 -15   -5.09    7.21
   2  -3 -15   -2.19    6.93
  -2  -3  15    1.59    4.36
   2   3 -15   -8.72   13.14
   2  -3 -14    5.74   10.81
  -2   3  14  -12.79   15.17
   2   3 -14   -7.05   11.37
  -2  -3  14   -4.71    9.05
  -2  -3  14   12.22   11.81
   2  -3 -14   -2.55    6.04
   2   3 -14    1.78    4.15
  -2  -3  14    3.77    5.60
  -2   3  14   16.71   15.03
   2   3 -13   -1.38    3.58
  -2  -3  13    0.22    1.92
   2   3 -13   -4.06    8.27
  -2   3  13  -14.55   15.53
   2  -3 -13    2.20    6.44
  -2  -3  13    6.93    7.26
  -2  -3  13    3.19    5.86
   2  -3 -13  -16.61   15.12
  -2   3  13   13.08   12.78
   2  -3 -12   59.62   28.53
   2   3 -12   41.85   25.43
  -2  -3  12   30.12   15.77
   2  -3 -12   47.08   28.69
   2   3 -12   45.14   20.02
  -2  -3  12   27.57   16.85
  -2  -3  12   17.33   16.01
  -2   3  12   44.67   26.11
  -2   3  12   19.64   17.52
  -2  -3  11   15.34    9.95
   2  -3 -11   36.98   24.39
   2  -3 -11   22.22   16.71
  -2  -3  11   29.25   16.91
  -2   3  11   15.17   14.57
   2   3 -11   32.53   21.40
  -2  -3  11    8.77    7.29
  -2  -3  11   17.02   15.19
  -2   3  11   18.31   13.84
   2   3 -11   19.24   12.81
   2   3 -10   91.21   34.98
  -2  -3  10   69.90   29.91
   2  -3 -10   94.89   37.42
   2   3 -10   73.20   24.17
  -2   3  10  104.89   32.00
  -2  -3  10   98.04   23.95
   2  -3 -10  102.67   35.74
  -2  -3  10   76.32   27.91
  -2  -3  10   89.35   22.76
  -2   3  10   69.81   31.62
   2   3  -9   12.27   11.79
  -2  -3   9   25.69   11.76
  -2  -3   9   17.82   10.02
  -2  -3   9   34.86   20.84
   2   3  -9   22.98   13.65
   2  -3  -9   43.84   24.32
  -2  -3   9   23.89   15.53
  -2   3   9   30.61   19.02
   2  -3  -9   32.86   20.02
  -2   3   9   25.95   14.87
   2   3  -8   12.84    9.97
  -2  -3   8    1.55    3.93
  -2   3   8    8.16    9.46
   2  -3  -8    4.55    7.75
  -2  -3   8   -0.24    1.08
   2   3  -8    1.35    3.66
  -2  -3   8    9.53    7.26
  -2   3   8    5.31    6.34
  -2  -3   8    2.36    4.42
  -2  -3   7  539.11   70.30
  -2   3   7  493.54   71.58
  -2  -3   7  506.62   49.80
  -2  -3   7  439.68   59.36
   2   3  -7  576.29   66.64
   2  -3  -7  481.94   71.06
   2   3  -7  509.87   68.60
  -2  -3   7  590.71   58.25
  -2   3   7  483.21   58.38
  -2  -3   6   16.71    9.69
  -2   3   6    1.89    2.82
   2  -3  -6    4.04    6.20
   2   3  -6   -2.11    3.93
  -2   3   6    6.45    5.33
  -2  -3   6   -3.30    3.90
   2  -3  -6   -0.57    1.97
  -2  -3   6    4.47    5.90
   2   3  -6   -4.06    5.53
  -2  -3   6    8.32    7.53
   2   3  -6    2.62    6.37
  -2  -3   6   -0.86    3.04
  -2  -3   5   59.81   20.12
   2   3  -5  113.95   29.06
   2  -3  -5   64.56   20.23
  -2  -3   5   52.36   17.55
   2  -3  -5   86.53   28.94
  -2  -3   5   75.83   20.81
  -2   3   5   73.85   20.02
  -2   3   5   79.13   28.26
  -2  -3   5   74.10   28.25
   2   3  -5   74.33   20.83
   2   3  -5   72.53   24.11
  -2  -3   4   54.48   17.94
  -2  -3   4   41.72   19.29
  -2  -3   4   58.95   18.59
   2   3  -4   62.60   22.49
   2  -3  -4   42.80   15.90
   2   3  -4   48.52   19.73
  -2   3   4   46.81   15.84
  -2   3   4   55.40   23.02
  -2  -3   4   48.25   15.36
   2   3  -4   41.36   16.72
   2  -3  -4   39.69   18.12
  -2   3   3   21.97   11.30
   2  -3  -3   23.25   13.33
  -2  -3   3   22.10    9.78
  -2   3   3   27.31   14.39
   2   3  -3   15.34   11.75
  -2  -3   3   27.23   10.76
  -2  -3   3   13.62    7.29
   2  -3  -3   16.85   10.49
  -2  -3   3   24.14   14.44
   2   3  -3   45.56   18.74
   2   3  -3   26.93   12.40
  -2  -3   2  181.61   25.85
  -2   3   2  209.49   44.80
   2   3  -2  213.47   41.04
   2   3  -2  206.56   39.61
   2   3  -2  263.08   42.94
  -2  -3   2  196.73   38.01
  -2  -3   2  221.62   39.60
   2  -3  -2  229.07   40.93
  -2  -3   2  220.85   28.45
  -2   3   2  232.71   36.01
   2  -3  -2  199.47   34.43
   2   3  -1  354.70   49.93
   2  -3  -1  355.30   45.35
  -2  -3   1  326.88   28.98
  -2   3   1  318.42   53.18
  -2  -3   1  371.88   50.91
   2  -3  -1  335.39   39.61
   2   3  -1  350.72   54.61
   2  -3  -1  324.33   46.29
  -2  -3   1  331.84   46.36
  -2   3   1  345.48   44.89
   2   3  -1  317.66   48.93
   2   3  -1  353.91   45.81
   2   3   0  820.68   66.75
   2  -3   0  800.42   63.40
   2   3   0  859.61   82.73
  -2  -3   0  798.07   68.22
  -2   3   0  863.83   72.25
   2  -3   0  765.33   68.13
   2   3   0  871.50   76.16
   2  -3   0  785.68   69.94
  -2   3   0  722.92   67.68
  -2   3  -1  309.94   45.54
   2   3   1  309.94   50.64
   2  -3   1  349.14   43.07
   2   3   1  364.78   44.10
  -2  -3  -1  342.59   53.04
  -2  -3  -1  318.97   34.89
  -2   3  -1  335.84   42.72
   2  -3   1  285.84   39.66
   2  -3   1  364.36   50.23
   2   3   1  353.39   48.19
  -2   3  -1  322.18   44.62
  -2  -3  -1  329.40   42.67
  -2   3  -1  336.69   48.09
  -2   3  -2   14.31    9.62
   2   3   2   15.76    8.61
  -2  -3  -2   10.02    7.80
  -2  -3  -2   14.50    8.23
   2  -3   2   10.40   10.57
  -2   3  -2   12.82    6.96
   2  -3   2   13.46    8.84
  -2   3  -2   22.10   13.79
  -2  -3  -2    5.48    4.28
  -2   3  -2   10.43    5.47
   2   3   2   17.66   12.95
   2  -3   2   12.52    6.78
   2   3   2   17.58   11.19
   2  -3   2   13.65    8.00
   2   3   3  136.19   36.01
  -2  -3  -3  147.37   28.25
   2   3   3  146.83   27.64
   2  -3   3  143.39   35.68
   2  -3   3  140.27   29.04
  -2   3  -3  152.04   34.65
  -2  -3  -3  171.05   30.43
  -2   3  -3  167.99   33.30
  -2  -3  -3  156.69   38.23
  -2   3  -3  155.28   26.01
   2   3   3  140.62   29.44
   2  -3   3  150.63   23.44
  -2  -3  -3  154.76   32.35
   2   3   4    8.70    4.15
   2  -3   4   12.02   10.67
   2  -3   4    5.67    9.97
  -2   3  -4    1.92    2.55
   2   3   4    5.82    6.02
  -2  -3  -4   20.40   10.76
   2   3   4   19.01   15.15
   2   3   4   17.93   10.59
   2   3   4    9.57    7.01
  -2   3  -4   -1.22    2.54
  -2  -3  -4   10.73    9.45
  -2   3  -4   13.49   10.14
  -2  -3  -4    0.29    1.62
   2  -3   4    9.70    4.58
  -2  -3  -4    6.80    6.63
  -2   3  -4   13.11    7.35
  -2   3  -4   12.82    9.07
  -2  -3  -4   10.78    8.46
   2   3   5   21.02    9.70
   2   3   5   30.70   14.96
   2   3   5   23.49    9.62
  -2   3  -5   23.41   13.39
   2  -3   5   15.76    5.94
  -2   3  -5   30.20   13.79
   2   3   5   33.27   19.34
  -2   3  -5   23.25   10.02
  -2  -3  -5   28.80   13.03
  -2  -3  -5   20.40   13.27
  -2   3  -5   21.45    8.05
   2  -3   5   36.19   16.42
  -2  -3  -5   14.27   10.91
  -2   3  -5   22.78   13.58
   2  -3   5   33.60   17.80
  -2  -3  -5   13.20    9.30
  -2   3  -5   12.86   10.97
   2   3   5   20.96   11.21
  -2  -3  -5   35.00   20.32
   2   3   6    0.79    2.24
   2  -3   6    8.42    9.02
  -2   3  -6   -9.05    7.43
   2   3   6   16.71   13.58
  -2   3  -6    9.35    6.02
  -2  -3  -6   -3.55    4.74
   2  -3   6   14.12   10.45
  -2   3  -6  -13.81   11.14
  -2   3  -6    0.67    2.60
  -2  -3  -6   18.02   10.56
  -2   3  -6    8.86    7.29
   2   3   6    2.17    3.31
  -2   3  -6    4.37    4.22
  -2  -3  -6    6.01    7.83
  -2  -3  -6    8.10   10.49
   2   3   6    8.97    7.29
   2   3   7  122.80   31.16
   2  -3   7  133.45   36.03
  -2   3  -7  153.14   24.32
   2   3   7  141.55   41.77
   2  -3   7  172.51   37.98
  -2  -3  -7  139.55   29.01
  -2   3  -7  129.65   28.25
  -2   3  -7   95.58   14.20
  -2   3  -7  125.49   37.33
   2   3   7  130.07   29.66
  -2  -3  -7  166.14   33.37
  -2  -3  -7  143.94   37.25
   2   3   7  126.57   27.36
  -2   3  -7  137.49   29.32
  -2   3  -7  144.47   37.61
  -2  -3  -7  131.18   37.49
  -2  -3  -8   -4.41    5.04
  -2   3  -8    7.13    8.48
   2   3   8   28.94   20.24
  -2  -3  -8   -0.55    2.47
   2  -3   8    3.44    4.41
  -2   3  -8   17.07   14.28
  -2   3  -8    7.39    6.66
  -2  -3  -8   -1.82    3.22
   2   3   8   -1.17    2.62
   2  -3   8    0.67    2.46
   2  -3   8    2.22    3.58
   2   3   8   16.72   11.03
  -2   3  -8   -2.96    3.34
   2  -3   8    3.66    6.09
  -2  -3  -8    4.57    6.83
  -2   3  -8    7.21    6.64
   2   3   9   12.09    9.95
  -2  -3  -9    2.14    3.42
   2   3   9   -7.43    6.55
  -2  -3  -9   -4.58    7.23
   2  -3   9    4.33    7.69
  -2   3  -9    1.73    3.27
   2   3   9    0.22    8.75
   2  -3   9    6.94    8.64
  -2   3  -9    2.11    1.16
   2  -3   9    6.90    6.32
   2  -3   9   -5.01    5.33
  -2  -3  -9   -2.96    3.98
  -2  -3  -9    2.87    1.98
  -2   3  -9    0.89    3.41
  -2   3  -9  -11.02   10.81
  -2  -3 -10   55.02   27.09
   2   3  10   58.70   18.31
   2  -3  10   41.13   16.03
   2  -3  10   34.65   19.83
   2  -3  10   50.91   16.50
  -2   3 -10   56.72   18.70
  -2   3 -10   42.05   22.70
   2   3  10   27.82   20.04
   2   3  10   50.44   23.46
   2  -3  10   36.63   19.62
  -2  -3 -10   57.98   26.96
  -2   3 -10   61.85   29.36
  -2   3 -10   38.96   12.22
   2  -3  10   49.20   12.82
   2  -3  11   62.72   28.91
  -2   3 -11   87.51   36.24
  -2   3 -11   37.36   12.17
  -2   3 -11   62.72   18.88
   2  -3  11   54.67   13.95
   2   3  11   37.42   21.19
  -2   3 -11   47.32   27.09
   2  -3  11   64.50   19.32
   2  -3  11   49.61   24.28
  -2  -3 -11   87.85   33.92
   2  -3  11   62.34   17.96
   2   3  11   58.32   29.56
  -2  -3 -11   61.96   29.50
   2   3  11   64.05   26.14
   2   3  11   64.34   19.08
   2   3  12   31.34   19.24
  -2  -3 -12   27.44   20.31
   2  -3  12   24.28   17.83
   2  -3  12   27.83   12.67
   2  -3  12   19.64    8.72
  -2   3 -12   31.83   12.89
   2   3  12   17.39    9.86
  -2   3 -12   42.31   24.74
  -2  -3 -12   16.18   14.23
   2  -3  12   34.44   20.43
  -2   3 -12   26.50   20.65
   2   3  12   43.19   26.15
   2   3  12   14.23   13.57
   2  -3  12   31.62   13.68
   2  -3  13    3.14    4.23
  -2  -3 -13    7.86   11.32
   2  -3  13    4.12    7.47
   2  -3  13    2.77    3.93
  -2  -3 -13    2.31    5.47
   2   3  13   13.17    8.51
  -2   3 -13    4.61    4.85
   2   3  13    8.86   11.10
  -2   3 -13    4.44    7.58
   2  -3  13   15.95   14.42
   2   3  13    5.02    8.08
   2  -3  13   11.40    6.91
   2   3  13   -8.35   11.81
  -2   3 -13   11.60   14.16
   2  -3  14   10.92    7.85
   2   3  14    5.55    9.08
  -2  -3 -14    9.27   12.81
   2  -3  14   10.14    7.47
  -2   3 -14   19.34    9.69
   2   3  14   13.16   13.65
   2  -3  14    5.06    8.53
  -2   3 -14   -4.52    6.71
  -2  -3 -14    9.07   11.03
   2   3  14    4.95    5.17
   2   3  14   -4.37    8.78
   2  -3  14   17.17    8.84
  -2   3 -14    4.36    8.96
   2  -3  15   75.82   19.61
   2   3  15  126.00   44.80
   2   3  15   88.42   21.49
   2  -3  15  116.19   42.24
   2   3  15  112.61   43.00
  -2   3 -15  131.50   44.08
   2  -3  15  100.27   22.92
  -2  -3 -15  130.71   43.64
  -2  -3 -15  113.15   46.49
  -2   3 -15  124.62   52.02
   2   3  15  110.39   45.21
  -2  -3 -16   15.82   18.04
   2  -3  16   -1.35    4.66
  -2  -3 -16   24.03   18.66
   2   3  16    3.27    7.45
   2  -3  16    7.23    6.20
  -2   3 -16    6.31    9.73
   2   3  16   -3.96    8.78
   2   3  16    4.71    8.86
   2  -3  16   13.96    8.50
  -2   3 -16  -23.21   22.06
  -2   4  16  -12.11   15.82
   2   4 -16   -1.51    5.66
  -2  -4  16    1.78    4.36
   2  -4 -16   30.85   27.11
   2   4 -16   11.78   11.03
  -2  -4  16   17.45   15.87
  -2  -4  16  -11.49   15.50
   2  -4 -16   -3.11    7.40
  -2   4  16    3.87    7.61
   2   4 -15   -0.79    3.96
  -2  -4  15   -0.76    2.76
   2  -4 -15    7.88   13.24
   2   4 -15   14.98   12.24
  -2   4  15  -11.10   14.58
  -2  -4  15  -14.74   14.27
   2  -4 -15   -1.90    5.71
  -2  -4  15   -9.83   13.84
  -2   4  15    3.80    7.26
  -2  -4  14    6.29   10.67
  -2  -4  14    8.07    8.70
   2  -4 -14   -4.20    8.29
   2  -4 -14   -2.24    6.80
  -2  -4  14   -5.86    8.77
   2   4 -14   16.28   12.55
  -2   4  14    0.60    2.76
  -2   4  14    0.22    1.98
   2   4 -14  -10.83   14.00
  -2   4  13   -9.49   12.52
   2   4 -13   -4.55    8.70
  -2  -4  13    4.80    5.42
   2   4 -13   -3.39    5.64
  -2  -4  13    4.34    6.18
   2  -4 -13    4.34    9.15
   2  -4 -13    1.51    4.85
  -2  -4  13   -3.50    6.59
  -2  -4  13   -3.41    7.55
  -2   4  13   -3.17    6.07
  -2   4  12    1.27    3.65
  -2  -4  12    6.39    7.28
  -2  -4  12    9.46    7.48
   2  -4 -12  -12.38   14.85
  -2  -4  12   11.92   11.89
   2   4 -12   -3.23    5.45
   2   4 -12   -3.20    6.97
   2  -4 -12    3.69    7.43
  -2  -4  12    1.76    5.20
  -2   4  12   -2.17    5.77
  -2   4  11   20.42   13.89
  -2  -4  11   16.07   15.06
  -2   4  11   31.61   21.11
   2   4 -11   28.99   20.00
  -2  -4  11   14.82    9.27
  -2  -4  11   30.01   14.54
   2  -4 -11   28.60   19.61
   2  -4 -11   21.30   18.74
  -2  -4  11    2.39    5.18
   2   4 -11   35.47   17.86
  -2  -4  10   -4.06    7.23
  -2   4  10   -7.29    7.83
  -2   4  10    1.16    3.90
   2  -4 -10   10.84   13.38
  -2  -4  10  -14.28   12.35
  -2  -4  10   -2.58    3.84
  -2  -4  10   12.67    9.57
   2   4 -10    4.42    7.40
   2   4 -10    4.11    6.02
  -2  -4   9   47.44   18.72
   2   4  -9   32.11   18.80
  -2  -4   9   61.31   24.87
  -2  -4   9   41.13   23.06
   2   4  -9   45.84   22.02
  -2  -4   9   52.48   17.72
  -2   4   9   47.00   24.05
   2   4  -9   44.61   19.78
   2  -4  -9   38.38   21.13
  -2   4   9   51.60   21.59
  -2   4   8   33.53   14.90
  -2   4   8   36.25   20.59
   2   4  -8   37.22   17.99
  -2  -4   8   46.16   21.94
   2   4  -8   35.71   18.51
  -2  -4   8   42.34   15.53
   2  -4  -8   48.84   25.85
   2   4  -8   35.59   20.84
  -2  -4   8   30.48   14.63
  -2  -4   8   33.87   17.98
  -2   4   7   31.18   14.25
  -2  -4   7   26.69   13.89
  -2  -4   7   44.26   17.66
   2   4  -7   46.08   20.26
  -2  -4   7   46.49   21.49
   2   4  -7   44.37   18.78
  -2   4   7   50.33   23.21
   2   4  -7   36.43   18.93
  -2  -4   7   34.33   12.71
   2  -4  -7   43.99   24.87
  -2  -4   6  133.21   33.24
   2   4  -6  159.11   38.28
  -2  -4   6  138.57   29.17
  -2   4   6  172.71   44.07
   2   4  -6  175.36   35.55
  -2  -4   6  175.54   32.92
  -2   4   6  184.56   32.75
   2   4  -6  149.90   32.40
   2  -4  -6  153.60   42.16
   2   4  -6  185.70   42.10
  -2  -4   6  186.77   47.30
   2  -4  -6  171.19   33.18
  -2  -4   5  117.17   24.47
   2   4  -5  121.97   32.10
  -2   4   5  111.96   34.73
   2   4  -5  125.89   30.50
   2   4  -5  115.43   33.75
  -2  -4   5   86.28   24.44
   2  -4  -5  128.85   27.03
  -2  -4   5  130.61   28.82
   2  -4  -5  122.20   36.41
  -2   4   5  118.14   25.73
  -2  -4   5  144.23   39.23
  -2  -4   4    0.94    1.97
   2   4  -4    6.09    6.85
  -2   4   4    5.41    4.58
   2   4  -4   -3.74    5.79
  -2  -4   4   12.79    9.15
   2   4  -4   -1.43    3.99
   2  -4  -4   -6.09    7.74
  -2  -4   4   -1.39    2.87
   2  -4  -4    1.00    2.38
  -2  -4   4   14.06   11.54
  -2   4   4   -2.87    5.50
  -2  -4   3   55.99   16.15
  -2   4   3   52.56   16.64
   2   4  -3   55.16   21.89
  -2   4   3   29.82   17.01
   2   4  -3   57.71   22.70
   2  -4  -3   60.19   19.13
   2   4  -3   59.76   24.27
  -2  -4   3   46.33   19.75
  -2   4   3   60.79   22.54
  -2  -4   3   44.62   12.09
   2  -4  -3   76.96   26.82
  -2  -4   2  137.51   22.29
  -2   4   2  165.80   41.59
  -2   4   2  139.55   33.92
   2   4  -2  175.84   39.31
   2   4  -2  173.13   38.47
  -2  -4   2  154.31   34.22
  -2   4   2  165.44   30.48
   2  -4  -2  170.40   39.14
  -2  -4   2  132.15   32.73
  -2  -4   2  126.67   18.43
   2  -4  -2  157.77   30.48
  -2  -4   1  120.09   17.34
   2  -4  -1  152.87   30.81
  -2   4   1  124.02   29.83
   2   4  -1  155.48   37.09
  -2   4   1  126.37   32.02
  -2   4   1  125.45   27.61
  -2  -4   1  138.41   30.78
  -2  -4   1  120.83   32.15
  -2  -4   1  110.31   15.90
   2   4  -1  153.01   37.22
   2  -4  -1  140.85   33.97
   2   4   0  568.91   72.79
   2  -4   0  534.74   58.92
  -2  -4   0  580.06   71.74
  -2   4   0  498.69   64.74
  -2   4   0  537.23   64.97
   2   4   0  529.16   67.32
   2   4   0  559.48   56.43
  -2  -4   0  536.12   71.44
  -2  -4   0  483.21   34.27
   2  -4   0  587.32   65.99
  -2   4   0  562.59   60.23
  -2  -4   0  533.19   57.43
   2  -4   0  472.08   56.78
  -2  -4  -1   -3.38    4.28
  -2  -4  -1  -13.58    8.67
   2   4   1    1.89   10.70
   2  -4   1    0.10    3.41
   2  -4   1   -2.73    4.50
  -2   4  -1   -6.91    7.64
   2   4   1   -7.13    5.93
   2  -4   1    0.75    3.82
  -2  -4  -1  -19.15   12.74
   2   4   1   -3.73    5.58
  -2   4  -1    6.12    7.07
  -2  -4  -1    1.27    3.49
  -2  -4  -1    1.55    2.09
  -2   4  -2   31.56   15.98
   2   4   2   21.21   14.44
   2  -4   2   22.60   12.74
  -2  -4  -2   26.80   11.41
  -2  -4  -2   29.23   15.76
  -2  -4  -2   12.62    8.10
  -2   4  -2   31.65   17.20
  -2  -4  -2   44.73   20.81
   2  -4   2   46.02   17.23
  -2   4  -2   21.65   11.79
  -2  -4  -2   42.73   13.03
   2   4   2   39.72   13.68
   2   4   2   40.99   18.28
   2   4   3  272.05   48.03
  -2   4  -3  233.35   45.75
   2  -4   3  223.52   41.77
   2   4   3  221.84   49.33
  -2  -4  -3  205.89   33.03
  -2  -4  -3  267.36   48.28
  -2  -4  -3  224.56   31.61
  -2   4  -3  254.82   49.58
  -2  -4  -3  236.26   50.77
  -2   4  -3  240.92   38.00
   2  -4   3  243.06   36.92
  -2  -4  -3  242.74   34.10
   2   4   3  270.86   36.52
   2   4   4  283.66   24.06
   2  -4   4  277.70   55.07
   2   4   4  338.87   41.61
  -2  -4  -4  284.13   50.01
  -2  -4  -4  316.86   35.08
  -2   4  -4  354.97   59.65
  -2  -4  -4  269.04   55.19
  -2   4  -4  241.40   47.17
   2   4   4  262.19   40.50
  -2   4  -4  325.33   42.40
   2  -4   4  348.81   41.63
  -2  -4  -4  298.81   42.45
   2   4   4  319.86   61.06
  -2  -4  -4  292.44   40.21
   2   4   4  335.97   53.13
  -2   4  -4  317.51   52.67
   2  -4   4  314.38   51.18
   2   4   5 1016.14   55.73
  -2  -4  -5  997.66   77.67
  -2   4  -5 1127.46   98.67
  -2  -4  -5  977.22   55.99
   2   4   5 1008.86  111.70
   2  -4   5 1065.50   98.02
  -2  -4  -5 1111.58   98.39
   2  -4   5 1065.26   91.49
  -2   4  -5 1148.04  110.20
  -2  -4  -5 1089.64  113.64
  -2   4  -5 1080.43   73.30
  -2   4  -5 1046.00  101.54
   2   4   5 1078.28   89.96
   2  -4   5 1125.07   69.14
  -2  -4  -5 1032.81   85.17
   2  -4   5 1097.63   60.76
   2  -4   5 1069.30  109.98
   2   4   5 1082.89   96.11
   2   4   5 1118.33   77.40
   2  -4   6  142.14   37.12
  -2   4  -6  116.16   35.93
   2   4   6  124.24   27.04
  -2  -4  -6  141.49   42.96
  -2   4  -6  107.58   20.73
   2  -4   6  125.99   31.62
  -2  -4  -6  101.88   15.90
  -2  -4  -6  115.95   30.74
   2   4   6  122.91   40.79
  -2   4  -6  128.93   37.88
  -2   4  -6  135.61   23.33
  -2  -4  -6  132.18   33.73
   2   4   6  137.84   24.06
   2  -4   6  116.38   36.62
   2   4   6  125.78   32.56
   2  -4   6  133.15   17.93
  -2   4  -6  118.39   31.75
  -2  -4  -7    8.78    8.84
   2   4   7    9.45    7.07
  -2  -4  -7   11.30    9.54
  -2   4  -7   13.73    6.44
   2  -4   7    6.50    8.62
  -2   4  -7    6.59    9.00
   2  -4   7    1.22    3.46
  -2   4  -7   -1.98    4.74
   2   4   7    5.98    5.94
  -2   4  -7    8.72    9.88
  -2   4  -7    4.34    3.90
  -2  -4  -7    9.65   11.00
   2  -4   7    7.28    7.50
   2   4   7    2.93    8.88
   2   4   7    3.30    5.15
   2   4   8   15.79   10.11
   2   4   8   33.48   15.11
  -2   4  -8   25.16   18.15
  -2  -4  -8   23.17   17.34
   2   4   8   28.07   20.50
   2  -4   8   29.56   17.61
  -2   4  -8   12.68   15.19
   2  -4   8   24.20   13.73
  -2   4  -8   27.87   15.09
  -2   4  -8   11.25    5.02
  -2  -4  -8   17.67   11.75
  -2  -4  -8   32.84   18.17
   2   4   8   27.33   14.80
  -2   4  -8   15.90    6.94
   2  -4   8   -5.20    7.83
   2   4   9   97.31   27.77
  -2  -4  -9  102.54   38.58
  -2   4  -9  103.57   29.20
   2  -4   9   47.51   23.33
  -2   4  -9   84.22   32.19
   2  -4   9   67.03   28.25
  -2   4  -9   46.60   10.56
   2   4   9   62.06   30.70
  -2   4  -9   60.98   28.77
  -2  -4  -9   75.93   24.82
  -2  -4  -9   63.48   26.71
   2  -4   9   88.08   26.53
   2   4   9   67.18   23.08
  -2  -4 -10    0.55    2.63
   2   4  10    9.91    9.40
   2  -4  10   -4.06    5.64
   2  -4  10    8.92   10.68
  -2   4 -10    5.14    9.13
   2   4  10    8.05    5.17
  -2   4 -10    5.09    8.12
   2  -4  10   -9.83   10.78
  -2  -4 -10    1.49    4.53
  -2   4 -10    0.06    0.75
   2   4  10    1.16    3.04
  -2  -4 -10    3.15    4.72
   2   4  11   18.28   13.60
   2   4  11    3.77    5.52
   2  -4  11   25.19   18.40
   2   4  11   20.16   18.48
  -2   4 -11   10.22   13.71
   2  -4  11   20.97   16.30
  -2  -4 -11   13.66   13.68
  -2   4 -11   12.65   13.82
   2  -4  11   16.03   11.24
  -2  -4 -11   19.58   16.71
  -2  -4 -12    8.80   11.49
   2   4  12    4.31    5.88
   2  -4  12    0.06    0.90
   2  -4  12    8.51    8.20
  -2   4 -12   -8.94   12.03
  -2   4 -12  -11.67   12.79
   2  -4  12    9.42   11.25
  -2  -4 -12  -30.77   21.22
   2   4  12   -8.45    9.80
   2   4  12    3.71    8.15
  -2   4 -12    4.26    5.82
   2   4  13   12.73   12.65
   2   4  13   -4.68    9.37
   2  -4  13    7.89   10.83
   2  -4  13   17.86   15.99
  -2   4 -13    0.33    2.19
  -2  -4 -13    7.96   11.41
  -2   4 -13   11.22   13.95
  -2  -4 -13   -1.24    4.31
   2  -4  13    6.99    7.42
  -2   4 -13   25.55   14.03
   2   4  13   12.82   10.13
  -2   4 -14   96.14   44.72
  -2  -4 -14  125.65   44.27
   2   4  14   87.58   33.57
   2  -4  14  118.52   42.94
  -2   4 -14  132.67   44.97
  -2   4 -14  146.12   33.38
   2  -4  14   77.94   34.40
  -2  -4 -14   72.39   35.82
   2   4  14   94.73   46.84
   2  -4  14   84.79   25.84
   2   4  14   87.64   26.39
  -2  -4 -15   -2.58    6.45
   2  -4  15   16.82   16.61
  -2   4 -15   19.59   10.16
   2   4  15   26.66   14.47
  -2   4 -15   16.66   16.30
   2  -4  15   38.69   25.01
   2   4  15    9.34   11.87
   2   4  15   -4.01    9.11
   2  -4  15    9.27    8.51
  -2   4 -15  -16.53   18.04
  -2  -4 -15   44.83   29.32
  -2   5  14   13.87   15.72
   2   5 -14   -0.13    1.11
  -2  -5  14   -0.41    2.12
   2  -5 -14  -18.09   19.48
  -2  -5  14    6.10    9.38
  -2  -5  14   -3.46    8.08
   2   5 -14   15.00   16.39
  -2   5  14    4.64    7.96
  -2   5  14   -4.58    7.24
   2  -5 -14   -4.45    8.99
  -2  -5  13   -5.06    9.40
   2  -5 -13   -3.08    7.31
   2   5 -13    7.91    8.88
  -2  -5  13    2.47    5.01
   2  -5 -13    5.93   10.76
   2   5 -13  -19.26   17.79
  -2  -5  13    6.58    9.51
  -2   5  13   29.93   22.30
  -2   5  13    8.50   10.56
  -2   5  13   -0.24    1.54
   2   5 -12   53.75   28.34
  -2   5  12   19.37   14.44
   2  -5 -12   22.19   19.23
  -2  -5  12   27.01   15.88
  -2   5  12   17.93   16.69
  -2  -5  12   36.08   21.75
   2   5 -12   25.38   15.87
  -2   5  12   35.11   21.08
  -2  -5  12   19.13   16.93
  -2   5  11    5.55    6.71
  -2  -5  11    2.09    5.56
  -2   5  11    9.78   11.94
  -2  -5  11   -0.25    1.14
  -2  -5  11   -0.51    2.14
   2   5 -11   -9.97   11.24
   2   5 -11   -9.07   11.05
   2   5 -11    8.58    9.21
   2  -5 -11    2.11    5.80
  -2   5  11   12.14   12.17
  -2  -5  11   16.60   14.41
  -2   5  10    4.72    5.83
  -2  -5  10    5.61    7.02
  -2   5  10    5.04   10.26
   2   5 -10   12.57   12.52
  -2  -5  10    6.78    6.07
   2   5 -10   21.00   14.39
   2   5 -10   -1.97    4.85
  -2  -5  10   11.49   11.71
  -2  -5  10   17.23   15.28
  -2   5  10    5.04    7.70
   2  -5 -10   27.71   20.57
   2   5  -9   -5.18    7.16
  -2   5   9   -5.44    8.50
  -2  -5   9   11.16    9.76
  -2   5   9   11.60    8.65
   2   5  -9   -2.73    5.37
  -2  -5   9    5.42    7.88
   2   5  -9   -4.37    7.31
  -2  -5   9   10.46    7.72
  -2  -5   9   18.86   15.23
   2  -5  -9   -8.00   10.81
  -2   5   9    1.95    4.72
  -2  -5   8   42.94   22.11
  -2   5   8   20.83   15.19
  -2   5   8   11.87    9.89
   2   5  -8   28.20   18.72
  -2  -5   8    6.51    8.46
  -2  -5   8   17.31   12.05
   2   5  -8   21.64   14.00
   2   5  -8    3.09    5.53
  -2   5   8   29.37   13.28
  -2  -5   8   21.43   11.33
   2  -5  -8   -4.33    7.77
  -2   5   7   57.05   18.56
  -2   5   7   49.33   23.08
  -2  -5   7   54.86   22.98
   2   5  -7   38.96   19.70
   2  -5  -7   71.82   32.70
   2   5  -7   70.79   23.14
   2   5  -7   51.14   20.51
  -2  -5   7   61.50   19.86
  -2   5   7   74.26   31.45
   2   5  -7   47.03   25.17
  -2  -5   7   40.61   16.42
  -2   5   6   10.98    7.78
  -2   5   6    4.55    7.50
   2   5  -6   26.03   16.20
  -2  -5   6    9.89   11.13
  -2   5   6   10.02   10.30
  -2  -5   6    3.95    4.66
  -2  -5   6    8.56    8.62
   2   5  -6   15.01   10.72
   2  -5  -6   18.17   15.19
   2   5  -6   27.50   17.77
  -2   5   5   11.10   13.35
  -2   5   5    5.56    5.41
   2   5  -5    8.92    8.86
   2   5  -5   -5.99    8.24
   2  -5  -5   -5.66    8.26
  -2  -5   5   10.27   10.79
  -2  -5   5   -0.13    5.61
  -2   5   5   -4.15    7.10
  -2  -5   5   -3.44    3.87
   2  -5  -5   -5.15    5.20
   2  -5  -4   65.58   18.69
  -2   5   4   64.17   25.46
   2  -5  -4   45.38   22.71
  -2   5   4   90.95   21.89
  -2  -5   4   68.89   27.98
  -2  -5   4   60.79   13.90
  -2  -5   4   74.06   26.63
   2   5  -4   68.30   25.01
  -2  -5   4   62.18   25.01
  -2   5   4   91.41   32.78
   2   5  -4   77.89   29.93
  -2   5   3  181.05   37.38
   2   5  -3  217.92   46.41
  -2  -5   3  220.54   48.74
  -2  -5   3  181.35   42.81
   2  -5  -3  239.18   52.07
  -2  -5   3  189.71   19.66
  -2   5   3  237.55   53.12
  -2   5   3  234.36   35.00
   2   5  -3  255.76   53.45
  -2   5   3  235.77   49.95
  -2  -5   3  230.41   46.55
   2  -5  -3  207.78   34.95
  -2  -5   2  112.31   21.03
   2  -5  -2  101.30   24.78
   2   5  -2   93.47   29.88
  -2   5   2  116.93   25.39
  -2  -5   2   93.55   31.73
  -2   5   2  133.97   33.65
  -2  -5   2  114.59   33.91
  -2  -5   2  103.51   29.56
   2   5  -2  135.04   37.68
   2  -5  -2  107.30   33.22
  -2   5   2  107.84   33.81
  -2  -5   1   27.26   14.80
   2   5  -1   12.24   11.10
  -2   5   1   10.87    9.70
   2  -5  -1   10.64    9.35
  -2  -5   1    4.95    3.74
   2  -5  -1   16.15   10.10
  -2  -5   1    8.27    8.92
   2   5  -1    2.20    4.82
  -2   5   1   16.60   13.22
  -2  -5   1   10.59    5.23
   2  -5   0   42.16   19.48
  -2  -5   0   35.35   14.92
  -2  -5   0   27.80   17.55
  -2   5   0   38.20   20.15
   2  -5   0   71.36   23.29
   2   5   0   47.59   20.92
   2   5   0   33.72   18.75
  -2  -5   0   45.90   22.06
  -2   5   0   38.04   18.56
  -2   5  -1  185.05   45.49
   2  -5   1  176.95   38.44
  -2   5  -1  186.25   43.50
  -2  -5  -1  161.06   42.18
   2   5   1  191.88   44.62
   2  -5   1  164.87   37.41
  -2  -5  -1  158.13   42.72
  -2  -5  -1  175.93   31.77
   2   5   1  121.36   37.66
  -2  -5  -2    0.70    1.92
   2   5   2    7.43    6.72
  -2   5  -2   -3.74    6.34
  -2  -5  -2   -1.55    3.66
  -2   5  -2   11.82   11.06
   2   5   2   -9.95   10.70
  -2  -5  -2   10.48    6.59
   2   5   2   -4.95    7.13
   2  -5   2    7.72    7.74
  -2  -5  -2    6.20    5.86
   2  -5   2   25.96   15.01
   2   5   3   18.72   15.15
  -2  -5  -3   24.66   11.14
  -2   5  -3   28.12   16.39
   2  -5   3   25.85   15.36
  -2  -5  -3   32.99   13.82
   2   5   3   26.39   10.51
  -2   5  -3   10.49   10.73
  -2  -5  -3   17.69    8.51
  -2  -5  -3   28.83   19.15
  -2  -5  -3   16.41   14.33
   2   5   3   32.21   18.15
   2  -5   3   24.00   13.95
   2   5   4   67.51   26.69
  -2  -5  -4   63.69   18.42
   2   5   4   66.81   29.42
   2  -5   4   53.72   23.33
  -2  -5  -4   35.84   11.30
   2  -5   4   63.42   19.66
   2  -5   4   54.64   22.94
  -2  -5  -4   60.28   17.74
  -2  -5  -4   53.31   24.81
  -2   5  -4   41.69   19.75
  -2   5  -4   53.97   25.69
   2   5   4   48.90   16.75
  -2  -5  -4   53.62   26.42
   2   5   4   70.63   16.82
  -2   5  -4   51.25   24.06
   2  -5   5  154.72   38.65
   2   5   5  146.83   21.59
  -2  -5  -5  210.12   55.75
   2   5   5  159.68   40.83
   2  -5   5  148.00   43.75
  -2   5  -5  167.25   33.30
  -2  -5  -5  174.63   28.20
   2   5   5  179.64   28.90
  -2   5  -5  175.27   46.97
   2  -5   5  178.80   32.64
  -2  -5  -5  160.76   32.91
   2  -5   5  141.00   38.50
  -2  -5  -5  183.32   44.97
   2   5   5  137.46   30.70
  -2   5  -5  177.14   42.75
  -2  -5  -5  156.29   28.52
   2   5   5  152.88   47.71
  -2   5  -5  183.33   45.48
  -2  -5  -6    3.39    5.06
   2   5   6   12.19    7.01
  -2   5  -6   21.62   11.02
   2  -5   6    7.85   10.00
  -2  -5  -6    9.00   11.25
   2   5   6    7.48    6.07
  -2   5  -6   -6.39    8.15
  -2   5  -6  -10.00   10.30
   2  -5   6   12.63   11.63
   2   5   6    5.01    8.54
  -2   5  -6    7.47    9.72
  -2  -5  -6   23.60    9.08
  -2  -5  -6   -6.80    8.43
   2  -5   6  -20.37   14.09
   2  -5   6   -3.57    4.20
   2   5   6    4.44    5.50
   2  -5   7   62.66   28.94
  -2  -5  -7   75.80   27.98
   2  -5   7   73.66   26.79
  -2  -5  -7   58.25   22.57
   2  -5   7   77.24   17.88
   2   5   7   81.82   20.40
  -2   5  -7   38.17   21.24
  -2   5  -7   58.16   14.95
  -2   5  -7   75.04   30.24
   2   5   7   60.77   24.73
   2  -5   7   74.25   29.39
   2   5   7   39.26   24.57
  -2   5  -7   71.69   28.44
  -2  -5  -7   40.18    9.70
   2  -5   7   52.69   12.59
   2   5   7   49.44   15.98
  -2   5  -7   60.42   16.79
  -2  -5  -7   61.46   30.16
  -2  -5  -8   10.32   11.52
  -2  -5  -8   22.71   15.04
   2   5   8   11.10    7.81
  -2   5  -8    8.64    5.04
   2  -5   8   -2.27    5.50
   2   5   8    3.84    4.72
  -2  -5  -8    1.90    5.36
   2  -5   8   18.72   12.40
   2   5   8   13.81   14.98
   2  -5   8  -16.63   12.84
  -2   5  -8   15.96   14.80
  -2   5  -8   16.87    7.86
   2   5   8   13.65   11.82
  -2   5  -8   21.94   16.42
  -2   5  -8   10.24   10.27
   2  -5   9   15.07   12.27
   2   5   9   15.49   10.35
  -2   5  -9   23.43   17.61
   2   5   9    7.53    6.80
   2  -5   9   10.53   12.00
   2   5   9   21.61   14.95
  -2  -5  -9   12.43   13.92
  -2   5  -9   61.77   29.67
  -2  -5  -9   26.23   17.14
  -2  -5  -9    7.70    8.67
  -2   5  -9   31.13   19.40
   2  -5   9   20.43   16.06
   2   5   9   21.87   19.37
  -2  -5 -10    3.12    6.23
   2  -5  10    9.13    9.57
  -2   5 -10    4.74    7.37
  -2  -5 -10   10.62   13.05
   2  -5  10   10.37   11.81
   2  -5  10    0.03    0.65
  -2  -5 -10    2.17    4.50
   2   5  10    3.65    6.15
  -2   5 -10    0.81    3.39
   2   5  10   -6.82   11.10
   2   5  10    3.57    5.36
  -2   5 -10   -7.21    8.61
  -2  -5 -11   37.85   22.81
   2  -5  11   13.44   13.81
   2   5  11   16.33   12.28
   2   5  11   50.69   35.60
  -2   5 -11   -3.77    7.58
   2  -5  11   15.36   15.04
  -2  -5 -11   38.47   25.20
   2  -5  11    2.95    5.45
  -2   5 -11   14.84   15.06
   2   5  11   26.11   16.49
  -2   5 -11   14.71   12.30
   2   5  12    4.61    6.96
  -2  -5 -12  -10.08   12.33
   2  -5  12   -5.22    8.97
  -2   5 -12   17.33   16.56
   2  -5  12    7.09   10.29
   2  -5  12    8.18    9.11
  -2   5 -12   10.62   10.48
   2   5  12   -1.39    3.82
  -2  -5 -12    2.55    6.58
   2   5  12  -13.19   16.23
  -2   5 -12    7.09   10.76
  -2   5 -13    1.78    5.58
   2   5  13   -6.44    8.70
   2  -5  13    3.77    7.78
  -2  -5 -13    4.79    8.88
  -2  -5 -13   11.33   14.06
   2  -5  13  -16.20   12.84
  -2   5 -13   -7.64   11.19
   2  -5  13    1.33    4.60
  -2   5 -13   14.14   12.05
   2   5  13   -2.27    6.90
   2   5  13   12.57   11.46
  -2  -5 -14  125.84   47.40
   2   5  14   82.44   33.07
  -2   5 -14   68.86   35.81
  -2  -5 -14  107.98   44.00
   2  -5  14   42.80   25.38
  -2   5 -14   89.92   31.29
  -2   5 -14   59.38   32.37
   2  -5  14   85.17   38.55
   2   5  14  116.74   34.89
   2   5  14   90.11   44.51
   2  -5  14  115.52   34.29
   2   6 -13   23.94   19.64
  -2  -6  13   22.22   20.18
  -2   6  13   21.92   13.73
  -2   6  13   48.44   28.88
  -2  -6  13   22.08   15.91
   2   6 -13   24.00   16.28
  -2  -6  13   25.04   15.47
   2   6 -13   60.96   32.27
  -2   6  13   48.50   27.63
  -2  -6  13   28.74   20.53
   2  -6 -13   10.49   14.14
  -2   6  13    2.65    7.93
  -2   6  12   -1.81    5.25
  -2  -6  12   23.08   19.78
  -2   6  12    3.77    5.39
  -2  -6  12   -8.35    9.59
   2   6 -12   -8.13   10.87
   2   6 -12    4.93    8.64
  -2  -6  12  -14.50   14.44
  -2  -6  12   -8.16   10.86
  -2   6  12    4.52   10.11
  -2   6  12   16.12   16.23
   2   6 -12   -9.64   10.33
   2  -6 -12  -10.13   13.63
  -2   6  11    3.63    5.01
  -2   6  11  -10.16   12.65
  -2  -6  11   -6.99   10.46
  -2  -6  11    6.90   15.06
   2   6 -11    4.49    7.07
  -2  -6  11   -1.55    3.80
  -2  -6  11    3.03    6.53
  -2   6  11  -21.02   17.63
   2  -6 -11   11.54   14.25
   2   6 -11  -15.53   14.22
   2   6 -11  -21.83   18.07
  -2  -6  11   -3.77    7.23
  -2  -6  10   24.55   18.59
  -2   6  10    6.77    6.58
  -2   6  10    6.63    2.66
   2   6 -10   10.65   11.05
  -2   6  10   26.09   19.91
  -2  -6  10    2.57    5.18
  -2  -6  10   13.22   13.31
  -2  -6  10    4.79    8.16
  -2  -6  10    7.16    8.29
   2  -6 -10   18.80   17.85
   2   6 -10   10.33   12.27
   2   6 -10   13.06   12.08
  -2   6   9   77.46   22.11
  -2   6   9   32.95   22.05
  -2   6   9   37.76   22.94
   2   6  -9   63.18   24.98
  -2  -6   9   36.08   21.70
  -2  -6   9   58.98   29.88
  -2  -6   9   54.97   23.76
  -2  -6   9   41.20   20.15
   2  -6  -9   53.13   29.42
  -2  -6   9   40.61   16.28
   2   6  -9   71.17   32.19
   2   6  -8   48.36   21.08
  -2  -6   8   52.26   19.28
  -2   6   8   53.10   17.39
  -2   6   8   58.76   29.07
  -2   6   8   38.45   23.71
  -2  -6   8   24.87   15.96
   2   6  -8   46.70   19.69
  -2  -6   8   25.92   18.75
  -2  -6   8   32.26   18.07
   2  -6  -8   13.82   14.69
   2   6  -8   61.36   29.85
  -2  -6   7    8.88   10.92
  -2   6   7    8.75   11.11
   2  -6  -7    9.16   11.73
  -2  -6   7    4.37    6.75
  -2  -6   7   13.79    9.00
  -2   6   7    8.73    6.64
  -2   6   7    1.41    3.30
  -2   6   7   22.48   17.29
  -2  -6   7   -0.30    2.09
   2   6  -7   -2.60    4.76
   2   6  -7    9.88   11.65
  -2   6   6   18.47   15.99
  -2   6   6   15.26    8.34
  -2   6   6   16.10   11.32
  -2   6   6   20.38   16.33
  -2  -6   6   15.93   14.55
  -2  -6   6   14.71   12.57
  -2  -6   6   18.02   15.84
   2   6  -6   -2.41    4.79
  -2  -6   6   11.98    7.43
   2  -6  -6   24.33   18.69
   2   6  -6   -0.49    2.60
  -2  -6   5   16.14    7.21
  -2   6   5   34.56   21.13
  -2   6   5   22.27    9.94
  -2  -6   5   29.02   19.53
   2   6  -5   26.63   16.44
  -2   6   5   35.14   21.87
  -2   6   5   43.56   17.98
   2  -6  -5   21.83   17.98
  -2  -6   5   18.50   14.30
  -2  -6   5   51.18   25.06
   2  -6  -5   19.21    9.45
   2   6  -5   33.75   21.16
   2  -6  -4   -6.06    5.48
  -2  -6   4    6.82    8.54
  -2   6   4    8.91    6.32
  -2   6   4   13.57   13.19
  -2  -6   4   26.57   15.61
  -2   6   4    4.69    7.88
  -2   6   4    7.75    8.24
   2   6  -4   -2.50    5.14
  -2  -6   4   -5.83    8.15
   2  -6  -4    9.56   11.71
   2   6  -4   -6.12    8.92
  -2   6   3   -0.29    1.92
   2  -6  -3    3.46    4.36
  -2  -6   3    4.96    6.86
  -2   6   3    1.00    3.04
   2  -6  -3  -21.54   16.44
  -2  -6   3   12.06   12.49
   2   6  -3    2.82    5.52
  -2  -6   3    3.23    6.17
   2   6  -3   -4.83    7.89
  -2  -6   2   15.95   11.56
   2   6  -2   14.82   13.73
  -2   6   2   14.31   13.76
   2  -6  -2   14.36    9.29
  -2   6   2    1.66    4.03
  -2  -6   2   18.55   15.44
   2   6  -2   -4.42    6.99
  -2  -6   2   16.01   14.25
   2  -6  -2    0.95    3.36
  -2  -6   1  131.68   31.56
   2  -6  -1  130.46   30.15
   2   6  -1  153.36   45.16
  -2   6   1  150.00   39.64
  -2  -6   1  136.03   42.35
   2  -6  -1  168.89   42.94
   2   6  -1  175.39   45.41
  -2  -6   1  170.29   47.35
  -2   6   1  168.15   46.46
  -2  -6   0    9.86    4.85
  -2  -6   0    6.48    6.51
   2   6   0   22.18   16.26
  -2   6   0   41.53   23.16
   2  -6   0    9.97    8.84
  -2  -6   0   14.82   13.73
  -2   6   0   19.01   13.85
  -2  -6   0   -0.48    3.11
   2   6   0   21.07   16.23
   2  -6   0   10.49   10.60
  -2  -6  -1    0.13    0.87
   2   6   1    3.80    6.86
   2  -6   1    6.34    4.55
   2   6   1   -0.22    1.70
  -2   6  -1   -8.54   10.53
  -2  -6  -1    0.55    2.73
  -2   6  -1  -12.11   11.82
  -2  -6  -1  -17.10   14.73
   2  -6   1    3.63    6.06
   2  -6   2    0.02    0.46
  -2   6  -2   -0.52    2.62
  -2  -6  -2   -3.61    7.10
   2   6   2   11.70   12.46
  -2  -6  -2    0.89    2.14
  -2   6  -2    9.95   11.00
  -2  -6  -2    3.49    6.64
   2   6   2    9.92   11.08
   2  -6   2    2.63    4.98
  -2  -6  -3    7.04    5.07
  -2  -6  -3    7.05    5.71
  -2   6  -3    7.05    9.56
   2  -6   3   -4.66    7.01
  -2   6  -3   -3.80    6.99
   2  -6   3   17.29   12.35
  -2  -6  -3   12.40   12.81
  -2  -6  -3    6.13   11.90
   2   6   3    4.15    7.62
   2   6   3    9.80   10.98
  -2   6  -4  127.38   42.61
   2  -6   4  154.44   43.21
   2  -6   4  144.91   40.53
  -2   6  -4  151.43   46.82
  -2  -6  -4  141.50   26.80
  -2   6  -4  148.84   38.04
  -2  -6  -4  165.03   47.05
  -2  -6  -4  142.77   25.88
   2   6   4  164.39   50.07
  -2  -6  -4  156.01   48.76
   2  -6   4  121.63   31.83
   2   6   4  145.48   44.49
  -2   6  -5  129.55   36.36
   2  -6   5  112.84   36.95
  -2  -6  -5  108.82   27.12
  -2  -6  -5  107.22   40.82
  -2   6  -5   78.04   32.53
   2  -6   5  107.23   35.46
  -2   6  -5  125.56   42.02
  -2  -6  -5   91.89   23.24
   2   6   5   84.99   17.04
   2   6   5   69.52   21.40
  -2  -6  -5  126.86   40.93
   2   6   5  118.68   39.87
   2   6   5  109.90   41.36
   2  -6   5  117.54   29.80
  -2   6  -6    3.42    6.59
   2   6   6    0.62    1.60
   2  -6   6    4.64    6.31
  -2   6  -6   -7.45    9.02
  -2  -6  -6   -4.53    5.79
  -2  -6  -6   -5.07    9.04
  -2   6  -6   -6.23    9.54
   2  -6   6   -5.52    8.16
  -2  -6  -6   -2.31    3.38
   2   6   6   -7.05    9.37
   2   6   6   -3.03    3.27
  -2  -6  -6   14.98   13.81
   2   6   6   15.77   16.12
   2  -6   6  -13.05    9.29
   2  -6   6  -20.13   15.45
  -2  -6  -7   -6.20    7.31
   2   6   7    0.44    1.36
  -2   6  -7    4.58    7.34
   2  -6   7   11.48   12.92
  -2   6  -7   -0.44    2.35
   2  -6   7   -1.11    3.76
  -2   6  -7    4.30    8.08
  -2  -6  -7    2.41    3.04
  -2   6  -7    8.23    7.28
  -2  -6  -7   -3.01    7.09
   2   6   7   -4.09    4.68
  -2  -6  -7    7.88    9.99
  -2   6  -7    8.13    6.45
   2   6   7   -3.19    7.43
   2  -6   7    9.78    7.55
   2   6   7    9.08   10.65
   2  -6   7  -18.99   15.09
  -2   6  -8   27.31    9.95
  -2   6  -8   13.39   12.93
   2   6   8   17.88    9.23
   2  -6   8   21.99   17.17
   2  -6   8   18.32    9.49
   2  -6   8    4.23    7.16
  -2  -6  -8   25.28   15.80
  -2   6  -8   17.07    7.67
   2  -6   8   28.12   19.34
  -2   6  -8   19.48   17.50
  -2   6  -8   14.96    9.05
   2   6   8   16.90   10.22
   2  -6   8   12.73    6.69
  -2   6  -8   28.07   18.78
   2   6   8   46.10   29.04
  -2  -6  -8   20.08   13.92
   2   6   8   29.45   19.21
   2   6   9   30.47   12.54
  -2  -6  -9   50.87   23.81
  -2   6  -9   53.89   27.25
  -2  -6  -9   66.43   34.33
   2  -6   9   29.53   21.27
   2  -6   9   34.51   23.14
   2   6   9   40.61   29.47
  -2  -6  -9   53.39   26.69
   2  -6   9   57.75   26.17
  -2   6  -9   57.30   29.48
   2   6   9   42.89   17.33
   2   6   9   65.18   28.79
  -2   6  -9   39.98   26.87
  -2  -6 -10   81.03   30.96
   2   6  10   67.97   30.26
  -2  -6 -10   71.03   36.11
   2  -6  10   52.75   28.94
   2   6  10  103.65   46.19
  -2  -6 -10   92.02   32.73
   2  -6  10   82.92   30.91
   2   6  10   73.69   24.27
  -2   6 -10   75.10   33.00
   2  -6  10   67.61   31.58
  -2   6 -10  103.21   35.71
  -2   6 -10   96.66   42.70
   2   6  11   -6.37    7.50
  -2   6 -11   -7.31   10.65
   2  -6  11    8.29   11.54
   2   6  11   10.94   15.23
  -2  -6 -11    3.71    7.13
  -2   6 -11  -10.05   13.16
  -2  -6 -11   -8.67    9.76
   2  -6  11   -2.27    5.93
   2  -6  11   -2.54    6.75
  -2  -6 -11   -8.23   12.46
   2   6  11    4.95    7.96
  -2   6 -11    4.87    7.78
   2  -6  12   -5.79    8.48
  -2  -6 -12    1.60    4.93
   2  -6  12    0.41    2.62
   2   6  12   23.90   15.39
  -2   6 -12   10.24   11.29
  -2   6 -12   11.18   14.08
   2  -6  12   -4.69    8.77
  -2  -6 -12   20.97   20.15
  -2   6 -12  -16.63   16.61
   2   6  12   -0.55    2.66
   2   6  12    6.44   11.97
  -2   6 -13   22.03   16.60
   2   6  13   22.43   15.76
   2  -6  13   22.27   16.66
   2  -6  13   26.77   21.53
   2   6  13   -9.40   14.79
  -2  -6 -13    4.79    8.89
  -2   6 -13   -9.75   13.14
  -2   6 -13   36.93   26.00
   2  -6  13   19.48   18.34
  -2  -6 -13   25.30   22.43
   2   6  13   24.59   17.83
  -2  -7  10    7.07   10.70
  -2  -7  10   -0.13    1.24
  -2   7  10   -9.59   12.68
  -2   7  10   -2.09    6.90
  -2   7  10   12.57   14.54
   2   7 -10   16.37   13.16
  -2  -7  10  -12.54   13.81
   2  -7 -10  -25.93   22.06
  -2   7  10   -2.19    4.31
  -2  -7  10    9.86   10.53
   2   7 -10   -2.46   11.97
  -2   7   9    9.19   12.27
  -2   7   9    5.04    4.66
  -2  -7   9    2.04    5.01
   2   7  -9   -3.61    5.67
  -2  -7   9   -6.91   10.16
   2   7  -9   19.16   12.51
  -2  -7   9  -15.14   15.57
   2  -7  -9   -7.56   11.70
  -2   7   9   -1.16    3.17
  -2   7   9   18.43   20.04
  -2  -7   9    8.77   10.07
  -2   7   9   10.92   13.38
   2   7  -9   -3.23    7.31
   2   7  -8   17.69   16.90
   2  -7  -8   -2.43    6.50
   2   7  -8   -3.34    5.53
  -2   7   8   16.23   12.06
  -2   7   8   17.67   16.83
  -2  -7   8    0.10    1.08
  -2   7   8   -1.38    4.69
  -2   7   8    4.99    4.22
  -2   7   8  -26.23   23.38
  -2  -7   8   17.66   16.72
  -2  -7   8   11.81   14.06
  -2  -7   7    1.54    4.90
  -2   7   7   -6.86   10.40
   2   7  -7    0.03    0.71
  -2   7   7   -8.54    5.25
   2   7  -7    1.66    4.11
  -2   7   7  -11.44   13.44
  -2   7   7    1.27    3.42
   2  -7  -7    1.54    5.09
  -2   7   7    0.52    3.25
  -2  -7   7   -2.79    5.85
  -2  -7   7   -0.41    2.50
  -2   7   6   67.49   33.29
  -2   7   6   35.33   23.30
   2   7  -6   79.67   29.61
  -2  -7   6   60.17   32.05
  -2   7   6   49.49   21.91
  -2  -7   6   47.41   25.58
   2  -7  -6   70.24   35.93
   2   7  -6   23.86   19.26
  -2  -7   6   42.23   24.28
  -2   7   5   34.54   22.68
   2   7  -5   55.26   25.14
  -2  -7   5   22.27   18.50
   2  -7  -5   -1.17    4.28
  -2   7   5   19.66   14.09
  -2   7   5   32.42   22.27
  -2  -7   5   39.60   22.64
  -2  -7   5   26.28   18.17
   2   7  -5   22.67   18.59
   2  -7  -5   14.55    7.42
  -2  -7   4   56.67   23.54
   2   7  -4   80.97   30.85
  -2   7   4   53.16   28.42
  -2  -7   4   69.32   32.49
  -2   7   4   62.52   25.71
   2  -7  -4   68.81   17.29
  -2  -7   4   75.51   31.31
   2  -7  -4   69.33   34.29
   2   7  -4   81.03   35.38
   2  -7  -3    2.95    3.92
  -2  -7   3   16.99   13.00
  -2  -7   3    7.48   10.64
  -2   7   3   -3.49    6.21
   2   7  -3    6.50    9.83
  -2   7   3   14.76   14.96
  -2  -7   3   14.77   13.47
   2   7  -3    9.49   10.72
   2  -7  -3   15.66   15.00
  -2   7   2   -0.84    3.57
   2  -7  -2   12.82    8.81
  -2  -7   2   -2.93    6.44
   2   7  -2   -8.02   10.00
  -2   7   2   -5.88    8.27
   2  -7  -2   -9.78   11.60
  -2  -7   2   -8.26   11.13
  -2  -7   2    1.60    3.76
   2   7  -2   -3.39    6.44
   2   7  -1   10.22    8.07
   2  -7  -1    3.22    4.79
  -2  -7   1    8.92    6.37
   2   7  -1    5.23    8.23
  -2  -7   1   -4.95    8.48
  -2   7   1   16.45   15.82
  -2  -7   1   12.24    9.72
  -2   7   1   11.30    9.54
  -2  -7   1    7.89   10.86
   2  -7  -1   14.87   13.98
  -2  -7   0    1.17    2.82
  -2  -7   0    0.57    1.35
  -2   7   0   -6.59   10.03
   2   7   0   -3.25    6.63
  -2   7   0   22.43   16.98
  -2  -7   0    6.90   10.11
  -2  -7   0    6.39    9.78
   2  -7   0   -7.35    9.61
   2   7   0   -9.15   11.56
  -2  -7  -1   18.91   17.10
  -2  -7  -1    1.59    3.04
  -2   7  -1  -12.93   13.24
   2  -7   1   10.18   11.00
  -2  -7  -1   -9.46   11.84
  -2   7  -1  -20.62   17.79
   2   7   1    0.03    8.40
   2   7   1   -3.57    7.20
  -2  -7  -2    5.17    5.09
  -2   7  -2    2.04    4.91
   2  -7   2   52.10   24.71
   2   7   2    9.46   11.94
  -2   7  -2    4.55    8.37
   2   7   2   20.35   17.20
  -2  -7  -2  -17.75   16.23
   2  -7   2   24.39   16.58
  -2   7  -2   24.24   18.55
  -2  -7  -2   15.11   15.53
   2  -7   3   72.53   27.88
  -2  -7  -3   91.95   19.75
   2  -7   3   85.83   32.18
  -2   7  -3   89.24   37.60
  -2  -7  -3  102.24   41.07
  -2  -7  -3  110.75   41.20
   2  -7   3   68.30   30.43
   2   7   3   94.44   39.01
  -2   7  -3   71.63   27.83
   2   7   3   91.22   36.55
  -2   7  -3  119.71   42.94
   2  -7   4   27.28   18.45
   2  -7   4   65.89   30.09
  -2   7  -4   35.76   18.74
  -2  -7  -4   38.90   24.17
  -2  -7  -4   26.01   10.53
  -2  -7  -4   24.11   10.38
  -2   7  -4   26.90   17.23
   2  -7   4   28.47   16.80
  -2  -7  -4   52.58   29.93
  -2   7  -4   10.57   10.29
   2   7   4   41.91   26.44
   2   7   4   40.29   24.32
  -2   7  -4   25.57   19.81
   2  -7   5   39.36   23.40
  -2   7  -5   56.18   24.41
   2  -7   5   81.68   27.39
  -2  -7  -5  110.40   41.20
  -2  -7  -5   83.60   22.41
   2  -7   5   75.93   31.77
  -2  -7  -5   91.54   40.61
  -2   7  -5   76.39   25.82
   2   7   5   59.76   19.05
   2   7   5   65.29   34.84
   2   7   5   66.92   31.40
  -2   7  -5   81.22   35.32
  -2   7  -5   81.67   36.24
  -2  -7  -6   56.40   20.34
  -2  -7  -6   65.47   33.57
   2  -7   6   36.35   24.09
  -2  -7  -6   60.06   33.07
   2   7   6   29.17   14.95
   2  -7   6   75.31   31.81
  -2   7  -6   79.29   36.36
  -2  -7  -6   31.56   14.30
   2   7   6   60.39   29.90
   2  -7   6   53.04   27.31
   2   7   6   48.52   29.99
  -2   7  -6   56.27   20.64
   2  -7   6   44.89   20.57
  -2   7  -6   40.10   21.29
  -2   7  -6   64.20   33.00
  -2   7  -7   -9.32   11.82
  -2   7  -7   -1.09    2.60
  -2  -7  -7    6.85   11.33
  -2  -7  -7   11.54    9.95
   2  -7   7   15.98   15.07
   2  -7   7   -6.53    9.56
  -2   7  -7    7.18    9.32
   2   7   7   -8.70   11.38
   2   7   7   -1.85    3.01
   2   7   7   10.45   14.28
  -2  -7  -7    8.86   11.57
   2  -7   7   -5.36    6.36
  -2   7  -7    7.24   11.19
  -2  -7  -8   16.36   15.65
   2   7   8   14.54    9.57
  -2  -7  -8   -5.90    7.61
   2  -7   8   11.14   13.54
  -2  -7  -8   13.31   16.07
   2  -7   8    1.25    4.26
  -2   7  -8   17.10   20.12
   2   7   8  -15.77   15.36
   2  -7   8    2.69    4.23
   2  -7   8  -18.02   16.07
   2   7   8    8.48   13.17
  -2   7  -8   -9.24   10.94
  -2   7  -8   -0.14    0.79
  -2   7  -8  -11.65   13.14
   2   7   9  105.87   28.28
  -2  -7  -9   82.95   30.32
   2  -7   9   76.67   35.84
  -2  -7  -9   81.78   38.28
   2  -7   9   79.51   21.18
  -2   7  -9   76.04   42.10
  -2   7  -9   77.42   32.78
   2   7   9   65.81   37.60
   2  -7   9   58.93   31.56
  -2  -7  -9   78.40   33.84
   2  -7   9   89.43   35.95
   2   7   9   85.14   35.81
  -2   7  -9   80.05   34.30
   2  -7  10    6.61   10.60
   2   7  10   12.95   10.48
  -2   7 -10   -5.29    9.99
   2   7  10   13.05   14.12
   2  -7  10    1.24    4.45
  -2  -7 -10   29.82   19.21
   2  -7  10  -10.83   12.55
   2   7  10  -24.65   23.55
  -2   7 -10   -0.03    7.01
  -2   7 -10  -18.63   16.44
  -2  -7 -10   11.57   15.45
  -2  -7 -10  -11.89   12.95
  -2   8   7   19.54   18.85
  -2  -8   7   30.48   20.73
   2   8  -7    9.54   13.08
  -2  -8   7   19.24   17.52
  -2   8   7   14.06   15.53
  -2   8   7   22.65   15.91
  -2  -8   7    6.47   10.76
   2   8  -7   38.07   20.97
  -2   8   7   13.96   17.56
   2  -8  -7    5.75   10.41
  -2   8   6   55.62   31.58
  -2   8   6   92.36   43.45
  -2   8   6   77.78   35.92
   2   8  -6   84.76   38.60
  -2   8   6   78.92   30.39
  -2  -8   6   66.72   36.76
  -2  -8   6   64.89   30.67
   2   8  -6   69.22   31.83
   2  -8  -6   69.02   35.43
  -2  -8   6   86.63   35.40
  -2   8   5    8.58    9.69
  -2   8   5   29.26   18.78
  -2   8   5   15.33   17.59
   2   8  -5  -11.56   14.19
  -2  -8   5    8.32   12.09
   2   8  -5   -3.92    7.05
  -2  -8   5    3.71    7.43
   2  -8  -5   23.38   20.26
  -2  -8   5    1.22    3.98
   2   8  -4    5.80   11.41
  -2  -8   4   -1.90    4.69
  -2   8   4   13.36   12.95
   2   8  -4   -8.48   12.08
  -2  -8   4    3.98    8.34
   2  -8  -4    0.17    1.71
  -2   8   4    5.93   10.68
  -2  -8   4   15.14   15.20
  -2   8   4    4.76    9.16
  -2  -8   3   12.95   11.54
  -2  -8   3   22.43   18.77
   2   8  -3   32.62   23.55
  -2   8   3   53.31   27.17
   2   8  -3   37.20   22.40
  -2  -8   3   58.86   31.92
   2  -8  -3   25.55   20.42
  -2   8   3   49.17   29.40
  -2   8   3   10.75   14.04
  -2  -8   2   51.83   23.25
  -2   8   2   74.23   35.90
   2  -8  -2   38.25   24.51
   2   8  -2   94.36   39.90
  -2   8   2   51.33   26.55
  -2  -8   2   78.86   36.84
  -2  -8   2   18.39   17.23
  -2   8   2   52.58   30.42
   2   8  -2   58.65   28.61
  -2  -8   1    1.76    3.74
   2   8  -1   10.43   12.32
   2   8  -1   -8.45   11.95
  -2   8   1  -10.29   12.14
  -2   8   1   -9.80   13.16
  -2  -8   1    1.65    5.29
  -2  -8   1  -11.16   13.60
   2  -8  -1   -5.56    9.16
  -2   8   1    6.39   10.24
  -2  -8   0   24.52   12.93
   2   8   0   17.96   16.55
  -2  -8   0   23.35   19.96
  -2  -8   0   -2.24    6.17
  -2   8   0   15.44   15.20
  -2   8   0   19.56   16.03
   2   8   0  -10.48   13.30
   2  -8   0    0.89    3.57
  -2   8   0   22.27   18.55
   2  -8   1   11.73   12.73
  -2  -8  -1   -1.03    4.26
  -2   8  -1   -6.53   10.10
  -2  -8  -1    2.63    3.88
  -2  -8  -1   -1.81    5.56
   2   8   1   14.01   14.98
  -2   8  -1    0.52    2.76
   2   8   1   23.92   20.08
  -2   8  -1    7.18   11.33
   2  -8   2    2.25    5.52
  -2  -8  -2   15.38    8.45
   2  -8   2   15.60   14.31
  -2  -8  -2    5.75    9.95
  -2   8  -2   12.67   14.36
  -2  -8  -2    6.44   10.78
   2   8   2   23.13   19.73
  -2   8  -2   -5.77   14.27
   2   8   2    8.81   12.19
  -2   8  -2    9.70   13.19
   2  -8   3  -22.52   16.75
   2   8   3  -27.60   22.21
  -2  -8  -3   -3.00    7.21
   2  -8   3   -7.39   10.10
  -2   8  -3   -3.93    8.15
  -2   8  -3  -24.41   20.96
  -2   8  -3    6.01    7.75
  -2  -8  -3    2.43    6.72
  -2   8  -3  -19.54   15.57
   2   8   3   -2.11    5.98
  -2  -8  -4   60.19   33.98
   2  -8   4   -2.35    6.12
   2  -8   4   16.09   13.76
  -2   8  -4   11.38   10.89
   2  -8   4    9.46   11.56
  -2  -8  -4   50.41   29.63
  -2   8  -4   18.85   18.18
   2   8   4    3.03    7.55
  -2   8  -4    6.01    8.26
   2   8   4    2.44    6.47
  -2   8  -4   -1.09    4.44
  -2   8  -5   33.92   18.58
  -2  -8  -5   -1.57    5.58
  -2   8  -5   14.65   12.73
  -2  -8  -5   40.26   26.60
   2  -8   5   29.69   20.88
  -2   8  -5   35.32   25.35
   2  -8   5   14.58   15.34
   2   8   5   41.69   28.69
   2  -8   5   15.63   13.11
   2   8   5   18.88   18.02
  -2   8  -5   10.56   13.74
   2  -8   6    5.42    9.00
  -2  -8  -6   15.79   17.93
  -2   8  -6   32.04   24.55
   2  -8   6    7.62   11.16
  -2   8  -6    3.58    7.96
   2   8   6   23.43   20.15
   2   8   6   11.54   15.47
  -2  -8  -6   -6.15   10.41
  -2   8  -6   21.46   13.84
  -2   8  -6   24.38   16.91
   2  -8   6   28.99   17.20
   2   8   7   95.73   50.33
  -2   8  -7   51.09   29.88
  -2  -8  -7   53.77   21.40
  -2  -8  -7   72.60   39.07
   2  -8   7   54.26   28.94
  -2   8  -7   61.12   27.64
  -2   8  -7   95.15   42.88
   2   8   7   60.06   32.35
   2  -8   7   55.94   22.86
   2  -8   7   45.43   28.67
  -2   8  -7   62.95   21.61
  -2  -8  -7   76.45   37.74
   2  -8   7   61.79   31.92
  -3   0  17   31.46   26.49
   3   0 -17    4.79   10.92
   3   0 -17   -0.40    2.31
  -3   0  17    5.44   10.57
  -3   0  16   -7.10   12.21
  -3   0  16  -10.65   14.36
   3   0 -16   15.57   19.07
   3   0 -16   -3.41    6.72
   3   0 -15   29.48   25.35
   3   0 -15   36.89   21.72
  -3   0  15   39.37   27.85
  -3   0  15   38.95   26.66
   3   0 -14    0.03    8.77
  -3   0  14    3.63    8.20
  -3   0  14   -9.26   12.62
  -3   0  13   65.01   36.14
  -3   0  13   87.37   39.39
   3   0 -13   40.04   27.44
   3   0 -13   54.77   25.79
  -3   0  12    4.99    8.97
   3   0 -12    6.58    5.83
   3   0 -12   -0.86    3.84
   3   0 -12   -7.81    9.40
  -3   0  12    1.52    4.82
  -3   0  11  192.83   54.61
   3   0 -11  160.05   26.99
   3   0 -11  138.63   51.36
   3   0 -11  136.45   39.30
  -3   0  11  136.10   45.32
  -3   0  10  -20.80   16.96
   3   0 -10    2.87    4.76
   3   0 -10   -2.38    5.90
   3   0 -10   -1.43    3.82
  -3   0  10   -2.73    6.07
  -3   0   9   51.26   26.68
   3   0  -9   46.43   12.02
   3   0  -9   38.93   19.75
  -3   0   9   61.46   14.71
  -3   0   9   46.11   24.17
  -3   0   8   -0.22    1.60
  -3   0   8    0.08    0.94
   3   0  -8    1.25    1.84
   3   0  -8    2.95    5.20
  -3   0   8    0.30    0.92
  -3   0   7  110.12   35.93
   3   0  -7  128.03   17.25
  -3   0   7  103.73   35.44
  -3   0   7  117.14   16.93
   3   0  -7  110.10   31.40
  -3   0   6   15.26   12.28
   3   0  -6   -0.41    0.87
  -3   0   6   -2.16    2.11
   3   0  -6   -1.44    3.46
  -3   0   6   -6.25    8.00
  -3   0   5    9.72    8.42
  -3   0   5    8.59    7.77
  -3   0   5    2.50    2.28
   3   0  -5    3.30    5.09
  -3   0   4    9.34    8.88
   3   0  -4   -2.33    4.17
   3   0  -4    2.06    1.85
  -3   0   4   -3.12    5.25
  -3   0   3  108.01   30.80
  -3   0   3  127.33   33.21
   3   0  -3   77.46   12.02
   3   0  -3   59.79   22.45
   3   0  -2    0.30    1.52
  -3   0   2   -0.89    2.63
   3   0  -2   -2.01    1.71
  -3   0   2  -11.30    9.53
   3   0  -2   -3.28    5.90
  -3   0   1  171.87   25.73
   3   0  -1  185.46   23.54
  -3   0   1  197.35   39.90
   3   0  -1  199.50   39.75
   3   0  -1  185.05   36.38
  -3   0   1  199.55   40.23
  -3   0   0   -4.88    6.23
   3   0   0  -15.34   10.53
   3   0   0   -7.50    7.12
  -3   0   0   -3.87    3.69
   3   0   0    4.61    3.69
  -3   0   0   -1.84    7.18
   3   0   0    0.14    5.29
   3   0   1   71.55   22.98
   3   0   1  107.34   28.93
  -3   0  -1  105.79   29.94
  -3   0  -1  104.32   21.80
   3   0   1  117.22   22.13
   3   0   1   89.67   25.11
  -3   0  -1   91.30   24.51
  -3   0  -2   -8.13    8.24
  -3   0  -2   -0.30    4.36
   3   0   2  -11.22    8.70
   3   0   2    0.32    6.10
   3   0   2   -3.49    5.60
  -3   0  -2   -1.59    3.19
   3   0   2   -8.73    6.44
   3   0   3 2227.22  127.79
   3   0   3 2410.69  115.95
  -3   0  -3 2322.80  111.64
  -3   0  -3 2472.36  125.73
   3   0   3 2290.37  133.45
  -3   0  -3 2430.13  149.22
  -3   0  -4   -1.11    5.44
   3   0   4    6.18    6.13
   3   0   4   -0.44    2.11
  -3   0  -4    2.85    4.12
  -3   0  -4    0.05    4.82
   3   0   4  -15.11   10.29
   3   0   5   62.80   23.21
   3   0   5   60.93   23.02
  -3   0  -5   73.34   21.87
  -3   0  -5   91.40   30.67
   3   0   5   76.67   23.19
  -3   0  -5  116.89   35.68
  -3   0  -6   -0.27   10.29
   3   0   6   -3.14    5.09
  -3   0  -6  -13.84   11.86
  -3   0  -6    6.47    6.28
   3   0   6    4.44    6.69
  -3   0  -7  278.08   43.64
   3   0   7  266.73   47.38
   3   0   7  236.50   45.57
  -3   0  -7  328.26   46.16
  -3   0  -7  305.71   63.06
  -3   0  -8   -1.13    1.39
  -3   0  -8    9.29   11.19
  -3   0  -8    8.78    7.51
   3   0   8    3.08    6.83
  -3   0  -8    8.07    8.62
   3   0   8    0.59    2.31
   3   0   9  335.51   57.56
   3   0   9  316.86   56.68
  -3   0  -9  298.56   46.35
  -3   0  -9  320.13   50.50
  -3   0  -9  349.25   72.61
   3   0  10   -1.89    4.50
  -3   0 -10   18.15   11.44
  -3   0 -10   -6.02    6.71
   3   0  10    7.59    8.69
  -3   0 -10    0.86    3.63
  -3   0 -11   -5.12    6.18
   3   0  11   12.44   12.02
  -3   0 -11    8.92    8.35
   3   0  11    6.99    8.56
  -3   0 -11   12.40   14.33
  -3   0 -12   -9.38    8.42
   3   0  12    2.95    6.07
  -3   0 -12   -3.61    5.52
   3   0  12    8.24    9.56
  -3   0 -12  -10.41   13.57
  -3   0 -13   20.16   12.49
   3   0  13   28.90   19.78
  -3   0 -13   46.92   30.32
  -3   0 -13   23.78   15.52
   3   0  13   20.83   15.63
  -3   0 -14   -9.88    8.91
   3   0  14   -2.47    5.99
  -3   0 -14   -8.26    8.88
   3   0  14  -13.58   12.97
  -3   0 -14   13.77   16.61
  -3   0 -15   -4.96    6.45
   3   0  15    3.58    7.50
  -3   0 -15   -5.48    7.40
   3   0  15   12.03   12.54
  -3   0 -15  -24.14   22.67
   3   0  16   -3.76    7.94
   3   0  16   18.34   15.88
  -3   0 -16   -5.41    7.50
  -3   0 -16   10.83    9.67
  -3   0 -16  -23.87   23.22
   3   0  17   14.77   14.61
   3   0  17    7.85   11.89
  -3   0 -17    1.49    4.03
  -3   0 -17   -3.98    5.91
  -3   0 -17   10.33   15.74
  -3  -1  17  -16.20   12.84
  -3   1  17   20.84   21.84
  -3  -1  17   -8.31   13.52
  -3  -1  17  -14.58   17.77
   3   1 -17    1.16    5.33
   3  -1 -17    2.71    6.34
   3  -1 -17   31.64   28.29
   3   1 -17  -10.18   11.67
  -3   1  17   22.27   20.88
  -3   1  16   -2.11    6.74
  -3  -1  16   38.45   28.20
   3  -1 -16   21.94   17.77
   3   1 -16   18.02   20.37
   3  -1 -16   13.52   17.91
   3   1 -16   -4.36    7.51
  -3  -1  16   13.68   11.29
  -3  -1  16   18.26   19.32
  -3   1  16   26.11   21.94
  -3  -1  15   29.56   23.92
   3  -1 -15    1.55    2.08
   3   1 -15   -4.11    9.40
   3  -1 -15   22.33   22.24
   3   1 -15    4.09    7.15
  -3  -1  15   13.63   10.72
  -3   1  15   28.25   27.95
  -3  -1  15   30.32   24.19
  -3   1  15    4.18    8.53
  -3  -1  14   75.44   37.04
  -3   1  14   44.54   28.09
   3  -1 -14   49.69   25.73
   3   1 -14   66.50   36.43
   3  -1 -14  103.02   46.08
  -3  -1  14   56.05   21.56
   3   1 -14   78.26   30.74
  -3  -1  14   44.64   28.50
  -3   1  14   65.64   32.78
  -3  -1  13  116.20   45.56
  -3   1  13  197.43   56.37
  -3   1  13  171.40   57.43
   3  -1 -13  165.38   47.28
   3   1 -13  119.76   49.52
   3  -1 -13  160.10   57.32
  -3  -1  13  149.67   33.26
  -3  -1  13  124.59   29.56
  -3  -1  13  154.44   53.01
   3   1 -13  161.10   44.46
  -3   1  12   82.28   36.84
  -3  -1  12   82.58   36.24
   3   1 -12   77.62   19.78
   3  -1 -12   97.96   34.46
   3   1 -12   93.51   40.56
   3  -1 -12   92.54   42.08
  -3  -1  12   71.77   20.94
   3  -1 -12   98.75   22.26
  -3  -1  12   74.14   22.00
   3   1 -12   67.22   27.33
  -3   1  12   77.16   37.03
  -3  -1  12   47.35   33.38
  -3   1  11   59.71   29.71
  -3  -1  11   78.95   37.54
  -3  -1  11  145.31   46.30
  -3   1  11  114.32   42.50
   3   1 -11   70.82   17.63
   3  -1 -11   95.52   33.83
   3   1 -11   78.13   37.90
   3  -1 -11   85.87   40.17
   3  -1 -11   71.09   17.47
  -3  -1  11   95.28   21.64
  -3  -1  11  106.63   25.25
   3   1 -11   79.45   29.94
  -3   1  10   15.68   14.14
  -3  -1  10   18.70   15.90
  -3   1  10   12.65   13.36
   3   1 -10    6.91    4.90
   3  -1 -10    4.44    6.99
   3   1 -10   -7.34   10.21
   3  -1 -10   11.89    8.26
   3  -1 -10   10.46    6.12
  -3  -1  10    2.55    3.69
  -3  -1  10    0.97   10.07
   3   1 -10   19.53   14.04
  -3   1   9  148.57   43.75
   3   1  -9   90.75   16.22
  -3  -1   9   98.99   36.54
   3  -1  -9  120.98   36.52
  -3  -1   9  113.18   40.59
   3  -1  -9   91.78   16.20
   3  -1  -9  115.16   25.25
  -3  -1   9   98.91   22.65
   3   1  -9  104.27   32.16
  -3   1   9  130.11   40.99
  -3  -1   8  123.37   42.45
  -3   1   8  117.33   37.42
   3   1  -8  160.45   38.52
  -3   1   8  128.49   39.34
   3   1  -8  107.95   15.45
   3  -1  -8  147.10   27.64
  -3  -1   8  121.82   24.63
  -3  -1   8  122.61   38.57
   3  -1  -8  144.59   38.63
  -3  -1   7    8.58    9.48
   3  -1  -7    0.29    4.93
  -3  -1   7   10.64   10.49
  -3  -1   7   -7.74    5.93
  -3   1   7    7.45    6.74
   3   1  -7   -5.48    6.91
  -3   1   7   -1.70    4.17
  -3   1   6   94.19   30.72
  -3   1   6   90.02   31.16
  -3  -1   6   78.76   28.07
   3   1  -6   60.69   23.19
   3  -1  -6   74.01   25.62
  -3  -1   6   89.84   33.41
  -3   1   5   23.33   15.76
  -3  -1   5   20.73   13.41
  -3   1   5   14.57   13.71
   3  -1  -5   19.50   14.69
   3   1  -5    9.42    7.39
  -3  -1   5   17.77   13.47
  -3  -1   4   10.41   11.37
   3   1  -4    0.48    1.95
  -3   1   4   10.62    8.88
  -3  -1   4   26.55   13.96
  -3   1   4    8.32    9.02
   3  -1  -4   20.86   12.68
   3  -1  -3  493.40   60.82
   3   1  -3  528.00   61.14
  -3   1   3  517.46   69.63
   3   1  -3  557.98   66.67
  -3  -1   3  448.64   57.83
  -3  -1   3  507.06   68.45
  -3   1   3  530.94   66.38
   3  -1  -2  461.95   56.60
   3   1  -2  492.26   57.49
  -3   1   2  424.61   63.33
   3   1  -2  436.79   58.84
   3  -1  -2  423.46   45.48
  -3  -1   2  405.50   27.25
   3   1  -2  418.98   28.61
  -3   1   2  431.14   26.31
  -3   1   2  479.21   62.28
  -3  -1   2  417.14   54.40
   3   1  -2  439.51   59.24
  -3  -1   2  456.80   62.41
  -3   1   1  -15.06   10.91
  -3  -1   1    2.19    3.33
  -3  -1   1   -8.83    7.53
  -3   1   1    2.66    3.84
  -3   1   1    1.17    3.31
   3  -1  -1    5.15    4.36
   3   1  -1    0.59    1.90
  -3  -1   1    3.63    3.50
   3   1  -1    6.44    4.01
   3   1  -1   -0.02    6.63
   3  -1  -1    7.42    6.40
   3   1  -1    1.65    4.76
   3   1   0  893.83   74.87
  -3  -1   0  720.75   67.64
  -3   1   0  745.50   81.03
   3  -1   0  778.75   70.62
   3   1   0  686.51   73.63
   3  -1   0  734.05   59.00
  -3  -1   0  703.17   47.59
   3   1   0  750.65   49.76
  -3   1   0  732.55   47.22
   3   1   0  632.87   71.84
  -3   1   0  726.76   65.26
  -3  -1   0  742.85   78.15
  -3   1   0  719.10   79.05
  -3   1  -1 1509.33   92.51
   3   1   1 1591.19  114.38
  -3   1  -1 1637.11  118.15
  -3   1  -1 1555.54   94.49
   3  -1   1 1569.87   90.43
  -3  -1  -1 1490.15   76.18
   3   1   1 1588.51   78.76
  -3   1  -1 1529.26   75.51
   3   1   1 1671.98  100.40
   3   1   1 1540.67  114.79
   3  -1   1 1442.09   97.15
  -3  -1  -1 1648.95  116.33
  -3   1  -2  914.47   69.51
   3   1   2  843.38   71.39
   3  -1   2  819.30   70.95
  -3   1  -2  850.46   71.82
   3  -1   2  767.55   66.61
  -3  -1  -2  805.87   60.88
   3   1   2  811.93   61.30
   3   1   2  845.76   83.35
   3  -1   2  815.86   74.94
   3   1   2  802.88   82.46
  -3   1  -2  786.65   59.41
  -3  -1  -2  859.85   85.04
  -3   1  -2  885.48   88.66
  -3   1  -3   78.30   27.42
  -3   1  -3   66.34   18.20
   3   1   3   53.74   22.18
   3  -1   3   75.31   21.75
  -3  -1  -3   72.60   19.15
   3   1   3   88.26   22.16
   3  -1   3   70.40   21.24
   3  -1   3   73.38   22.67
  -3  -1  -3   72.71   17.64
  -3   1  -3   52.02   16.71
   3   1   3   80.65   28.93
  -3  -1  -3   86.67   27.66
  -3   1  -3  103.33   27.34
  -3  -1  -4    0.62    6.07
   3  -1   4    1.17    3.74
  -3   1  -4    6.15   10.24
   3  -1   4   13.24    8.73
   3   1   4    4.15    5.45
  -3   1  -4    0.29    2.79
   3   1   4  -10.45    9.51
  -3   1  -4   -7.35    7.23
  -3  -1  -4    6.04    7.59
   3  -1   4    2.01    3.38
   3   1   4    3.76    4.12
  -3  -1  -4    5.50    4.61
  -3   1  -5   53.04   17.34
   3   1   5   44.78   20.83
  -3  -1  -5   55.69   13.90
  -3  -1  -5   54.72   23.59
   3  -1   5   61.69   21.08
  -3   1  -5   35.67   18.85
  -3  -1  -5   75.72   29.15
   3   1   5   60.27   20.78
  -3   1  -5   49.82   27.25
   3  -1   5   56.64   20.70
   3  -1   5   42.58   15.63
  -3  -1  -6   16.94    7.04
   3  -1   6   10.73    8.77
  -3   1  -6   19.51    9.62
  -3   1  -6   32.75   19.73
  -3  -1  -6   36.14   20.07
  -3  -1  -6   19.75   14.90
   3   1   6   27.58   14.65
  -3   1  -6   37.39   16.75
   3   1   6   46.11   21.08
   3  -1   6   20.29   12.11
   3  -1   6   21.59   12.54
   3  -1   7    6.29    6.17
  -3   1  -7  -10.38   11.59
  -3  -1  -7   -9.57   10.75
   3   1   7    0.17    1.19
  -3   1  -7    0.11    0.71
   3  -1   7   -0.21    5.07
  -3  -1  -7    5.04    3.88
  -3   1  -7    1.93    1.65
  -3  -1  -7    0.03    0.54
   3   1   7   -5.60    7.45
  -3   1  -8   34.41   10.16
   3   1   8   39.93   20.97
   3  -1   8   19.53   12.95
   3   1   8   37.68   18.55
  -3   1  -8   28.99   14.80
  -3  -1  -8   34.00   13.22
  -3   1  -8   40.83   14.96
  -3  -1  -8   43.31   19.70
   3  -1   8   34.56   16.28
  -3   1  -8   29.53   20.23
  -3  -1  -8   39.26   22.56
  -3   1  -8   27.15    8.02
  -3  -1  -8   36.82   10.38
  -3   1  -9  155.26   28.07
  -3   1  -9  165.44   51.20
   3  -1   9  122.78   31.15
   3  -1   9  118.99   35.03
   3   1   9  122.09   35.25
  -3  -1  -9   90.54   14.38
  -3   1  -9  102.57   15.09
  -3  -1  -9  119.31   25.96
  -3   1  -9  121.28   31.89
  -3   1  -9  141.01   29.20
  -3  -1  -9  117.66   33.67
  -3  -1  -9  156.61   47.73
  -3  -1  -9   95.22   14.92
  -3   1  -9   96.04   15.50
   3   1   9  116.95   36.44
  -3   1 -10   17.93    9.81
   3  -1  10   11.73    9.91
   3   1  10    5.07    7.69
   3  -1  10    4.99    5.34
   3   1  10   11.29   12.81
  -3   1 -10    3.39    5.44
  -3  -1 -10    4.34    5.01
  -3   1 -10   24.74   11.75
  -3  -1 -10   18.43   13.17
  -3   1 -10   15.50   15.68
  -3  -1 -10   -3.69    7.43
  -3  -1 -11   38.47   27.04
  -3   1 -11   42.72   16.53
   3  -1  11   48.58   23.38
   3  -1  11   41.36   19.62
  -3  -1 -11   46.06   18.18
  -3   1 -11   77.24   27.98
  -3   1 -11   53.42   17.02
  -3  -1 -11   50.44   23.59
   3   1  11   52.97   26.06
  -3   1 -11   62.01   33.65
   3   1  11   49.30   24.57
  -3   1 -12   36.27   14.08
  -3  -1 -12   37.11   25.52
   3  -1  12   49.79   25.68
   3   1  12   41.97   23.30
  -3  -1 -12   59.38   20.04
  -3   1 -12   53.85   23.71
  -3   1 -12   45.43   16.74
  -3  -1 -12   68.29   25.66
   3  -1  12   51.90   21.91
   3   1  12   38.98   25.30
  -3   1 -12   58.90   34.79
  -3   1 -13  203.75   39.58
   3   1  13  245.38   59.14
   3  -1  13  242.11   49.46
  -3  -1 -13  296.86   46.75
  -3   1 -13  287.11   56.48
  -3  -1 -13  297.30   56.03
  -3   1 -13  228.89   37.55
   3   1  13  271.04   61.66
  -3   1 -13  300.76   77.13
   3  -1  13  209.30   54.39
  -3  -1 -13  291.12   73.91
  -3   1 -14    7.04   11.97
  -3  -1 -14    7.10    8.48
   3  -1  14    4.76    8.29
   3   1  14    3.44    7.20
  -3  -1 -14    6.26    6.88
  -3   1 -14    3.15    5.96
   3  -1  14   -2.41    4.98
   3   1  14    7.85   15.39
  -3   1 -14   -4.58    5.15
  -3  -1 -14   12.65   15.74
   3  -1  15   16.17   13.28
   3  -1  15   22.62   18.74
   3   1  15   27.36   21.05
  -3  -1 -15   17.85   11.79
  -3   1 -15    9.46   10.59
  -3   1 -15   22.52   22.05
  -3  -1 -15   26.09   16.53
  -3   1 -15   35.36   14.35
   3   1  15   12.46   13.74
  -3  -1 -15   14.92   17.64
   3   1  16    3.28    7.23
   3  -1  16  -10.35   13.09
   3   1  16   12.14   16.22
   3  -1  16    8.89   10.11
  -3  -1 -16   -3.04    4.95
  -3   1 -16   -1.24    3.92
  -3  -1 -16  -12.21   11.51
  -3   1 -16    4.99    5.34
  -3   1 -16    6.15   11.86
  -3  -1 -16  -20.75   21.48
  -3  -2  16   82.17   42.67
   3  -2 -16  150.13   49.41
  -3   2  16  126.52   52.80
   3   2 -16  140.81   58.38
   3  -2 -16  173.40   64.61
  -3  -2  16  106.11   30.31
  -3  -2  16  105.41   32.95
   3   2 -16  127.86   40.37
  -3  -2  16  120.53   56.24
  -3   2  16  108.52   47.70
  -3  -2  15   17.36   18.24
   3  -2 -15   14.06   14.82
   3   2 -15    4.44    9.70
   3  -2 -15   14.73   18.20
  -3  -2  15   18.91   12.13
  -3  -2  15    8.08    8.84
   3   2 -15   18.72   15.39
  -3  -2  15   10.98   15.01
  -3   2  15    7.59   11.25
  -3   2  14  -19.81   17.64
  -3   2  14   -1.57    5.50
   3  -2 -14   13.44   14.60
  -3  -2  14   -8.89   12.62
   3   2 -14   -2.28    6.71
   3  -2 -14  -10.05   14.54
  -3  -2  14   -7.43    7.16
  -3  -2  14  -10.91    9.97
   3   2 -14    3.36    6.40
  -3  -2  14    4.93    9.76
  -3  -2  13   -0.30    2.25
   3  -2 -13    2.31    5.75
   3   2 -13   14.06   15.98
  -3  -2  13    4.26    5.07
  -3   2  13   13.36   15.47
   3  -2 -13    7.94    6.26
  -3  -2  13    0.49    2.04
   3   2 -13    7.32    9.27
  -3  -2  13   -2.76    7.10
  -3   2  13   19.34   13.96
   3  -2 -13    5.01    9.91
  -3   2  12   27.55   17.79
  -3  -2  12    9.76   12.28
   3   2 -12    0.94    3.25
  -3   2  12   -5.22    9.32
   3   2 -12    8.91    6.97
   3   2 -12   41.28   26.25
   3  -2 -12   20.29   19.18
   3  -2 -12    1.65    4.74
  -3  -2  12    3.03    3.96
   3  -2 -12    4.55    4.42
  -3  -2  12   10.29   13.57
  -3   2  11   19.61   16.80
  -3   2  11   -7.48   10.78
   3  -2 -11   -0.32    2.03
   3   2 -11    2.85    3.69
   3   2 -11   -7.34   10.57
  -3  -2  11    0.52    1.51
  -3  -2  11    5.61    6.58
   3  -2 -11   -7.18    5.10
  -3  -2  11   -0.35    2.25
   3   2 -11    4.55    6.99
  -3  -2  11   11.13   13.44
  -3   2  10   16.15   15.22
   3  -2 -10   21.21   16.17
  -3  -2  10   29.32   20.57
   3   2 -10    1.95    5.18
  -3  -2  10   15.65    7.48
  -3   2  10   17.04   16.69
  -3  -2  10   16.42   10.37
   3  -2 -10   10.33    5.55
   3   2 -10   22.64   16.36
  -3  -2  10   23.89   20.37
   3   2  -9    7.58    8.62
  -3   2   9   -7.24    8.96
  -3   2   9   -3.44    6.75
   3  -2  -9    0.90    3.23
  -3  -2   9    8.31    4.85
  -3  -2   9   -6.86    6.94
   3  -2  -9    4.55    3.25
  -3  -2   9   -4.69    8.21
  -3   2   8   34.65   18.78
   3   2  -8   21.73   14.23
  -3  -2   8   18.75   16.52
   3  -2  -8   13.84   12.30
  -3  -2   8   23.48    6.97
  -3  -2   8   29.20   13.90
   3  -2  -8   17.58    5.45
  -3   2   8    9.08   10.46
  -3  -2   8   30.56   21.97
  -3  -2   7   -3.20    6.36
  -3   2   7   -3.65    5.86
  -3   2   7   -8.75   10.08
   3   2  -7   -2.14    4.42
   3  -2  -7   -7.66    8.86
  -3  -2   7    1.49    1.52
  -3  -2   7    7.59    8.81
  -3  -2   6   24.70   18.50
  -3  -2   6   22.73   14.49
  -3   2   6   43.35   21.65
   3  -2  -6   35.08   18.34
   3   2  -6   36.27   18.96
  -3   2   6   19.81   12.33
  -3  -2   5  419.22   59.74
  -3   2   5  413.21   67.35
   3  -2  -5  369.46   58.65
   3   2  -5  383.11   58.65
  -3  -2   5  417.42   68.52
  -3   2   5  376.69   57.94
  -3  -2   4  111.51   34.44
   3   2  -4  157.66   32.37
  -3  -2   4  143.47   32.56
  -3   2   4  127.21   33.10
  -3   2   4  145.55   39.36
  -3  -2   4  118.38   15.07
   3   2  -4  143.26   35.38
   3  -2  -4  120.64   32.49
   3   2  -4  126.97   33.34
  -3  -2   3  114.64   33.91
   3   2  -3  127.36   27.28
  -3  -2   3  140.55   30.93
  -3  -2   3  120.79   17.61
   3   2  -3  131.75   34.56
   3   2  -3  113.03   31.46
  -3   2   3  147.65   39.90
   3  -2  -3  149.02   15.14
   3  -2  -3  160.92   35.78
  -3   2   3  153.96   35.54
   3   2  -2   58.36   23.30
  -3  -2   2   79.83   26.49
  -3  -2   2   52.36   18.47
  -3   2   2   66.24   23.63
  -3   2   2   38.01   21.05
  -3  -2   2   56.67   13.51
   3  -2  -2   48.36   18.97
   3  -2  -2   54.23   10.75
   3   2  -2   50.25   16.12
   3   2  -2   70.82   24.93
  -3   2   1  228.51   48.76
   3  -2  -1  269.80   27.74
   3  -2  -1  241.13   40.48
  -3  -2   1  286.87   39.22
   3   2  -1  270.55   49.93
  -3  -2   1  283.31   32.21
  -3   2   1  257.20   29.67
   3   2  -1  255.73   49.47
  -3  -2   1  268.00   48.74
  -3   2   1  265.24   48.79
   3   2  -1  265.87   36.03
   3  -2   0  252.67   41.10
   3   2   0  261.29   34.79
   3   2   0  243.28   47.62
   3  -2   0  250.05   44.38
  -3  -2   0  241.13   31.89
  -3   2   0  238.35   29.82
   3  -2   0  303.66   32.59
   3   2   0  243.58   48.52
  -3  -2   0  264.43   36.01
  -3  -2   0  280.96   48.28
  -3   2   0  281.91   49.85
   3  -2   1  130.07   28.26
   3   2   1  118.09   23.48
   3   2   1  130.39   36.22
  -3  -2  -1  103.79   28.83
  -3   2  -1  125.81   26.61
  -3  -2  -1  109.71   23.24
   3  -2   1   93.13   26.98
  -3   2  -1  128.00   35.65
  -3   2  -1  124.51   23.10
   3  -2   1  132.55   23.44
   3   2   1  125.02   34.67
   3   2   2  447.00   45.43
  -3   2  -2  484.76   50.96
   3  -2   2  442.50   59.38
  -3  -2  -2  445.18   49.14
   3   2   2  434.64   49.61
   3   2   2  515.54   71.82
  -3   2  -2  504.56   49.95
   3  -2   2  497.50   49.63
   3   2   2  470.65   69.33
  -3  -2  -2  428.06   59.95
  -3   2  -2  500.34   68.16
   3  -2   2  456.01   51.55
   3  -2   3  549.43   55.21
  -3   2  -3  539.11   50.74
   3   2   3  569.34   77.24
  -3   2  -3  581.53   65.37
   3  -2   3  620.81   69.13
   3   2   3  558.42   59.24
   3  -2   3  567.60   57.06
  -3  -2  -3  544.11   67.99
   3   2   3  555.11   74.74
  -3  -2  -3  524.88   53.96
  -3  -2  -3  525.82   67.49
  -3   2  -3  605.32   77.04
   3  -2   4   34.19   13.05
  -3  -2  -4   33.78   17.64
   3  -2   4   23.13   13.58
  -3  -2  -4   32.91   17.14
  -3   2  -4   28.26   16.34
  -3   2  -4   49.66   14.30
   3   2   4   42.86   17.50
  -3   2  -4   32.54   16.10
   3   2   4    6.01    7.77
  -3  -2  -4   38.45   14.01
  -3   2  -5   46.27   17.74
   3  -2   5   64.75   23.79
  -3  -2  -5   47.25   20.27
   3   2   5   44.38   18.20
   3  -2   5   44.46   14.38
   3   2   5   25.69   16.39
  -3   2  -5   77.26   25.93
  -3  -2  -5   60.79   24.09
  -3   2  -5   56.76   27.31
  -3  -2  -5   38.71   19.34
  -3   2  -5   51.04   14.03
  -3  -2  -5   46.36   15.22
   3  -2   6   61.23   19.91
   3  -2   6   57.54   16.34
   3  -2   6   57.48   23.40
  -3   2  -6   70.65   22.06
  -3  -2  -6   80.81   28.77
   3   2   6   64.82   23.22
  -3   2  -6   66.56   15.61
  -3   2  -6   71.33   18.10
  -3   2  -6   72.52   24.01
  -3  -2  -6   94.27   32.78
  -3   2  -6   62.49   28.23
   3   2   6   80.40   30.32
  -3  -2  -6   63.72   26.85
  -3  -2  -6   92.44   21.43
  -3   2  -6   68.76   17.25
  -3   2  -7   65.40   17.55
   3   2   7   56.49   26.68
   3  -2   7   75.44   26.17
  -3  -2  -7   60.61   26.28
   3   2   7   65.47   24.63
  -3  -2  -7   71.20   18.64
   3  -2   7   60.41   19.59
  -3   2  -7   63.44   23.68
  -3   2  -7   67.15   22.94
  -3   2  -7   53.39   13.27
  -3  -2  -7   75.64   27.69
   3  -2   7   82.03   19.42
  -3   2  -7   87.94   34.54
  -3  -2  -7   89.99   33.83
  -3   2  -7   73.91   18.59
  -3  -2  -7   46.44   16.47
  -3   2  -8   36.58   16.45
  -3   2  -8   46.48   27.85
   3   2   8   36.58   21.00
   3  -2   8   51.17   22.83
  -3   2  -8   48.38   12.43
   3   2   8   51.20   22.38
  -3  -2  -8   49.88   15.33
  -3   2  -8   41.74   20.78
  -3  -2  -8   27.15   16.61
   3  -2   8   41.37   17.80
  -3   2  -8   54.34   15.17
  -3   2  -8   45.11   14.60
  -3  -2  -8   41.31   23.36
  -3  -2  -8   60.68   17.45
  -3   2  -9    5.20    4.64
   3  -2   9   14.27   12.43
  -3  -2  -9  -13.20   13.27
   3   2   9    6.48    3.33
  -3  -2  -9   15.17    8.00
  -3   2  -9   -0.48    2.16
  -3  -2  -9    2.14    2.95
   3  -2   9    8.64    7.64
  -3   2  -9   15.93    8.07
  -3  -2  -9    5.56    4.80
  -3   2  -9   13.68   15.57
  -3  -2  -9    4.49    7.05
   3   2   9   22.86   17.04
  -3   2  -9   14.68   10.75
  -3   2  -9   11.22    5.98
  -3  -2 -10   74.93   16.50
  -3   2 -10   71.89   16.14
   3  -2  10   62.66   27.30
   3  -2  10   62.03   21.32
   3   2  10   56.83   26.30
  -3   2 -10   84.30   18.23
  -3   2 -10   91.41   30.93
  -3  -2 -10   71.73   17.48
  -3  -2 -10   62.34   31.07
  -3  -2 -10  105.06   35.22
  -3   2 -10   76.04   17.48
  -3  -2 -10   65.18   14.73
   3   2  10   65.43   29.83
  -3   2 -10  109.63   41.93
  -3   2 -10   66.32   16.39
  -3   2 -11    0.95    1.78
  -3   2 -11   -3.22    3.30
  -3  -2 -11   14.08   12.78
   3  -2  11    2.69    5.77
   3   2  11    2.68    5.79
  -3   2 -11    7.78    5.26
  -3  -2 -11    5.07    4.88
  -3   2 -11  -12.70   11.75
   3  -2  11   15.41   10.57
   3   2  11   -1.66    4.85
  -3   2 -11   22.29   19.51
  -3  -2 -11   -1.60    4.99
   3  -2  12   12.13    9.56
  -3   2 -12    5.69    3.85
  -3  -2 -12    9.23   12.38
  -3   2 -12   18.29    7.62
  -3  -2 -12   14.54   13.09
   3  -2  12  -11.03   12.05
  -3   2 -12    9.78    5.94
   3   2  12   26.95   19.12
  -3  -2 -12   15.96    8.86
  -3   2 -12   10.95   11.22
   3   2  12   10.33   12.40
  -3   2 -12    3.04    7.43
  -3  -2 -13    1.76    4.61
   3  -2  13   -7.86   10.48
   3   2  13   -8.83   11.35
  -3   2 -13    1.68    1.73
  -3   2 -13   -1.97    2.38
  -3   2 -13   -1.70    5.72
  -3  -2 -13   -2.19    3.31
  -3   2 -13    0.60    2.69
  -3   2 -13   -1.25    2.20
   3  -2  13    4.68    6.09
  -3  -2 -13    2.08    6.07
  -3   2 -14   -8.26   13.01
   3  -2  14    8.29    8.29
   3  -2  14  -19.37   16.99
   3   2  14    8.37   11.46
  -3  -2 -14   -0.89    2.12
  -3   2 -14    1.41    4.25
  -3  -2 -14    3.28    6.36
  -3  -2 -14  -12.43   15.39
  -3   2 -14   -7.29    5.55
   3   2  14  -17.04   16.71
  -3   2 -14   -0.25    0.78
  -3   2 -15    9.99   14.71
   3  -2  15    5.10    9.00
   3   2  15   -1.65    5.26
  -3  -2 -15    7.28    6.18
  -3   2 -15   -8.73   10.84
   3  -2  15   -5.14    6.67
   3   2  15  -22.84   19.80
  -3  -2 -15   -3.69    6.83
  -3   2 -15    4.58    3.06
  -3  -2 -15   32.53   25.74
  -3  -2 -16  -26.33   23.94
   3   2  16   -6.06   10.43
   3  -2  16    3.68    7.86
  -3   2 -16   22.26   17.72
  -3  -2 -16    3.90    7.12
   3   2  16    2.24    6.34
   3  -2  16    2.39    4.66
  -3   2 -16    3.55    9.04
  -3   3  16    5.52    9.73
  -3  -3  16   42.31   29.63
   3   3 -16   21.83   17.02
  -3   3  16   25.27   23.68
   3  -3 -16   25.06   21.51
   3   3 -16    4.58   10.13
  -3  -3  16   14.52   10.92
   3  -3 -16   -0.05   32.16
  -3  -3  16   27.15   17.42
  -3  -3  16   15.47   18.86
  -3   3  15   36.32   24.49
  -3  -3  15   14.47   16.72
   3  -3 -15   19.40   18.55
   3   3 -15   29.36   19.89
   3   3 -15   16.77   18.72
  -3   3  15   28.96   24.59
  -3  -3  15   31.70   15.33
  -3  -3  15   27.71   17.85
   3  -3 -15   21.89   22.40
  -3  -3  15   54.15   34.35
  -3  -3  14   -8.58   12.43
   3   3 -14    3.31    6.39
   3   3 -14   37.46   26.92
  -3  -3  14   11.11    8.59
   3  -3 -14  -12.95   16.66
  -3  -3  14   -5.69    7.88
  -3   3  14   12.70   13.82
  -3   3  14    5.36   10.19
   3  -3 -14   19.37   18.13
  -3  -3  14   -6.13   11.25
  -3   3  13   -0.79    3.34
  -3  -3  13  -10.32   13.12
   3  -3 -13   -4.50    8.54
   3   3 -13    5.93    2.82
  -3   3  13    0.48    2.95
   3   3 -13  -15.49   16.63
  -3  -3  13    4.61    5.23
  -3  -3  13   -7.83    9.05
  -3  -3  13    4.09    8.94
  -3  -3  12    2.20    5.83
   3   3 -12   19.77   13.25
  -3   3  12    0.43    2.35
  -3  -3  12    2.81    3.85
   3   3 -12    6.50   10.30
  -3  -3  12    8.73    9.34
  -3   3  12    9.07   12.33
   3  -3 -12   13.55   14.47
  -3  -3  12  -13.63   15.84
  -3  -3  11    8.96   11.30
  -3   3  11   -8.13   11.30
   3   3 -11    0.98    3.30
  -3  -3  11    2.49    3.44
   3   3 -11    5.61    9.13
  -3   3  11    0.95    3.38
  -3  -3  11   -8.80    9.15
   3  -3 -11    8.96   11.48
  -3  -3  11   10.73   13.65
  -3   3  10   12.71   11.82
  -3  -3  10   -3.27    6.55
   3  -3 -10   23.19   19.53
  -3   3  10   24.90   20.13
   3   3 -10   17.71   13.71
  -3  -3  10    5.53    4.85
   3   3 -10   22.48   17.37
  -3  -3  10   26.93   16.93
  -3  -3  10   15.60   15.96
  -3   3   9   -1.63    4.06
  -3  -3   9    2.55    5.53
   3  -3  -9    9.19   12.08
  -3   3   9    5.07    8.34
  -3  -3   9  -10.03    6.21
   3   3  -9   -8.04    9.10
  -3  -3   9    2.96    5.02
  -3  -3   9   -4.98    8.73
  -3   3   8   77.99   26.92
  -3  -3   8   67.73   28.10
  -3   3   8   51.06   25.79
  -3  -3   8   70.16   16.04
  -3  -3   8   56.21   21.81
   3  -3  -8   52.07   27.28
   3   3  -8   51.53   23.87
  -3  -3   8   71.58   33.54
  -3  -3   7   17.18   13.09
  -3   3   7   19.07   15.20
   3  -3  -7   10.68   14.17
  -3   3   7   24.27   16.41
  -3  -3   7   38.03   19.48
  -3  -3   7   16.60    7.51
   3   3  -7   31.12   17.59
   3  -3  -6  355.86   63.72
  -3  -3   6  314.52   53.74
  -3   3   6  282.88   60.39
   3   3  -6  319.59   57.08
  -3  -3   6  312.03   33.86
  -3  -3   6  313.92   64.17
  -3   3   6  299.10   50.06
  -3  -3   5    6.64    8.75
  -3   3   5    1.47    3.41
   3  -3  -5    0.98    3.15
   3   3  -5   14.30   11.22
  -3  -3   5    0.17    1.20
  -3   3   5  -12.32   12.06
   3   3  -5   -3.92    6.21
  -3  -3   4   25.71   16.31
  -3   3   4    6.25    7.04
  -3   3   4   16.36   13.47
   3   3  -4   -5.02    6.71
   3   3  -4    8.58    9.23
  -3  -3   4    4.33    5.53
   3  -3  -4    8.13    4.88
   3  -3  -4   -1.14    3.28
   3   3  -4   10.78    6.88
  -3  -3   4   19.86   11.54
   3   3  -3  133.07   27.18
  -3  -3   3  120.09   34.79
  -3  -3   3   92.90   23.54
   3  -3  -3   94.81   29.04
  -3   3   3   98.06   28.83
  -3   3   3  110.47   36.20
   3  -3  -3  104.60   18.67
   3   3  -3  133.83   35.36
   3   3  -3  116.78   31.56
   3   3  -3  114.33   33.81
   3  -3  -2   -0.48    1.97
  -3   3   2   21.37   17.69
   3   3  -2   17.99   13.06
   3  -3  -2    5.26    4.34
  -3   3   2    5.64    5.85
   3   3  -2   17.90    8.83
   3   3  -2   -1.00    3.17
   3   3  -2   18.77   15.31
  -3  -3   2    8.42    6.88
  -3  -3   1    2.35    8.97
  -3  -3   1    9.07    6.15
   3   3  -1    0.57    8.24
  -3   3   1    5.15    7.62
   3  -3  -1    4.82    5.98
  -3   3   1    5.52    6.82
   3   3  -1    6.71    9.19
  -3  -3   1   -6.72    5.86
   3  -3  -1    6.96    4.95
   3   3  -1    2.84    3.12
   3   3  -1   -2.11    4.55
  -3  -3   0    4.98    6.42
  -3  -3   0    1.08    1.92
   3   3   0    2.71    4.53
  -3   3   0  -16.12   11.82
   3  -3   0   -0.89    2.46
  -3  -3   0   -7.23    6.42
   3  -3   0    1.82    2.88
   3   3   0   -2.17    2.47
   3   3   0   -5.04    6.13
   3   3   0   -9.91   10.27
   3   3   1   34.08    9.30
  -3  -3  -1   54.92   21.43
   3   3   1   35.03   19.88
   3  -3   1   42.81   20.92
   3   3   1   53.21   24.24
  -3   3  -1   37.31   20.02
   3  -3   1   74.93   21.87
  -3   3  -1   48.57   17.47
   3  -3   1   66.40   18.55
   3   3   1   40.96   17.01
   3   3   2  188.80   23.68
   3  -3   2  226.94   47.84
   3  -3   2  205.54   34.46
  -3  -3  -2  212.87   39.58
   3   3   2  210.31   47.81
  -3  -3  -2  221.54   42.85
   3  -3   2  209.14   35.21
   3   3   2  222.65   40.07
  -3   3  -2  211.88   45.43
   3   3   3   41.64   11.67
  -3  -3  -3   50.83   19.54
  -3  -3  -3   53.48   20.83
   3  -3   3   61.38   25.30
  -3   3  -3   70.28   27.39
   3  -3   3   66.40   18.83
   3  -3   3   61.50   19.47
  -3   3  -3   69.65   24.76
  -3  -3  -3   80.33   28.64
   3   3   3   61.44   26.98
   3   3   3   64.09   20.32
  -3   3  -3   53.43   18.21
  -3   3  -4   -5.37    6.20
  -3   3  -4    8.54    6.50
  -3  -3  -4    1.39    2.84
   3  -3   4    5.85    5.83
   3  -3   4   -6.01    6.48
   3   3   4   -2.98    4.44
  -3   3  -4    7.75    9.24
  -3  -3  -4    0.24    9.53
   3  -3   4   -6.85    5.80
  -3   3  -4   -0.97    2.60
   3   3   4   -6.20    8.42
  -3  -3  -4    1.60    3.74
   3   3   5   63.39   20.75
  -3   3  -5   61.12   20.31
   3  -3   5   62.04   25.28
  -3  -3  -5   70.81   25.85
  -3   3  -5   72.36   23.08
   3  -3   5   61.55   22.70
  -3   3  -5   75.55   28.22
  -3   3  -5   67.29   28.85
  -3  -3  -5   68.32   27.39
  -3   3  -5   51.67   15.09
   3   3   5   33.45   20.56
  -3  -3  -5   84.93   27.37
   3  -3   5   76.32   17.86
   3  -3   6    2.92    3.31
   3  -3   6    7.64   11.89
  -3  -3  -6   -1.76    4.03
  -3  -3  -6   -3.53    4.95
   3  -3   6    2.17    4.25
  -3   3  -6    1.51    3.87
  -3  -3  -6   -0.87    9.11
  -3   3  -6  -10.05   11.21
  -3   3  -6  -10.33    8.34
   3   3   6   -9.26   10.75
  -3  -3  -6    4.15    6.37
   3   3   6   -4.04    4.99
  -3   3  -6    4.74    5.58
  -3   3  -6    3.11    3.46
   3  -3   7   28.28    9.26
  -3  -3  -7   24.39   16.45
   3  -3   7   27.83   18.78
  -3   3  -7   48.39   12.65
  -3   3  -7   37.47   16.25
  -3  -3  -7   24.08   15.95
   3   3   7   42.61   15.91
  -3   3  -7   63.33   20.35
   3   3   7   26.15   15.65
  -3  -3  -7   41.37   16.90
  -3   3  -7   41.37   21.87
   3  -3   7   42.37   18.37
  -3  -3  -7   51.64   25.00
  -3   3  -7   34.30   22.22
   3   3   7   47.00   28.15
   3   3   8  -10.97   12.28
   3  -3   8    7.99   10.29
   3   3   8   -3.77    6.31
  -3   3  -8    3.71    6.36
   3  -3   8   -5.14    7.09
  -3  -3  -8    5.20    5.88
  -3  -3  -8    0.63    2.84
  -3  -3  -8    8.77   10.13
  -3   3  -8   -1.01    2.55
   3   3   8   12.17    8.34
  -3   3  -8   -1.06    2.65
  -3   3  -8  -11.24   12.62
  -3   3  -8    1.59    2.08
  -3  -3  -8   12.32    9.16
  -3  -3  -9    6.85    6.61
   3  -3   9    7.42    5.61
  -3   3  -9   -2.28    5.88
   3   3   9   -2.63    5.47
  -3   3  -9   11.32   10.41
  -3  -3  -9    5.22    8.24
  -3   3  -9    3.79    4.80
  -3  -3  -9   -6.12    4.11
   3  -3   9    4.99    7.28
  -3  -3  -9   -6.71    6.47
  -3   3  -9   -0.76    2.17
   3   3   9   -8.24   10.91
  -3   3  -9   12.16    9.05
  -3   3  -9    0.27    0.76
   3   3   9    0.51    1.66
  -3  -3  -9    8.35   10.32
  -3  -3 -10   -3.17    6.51
  -3  -3 -10   -8.45    7.02
   3  -3  10    0.29    1.92
  -3   3 -10   -3.93    4.87
  -3  -3 -10    0.22    0.76
  -3   3 -10   -8.73   10.22
   3  -3  10    1.97    3.33
  -3   3 -10   -0.59    1.05
   3   3  10   -4.80    7.64
   3   3  10   -5.85    5.53
   3   3  10   -4.30    8.07
  -3   3 -10    0.17    1.08
  -3   3 -10  -12.84   14.38
  -3   3 -10    4.01    2.36
  -3  -3 -10    0.67    1.93
  -3  -3 -10   -7.47   10.16
  -3   3 -10   13.43    9.07
  -3  -3 -11   14.87    8.80
  -3  -3 -11  -10.68    7.39
   3   3  11   -2.62    3.60
   3   3  11   11.08   13.33
  -3   3 -11   12.82   11.44
  -3  -3 -11    6.36    9.34
   3   3  11   -2.88    6.77
   3  -3  11   -4.61    5.17
  -3   3 -11    8.05    7.48
  -3   3 -11   22.41   19.61
   3  -3  11    8.97   11.00
  -3  -3 -11   -5.12    8.73
  -3   3 -11    0.44    1.65
  -3  -3 -12   -9.11   12.11
   3   3  12    5.98    5.28
   3   3  12    4.15    8.32
   3  -3  12   -4.88    8.35
  -3   3 -12  -18.42   15.57
  -3  -3 -12   -9.70   11.67
   3   3  12   12.89   13.38
  -3  -3 -12    0.41    0.94
   3  -3  12   -1.27    2.74
  -3   3 -12   -7.40    7.16
  -3   3 -12  -11.03   14.19
  -3   3 -12    5.60    5.63
   3  -3  13   84.07   35.57
  -3   3 -13   81.97   35.13
   3   3  13   71.09   35.06
  -3   3 -13   67.19   18.34
   3   3  13   53.51   28.37
  -3  -3 -13   73.99   35.84
   3  -3  13   51.74   17.82
  -3  -3 -13  126.13   42.43
  -3   3 -13   60.08   20.64
  -3   3 -13  110.78   48.01
   3   3  13   59.08   16.55
  -3  -3 -14   -0.22    2.06
  -3  -3 -14  -15.49   15.03
  -3   3 -14   23.82   22.10
   3  -3  14    5.66    5.99
   3  -3  14   13.58   14.69
   3   3  14   -5.36    9.29
  -3   3 -14    3.73    7.32
   3   3  14  -14.04   16.10
   3   3  14   11.44   12.73
   3   3  14    2.65    3.19
  -3   3 -14    6.72    5.37
  -3  -3 -15   34.81   26.34
   3   3  15   16.33   15.85
   3   3  15  -14.61   16.82
   3  -3  15   20.10   11.51
   3  -3  15    6.90   10.76
   3   3  15   -4.39    8.69
  -3   3 -15    2.16    5.69
  -3  -3 -15   25.71   19.56
  -3   3 -15   17.02   19.21
  -3   3 -15   25.03    9.59
  -3   4  15   14.98   15.11
  -3  -4  15  -31.75   25.01
   3   4 -15    4.03    9.10
  -3  -4  15   -4.83    6.25
   3   4 -15    7.16    9.57
  -3  -4  15  -13.79   13.49
  -3   4  15   14.71   17.50
   3  -4 -15  -30.47   23.40
  -3  -4  15    3.11    8.50
  -3  -4  14   38.26   26.47
  -3   4  14   17.21   18.34
  -3   4  14   19.13   16.42
   3   4 -14   56.18   32.67
  -3  -4  14   -3.11    4.83
  -3  -4  14   17.72   14.93
   3   4 -14    6.93    9.27
   3  -4 -14   20.19   18.69
  -3  -4  14   22.38   22.16
  -3  -4  13   33.86   23.97
  -3   4  13   27.52   22.40
  -3  -4  13   32.72   14.03
   3   4 -13   62.82   33.13
  -3  -4  13   29.85   24.92
  -3  -4  13   71.77   30.23
   3   4 -13   28.61   18.58
  -3   4  13   36.41   21.75
   3  -4 -13   49.80   29.29
  -3   4  12    3.41    6.37
  -3  -4  12    0.60    3.09
  -3   4  12  -12.89   14.82
  -3  -4  12   -0.65    2.06
   3   4 -12   22.98   19.13
  -3  -4  12    2.57    5.44
   3  -4 -12   15.53   15.74
   3   4 -12   -3.41    6.32
  -3  -4  12    1.76    5.88
  -3   4  11    5.94    8.04
  -3   4  11   39.50   25.12
   3   4 -11    8.39    9.84
  -3  -4  11   22.08   17.93
  -3  -4  11    9.27    7.58
   3   4 -11   -1.00    3.80
  -3  -4  11   10.75   10.84
  -3  -4  11    2.65    7.01
   3  -4 -11   30.55   21.61
  -3   4  10    4.90    6.99
  -3  -4  10  -13.43   13.33
  -3   4  10   14.22   14.69
  -3  -4  10   -4.98    5.39
  -3  -4  10   10.67   10.54
   3   4 -10   25.39   18.13
   3  -4 -10   26.66   18.78
   3   4 -10    8.27    9.69
  -3   4   9   84.14   27.80
  -3   4   9   67.21   32.45
  -3  -4   9   86.09   21.95
  -3  -4   9   84.77   29.88
  -3  -4   9   80.38   30.75
   3  -4  -9  108.72   39.56
   3   4  -9   96.28   33.64
  -3  -4   9   59.09   31.10
   3   4  -8   31.07   18.59
  -3   4   8   36.00   17.53
  -3   4   8   17.20   15.50
  -3  -4   8   30.83   12.71
  -3  -4   8   13.54   11.98
   3  -4  -8   39.72   22.68
  -3  -4   8   20.12   14.85
  -3  -4   7   33.49   21.84
  -3  -4   7   24.97   15.71
  -3   4   7   28.52   15.55
  -3   4   7   28.56   19.67
  -3  -4   7   28.50   12.41
   3   4  -7   32.21   18.89
   3  -4  -7   33.24   19.85
  -3  -4   6    5.83    7.18
  -3  -4   6   -2.47    5.71
  -3   4   6   -1.73    4.79
  -3   4   6    2.85    4.80
   3   4  -6   -6.90    8.08
   3   4  -6    4.60    7.13
   3   4  -6    9.49   10.03
   3  -4  -6    0.17    1.43
  -3  -4   5   75.20   31.56
  -3  -4   5   72.04   24.41
   3   4  -5   68.67   25.90
  -3  -4   5   60.09   20.64
  -3   4   5   83.63   33.22
   3   4  -5   99.55   33.45
  -3   4   5   63.79   22.89
   3   4  -5   54.21   24.27
   3  -4  -5   73.87   29.59
  -3  -4   4   35.57   19.96
  -3  -4   4   29.82   14.03
   3   4  -4   47.01   22.45
  -3   4   4   31.51   15.99
  -3   4   4   30.13   19.78
  -3  -4   4   28.74   13.54
   3   4  -4   45.05   23.10
   3   4  -4   34.90   18.64
   3  -4  -4   43.70   22.21
  -3  -4   3  180.81   32.53
   3   4  -3  196.79   48.12
  -3   4   3  184.97   48.92
   3   4  -3  170.27   43.37
   3  -4  -3  175.50   30.53
   3  -4  -3  227.04   49.12
  -3  -4   3  212.03   34.73
   3   4  -3  162.82   41.28
  -3  -4   3  176.96   44.40
  -3   4   3  193.08   40.47
  -3  -4   2   -3.41    5.69
  -3  -4   2   -5.34    4.85
  -3   4   2   -5.47    8.34
  -3   4   2    2.92    6.78
   3  -4  -2   14.76   11.78
   3   4  -2    9.86   10.73
   3  -4  -2   -4.60    4.98
   3   4  -2   -8.42    9.02
   3   4  -2   -4.66    7.16
  -3  -4   1  101.13   29.85
   3  -4  -1  106.74   31.42
  -3   4   1   93.47   28.74
   3   4  -1   90.19   32.29
   3  -4  -1   93.30   23.14
   3   4  -1  102.84   37.04
  -3  -4   1   82.70   16.33
   3   4  -1   83.03   28.28
   3  -4  -1   96.60   30.40
   3   4   0  453.22   73.33
   3  -4   0  515.07   56.92
   3  -4   0  416.36   58.11
   3   4   0  482.32   67.70
  -3  -4   0  447.75   62.80
  -3   4   0  456.43   64.37
   3  -4   1  109.48   28.72
   3   4   1   94.05   34.40
  -3   4  -1   89.35   27.95
   3  -4   1  115.17   27.69
  -3   4  -1  103.92   28.88
  -3  -4  -1  100.51   33.27
  -3  -4  -1   90.24   22.24
  -3  -4  -1   88.04   26.90
   3   4   1  123.83   34.11
  -3   4  -2   98.18   28.01
  -3  -4  -2  139.73   33.56
   3  -4   2  107.41   26.47
   3   4   2  110.23   36.44
  -3   4  -2  117.11   34.25
   3  -4   2  120.82   29.34
  -3  -4  -2  106.60   26.22
  -3   4  -2  106.01   31.53
  -3  -4  -2   93.47   34.00
   3   4   2  108.37   30.47
   3  -4   3  266.81   39.77
   3  -4   3  236.44   53.28
   3   4   3  264.21   58.73
   3  -4   3  259.14   44.97
  -3   4  -3  300.33   55.24
  -3  -4  -3  218.70   52.02
  -3  -4  -3  247.28   41.32
   3   4   3  297.37   51.71
  -3   4  -3  238.35   45.13
  -3  -4  -3  295.99   50.04
   3   4   4   79.30   12.76
   3   4   4   72.14   12.67
  -3  -4  -4  117.27   31.24
   3  -4   4  102.76   35.25
   3  -4   4  107.88   23.84
  -3  -4  -4  101.42   31.31
   3  -4   4   82.32   26.27
   3   4   4  117.74   32.49
  -3   4  -4   81.82   30.23
  -3  -4  -4   89.97   34.46
  -3   4  -4   74.64   24.95
   3   4   4  125.62   40.31
  -3  -4  -4   81.57   24.66
  -3   4  -4   97.67   24.14
  -3   4  -5   14.46   11.24
   3   4   5   -0.13    0.65
   3   4   5   12.44   10.18
  -3   4  -5    2.55    4.22
   3  -4   5   -2.47    5.48
  -3  -4  -5   -9.07    8.88
  -3  -4  -5   11.90   10.32
   3  -4   5    0.55    2.22
   3  -4   5   -0.11    0.73
  -3   4  -5   -4.76    7.23
  -3   4  -5    9.16   17.82
  -3  -4  -5    3.15    6.37
   3   4   5   -0.44    2.27
  -3   4  -5   -0.71    1.90
  -3  -4  -5    6.88    8.83
   3   4   6    1.84    2.81
   3  -4   6    0.17    3.52
  -3   4  -6   -2.92    4.39
  -3  -4  -6   11.37   10.13
   3  -4   6   -0.06    0.75
  -3  -4  -6    4.53    6.37
   3   4   6   -9.35    8.73
  -3   4  -6  -13.25   12.35
  -3  -4  -6    5.22   11.76
  -3   4  -6   11.21   11.94
  -3   4  -6   11.08    9.83
   3  -4   6   -1.09    2.09
   3   4   6    5.09    8.46
  -3   4  -6    1.66    5.86
  -3  -4  -6    5.34    6.99
  -3   4  -7    8.37    8.48
   3   4   7   -0.65    2.28
   3  -4   7    1.63    2.20
   3  -4   7    2.24    5.52
  -3  -4  -7    9.00    4.83
  -3  -4  -7   15.91   12.22
  -3   4  -7   13.06   13.27
   3   4   7    9.00    6.97
   3  -4   7   -8.77    9.40
  -3   4  -7   -8.24    9.97
  -3   4  -7   11.25    8.43
  -3  -4  -7    1.73    3.92
  -3  -4  -7    9.53   11.52
   3   4   7  -12.14   13.38
  -3   4  -7    3.79    2.92
   3   4   8    5.74    6.69
  -3   4  -8    6.20    4.55
   3  -4   8   -0.03    3.98
  -3   4  -8    2.30    3.76
  -3  -4  -8   14.69   14.60
  -3   4  -8    4.04    5.82
  -3   4  -8  -16.14   14.25
   3  -4   8   -2.77    5.50
  -3  -4  -8  -15.09   11.46
   3   4   8   10.53    8.29
   3   4   8    9.11   11.86
  -3   4  -8    8.89   11.29
  -3  -4  -8   18.94   14.55
   3   4   9    1.51    3.39
   3   4   9   10.84    9.15
  -3  -4  -9   18.01   16.44
  -3   4  -9    3.01    6.77
   3  -4   9   -4.41    7.78
  -3  -4  -9    6.69    7.50
  -3   4  -9  -13.84   10.68
  -3   4  -9    8.80   10.78
   3  -4   9  -16.14   13.70
  -3   4  -9    4.44    3.36
  -3   4  -9   -5.26    5.58
   3   4   9  -16.87   16.50
  -3  -4  -9   16.63   14.25
   3   4  10    7.26    8.00
  -3  -4 -10   -1.81    3.79
  -3   4 -10    3.96    4.74
  -3  -4 -10   27.58   20.65
   3  -4  10   18.21   16.20
  -3   4 -10    4.57    6.13
  -3   4 -10   20.46   16.39
   3  -4  10   19.78   15.68
   3   4  10   -4.98    9.18
  -3   4 -10   12.43   14.17
   3   4  10   20.35   12.38
  -3  -4 -10   -9.07   11.00
   3   4  11   11.68   10.79
  -3  -4 -11   38.44   24.70
   3  -4  11   16.30   15.65
  -3   4 -11   19.73   16.82
   3  -4  11    7.74   10.11
  -3   4 -11   26.14   14.65
   3   4  11   28.55   22.60
  -3   4 -11   10.35    7.48
  -3   4 -11   36.89   25.19
  -3  -4 -11   21.72   12.70
   3   4  11   18.86   11.76
  -3  -4 -11    3.90    7.53
  -3  -4 -12    6.59   10.18
   3   4  12   -0.70    2.81
  -3   4 -12   -3.19    5.07
   3   4  12    1.79    3.57
  -3  -4 -12   21.65   18.77
   3  -4  12   29.37   21.51
  -3   4 -12    1.46    4.66
   3  -4  12   12.38   13.24
  -3   4 -12    4.82    4.96
   3   4  12  -22.41   20.50
  -3   4 -12  -13.92   15.95
  -3  -4 -12    3.99    5.18
   3   4  13   25.73   17.82
   3   4  13    4.14    5.33
   3  -4  13   11.13   10.65
  -3  -4 -13   30.48   22.51
  -3  -4 -13   16.63   16.79
  -3   4 -13    4.66    8.50
   3  -4  13    3.36    7.12
   3   4  13   11.75   15.19
  -3   4 -13    5.53   10.35
  -3   4 -13   10.87    6.12
  -3  -4 -14   28.01   21.81
   3  -4  14   -4.85    9.16
  -3  -4 -14   -6.15   10.59
  -3   4 -14    5.09    9.05
  -3   4 -14   44.94   30.35
   3   4  14   15.23   14.38
   3   4  14   10.62   14.76
   3   4  14    3.47    4.77
  -3   4 -14    9.29    8.24
  -3  -4 -15   13.01   15.98
   3  -4  15   -5.10    9.62
   3   4  15   -9.24   11.70
  -3   4 -15   -9.24   12.44
  -3  -4 -15   17.34   17.33
   3   4  15    5.55   10.91
  -3   4 -15    1.87    3.55
  -3   4 -15    1.19    5.09
  -3   5  13    4.47    7.21
   3   5 -13   18.48   15.28
  -3   5  13    4.95    9.59
  -3  -5  13   32.02   16.61
   3   5 -13  -17.85   17.40
   3  -5 -13   -9.80   13.44
  -3  -5  13  -19.78   16.26
  -3  -5  13    1.25    4.66
  -3  -5  13   -6.04   11.56
  -3   5  12    3.09    5.72
  -3  -5  12  -20.91   17.12
  -3   5  12   10.73   13.74
   3   5 -12   -7.01    9.35
  -3  -5  12    2.74    4.74
   3   5 -12   -2.92    6.71
  -3  -5  12   27.25   18.69
   3  -5 -12   14.03   15.77
  -3  -5  12   -0.76    4.01
  -3  -5  11   -2.96    6.63
  -3   5  11   14.00   11.70
  -3   5  11   -8.18   11.70
   3  -5 -11   14.47   15.69
  -3  -5  11    1.30    3.17
   3   5 -11   -0.03    0.55
   3   5 -11   17.64   15.63
  -3  -5  11   12.30   12.32
  -3  -5  11    3.06    7.77
  -3   5  10    7.51    8.24
  -3  -5  10   13.66   13.62
  -3   5  10    4.93    8.92
  -3  -5  10    6.32    6.86
  -3  -5  10   17.44   14.42
   3   5 -10   38.74   21.89
   3  -5 -10   10.27   12.95
  -3  -5   9   -1.49    4.28
  -3   5   9   16.44   11.89
  -3   5   9   24.76   19.64
  -3  -5   9   33.08   15.61
  -3  -5   9   35.08   20.13
   3  -5  -9   32.38   22.03
   3   5  -9   23.41   17.01
   3   5  -9   34.22   21.30
  -3  -5   9   40.59   26.01
   3   5  -8   29.12   18.99
  -3  -5   8   26.74   13.98
  -3   5   8   31.18   21.72
  -3   5   8   40.15   19.62
   3   5  -8   26.84   18.69
   3  -5  -8   23.00   18.53
  -3  -5   8   33.34   23.25
  -3  -5   7   40.58   24.71
  -3  -5   7   25.87   16.09
  -3   5   7   16.34   15.57
   3   5  -7   27.23   20.72
   3   5  -7   11.59   12.02
  -3   5   7   27.20   15.00
   3   5  -7   21.32   14.73
   3  -5  -7   53.78   27.68
  -3  -5   6   41.93   24.89
  -3  -5   6   47.06   17.77
  -3  -5   6   34.76   17.58
  -3   5   6   24.17   14.12
  -3   5   6   62.06   30.13
   3  -5  -6   63.29   29.40
   3   5  -6   37.65   20.99
   3   5  -6   56.67   26.66
   3   5  -6   46.87   22.51
  -3  -5   5   29.56   19.45
   3   5  -5   18.93   15.87
  -3  -5   5    4.44    5.88
  -3  -5   5   18.37   10.38
  -3   5   5    2.95    9.56
   3   5  -5   39.71   21.10
   3  -5  -5   24.46   19.64
  -3   5   5   35.09   17.36
   3   5  -5   24.70   17.40
  -3  -5   4   16.90   10.62
  -3  -5   4   24.00   11.13
  -3  -5   4   17.63   14.38
  -3   5   4   12.21   13.27
  -3   5   4   38.52   17.52
   3   5  -4   39.60   21.56
  -3   5   4   40.14   19.88
   3   5  -4   17.33   14.42
   3   5  -4   18.97   15.60
   3  -5  -4   39.34   22.02
  -3   5   3   14.09   11.71
  -3  -5   3   -8.75    9.69
  -3   5   3    2.73    4.74
   3   5  -3   18.61   15.55
  -3  -5   3   -7.24    5.79
  -3   5   3   -7.39   10.24
   3   5  -3    4.76    7.61
   3   5  -3  -21.16   15.80
  -3  -5   3    4.72    5.07
   3  -5  -3   11.98   11.78
  -3   5   2   76.66   27.90
  -3  -5   2   88.40   29.77
  -3   5   2   82.36   26.06
  -3  -5   2   66.27   16.58
   3   5  -2  134.69   39.47
  -3  -5   2  103.49   35.51
  -3  -5   2   76.36   17.56
   3   5  -2   89.73   34.29
   3  -5  -2   79.27   30.64
   3  -5  -2  100.69   27.18
   3  -5  -1   58.35   24.82
  -3  -5   1   36.66    9.59
  -3   5   1   71.27   24.97
  -3   5   1   70.55   26.49
   3  -5  -1   69.54   23.40
  -3  -5   1   60.03   23.52
   3   5  -1   75.29   31.85
  -3   5   1   56.68   22.83
  -3  -5   1   32.19   20.53
   3   5  -1   86.88   32.07
  -3  -5   0   37.57   18.02
   3   5   0   66.13   27.22
  -3  -5   0   41.43   13.57
  -3   5   0   59.54   23.67
   3  -5   0   55.81   22.97
   3  -5   0   57.48   21.18
  -3   5   0   48.14   22.94
  -3  -5   0   35.62   20.91
   3   5   0   70.00   31.58
  -3   5   0   60.87   25.03
   3   5   1   92.60   35.43
  -3  -5  -1  115.87   31.67
   3   5   1  108.98   35.11
  -3   5  -1  119.64   34.24
  -3   5  -1  106.52   33.21
   3  -5   1  131.49   34.10
  -3  -5  -1  137.94   38.57
  -3   5  -1  114.45   34.84
  -3  -5  -1  114.35   22.41
  -3  -5  -1  112.37   37.90
   3  -5   1  136.97   36.44
   3  -5   2  144.01   34.11
  -3  -5  -2  128.63   32.27
   3  -5   2  134.29   33.95
   3  -5   2  183.26   40.14
  -3  -5  -2  124.38   37.23
  -3   5  -2  121.53   36.35
  -3   5  -2  148.21   40.33
  -3  -5  -2  148.89   27.37
  -3  -5  -2  129.69   41.13
   3   5   2  134.80   43.23
   3   5   2  138.08   40.34
   3  -5   3   33.89   15.57
  -3   5  -3   38.82   20.77
   3   5   3   48.09   22.59
  -3  -5  -3   50.64   20.70
   3   5   3   44.76   24.97
   3  -5   3   38.76   18.55
  -3  -5  -3   69.95   27.71
  -3   5  -3   38.25   20.83
  -3  -5  -3   39.77   25.11
  -3  -5  -3   41.51   13.89
   3  -5   4   53.96   18.61
   3  -5   4   48.04   25.35
  -3  -5  -4   67.03   21.10
  -3  -5  -4   85.87   27.42
  -3   5  -4   34.13   19.20
  -3  -5  -4   65.48   18.94
   3  -5   4   71.09   26.19
  -3  -5  -4   62.03   26.12
  -3   5  -4  100.83   34.70
   3   5   4   91.86   37.42
  -3  -5  -4   62.06   29.63
   3   5   4   59.66   24.84
   3  -5   5   19.29   16.34
   3  -5   5    9.27    7.09
  -3  -5  -5   17.07   12.05
  -3   5  -5    2.57    5.28
  -3  -5  -5    1.59    2.77
   3  -5   5   -5.93    7.80
  -3  -5  -5   -2.35    4.22
  -3  -5  -5   13.54   12.22
  -3   5  -5    1.74    4.69
  -3   5  -5    8.61   10.30
  -3  -5  -5   19.58   15.65
   3   5   5    6.36    9.80
   3   5   5    8.45    9.37
  -3   5  -6   30.48   18.13
   3   5   6   33.26   22.87
  -3  -5  -6   14.82   10.05
   3  -5   6   13.79    7.99
  -3   5  -6   19.23   10.76
  -3  -5  -6    9.64    6.40
   3  -5   6    2.98    6.51
   3  -5   6   29.17   17.80
  -3   5  -6   20.34   16.31
  -3  -5  -6   21.29   15.33
  -3   5  -6   29.74   19.64
  -3  -5  -6   13.60   14.42
  -3   5  -6   21.16   12.14
   3   5   6   14.55    6.31
   3   5   6    8.12    9.11
  -3  -5  -6   14.85   11.29
  -3   5  -7   45.32   17.06
   3   5   7   45.76   13.43
  -3   5  -7   50.01   26.17
   3  -5   7   49.77   27.25
  -3  -5  -7   32.02   10.87
   3  -5   7   38.77   21.19
  -3   5  -7   64.61   29.91
   3   5   7   42.32   20.70
  -3   5  -7   23.57   15.87
  -3  -5  -7   24.51   16.31
   3  -5   7   26.42    9.83
  -3   5  -7   52.07   16.88
  -3  -5  -7   39.83   27.91
   3   5   7   40.94   25.77
  -3  -5  -7   42.80   20.31
   3   5   8    8.21    6.50
  -3   5  -8   10.57    7.93
   3  -5   8    3.71    2.82
   3  -5   8   11.27   13.00
   3   5   8    9.07   12.47
  -3   5  -8    7.24    5.85
  -3  -5  -8    8.59    4.71
   3  -5   8    2.46    5.48
  -3   5  -8   22.83   16.64
  -3  -5  -8   13.47   14.88
  -3  -5  -8    7.59    9.11
  -3   5  -8   -7.26   10.26
   3   5   8   13.20   11.49
  -3  -5  -8    8.81    9.72
  -3   5  -8   20.67   14.76
   3   5   9   20.00   11.27
  -3   5  -9    1.13    1.98
  -3   5  -9    4.07    4.71
  -3  -5  -9   16.44   13.25
  -3   5  -9    3.88    7.66
   3  -5   9    0.76    3.15
   3  -5   9    4.30    8.12
  -3  -5  -9    4.26    8.53
  -3   5  -9    4.90    8.67
   3   5   9   -1.89    5.85
  -3  -5  -9   -1.28    3.88
   3   5   9   12.76   11.22
  -3   5  -9   -5.71    7.70
   3   5  10    5.29    6.32
   3  -5  10  -10.87   13.19
  -3  -5 -10   -4.12    8.50
  -3   5 -10    8.13   11.30
   3  -5  10    4.63    8.00
  -3   5 -10    6.93    5.74
   3   5  10  -12.09   15.14
  -3   5 -10    2.88    6.86
  -3  -5 -10    2.36    4.93
  -3  -5 -10    3.20    6.45
   3   5  10   15.15   12.16
  -3   5 -10  -14.08   12.08
   3   5  11    7.47    8.12
   3   5  11    7.72   12.38
  -3  -5 -11   -0.60    2.93
   3  -5  11    3.80    7.93
  -3   5 -11    9.08    9.69
  -3   5 -11   -2.06    5.79
   3  -5  11   12.00   13.27
  -3  -5 -11   10.14   13.54
  -3   5 -11   23.70   20.26
  -3  -5 -11   -5.29    7.21
   3   5  11  -10.16    9.88
  -3  -5 -12   32.95   22.56
   3   5  12   43.07   20.83
  -3  -5 -12   22.10   20.27
   3  -5  12   32.69   25.38
  -3   5 -12   32.10   23.25
   3  -5  12   12.71   14.04
   3   5  12   22.62   21.67
  -3   5 -12   74.58   37.01
   3   5  12   42.77   20.12
  -3   5 -12   55.67   23.89
  -3  -5 -12   17.67   12.68
  -3  -5 -13  -10.83   13.46
   3   5  13    8.02    9.54
   3  -5  13    0.59    3.23
   3   5  13    2.39   10.54
  -3   5 -13  -10.72   13.63
  -3  -5 -13    7.99   12.33
   3  -5  13    0.81    3.63
   3   5  13   14.50   11.62
  -3   5 -13  -23.10   15.30
  -3   6  12    1.90    5.42
  -3   6  12   19.42   13.60
   3   6 -12   28.26   19.64
  -3   6  12    6.71   11.18
  -3  -6  12    7.04    8.27
   3   6 -12   31.00   21.32
   3  -6 -12   22.00   20.67
  -3  -6  12    8.84   11.27
  -3  -6  12   20.37   18.47
  -3  -6  12   12.19   16.42
  -3  -6  11   31.12   21.87
  -3   6  11  -18.59   18.24
  -3  -6  11   -6.26    7.69
   3   6 -11  -15.11   14.36
  -3  -6  11    5.55    8.81
   3  -6 -11   10.10   14.90
  -3   6  11   -0.03   12.49
  -3   6  11  -13.92   11.22
   3   6 -11   17.55   16.74
  -3  -6  11  -10.00   14.46
  -3   6  10   -4.12    7.69
  -3  -6  10   -2.06    5.39
  -3   6  10    4.87    6.51
  -3   6  10   13.35   15.20
   3   6 -10    1.66    8.27
  -3  -6  10    1.68    3.95
   3   6 -10   15.47   14.57
   3  -6 -10    1.06    4.36
  -3  -6  10    2.87    6.28
  -3  -6  10    3.15    7.86
   3   6  -9   -2.12    5.42
  -3  -6   9   -9.97   11.30
  -3   6   9    6.12    9.21
  -3   6   9   -6.45    7.42
  -3   6   9   12.73   14.66
  -3  -6   9    2.27    4.57
   3   6  -9    3.84    7.70
   3  -6  -9    0.98    4.12
  -3  -6   9    6.94   11.29
  -3  -6   8    2.08    4.90
  -3   6   8    6.13    9.07
  -3   6   8   10.89    9.57
  -3   6   8   11.05   13.54
   3   6  -8   -0.17    1.38
   3  -6  -8    1.35    4.72
   3   6  -8   12.11   13.55
   3   6  -8   -5.60    8.80
  -3  -6   8    0.38    2.55
  -3  -6   7   10.14   12.65
  -3  -6   7   14.96   12.43
  -3   6   7    1.78    4.79
  -3   6   7   20.07   18.12
   3  -6  -7   37.90   24.54
  -3   6   7   27.14   14.95
   3   6  -7   31.83   19.08
   3   6  -7   20.53   16.91
   3   6  -7   22.68   18.23
  -3  -6   7   58.44   19.43
  -3   6   6    3.01    6.17
  -3  -6   6   25.28   15.19
   3   6  -6   17.23   15.55
   3   6  -6   25.84   17.72
  -3   6   6   18.86   17.52
   3   6  -6   31.05   21.26
  -3   6   6   19.70   12.54
  -3  -6   6   11.79   13.09
  -3  -6   6    7.28    9.42
   3  -6  -6   26.53   20.08
  -3  -6   6   16.53    9.43
  -3   6   5   59.38   27.99
  -3  -6   5   66.46   22.95
  -3   6   5   44.18   26.63
  -3   6   5   84.79   26.39
   3   6  -5   65.64   28.96
  -3  -6   5   52.91   25.66
   3   6  -5   59.41   29.17
   3  -6  -5   47.24   26.42
  -3  -6   5   71.08   32.49
  -3  -6   5   55.21   15.47
  -3   6   4  142.93   41.75
  -3  -6   4  210.82   51.56
  -3  -6   4  147.15   31.77
  -3   6   4  139.92   47.73
   3   6  -4  187.74   52.59
  -3   6   4  159.32   39.22
  -3  -6   4  138.11   21.94
  -3  -6   4  175.90   48.20
   3   6  -4  196.78   52.82
   3  -6  -4  209.12   55.30
  -3   6   4  185.55   38.01
  -3  -6   3    7.53    9.16
  -3   6   3   -0.10    1.09
  -3  -6   3    1.74    3.06
  -3  -6   3   -3.49    2.90
   3  -6  -3    2.12    5.31
   3   6  -3   16.87   15.23
  -3   6   3   12.59    9.81
  -3  -6   3  -10.75   11.98
   3   6  -3   -7.91   10.33
  -3   6   3    7.64    8.58
  -3  -6   3   12.84   12.95
  -3   6   2    9.34   10.62
  -3  -6   2    6.45    8.12
  -3  -6   2    3.44    3.58
   3   6  -2    5.63    8.75
  -3   6   2   -6.91    7.39
   3  -6  -2   -5.79    7.10
  -3  -6   2   -4.01    7.29
  -3   6   2    3.20    5.67
   3   6  -2   -1.24    4.11
  -3  -6   2    7.67   10.14
   3  -6  -2    4.90    7.85
   3   6  -1   12.63   17.58
  -3  -6   1   32.72   17.53
  -3   6   1    3.42    5.33
   3  -6  -1   30.43   16.60
  -3  -6   1   33.13   20.92
  -3   6   1   16.18   14.03
  -3   6   1   22.21   16.74
  -3  -6   1   32.04   21.95
   3  -6  -1   39.47   21.68
   3   6  -1   18.97   15.91
  -3   6   0   11.16   11.71
  -3  -6   0   -2.04    4.25
  -3  -6   0    2.38    2.14
  -3  -6   0   -5.64    3.49
   3  -6   0   -3.38    6.17
   3  -6   0    8.26    8.81
  -3  -6   0    5.34    8.39
  -3   6   0    3.96    6.63
  -3  -6   0  -14.23   14.19
   3   6   0   10.98   12.49
   3   6   0    3.61    6.88
  -3   6  -1   15.95   14.11
  -3  -6  -1   -1.38    3.39
   3  -6   1   -8.80    9.65
   3  -6   1   26.74   16.18
  -3  -6  -1   11.67   12.36
  -3   6  -1  -10.65   11.18
  -3  -6  -1    8.40   11.06
   3   6   1   -2.01    5.41
   3   6   1    8.24   10.32
  -3  -6  -1    2.09    2.39
  -3   6  -2   86.26   33.07
   3   6   2   82.90   36.30
   3  -6   2   96.04   30.97
  -3  -6  -2   89.99   26.55
   3  -6   2   62.71   25.33
  -3  -6  -2   93.68   36.25
  -3   6  -2   67.84   28.94
  -3  -6  -2   71.68   32.38
  -3  -6  -2   86.31   18.24
   3   6   2   74.63   30.45
  -3   6  -3   22.65   15.85
  -3  -6  -3   22.40   13.31
   3  -6   3   31.46   18.61
  -3  -6  -3   17.33   15.06
  -3   6  -3   22.70   17.18
  -3  -6  -3   12.14   13.73
   3   6   3   47.93   27.22
   3  -6   3    8.91    9.04
   3   6   3   12.00   12.35
  -3  -6  -3   34.35   12.71
  -3  -6  -4   -1.71    3.14
  -3   6  -4   -1.98    5.07
   3  -6   4    8.99    8.21
   3  -6   4   -2.04    5.53
  -3  -6  -4   20.73   12.89
   3   6   4    5.90    6.20
   3  -6   4   -0.17    1.20
   3  -6   4    5.94    8.16
  -3   6  -4    8.15   10.57
  -3  -6  -4  -12.02   12.54
  -3  -6  -4   13.19   14.55
   3   6   4   -6.69   10.38
   3   6   4   17.98   15.03
  -3  -6  -5   28.56   13.96
   3   6   5   32.65   23.38
  -3  -6  -5   29.18   22.03
   3  -6   5   39.23   24.51
  -3  -6  -5   29.69   15.58
  -3   6  -5   23.76   17.59
   3  -6   5   26.68   17.71
  -3   6  -5   60.52   30.50
   3  -6   5   29.59   14.00
  -3  -6  -5   45.87   23.65
  -3   6  -5   37.90   21.94
   3   6   5   33.59   15.00
   3   6   5   33.27   20.64
   3   6   6    5.66    6.32
  -3  -6  -6   27.93   21.92
   3  -6   6   17.96   10.10
   3  -6   6   34.21   22.22
  -3  -6  -6   27.79   11.60
   3  -6   6   39.47   21.49
  -3  -6  -6   30.91   13.01
  -3   6  -6   32.78   22.24
  -3  -6  -6    7.93   10.22
   3   6   6   19.24   18.32
  -3  -6  -6   27.04   14.66
  -3   6  -6   46.94   25.01
   3   6   6   42.29   22.86
  -3   6  -6   26.47   18.56
  -3  -6  -7   47.19   20.70
   3   6   7   36.96   10.67
   3  -6   7   73.79   35.52
  -3   6  -7   58.25   27.85
  -3   6  -7   71.08   31.56
   3  -6   7   49.85   15.22
   3  -6   7   68.49   31.34
  -3  -6  -7   67.92   17.67
  -3   6  -7   44.54   28.74
   3   6   7   51.29   30.58
  -3  -6  -7   70.08   31.04
  -3   6  -7   71.04   22.08
  -3  -6  -7   35.89   28.04
   3   6   7   48.68   24.87
  -3  -6  -8   -0.98    3.17
   3   6   8   -0.95    2.06
  -3  -6  -8  -12.21   15.01
  -3   6  -8   -3.08    6.74
   3  -6   8    0.46    2.76
  -3   6  -8   -3.19    4.42
   3  -6   8  -26.95   19.20
  -3   6  -8    5.12    9.19
  -3  -6  -8    4.26    3.79
   3  -6   8   -1.78    2.44
  -3   6  -8   13.20    8.99
   3   6   8   -5.29    8.07
   3   6   8    5.47   10.21
  -3  -6  -8  -28.75   19.50
  -3   6  -8    1.98    5.04
  -3  -6  -9   17.39   14.11
   3  -6   9   20.64   18.64
   3   6   9   21.64   11.00
   3  -6   9   35.30   22.62
  -3   6  -9   28.63   22.16
  -3  -6  -9   49.00   25.35
  -3  -6  -9   31.64   24.57
  -3   6  -9   40.31   25.12
   3   6   9   15.55   17.66
   3   6   9   36.85   21.22
  -3   6  -9   18.48   15.31
   3   6  10   -7.23    6.96
  -3  -6 -10   -0.16    1.39
   3  -6  10   -5.60    9.81
  -3  -6 -10  -13.95   16.60
  -3   6 -10   -0.22    5.42
   3  -6  10    2.98    6.74
   3   6  10    1.93    4.83
   3   6  10    9.92   14.42
  -3   6 -10   -5.56    9.61
  -3  -6 -10    6.88    9.38
  -3   6 -10   11.33   11.94
  -3  -6 -11    2.12    5.45
  -3  -6 -11    5.71    8.39
   3   6  11    2.54    4.44
   3   6  11    4.15    9.54
   3  -6  11  -15.11   16.45
  -3   6 -11   -2.58    6.86
   3  -6  11   -1.08    4.15
   3   6  11  -14.66   13.30
  -3   6 -11   14.85   16.15
  -3   6 -11    0.67    2.87
  -3   7   9   35.52   24.05
   3   7  -9    2.09    4.87
  -3  -7   9   -5.91    8.89
  -3   7   9   -2.95    7.40
  -3   7   9    8.31    8.08
  -3  -7   9   15.36   13.16
  -3  -7   9    7.70   11.18
  -3  -7   9   -1.19    3.93
   3   7  -9    8.99   12.62
   3  -7  -9   -1.35    5.06
  -3  -7   9   -0.03    0.87
  -3  -7   8    2.93    7.23
  -3  -7   8   -4.23    7.15
  -3   7   8    3.19    7.09
  -3   7   8   18.63   18.45
  -3   7   8    4.09    5.48
  -3  -7   8    3.50    7.50
  -3   7   8  -15.14   12.13
  -3  -7   8   -8.58   10.65
   3   7  -8   10.11   11.05
   3  -7  -8  -10.78   14.01
   3   7  -8    7.32   11.27
  -3  -7   7   10.38   13.06
  -3  -7   7   12.28   11.51
  -3   7   7  -28.26   22.64
  -3   7   7    5.44    6.13
  -3  -7   7   -9.10   12.05
  -3   7   7   14.19    7.91
   3   7  -7   27.57   18.88
   3  -7  -7  -22.32   19.80
  -3  -7   7    4.53    7.85
  -3   7   7    6.26    9.80
   3   7  -7   -0.03   13.79
  -3   7   6   19.83   17.25
  -3  -7   6   -9.76    9.62
  -3   7   6   11.24   14.16
  -3   7   6   -7.16    6.91
  -3  -7   6    3.11    6.85
  -3  -7   6    7.47   10.87
  -3   7   6   10.19   10.13
  -3  -7   6  -13.00   13.43
   3   7  -6  -11.05   12.27
   3  -7  -6   -7.20   11.02
   3   7  -6  -25.08   20.46
  -3   7   5   57.67   29.13
  -3  -7   5   22.52   17.63
  -3  -7   5   28.60   15.30
  -3   7   5   44.62   27.95
  -3   7   5   13.38    9.38
  -3  -7   5   25.74   20.13
  -3   7   5   20.81   13.08
  -3  -7   5   22.11   17.74
   3   7  -5   22.62   17.91
   3  -7  -5   21.53   18.69
   3   7  -5   36.54   24.44
  -3  -7   4   14.57   13.57
  -3  -7   4   10.07    8.31
  -3   7   4    7.43   10.40
  -3   7   4   -3.66    4.96
   3   7  -4    1.76    5.31
   3  -7  -4   13.62   14.57
  -3  -7   4    7.04   10.51
  -3   7   4   18.43   15.61
  -3  -7   4   19.96   17.06
   3   7  -4    7.93   10.75
  -3  -7   3  114.07   37.04
  -3  -7   3   92.56   23.06
   3   7  -3   87.83   36.09
  -3  -7   3   92.87   37.39
  -3   7   3   61.65   27.83
  -3  -7   3   95.31   37.49
   3  -7  -3   89.96   36.63
   3   7  -3   72.55   34.56
  -3   7   3   66.57   30.99
  -3   7   2    1.55    4.74
  -3  -7   2   -0.27    0.98
  -3  -7   2   19.48   14.33
   3   7  -2   -0.46    2.62
  -3  -7   2   21.95   18.42
  -3   7   2    6.61    8.73
  -3  -7   2   -6.88   10.26
   3  -7  -2   10.00   11.95
   3   7  -2    7.94   11.13
  -3  -7   1   13.79   11.54
  -3   7   1    3.15    6.75
   3  -7  -1   -9.07    9.88
   3  -7  -1   -6.37    9.32
  -3  -7   1   -3.01    6.82
  -3   7   1   -9.76   10.89
   3   7  -1  -13.20   14.22
   3   7  -1    7.72   10.87
  -3  -7   1    1.25    4.42
  -3  -7   0   23.06   14.38
  -3   7   0   46.00   24.54
   3   7   0   53.07   28.79
   3  -7   0   21.10   13.20
   3  -7   0   26.77   17.20
  -3  -7   0   12.59   13.89
  -3   7   0   46.63   24.38
  -3  -7   0   17.42   16.74
   3   7   0   24.47   19.24
   3  -7   1   14.30   12.76
  -3  -7  -1   35.09   23.14
  -3   7  -1   12.67   13.01
   3   7   1   30.72   22.19
  -3  -7  -1  -13.60   15.00
  -3   7  -1    6.58    9.84
  -3  -7  -1   -4.99    6.47
   3  -7   1    8.42   10.16
   3   7   1   16.26   15.66
   3   7   2    4.25    8.37
   3  -7   2   10.37   10.95
  -3  -7  -2    9.10    8.51
   3  -7   2    3.46    6.39
  -3   7  -2   -3.93    7.67
  -3   7  -2  -16.36   15.19
  -3  -7  -2   -2.85    6.59
  -3  -7  -2   -3.65    7.86
   3   7   2   17.20   16.03
  -3   7  -3   -8.78   11.51
  -3  -7  -3   -4.77    6.07
  -3  -7  -3   -2.88    7.12
   3  -7   3   -4.76    7.62
  -3   7  -3   -4.01    7.70
  -3  -7  -3    3.82    3.63
  -3  -7  -3  -10.56   12.68
   3   7   3   -0.73    3.53
   3  -7   3    1.68    4.26
   3   7   3   14.22   14.50
  -3   7  -4   98.58   38.80
   3  -7   4   79.79   27.18
  -3  -7  -4   61.25   20.38
   3  -7   4   43.69   22.52
  -3   7  -4   78.26   35.47
  -3  -7  -4   80.35   35.03
  -3  -7  -4   83.17   39.41
   3   7   4   47.84   29.42
   3   7   4   46.78   26.39
  -3  -7  -4   89.50   20.72
   3  -7   5   -5.82    9.92
  -3  -7  -5    4.76    5.36
   3   7   5    6.50   10.98
   3  -7   5   12.98   10.98
  -3  -7  -5   -7.37    7.45
  -3  -7  -5    2.69    7.09
   3  -7   5   13.70   13.46
  -3   7  -5    4.71    8.78
  -3  -7  -5    5.66    9.32
  -3   7  -5    9.32   11.08
   3   7   5    1.97    5.36
  -3   7  -5   10.68   12.82
   3  -7   6   13.95    9.89
   3   7   6   17.85   16.12
  -3  -7  -6   10.64    8.80
   3  -7   6   21.35   19.15
  -3  -7  -6   -1.78    5.25
   3  -7   6   25.69   18.82
  -3   7  -6   16.56   16.85
  -3  -7  -6   42.39   28.56
  -3   7  -6    4.20    7.59
   3   7   6   -2.04    6.29
   3  -7   6   38.76   18.13
  -3   7  -6   19.10   17.15
   3  -7   7   12.51    8.59
   3  -7   7   24.24   20.59
  -3  -7  -7   27.99   23.60
  -3  -7  -7   26.20   20.23
   3  -7   7   -4.98    8.46
  -3   7  -7  -17.17   17.52
  -3   7  -7   19.01   16.56
   3   7   7   12.35   19.34
   3   7   7    9.57   11.84
  -3   7  -7   -6.85   10.26
  -3  -7  -8   -2.76    5.18
  -3  -7  -8   27.61   23.82
   3  -7   8    6.44   10.73
   3   7   8   24.89   19.05
   3  -7   8    5.75    9.32
  -3   7  -8   -5.07    9.70
  -3  -7  -8   14.77   15.23
  -3   7  -8    1.92    5.41
   3   7   8   -2.11    6.66
  -3   7  -8    1.89    5.37
  -3  -7  -9  -11.75   11.37
   3  -7   9  -20.04   19.07
  -3  -7  -9  -10.95   15.26
   3  -7   9   -6.47   10.11
  -3   7  -9  -17.99   18.59
   3   7   9   18.09   16.23
  -3   7  -9  -19.77   17.80
   3   7   9   14.11   17.69
  -3  -7  -9   -5.22    9.02
  -3   7  -9   23.79   18.93
  -3  -8   5   24.68   18.74
  -3  -8   5   -6.55    7.47
   3   8  -5    7.48   10.78
   3  -8  -5  -17.58   17.83
   3   8  -5   -1.73    5.63
  -3  -8   5   -7.02   11.27
  -3   8   5    4.61    7.45
  -3  -8   5   11.81   13.77
  -3   8   5   -1.60    5.23
  -3   8   4   -6.07   10.10
  -3  -8   4    2.96    6.20
   3   8  -4   15.47   19.86
   3  -8  -4  -15.84   16.61
  -3  -8   4   -0.25    2.14
  -3   8   4   -8.72   10.40
  -3  -8   4   -2.38    6.26
   3   8  -4   24.98   19.86
  -3  -8   3    2.84    5.80
  -3   8   3   -8.15   11.67
  -3  -8   3    2.19    6.23
  -3   8   3    8.42   10.41
  -3  -8   3    8.72   12.11
   3   8  -3    3.77    7.78
   3  -8  -3  -22.06   19.23
   3   8  -3  -17.85   17.88
  -3   8   2   51.72   29.40
  -3  -8   2   12.25   11.52
   3   8  -2   -5.15    9.18
   3   8  -2   23.73   20.46
  -3  -8   2   13.14   15.26
  -3   8   2   16.69   15.49
  -3  -8   2   16.14   16.68
   3  -8  -2    1.81    5.39
  -3  -8   1   73.57   26.93
   3   8  -1   40.14   25.92
  -3   8   1   73.60   34.32
   3  -8  -1   80.70   31.86
  -3   8   1   69.24   31.08
  -3  -8   1   70.51   35.25
  -3  -8   1   60.00   32.56
   3  -8  -1   86.14   39.06
   3   8  -1   57.40   33.13
  -3  -8   0   21.41   13.92
   3   8   0   12.87   14.85
  -3  -8   0   34.81   28.72
   3  -8   0   33.48   20.38
  -3   8   0   64.36   30.64
  -3   8   0   53.40   30.23
  -3  -8   0   27.50   21.95
   3  -8   0   49.20   26.93
   3   8   0   33.60   24.17
  -3  -8  -1   22.79   13.79
   3   8   1   13.33   15.36
   3  -8   1   32.05   20.50
   3  -8   1   26.79   21.72
  -3  -8  -1   19.69   19.13
  -3   8  -1    0.90    3.71
  -3  -8  -1   21.00   19.15
  -3   8  -1   24.01   20.26
   3   8   1   29.66   22.60
  -3   8  -2    9.64   12.92
  -3  -8  -2   27.85   14.69
   3   8   2    1.63    5.47
   3  -8   2  -11.29   12.25
   3  -8   2   12.78   13.11
  -3   8  -2   26.17   20.45
  -3  -8  -2    3.17    7.43
  -3  -8  -2   11.68   14.92
   3   8   2   13.92   15.44
  -3  -8  -3    8.86   13.17
   3  -8   3   -6.44    9.43
  -3   8  -3   -5.86    9.94
  -3  -8  -3   12.93   15.03
   3   8   3   15.57   17.17
   3  -8   3    2.24    5.31
   3   8   3   20.27   18.58
  -3   8  -3  -18.74   18.12
  -3  -8  -4   13.47   16.47
   3  -8   4    5.71    8.21
   3  -8   4    5.69    9.02
  -3   8  -4   -7.21   11.27
  -3   8  -4   -1.11    3.82
  -3  -8  -4   -2.87    7.09
   3   8   4   10.19   14.20
   3   8   4   -9.72   12.84
  -3   8  -4   10.38   12.00
   3  -8   5   42.16   28.18
  -3   8  -5   36.06   22.21
   3  -8   5   25.49   19.39
  -3   8  -5    4.64    9.26
  -3  -8  -5   11.97   20.77
  -3  -8  -5   42.26   27.41
   3   8   5    9.48   13.96
   3  -8   5   31.27   18.53
   3   8   5   29.37   22.30
  -3   8  -5    6.53   10.79
  -4   0  16  155.88   57.30
  -4   0  16  128.90   56.26
   4   0 -16  104.41   40.28
  -4   0  15   15.79   21.64
  -4   0  15   -0.13    1.68
   4   0 -15    4.14    7.89
  -4   0  14   -2.69    7.16
  -4   0  14   11.29   15.07
   4   0 -14    3.77    7.40
  -4   0  13   -3.66    8.32
  -4   0  13    7.39   11.60
   4   0 -13   -0.52    1.57
   4   0 -13   -4.90    8.29
  -4   0  12   -3.76    8.07
  -4   0  12   -2.00    5.94
   4   0 -12    5.94    4.88
   4   0 -12    1.11    3.85
  -4   0  11   -0.30    2.24
  -4   0  11  -11.97   14.11
   4   0 -11    4.53    3.93
   4   0 -11    4.58    7.70
  -4   0  10   -0.32    2.24
  -4   0  10   -8.51   11.56
   4   0 -10    0.08    0.48
   4   0 -10   -4.57    7.53
  -4   0   9    6.51    9.76
   4   0  -9   -0.52    1.09
  -4   0   9   -1.57    2.08
   4   0  -9   -4.93    7.66
  -4   0   9    4.45    8.12
  -4   0   8  113.72   41.42
  -4   0   8  115.98   39.77
   4   0  -8  100.04   14.31
  -4   0   8   98.02   15.26
   4   0  -8  116.79   37.06
  -4   0   7   -7.67   10.07
   4   0  -7   -3.39    6.10
   4   0  -7   -0.51    0.92
  -4   0   7    3.03    2.60
  -4   0   7    1.76    4.74
  -4   0   6    1.41    4.20
  -4   0   6    1.62    1.97
   4   0  -6   -9.38    9.94
   4   0  -6    1.43    1.54
  -4   0   5   -1.87    4.69
  -4   0   5    2.74    5.39
   4   0  -5   -0.22    0.63
   4   0  -5   -6.32    8.02
  -4   0   4    0.94    3.23
  -4   0   4   -1.25    3.73
   4   0  -4   -0.44    1.28
   4   0  -4    3.50    5.88
  -4   0   3   -8.48    9.54
   4   0  -3    4.45    3.50
  -4   0   3    9.62   10.21
   4   0  -3    1.16    3.34
   4   0  -2   19.92   13.76
  -4   0   2   19.78   14.55
  -4   0   2   35.81   20.12
   4   0  -2   17.59    7.69
  -4   0   1  -13.87   12.17
   4   0  -1    0.86    2.84
  -4   0   1    0.38    6.82
  -4   0   1    3.93    4.18
   4   0  -1    0.27    2.82
  -4   0   0    9.21   12.13
   4   0   0   25.31   17.06
  -4   0   0   18.74   13.76
  -4   0   0   28.01   11.62
   4   0   0   12.05   10.59
   4   0   0   21.13    9.91
  -4   0  -1   -3.49    6.20
   4   0   1    9.05    9.43
  -4   0  -1    7.34    6.21
   4   0   1    0.98    2.30
   4   0   1    1.89    4.18
   4   0   2  387.42   61.06
   4   0   2  428.27   51.60
   4   0   2  349.19   59.96
  -4   0  -2  408.01   68.22
   4   0   3   -1.92    4.20
  -4   0  -3  -12.95   12.25
   4   0   3   -3.82    6.18
   4   0   3   -2.93    4.42
  -4   0  -4   29.28   19.80
   4   0   4   27.88   14.80
   4   0   4   33.14   18.20
   4   0   4   41.55   19.69
   4   0   5    3.19    5.52
  -4   0  -5   -0.90    6.34
   4   0   5   -6.56    7.31
   4   0   5    4.83    7.07
  -4   0  -5   -7.28    9.78
   4   0   6   49.73   22.76
  -4   0  -6   67.16   29.64
   4   0   6   83.90   27.33
  -4   0  -6   76.21   32.26
   4   0   6   64.04   26.50
  -4   0  -7  -15.09   15.03
   4   0   7   -0.79    2.76
   4   0   7    1.70    8.45
  -4   0  -7   -6.23    9.05
  -4   0  -8    0.40   10.98
   4   0   8   13.89   13.22
   4   0   8   -1.60    4.09
   4   0   9    1.22    3.71
  -4   0  -9    2.43    4.45
  -4   0  -9   -2.28    4.63
   4   0   9   -7.43    9.26
  -4   0  -9    7.69   11.40
  -4   0  -9   -3.34    3.17
   4   0  10    9.67   10.86
  -4   0 -10    1.81    3.88
  -4   0 -10   -1.47    7.78
   4   0  10    3.31    6.28
  -4   0 -10   -4.49    8.97
  -4   0 -10    2.44    2.38
   4   0  11   -3.87    7.13
  -4   0 -11    3.63    5.64
  -4   0 -11   -7.39    8.54
   4   0  11   -9.91   11.10
  -4   0 -11    4.26    9.00
   4   0  12   12.87   12.90
   4   0  12   21.84   17.48
  -4   0 -12   23.33   14.52
  -4   0 -12   21.37   14.47
  -4   0 -12   38.26   27.76
   4   0  13    2.50    2.63
  -4   0 -13    4.79    6.90
  -4   0 -13   20.65   14.12
   4   0  13    7.02    9.72
  -4   0 -13    7.07   12.27
   4   0  14  -11.57   12.74
   4   0  14   11.97   13.87
  -4   0 -14  -12.44   11.51
  -4   0 -14    7.39    8.40
  -4   0 -14    0.82    4.31
  -4   0 -15   -3.85    6.07
   4   0  15  -10.79   13.63
  -4   0 -15   -2.09    4.87
   4   0  15  -15.68   15.14
  -4   0 -15  -31.26   27.22
  -4  -1  15   14.27   17.31
  -4   1  15  -36.17   21.18
   4  -1 -15   13.90   14.77
  -4   1  15   19.80   19.56
  -4  -1  15   -5.58   10.79
  -4  -1  14    3.71    8.62
  -4   1  14   16.55   18.42
  -4   1  14    7.80   11.97
   4   1 -14    5.94    9.29
  -4  -1  14    9.34   13.54
   4  -1 -14    4.96    8.67
  -4  -1  14    6.51    6.69
  -4  -1  13   32.67   24.97
  -4   1  13   42.39   27.22
  -4  -1  13   47.09   34.40
  -4   1  13   39.42   27.64
   4   1 -13   36.71   12.28
   4  -1 -13   30.74   21.15
   4   1 -13   45.51   25.25
  -4  -1  13   55.89   19.02
  -4  -1  12   -5.45    9.95
  -4   1  12    1.55    5.07
  -4  -1  12   14.65   15.98
  -4   1  12    5.18    9.70
   4   1 -12    5.63    4.36
   4  -1 -12  -13.03   13.49
  -4  -1  12    8.13    6.86
   4   1 -12    9.80   11.51
  -4  -1  11   19.31   18.29
  -4  -1  11    9.13   12.22
  -4   1  11   10.11   13.11
   4   1 -11   -0.75    1.36
   4  -1 -11    3.82    4.64
   4  -1 -11    5.99    8.96
  -4  -1  11   -5.44    5.41
  -4   1  11   -0.82    3.61
   4   1 -11    0.92    3.47
  -4  -1  10   22.14   18.39
  -4   1  10   -3.47    7.43
   4  -1 -10   -5.67    5.52
   4  -1 -10   14.66   13.68
  -4  -1  10   13.63   15.01
   4   1 -10    3.28    6.40
  -4   1  10    1.73    5.06
  -4   1   9    1.90    5.15
  -4  -1   9   -6.25    9.43
  -4   1   9    9.64   14.41
  -4  -1   9   -1.73    5.20
   4  -1  -9    5.75    5.37
  -4  -1   9    0.55    1.65
   4  -1  -9   11.25   11.71
   4   1  -9   23.11   16.66
  -4  -1   8   -6.29    9.67
  -4  -1   8    7.32    9.88
  -4   1   8    5.31    8.65
  -4  -1   8    8.08    6.21
   4  -1  -8   -0.86    3.14
  -4   1   8    0.70    7.69
   4   1  -8   -7.77    9.48
  -4  -1   7    1.25    4.18
  -4   1   7    8.72    8.27
  -4   1   7   12.38   12.89
  -4  -1   7   13.81   13.08
   4  -1  -7    3.46    7.74
   4   1  -7    2.66    5.45
  -4  -1   6   -0.73    3.09
  -4   1   6    7.58    9.40
  -4  -1   6   -1.65    7.45
  -4   1   6    7.94   10.07
   4  -1  -6   -2.22    4.85
   4   1  -6   -3.31    5.98
  -4  -1   5   43.92   24.09
   4   1  -5   38.15   19.37
  -4   1   5   38.06   20.50
  -4  -1   5   30.43   18.50
  -4   1   5   39.93   22.90
   4  -1  -5   29.15   17.33
  -4   1   4   45.71   21.97
  -4  -1   4   48.52   22.19
  -4   1   4   38.80   21.62
   4   1  -4   45.78   22.48
   4  -1  -4   35.76   14.25
  -4  -1   4   22.64   17.44
   4  -1  -4   42.69   20.37
  -4  -1   3   34.87   19.73
  -4   1   3   41.10   21.80
  -4  -1   3   22.21   15.52
  -4   1   3   24.05   18.15
   4  -1  -3   23.22   14.79
  -4  -1   3   10.73    4.99
   4  -1  -3   27.55   11.60
   4   1  -3   29.63   17.40
   4   1  -3   16.88    6.04
  -4   1   3   27.90    7.01
   4   1  -2   94.25   31.42
  -4  -1   2   47.89   23.97
  -4   1   2   60.17   26.61
  -4   1   2   83.77   32.88
  -4  -1   2   74.66   14.69
   4   1  -2   83.65   15.20
   4  -1  -2   55.21   22.46
   4  -1  -2   87.48   21.21
  -4   1   2   79.02   14.49
   4   1  -2   85.90   30.34
  -4  -1   2   70.14   25.87
  -4  -1   1    1.47    5.10
  -4   1   1   10.21    6.23
  -4  -1   1   13.22    9.11
  -4   1   1    2.85    5.72
   4  -1  -1   11.18    7.56
  -4  -1   1    5.61    4.41
   4   1  -1   12.13    6.23
   4   1  -1   16.55   13.46
  -4   1   1   14.47    6.75
   4   1  -1    0.25    8.23
   4  -1  -1   28.63   16.01
  -4  -1   0   -3.15    5.85
  -4   1   0   22.48   16.68
   4   1   0    2.06    4.63
  -4  -1   0   17.12   12.08
   4  -1   0   12.51    9.43
  -4  -1   0   10.76    7.07
   4   1   0    5.28    4.71
  -4   1   0   -2.08    2.81
   4  -1   0    1.95    4.15
   4   1   0   -7.75    8.89
   4   1   1   12.11   11.16
  -4  -1  -1   -6.82    8.65
  -4   1  -1    2.62   10.27
   4  -1   1    1.49    3.01
  -4  -1  -1    0.02    0.22
   4   1   1    4.61    5.18
   4   1   1    3.98    8.59
  -4   1  -1   -1.70    2.74
   4  -1   1   -4.37    6.15
  -4  -1  -2   58.98   25.65
  -4   1  -2   50.23   24.71
   4  -1   2   53.02   20.99
   4  -1   2   77.80   23.21
   4   1   2   54.40   23.89
   4   1   2   60.14   18.48
   4   1   2   49.30   23.46
  -4  -1  -3   19.81   16.77
  -4   1  -3   41.02   26.84
   4  -1   3   31.20   14.69
   4   1   3   36.39   20.18
   4   1   3   10.86    8.26
   4  -1   3   13.51   10.60
   4   1   3   14.69   11.62
   4  -1   3   24.97   16.34
   4  -1   4   44.16   20.32
  -4  -1  -4   57.22   26.60
  -4   1  -4   48.20   24.13
   4  -1   4   61.30   22.11
   4   1   4   47.40   23.54
   4   1   4   37.25   15.76
   4   1   4   69.92   30.12
   4  -1   4   46.73   19.29
  -4  -1  -5   42.13   15.55
   4  -1   5   27.47   14.93
   4  -1   5   24.84   14.09
   4  -1   5   45.92   19.91
  -4  -1  -5   43.37   23.92
  -4   1  -5   31.40   21.95
   4   1   5   46.75   24.13
   4   1   5   33.56   17.10
  -4  -1  -5   57.18   26.95
   4   1   5   28.18   17.91
   4  -1   6    5.36    6.63
   4   1   6    4.98    8.81
  -4  -1  -6   -5.69    8.42
  -4  -1  -6   12.70    6.51
   4  -1   6    2.68    9.21
   4  -1   6    4.79    6.66
  -4   1  -6    6.36    9.27
   4   1   6    9.54    9.35
  -4   1  -6    9.89   11.94
  -4  -1  -6   10.45    7.07
   4  -1   7    3.74    6.15
  -4  -1  -7    4.90    7.94
  -4   1  -7   11.03   13.60
   4  -1   7    3.99    6.26
   4   1   7   -1.24    3.46
  -4   1  -7   -6.47    9.95
  -4  -1  -7    6.04   14.69
   4   1   7    6.80    9.07
   4  -1   7    3.93    5.72
  -4  -1  -7   22.87   10.10
   4   1   8   57.68   26.90
  -4   1  -8   78.56   35.74
  -4  -1  -8   39.91   24.33
   4  -1   8   20.86   14.96
  -4  -1  -8   35.65   21.73
   4   1   8   27.53   17.10
  -4   1  -8   41.21   19.59
  -4  -1  -8   44.56   23.82
   4  -1   8   16.06   12.67
  -4  -1  -8   22.86    9.65
   4  -1   9   50.50   24.35
   4   1   9   61.31   26.65
  -4   1  -9   55.69   23.87
  -4  -1  -9   59.92   20.65
  -4  -1  -9   67.83   29.82
   4  -1   9   53.20   24.85
   4   1   9   52.20   27.44
  -4   1  -9   69.16   34.52
  -4  -1  -9   96.68   39.72
  -4  -1  -9   53.37   14.28
   4   1  10    2.87    6.23
   4  -1  10    2.24    5.23
   4   1  10    6.99    9.32
   4  -1  10   -5.26    7.43
  -4   1 -10    3.28    7.09
  -4   1 -10    0.98    1.79
  -4  -1 -10    2.41    4.15
  -4   1 -10   -0.48    1.95
  -4  -1 -10   17.09   14.03
  -4   1 -10    0.78    3.79
  -4  -1 -10   -8.70   12.28
  -4   1 -10    1.90    2.46
  -4  -1 -10    4.93    4.14
   4  -1  11   33.14   21.13
   4  -1  11   30.89   19.75
   4   1  11   22.71   17.45
  -4   1 -11   21.37    7.10
  -4   1 -11   17.01   13.17
  -4  -1 -11   22.90   12.78
  -4  -1 -11   27.30    7.91
  -4   1 -11   18.75    6.59
  -4   1 -11   21.75   13.22
  -4  -1 -11   17.33   15.69
   4   1  11   20.05   16.85
  -4   1 -11   26.15   22.49
  -4  -1 -11   32.59   24.51
  -4  -1 -11   15.26    6.28
   4   1  12   44.84   25.73
   4  -1  12   30.67   20.77
   4   1  12   14.88   14.65
  -4   1 -12   47.01   22.67
  -4  -1 -12   12.87   10.07
  -4   1 -12    7.21    7.48
  -4  -1 -12   40.40   21.91
   4  -1  12   28.47   17.64
  -4   1 -12   54.20   35.81
  -4  -1 -12   36.96   26.87
  -4   1 -13    7.59    7.53
  -4  -1 -13   18.24   14.71
   4  -1  13   -7.66   10.70
   4   1  13  -10.38   12.68
  -4  -1 -13  -16.31   11.76
  -4   1 -13    2.43    5.26
   4   1  13   -7.47    7.26
   4  -1  13   -3.69    6.55
  -4   1 -13    1.90    6.40
  -4  -1 -13    9.53   14.03
   4   1  14    6.06    9.86
   4  -1  14   25.88   20.34
   4   1  14   12.47   14.39
  -4  -1 -14    9.11   10.38
  -4  -1 -14   16.45   12.19
  -4   1 -14    9.26   10.59
   4  -1  14   20.26   15.61
  -4   1 -14   12.36    9.48
  -4   1 -14   25.41   24.08
  -4  -1 -14   24.95   23.35
  -4  -1 -15   -8.18    9.84
   4  -1  15    4.23    8.50
   4   1  15   -8.75   12.46
   4  -1  15    4.20    7.24
  -4  -1 -15    2.49    4.85
  -4   1 -15   17.69   15.07
  -4   1 -15   -4.64    5.80
   4   1  15    7.04   10.86
  -4   1 -15   11.33   10.30
  -4  -1 -15   15.39   18.85
  -4  -2  15   14.88   17.53
  -4   2  15  -13.81   17.55
   4  -2 -15    1.63    5.28
  -4   2  15   -6.45   10.97
  -4  -2  15    4.61    6.48
   4   2 -15   14.84   15.06
  -4  -2  15    1.71    6.17
  -4  -2  14   -6.40   11.63
  -4   2  14    2.41    6.53
  -4  -2  14   17.34   18.34
  -4   2  14   13.19   16.61
   4  -2 -14   31.64   22.78
  -4  -2  14   30.24   16.09
   4   2 -14   28.44   20.51
  -4  -2  13   -4.06    9.04
  -4   2  13    1.57    5.12
  -4  -2  13  -14.09   16.03
  -4   2  13    8.96   13.25
   4  -2 -13   -4.79    8.67
  -4  -2  13    6.82    7.47
   4   2 -13    5.26    8.67
   4   2 -12    0.55    2.77
  -4  -2  12    9.76   13.70
  -4   2  12   23.81   19.39
  -4  -2  12   13.46   15.15
  -4   2  12   15.17   16.71
   4  -2 -12    0.33    2.25
  -4  -2  12   -0.48    1.93
  -4  -2  11   21.16   19.66
  -4   2  11   12.14   13.41
  -4  -2  11   10.68   13.06
  -4   2  11   22.60   19.81
   4  -2 -11    4.45    8.00
   4   2 -11   24.13   17.88
  -4  -2  11   19.64   12.13
  -4  -2  10   -1.38    4.90
  -4   2  10    0.68    3.08
   4   2 -10    2.08    5.15
  -4  -2  10   -9.64   12.00
  -4   2  10    1.73    5.31
   4  -2 -10   -4.83    8.13
  -4  -2  10   -5.83    6.50
  -4   2   9   20.53   16.33
  -4  -2   9   13.31   12.40
   4   2  -9   -3.92    6.96
  -4   2   9   36.44   23.76
   4  -2  -9   12.40   12.71
  -4  -2   9   28.28   13.96
  -4  -2   9   11.02   13.49
  -4  -2   8   10.13   12.59
  -4   2   8    9.18   10.57
  -4  -2   8    3.52    6.77
  -4   2   8   14.55   14.61
   4   2  -8    2.92    2.90
   4  -2  -8   -4.71    7.64
  -4  -2   8    4.53    5.44
  -4  -2   7   32.13   22.84
  -4   2   7   26.03   17.25
  -4  -2   7   30.77   19.28
  -4   2   7   13.01   12.33
   4   2  -7   11.52   11.59
   4  -2  -7   14.17   14.52
  -4  -2   6   28.33   19.85
  -4   2   6   15.12   12.84
  -4  -2   6   13.49   14.23
  -4   2   6   -6.20    9.21
   4   2  -6   12.95   12.14
   4  -2  -6   18.77   14.44
  -4  -2   5    1.05    3.71
  -4   2   5   -4.88    7.18
  -4  -2   5   -1.54    3.96
   4  -2  -5   -5.10    7.32
   4   2  -5    7.77    9.34
  -4   2   5   -3.99    7.29
  -4  -2   4  129.06   42.59
  -4   2   4  127.98   37.12
  -4  -2   4  142.17   37.30
  -4   2   4  100.67   37.88
   4  -2  -4  131.22   36.39
   4   2  -4  100.05   33.64
  -4  -2   3    9.34    8.92
  -4   2   3   -5.85    7.83
  -4  -2   3    6.64    7.62
  -4   2   3    7.85   10.10
  -4  -2   3    8.12    4.22
   4  -2  -3   -6.21    7.69
   4   2  -3  -18.18   14.11
   4   2  -3    3.11    5.88
  -4  -2   2    4.01    5.55
  -4  -2   2   -3.82    5.56
  -4   2   2   -7.80    9.11
  -4   2   2   -0.16    1.43
   4  -2  -2   -5.75    6.56
   4   2  -2    1.51   11.14
  -4  -2   2   -4.85    3.80
  -4   2   2    8.70    5.04
   4  -2  -2    0.40    1.89
   4   2  -2   -5.28    7.69
   4   2  -1   20.86   16.63
   4   2  -1    5.52    6.31
  -4  -2   1    8.04    7.81
  -4   2   1    6.10    8.50
  -4   2   1    7.24    9.59
   4  -2  -1    7.02   10.45
  -4  -2   1   -5.88    8.05
  -4  -2   1    3.95    1.30
  -4   2   1    2.71    3.06
   4  -2  -1    2.93    5.09
   4   2  -1    6.18    5.77
   4   2   0   16.06    9.88
  -4  -2   0   11.89    8.15
  -4  -2   0   11.98    9.24
  -4   2   0   34.86   19.78
   4  -2   0   16.64   11.94
   4   2   0   16.06   14.28
   4  -2   0   22.10   13.08
   4   2   0   17.77   14.28
  -4  -2   0   23.11   10.00
   4   2   0   30.45   12.57
  -4   2   0    9.92    6.36
   4   2   1  106.47   28.83
  -4  -2  -1  106.96   35.90
  -4  -2  -1  122.94   25.62
  -4   2  -1   97.47   33.59
   4  -2   1  103.40   28.63
   4   2   1  121.13   26.88
  -4   2  -1  115.14   23.55
   4   2   1  144.72   43.29
   4   2   1  123.21   38.06
   4  -2   1  130.99   33.75
   4   2   2   70.13   28.91
   4   2   2   50.93   18.83
  -4  -2  -2   73.71   28.61
  -4   2  -2   72.03   29.02
   4  -2   2   87.67   27.63
   4   2   2   66.45   20.78
   4   2   2   75.99   31.13
   4  -2   2   81.11   26.20
   4  -2   3   49.09   19.69
   4   2   3   35.47   17.63
  -4  -2  -3   31.58   19.34
   4  -2   3   33.78   18.29
  -4   2  -3   34.89   20.75
   4   2   3   44.30   17.82
   4   2   3   37.73   24.35
   4   2   3   52.37   26.19
   4   2   4  203.04   52.39
   4  -2   4  159.27   39.07
   4   2   4  145.53   34.14
  -4  -2  -4  160.62   46.27
   4   2   4  147.95   43.61
  -4   2  -4  171.62   48.39
   4  -2   4  146.99   33.27
  -4  -2  -4  182.08   46.73
  -4  -2  -5   13.22   12.54
   4  -2   5    2.62    6.63
  -4   2  -5  -11.19   12.06
  -4  -2  -5    6.26    8.72
   4   2   5   -8.97    8.75
   4  -2   5    1.76    3.55
   4   2   5   17.99   14.92
   4  -2   6  142.95   32.37
   4  -2   6  160.64   37.66
  -4  -2  -6  137.78   43.19
   4   2   6  171.45   40.67
  -4  -2  -6  147.64   44.00
   4  -2   6  118.73   34.75
  -4   2  -6  126.27   42.59
  -4   2  -6  134.50   27.93
  -4   2  -6  204.81   55.53
   4   2   6  156.86   47.06
   4  -2   7   73.82   28.66
  -4  -2  -7   62.45   28.04
   4  -2   7   71.62   25.36
   4   2   7   90.65   37.23
   4   2   7   64.67   26.04
  -4   2  -7   74.18   20.54
  -4   2  -7   96.17   31.29
  -4  -2  -7   63.64   27.82
   4  -2   7   57.84   19.89
  -4   2  -7   56.53   29.67
  -4  -2  -7  120.26   40.66
  -4  -2  -7   77.83   20.99
  -4   2  -8   11.52    8.42
  -4  -2  -8   -1.32    4.37
  -4   2  -8   26.52   20.91
   4  -2   8   -0.33    1.95
  -4  -2  -8   22.37   17.12
   4   2   8   17.15   13.77
   4  -2   8   17.42   12.46
  -4   2  -8    7.40    8.81
  -4  -2  -8    5.61    8.31
  -4   2  -8    5.12    5.10
   4   2   8   12.47   13.28
  -4  -2  -8   23.43   11.51
  -4   2  -8   -2.57    3.61
   4  -2   8   13.46    9.54
   4  -2   9   47.44   20.75
  -4   2  -9   28.82   11.97
   4  -2   9   15.82   13.93
  -4   2  -9   44.34   15.17
   4   2   9   35.73   20.62
  -4  -2  -9   42.31   15.23
  -4   2  -9   25.08   16.50
  -4  -2  -9   32.94   21.65
   4   2   9   34.13   22.40
  -4   2  -9   42.80   27.37
  -4  -2  -9   46.49   28.29
  -4   2  -9   27.58   12.65
  -4  -2  -9   27.07   13.11
  -4   2 -10    9.64    6.78
  -4   2 -10   21.70   21.22
   4  -2  10    6.51    9.21
   4   2  10    5.09    8.12
  -4  -2 -10   11.70    7.77
  -4   2 -10   29.42   18.20
  -4  -2 -10   20.69   11.08
   4  -2  10   16.75   12.43
  -4  -2 -10   10.07   15.76
  -4   2 -10   28.50   11.59
   4   2  10   11.03   12.98
  -4   2 -10    5.58    5.23
  -4  -2 -10   14.66   15.60
  -4  -2 -10    2.77    3.84
  -4   2 -11    5.67    5.26
  -4   2 -11    2.35    3.17
   4  -2  11   -2.33    5.67
   4   2  11   -0.06    0.89
  -4   2 -11    7.53    9.40
  -4  -2 -11    6.42    6.26
  -4   2 -11    2.63    3.33
   4  -2  11    4.90    6.77
  -4  -2 -11    2.47    3.23
  -4   2 -11    0.14    0.94
  -4  -2 -11    8.21   10.62
   4   2  11   -5.93    9.70
  -4   2 -11   -0.13    1.52
  -4  -2 -11    6.44   10.67
  -4  -2 -11  -12.68    7.40
  -4  -2 -12    4.79    3.88
   4  -2  12    2.01    4.41
  -4  -2 -12   -3.58    7.09
   4  -2  12    5.02    8.58
   4   2  12    9.43   11.89
  -4   2 -12   -3.44    3.60
  -4   2 -12   21.22   16.14
  -4  -2 -12    3.27    4.58
  -4   2 -12    7.70    6.66
   4   2  12   18.24   17.37
  -4  -2 -12   -4.99    3.93
  -4   2 -12  -16.77   18.59
  -4  -2 -12   10.13   13.79
  -4   2 -12    4.17    3.99
  -4   2 -12   -6.97    5.83
   4   2  13    7.39   11.29
  -4  -2 -13   11.70   12.84
   4  -2  13   -8.94   11.76
   4   2  13   12.38   14.11
  -4  -2 -13   26.90   13.60
  -4   2 -13   -0.87    3.36
  -4   2 -13   13.84    8.51
   4  -2  13   22.84   14.95
  -4   2 -13   13.76   17.31
  -4  -2 -13   -1.17    4.83
  -4   2 -13    1.59    1.98
   4  -2  14   -6.86    8.32
  -4   2 -14    4.83    4.87
   4  -2  14   -1.11    4.26
   4   2  14   11.25   13.90
  -4  -2 -14    7.64    7.39
  -4   2 -14    1.25    4.14
  -4  -2 -14    0.17    1.57
   4   2  14  -16.39   17.17
  -4   2 -14   -1.59    6.04
  -4  -2 -14    1.46    5.55
  -4  -2 -15    7.29   10.21
   4  -2  15   -6.94   11.00
   4   2  15    5.17    9.73
  -4  -2 -15    3.33    4.90
  -4   2 -15   16.61   15.45
   4  -2  15    2.65    5.26
   4   2  15   25.93   22.03
  -4   2 -15   -8.34   14.19
  -4  -2 -15   -4.11    9.57
  -4   3  14   35.19   24.38
  -4  -3  14    8.18   12.54
  -4   3  14   -9.45   14.19
   4   3 -14    1.17    4.20
   4  -3 -14    0.75    3.68
  -4  -3  14   -6.20    8.08
  -4  -3  14   12.62   16.79
  -4  -3  13    5.12   10.45
  -4   3  13   19.66   17.61
  -4  -3  13    7.59   11.68
  -4   3  13   10.70   14.61
   4   3 -13    4.87    8.42
   4  -3 -13    0.82    3.77
  -4  -3  13   -6.96    5.48
  -4  -3  13   18.10   13.51
  -4  -3  12   14.73   17.29
  -4   3  12    8.07   10.91
  -4   3  12    6.12   10.70
   4  -3 -12   14.03   15.30
   4   3 -12   -1.78    5.01
  -4  -3  12    2.39    6.36
  -4  -3  12    0.65    1.52
  -4  -3  12  -21.54   14.44
  -4   3  11    8.21   10.64
  -4  -3  11   22.13   19.56
  -4   3  11   -4.36    8.80
  -4  -3  11   -3.15    7.80
   4  -3 -11   -6.86   10.45
   4   3 -11    6.94    9.72
  -4  -3  11    8.80    4.99
  -4  -3  11    6.48    7.75
   4  -3 -11   10.22    4.44
  -4   3  10  166.50   46.33
  -4  -3  10  106.68   40.52
  -4   3  10  128.03   46.36
  -4  -3  10   89.31   14.11
   4  -3 -10  114.67   41.64
   4   3 -10  105.14   37.16
  -4  -3  10   98.47   30.16
  -4  -3  10  105.00   43.89
  -4   3   9   80.41   30.51
  -4  -3   9   48.03   26.30
  -4   3   9   72.31   34.03
   4  -3  -9   43.37   26.38
  -4  -3   9   41.96    8.27
  -4  -3   9   75.45   25.54
   4   3  -9   33.46   22.06
  -4  -3   9   68.24   34.48
  -4   3   8   26.84   17.40
  -4  -3   8   29.88   21.70
  -4   3   8   24.19   18.07
   4  -3  -8   21.80   17.21
  -4  -3   8   21.89    5.67
  -4  -3   8   35.33   24.09
   4   3  -8   25.46   17.93
  -4  -3   7   78.46   36.03
  -4   3   7   78.04   29.58
  -4  -3   7   74.82   30.75
  -4   3   7   58.65   30.12
  -4  -3   7   65.89   10.33
   4  -3  -7   81.51   34.46
   4   3  -7   89.18   32.81
  -4  -3   6  193.02   55.45
  -4  -3   6  146.96   40.50
  -4   3   6  159.11   49.41
   4   3  -6  120.75   39.87
  -4  -3   6  116.30   16.88
  -4  -3   6  129.03   17.64
   4  -3  -6  147.38   43.29
  -4   3   6  137.79   38.57
  -4  -3   5   12.33   12.38
  -4  -3   5   10.95   10.30
  -4   3   5   18.29   13.84
  -4   3   5   12.02   13.17
   4  -3  -5   -0.65    6.51
  -4  -3   5    6.66    4.33
   4  -3  -5    1.78    1.63
   4   3  -5   -0.02   15.71
   4   3  -5    1.65    4.52
   4   3  -4   -3.65    6.69
  -4  -3   4    3.00    6.21
   4   3  -4   -3.14    6.06
  -4  -3   4    7.66   10.43
  -4   3   4   10.07   11.63
  -4   3   4    0.94    3.65
   4  -3  -4    9.86   12.36
  -4  -3   4    2.66    3.01
   4  -3  -4    4.53    3.19
   4   3  -3   -3.14    4.52
  -4  -3   3    0.79    3.12
  -4  -3   3    8.32    9.64
  -4   3   3    3.09   10.05
  -4   3   3   -5.44    8.81
   4   3  -3    1.24    3.93
   4   3  -3  -10.33   11.08
   4  -3  -3  -14.61   12.16
  -4  -3   3   -4.25    4.15
   4  -3  -3    1.52    2.11
   4   3  -2   71.16   21.72
  -4  -3   2   86.91   33.97
  -4  -3   2   82.58   24.22
  -4   3   2   62.58   26.06
  -4   3   2   59.51   30.09
   4   3  -2   84.93   34.10
   4  -3  -2   64.67   24.71
  -4  -3   2   92.06   21.16
   4   3  -2   85.52   32.89
   4  -3  -2   76.09   17.10
   4   3  -1  242.70   37.30
  -4   3   1  161.71   48.11
  -4  -3   1  217.49   34.78
   4   3  -1  208.90   52.53
   4  -3  -1  213.75   30.40
   4   3  -1  201.90   51.91
  -4  -3   1  208.40   37.50
   4  -3  -1  198.79   42.97
  -4  -3   1  249.45   54.88
  -4   3   1  212.28   49.95
   4   3   0  -11.71    7.89
  -4  -3   0   -7.29    8.99
   4   3   0    7.80    6.06
   4   3   0   10.35   11.62
  -4  -3   0   -6.93    6.28
   4  -3   0  -11.46   10.76
  -4   3   0    7.29    9.29
  -4  -3   0    3.15    4.33
  -4   3   0    3.46    4.34
   4  -3   0  -10.72    9.62
   4  -3   0   -0.60    2.43
   4  -3   1  266.41   47.98
   4   3   1  310.73   40.59
   4   3   1  245.00   59.06
   4  -3   1  337.31   60.88
   4  -3   1  337.11   44.32
   4   3   1  310.14   64.61
  -4  -3  -1  323.08   60.27
  -4   3  -1  308.40   62.71
   4  -3   2 1231.92  101.32
   4   3   2 1310.65   85.33
   4   3   2 1369.54  138.35
   4  -3   2 1279.33  116.95
   4   3   2 1175.81  126.35
   4  -3   2 1221.55   90.00
  -4  -3  -2 1253.24  120.23
  -4   3  -2 1295.03  127.78
   4   3   3    8.92    6.94
  -4  -3  -3    6.28    8.40
   4  -3   3   10.94   10.79
  -4   3  -3    5.79    7.21
   4   3   3   18.91   17.83
   4  -3   3   29.75   14.55
   4   3   3    8.72   13.87
  -4  -3  -3   12.93   11.75
   4  -3   3    5.10   10.83
   4   3   4   86.23   34.54
   4   3   4   70.89   20.15
  -4  -3  -4   88.04   30.72
  -4  -3  -4   90.34   32.78
   4  -3   4   71.25   28.55
  -4   3  -4   59.68   28.60
   4  -3   4   56.81   20.77
  -4   3  -5  567.92   59.84
   4  -3   5  577.68   64.21
   4  -3   5  594.24   83.36
   4   3   5  604.56   75.86
  -4   3  -5  571.93   79.53
  -4  -3  -5  607.16   90.26
  -4  -3  -5  554.57   81.13
   4   3   5  594.97   93.28
  -4  -3  -5  654.64   89.72
  -4   3  -5  657.24   95.31
  -4   3  -6    9.08    7.01
  -4  -3  -6   10.97   12.98
   4  -3   6    0.68    3.73
  -4  -3  -6    2.16    5.14
   4   3   6    2.47    5.01
   4  -3   6   11.06    8.31
  -4   3  -6   -4.57    7.12
  -4  -3  -6   19.37   16.52
  -4   3  -6   18.15   16.49
   4   3   6   19.34   16.87
  -4   3  -6    3.65    7.05
  -4   3  -7   41.93   18.28
  -4   3  -7   47.13   15.17
   4  -3   7   52.77   26.27
  -4  -3  -7   39.25   22.19
   4   3   7   39.10   21.92
  -4   3  -7   59.79   27.66
  -4  -3  -7   48.43   25.55
  -4   3  -7   51.72   28.56
   4   3   7   26.20   18.12
  -4  -3  -7   59.73   27.77
   4  -3   7   31.91   13.57
  -4   3  -8    8.02    7.58
  -4   3  -8    8.67    6.18
   4   3   8  -11.82   13.65
   4  -3   8    5.02    5.23
   4  -3   8   -1.82    4.87
  -4  -3  -8   12.38   12.67
   4   3   8   11.68   11.70
  -4  -3  -8    7.37    7.45
  -4   3  -8    1.81    4.64
  -4   3  -8   -0.03   20.34
  -4  -3  -8    7.32   10.16
  -4  -3  -8    0.51    2.65
  -4   3  -9    8.64    7.75
  -4   3  -9   -9.34   12.81
   4   3   9   11.54   13.71
  -4   3  -9    2.73    3.28
   4  -3   9   -7.58   10.16
   4   3   9   -6.93    9.34
  -4  -3  -9    8.42    7.91
  -4   3  -9   17.64   14.77
  -4  -3  -9  -15.76   15.23
  -4  -3  -9   -5.12    8.70
  -4   3 -10  -13.65    9.48
  -4   3 -10    2.22    2.79
   4  -3  10   -7.20   10.14
   4   3  10    4.15    7.50
  -4   3 -10   18.69   15.49
  -4  -3 -10    5.99    6.50
  -4   3 -10    0.11    1.44
  -4  -3 -10   14.31   14.79
   4   3  10   -1.32    4.72
  -4  -3 -10   15.96   15.88
  -4  -3 -11    2.36    3.93
   4  -3  11    5.02    6.42
  -4   3 -11   11.00    5.79
  -4  -3 -11    2.16    5.82
   4  -3  11    6.26    9.72
   4   3  11    2.63    6.17
  -4   3 -11   -2.43    5.69
  -4  -3 -11   -0.51    1.54
  -4  -3 -11   22.87   19.62
  -4   3 -11  -10.70    8.21
  -4  -3 -11   14.27    9.54
   4   3  11   -1.19    4.58
  -4   3 -11   -3.19    7.89
  -4  -3 -12   19.35   10.43
   4  -3  12    6.31   10.02
  -4  -3 -12    3.80    7.81
   4   3  12    3.22    7.07
  -4   3 -12  -10.94   12.38
  -4  -3 -12   11.16    7.32
  -4   3 -12    5.74    4.60
   4  -3  12    0.48    1.98
   4   3  12    2.50    6.78
  -4  -3 -12   20.96   10.73
  -4   3 -12  -17.52   19.01
  -4  -3 -12  -11.59   14.41
  -4   3 -12   -4.49    5.25
   4  -3  13    7.67    8.02
   4  -3  13  -17.31   16.99
   4   3  13    4.09    8.23
  -4  -3 -13    0.62    1.73
  -4   3 -13    6.90   10.05
   4   3  13  -17.20   18.12
  -4   3 -13   24.78   23.21
  -4  -3 -13    0.02    0.29
  -4  -3 -13  -19.24   19.18
  -4  -3 -13   -1.06    4.18
  -4   3 -13   -3.57    4.50
   4  -3  14   23.68   20.40
   4   3  14   28.58   22.46
  -4   3 -14   38.07   24.13
  -4  -3 -14   40.34   25.85
   4  -3  14   26.03   14.87
   4   3  14   17.98   18.89
  -4   3 -14   17.52   20.04
  -4  -3 -14   22.79   21.51
  -4  -4  13   23.00   22.79
  -4   4  13   -0.06    0.94
  -4   4  13    5.15   10.24
   4  -4 -13    9.59   13.60
  -4  -4  13    2.82    3.69
  -4  -4  13  -17.12   14.16
  -4  -4  13  -14.00   15.90
   4   4 -13   -3.58    7.31
  -4  -4  12   -0.30    2.57
  -4   4  12   -0.11    1.22
  -4  -4  12    4.36    8.58
  -4   4  12   -0.94    4.26
   4  -4 -12    7.96   12.11
  -4  -4  12  -11.78    7.21
  -4  -4  12   11.48   11.35
   4   4 -12   -1.19    4.14
  -4  -4  11    4.53    9.62
  -4   4  11   -7.94   10.03
  -4  -4  11   27.15   20.64
  -4   4  11    4.95    9.51
   4  -4 -11   15.63   16.58
   4   4 -11   -3.22    6.78
  -4  -4  11    4.20    4.17
  -4  -4  11   15.85   13.06
  -4  -4  10   24.46   21.76
  -4  -4  10    4.31    7.93
  -4   4  10  -11.05   11.43
  -4   4  10    3.55    7.91
   4  -4 -10   -5.98   10.00
   4   4 -10   -3.15    6.64
  -4  -4  10   -5.52    4.66
  -4  -4  10    0.75    2.77
  -4  -4   9    4.66    9.24
  -4  -4   9   -4.49    7.81
  -4   4   9    2.44    5.25
   4  -4  -9   10.70   13.05
  -4  -4   9    6.91    5.18
  -4   4   9   19.21   18.02
   4   4  -9   -3.42    6.86
   4   4  -8   29.09   19.91
  -4  -4   8   66.80   33.94
  -4  -4   8   25.95   16.77
  -4   4   8   55.94   25.36
   4  -4  -8   53.89   28.52
  -4   4   8   55.45   30.16
  -4  -4   8   44.40   13.38
  -4  -4   7   27.06   18.88
   4   4  -7   12.49   13.03
  -4   4   7   32.75   18.67
   4  -4  -7   21.35   15.53
  -4  -4   7   28.07   10.89
   4  -4  -7   26.46    8.97
  -4  -4   7   28.98   21.68
  -4   4   7   24.08   20.12
  -4  -4   6   42.02   20.92
   4  -4  -6   48.62   26.33
  -4   4   6   24.00   17.53
  -4  -4   6   61.95   30.72
   4   4  -6   29.55   20.04
   4   4  -6   32.29   20.02
   4  -4  -6   26.20    9.24
  -4   4   6   56.73   26.65
  -4  -4   5   57.02   28.14
  -4   4   5   30.01   17.93
   4   4  -5   36.12   21.30
  -4   4   5   42.34   25.71
   4  -4  -5   40.83   22.75
  -4  -4   5   52.07   22.02
   4  -4  -5   36.51   11.43
   4   4  -5   29.32   20.00
  -4  -4   4    1.71    4.79
  -4  -4   4    1.95    3.98
  -4   4   4    3.00    5.72
  -4   4   4   16.56   12.79
   4  -4  -4    5.02    7.75
   4  -4  -4    7.74    5.55
   4   4  -4    1.97    6.91
   4   4  -4    7.02    9.84
   4   4  -3   23.13   17.96
   4   4  -3    4.17    4.96
  -4  -4   3    9.70   11.05
  -4  -4   3   29.28   14.27
   4   4  -3   24.13   17.90
  -4   4   3   21.22   18.15
  -4   4   3   28.61   17.91
   4  -4  -3   32.49   19.08
   4  -4  -3   17.83    8.91
   4   4  -2   30.34   12.27
  -4  -4   2   31.69   19.42
  -4  -4   2   35.86   14.57
  -4   4   2   33.72   22.75
  -4   4   2   41.48   23.13
   4  -4  -2   20.08   14.54
   4   4  -2   40.06   25.22
   4   4  -2   62.23   29.37
   4  -4  -2   30.43   12.28
   4   4  -1   91.68   20.45
  -4  -4   1  101.76   34.14
  -4  -4   1   93.47   21.49
  -4   4   1  100.89   34.89
   4  -4  -1   88.12   29.59
   4  -4  -1  105.62   24.36
   4   4  -1  140.33   44.15
   4   4  -1  103.73   39.61
   4   4  -1   93.59   32.48
   4   4   0   65.91   14.82
  -4  -4   0   94.79   33.59
  -4   4   0   84.39   33.75
   4  -4   0   69.27   25.30
   4  -4   0   70.38   21.16
   4   4   0   77.58   28.71
   4   4   0   51.28   28.71
   4   4   0   57.63   27.41
   4   4   1   10.59    5.63
  -4  -4  -1    4.30    6.88
   4  -4   1    7.43    9.54
   4   4   1   10.87   12.52
  -4   4  -1    3.12    6.15
   4  -4   1   14.11   11.08
   4  -4   1   11.13    8.62
   4   4   1   19.47   17.94
   4   4   1   20.05   13.57
   4   4   2    9.13    5.25
   4   4   2   13.70   11.60
  -4  -4  -2    3.79    6.47
  -4   4  -2   24.60   17.48
   4  -4   2    7.02    7.59
   4  -4   2   13.90   10.65
  -4  -4  -2   24.17   14.39
   4   4   2   17.39   15.99
   4   4   3  103.05   19.42
  -4  -4  -3   97.26   33.53
  -4  -4  -3  120.88   34.16
   4  -4   3  162.06   46.67
  -4   4  -3  142.53   43.65
   4  -4   3  126.10   31.46
   4  -4   3  131.95   32.92
  -4   4  -3  122.55   37.71
  -4  -4  -3  124.75   41.93
   4   4   3  144.56   38.28
   4   4   3   99.83   39.69
   4   4   4    3.63    5.82
   4   4   4    8.61   11.48
   4   4   4    0.86    3.04
  -4  -4  -4   -6.09    8.34
   4  -4   4   -3.08    6.34
  -4   4  -4    6.34    7.24
  -4   4  -4   -5.75    8.72
   4  -4   4    6.99    7.78
  -4   4  -4   10.00   10.72
  -4  -4  -4  -11.32   12.41
   4  -4   4    2.71    4.49
  -4  -4  -4    9.30    9.51
   4   4   5  148.41   26.77
   4  -4   5  186.87   36.05
  -4  -4  -5  181.50   46.33
   4  -4   5  203.20   53.61
   4  -4   5  211.49   45.52
  -4   4  -5  202.50   49.92
  -4  -4  -5  231.11   57.89
   4   4   5  153.55   49.60
  -4  -4  -5  167.67   42.96
   4   4   5  189.94   43.07
  -4   4  -5  167.01   39.66
  -4   4  -6   22.06   14.06
   4  -4   6   22.33   11.75
   4  -4   6   14.50   14.14
  -4  -4  -6    8.08    9.89
  -4  -4  -6   23.97   15.11
   4  -4   6   18.34   13.62
  -4   4  -6   11.89   12.16
   4   4   6    5.86    9.76
  -4   4  -6   23.05   18.77
  -4  -4  -6   32.83   21.97
  -4  -4  -6   23.41   16.22
   4   4   6    7.86    9.92
  -4   4  -7   16.06   13.38
   4  -4   7   15.34   14.04
  -4  -4  -7   17.59   14.79
   4  -4   7   17.47    8.51
  -4  -4  -7   17.17   12.82
   4   4   7   23.68   19.92
  -4   4  -7   -0.68    2.98
   4  -4   7    5.45    7.69
  -4  -4  -7    6.77   10.18
  -4   4  -7    0.36    2.39
  -4  -4  -7   14.35   13.17
  -4   4  -7    4.68    4.95
   4   4   7    6.31    7.37
  -4   4  -8   -0.92    2.90
  -4   4  -8    0.95    4.01
   4  -4   8    3.25    6.93
  -4  -4  -8    3.06    6.25
   4   4   8    5.94    7.04
  -4  -4  -8   -3.90    6.12
  -4   4  -8   -7.80   10.26
   4  -4   8    8.97   10.22
  -4  -4  -8   -3.90    7.89
   4   4   8    8.89   12.43
  -4  -4  -8    2.33    5.52
  -4   4  -8   -4.83    4.72
   4  -4   8   -0.94    2.08
  -4   4  -9    0.10    0.89
   4  -4   9    2.58    6.31
   4  -4   9    0.52    1.39
  -4   4  -9    8.05   10.62
  -4   4  -9  -15.36   16.47
  -4  -4  -9   20.83   14.04
   4  -4   9    0.92    3.39
  -4  -4  -9    5.96    6.71
   4   4   9    9.35   12.98
  -4   4  -9   -5.83    4.79
  -4  -4  -9   -3.66    7.15
   4   4   9   -0.05    0.63
   4  -4  10   18.70   17.31
  -4   4 -10   -3.66    8.24
  -4   4 -10    8.70    7.93
  -4  -4 -10    9.62    9.37
  -4  -4 -10    1.22    4.60
   4   4  10    6.66   11.16
   4   4  10   -3.61    5.29
  -4  -4 -10   15.34   15.17
  -4   4 -10    0.36    1.78
  -4  -4 -11   15.91   16.80
  -4   4 -11   17.47   18.50
  -4  -4 -11   24.00   14.38
   4  -4  11   33.07   23.54
  -4   4 -11   14.09   12.74
  -4  -4 -11    6.36    4.49
   4   4  11   26.50   22.67
   4   4  11   28.69   14.57
  -4  -4 -11    4.76    8.75
  -4   4 -11    4.90    6.40
   4  -4  12   10.65   13.66
  -4   4 -12   14.14   14.96
   4   4  12   -0.46    3.01
  -4  -4 -12  -13.43   15.65
  -4  -4 -12   13.30   10.24
  -4   4 -12   -2.39    7.02
   4   4  12   19.51   11.71
  -4  -4 -12   24.19   20.40
  -4   4 -12   -5.47    6.72
   4   4  13   12.00   12.30
   4  -4  13  -24.11   20.99
  -4   4 -13   10.53   13.17
   4   4  13   -8.62   13.44
  -4   4 -13   -8.00   13.17
  -4  -4 -13   -2.85    7.29
   4   4  13    6.45    6.53
  -4  -4 -13    4.76    5.77
  -4   4 -13    9.46    8.77
  -4  -4 -13   10.64   13.98
  -4  -5  12   -7.69   13.20
   4   5 -12    0.25    1.95
  -4  -5  12   -5.36    9.56
  -4   5  12   15.26   13.77
   4  -5 -12    9.40   13.76
  -4   5  12   -0.94    4.33
  -4  -5  12    8.65    7.39
  -4  -5  12   -0.44    2.38
  -4  -5  11   42.86   26.47
  -4  -5  11   29.82   21.75
  -4   5  11   21.45   15.88
   4  -5 -11   42.62   28.64
  -4   5  11   17.09   18.10
   4   5 -11   36.62   23.52
  -4  -5  11   27.58   13.01
  -4  -5  11   32.11   19.94
  -4  -5  10   -0.71    3.25
   4  -5 -10   25.47   21.64
  -4   5  10   21.51   15.57
  -4   5  10   -5.69   10.26
  -4  -5  10   11.30    8.24
  -4  -5  10   18.05   19.18
   4   5 -10   21.78   18.07
  -4  -5  10   22.94   16.68
  -4  -5   9   -5.06    9.86
  -4  -5   9   18.96   16.01
   4  -5  -9   -5.47    9.78
  -4   5   9   10.13   10.56
  -4   5   9   -1.24    4.72
  -4  -5   9    0.24    1.20
   4   5  -9   -4.47    8.18
  -4  -5   8   84.52   40.10
  -4  -5   8   72.06   29.99
   4  -5  -8   56.24   30.61
  -4   5   8   56.79   24.84
  -4   5   8   77.13   36.79
  -4  -5   8   64.44   19.92
   4   5  -8   45.27   26.01
   4   5  -7    9.45   11.90
  -4  -5   7   22.98   19.70
  -4  -5   7   23.97   16.49
   4  -5  -7   13.54   14.63
  -4   5   7   24.54   16.34
  -4   5   7   28.06   22.00
   4   5  -7   22.33   17.48
  -4  -5   6  110.02   42.97
   4   5  -6   81.93   35.87
  -4  -5   6   62.93   25.27
   4  -5  -6   93.89   37.60
   4   5  -6   88.18   35.47
  -4   5   6   89.42   31.81
  -4   5   6   89.73   39.15
   4  -5  -6   75.66   21.29
  -4  -5   5   -2.31    5.83
  -4  -5   5    9.70    9.29
  -4   5   5    1.78    5.50
  -4   5   5   18.32   14.33
   4  -5  -5   13.25   13.71
   4   5  -5    3.14    6.93
   4  -5  -5   22.45   11.21
   4   5  -5   15.93   12.11
   4   5  -5   10.33    9.43
  -4  -5   4    7.93   10.46
  -4  -5   4    9.75    8.58
   4  -5  -4    2.17    5.41
  -4   5   4   -7.56   11.33
  -4   5   4    7.34    9.13
  -4  -5   4   10.13    8.99
   4  -5  -4    7.34    9.92
   4   5  -4    9.67   12.21
   4   5  -4    5.83    9.19
   4   5  -4    4.83    7.97
  -4  -5   3   -8.51   10.49
   4   5  -3    4.74    7.83
  -4  -5   3   -2.58    3.96
   4  -5  -3    1.70    4.61
  -4   5   3   12.19   14.31
  -4   5   3    9.45   10.40
   4   5  -3   10.53   12.81
   4   5  -3    2.50    6.10
  -4  -5   3    7.77    7.55
   4  -5  -3    6.93    6.58
  -4  -5   2   15.14   13.55
  -4  -5   2   11.06    7.26
   4   5  -2   14.69   16.83
   4  -5  -2   21.80   16.04
  -4   5   2   12.44   11.98
   4   5  -2   11.57   13.54
   4  -5  -2   13.46    9.46
   4   5  -2    7.55   10.68
  -4  -5   1   14.84   13.14
   4   5  -1   12.17   13.71
  -4  -5   1   16.06    7.39
   4  -5  -1   14.69   12.73
  -4   5   1   14.06   12.81
   4   5  -1   49.23   28.15
   4  -5  -1   11.84    9.16
   4   5  -1   30.15   19.39
  -4   5   0   -6.23    7.77
  -4  -5   0    7.78    9.38
   4   5   0   -7.75   11.00
   4  -5   0   -0.27    1.68
  -4   5   0    5.33    7.93
   4  -5   0    9.04    8.26
   4   5   0   16.75   14.31
  -4   5  -1    2.01    4.44
  -4  -5  -1    5.31    7.66
   4  -5   1   12.32   10.89
  -4   5  -1   -0.44    2.31
   4  -5   1    6.74    7.40
  -4   5  -1   12.35   11.78
  -4  -5  -1    2.43    3.57
  -4  -5  -1    2.47    4.18
   4   5   1    6.51    7.89
   4   5   1   15.87   14.57
  -4  -5  -2   63.85   27.44
   4  -5   2   98.07   38.04
   4   5   2   70.87   34.41
   4  -5   2   81.35   26.92
  -4   5  -2   89.48   33.67
   4   5   2   64.85   27.61
   4  -5   2   74.15   25.33
  -4   5  -2   74.39   29.47
  -4  -5  -2   76.31   34.78
  -4   5  -2   72.90   28.75
  -4  -5  -2   74.45   23.73
  -4  -5  -3    3.12    5.88
   4  -5   3   37.33   23.52
  -4  -5  -3   17.18   11.81
   4  -5   3   35.59   17.21
   4  -5   3   35.30   19.66
  -4   5  -3   25.68   18.15
  -4  -5  -3   20.75   17.63
  -4   5  -3   42.64   20.92
   4   5   3   44.15   27.22
   4   5   3   35.63   19.43
  -4   5  -4   33.79   19.15
  -4  -5  -4   37.41   20.57
   4  -5   4   54.27   28.45
  -4  -5  -4   37.54   23.21
   4   5   4   24.46   20.31
   4  -5   4   27.93   14.69
   4  -5   4   49.66   22.43
  -4   5  -4   18.88   15.50
  -4  -5  -4   29.55   24.22
  -4  -5  -4   19.56   13.11
   4   5   4   35.54   19.67
  -4   5  -5  209.47   48.66
   4  -5   5  204.84   38.41
   4  -5   5  201.56   56.54
   4  -5   5  190.33   45.79
  -4  -5  -5  233.25   52.78
  -4   5  -5  221.36   55.40
  -4  -5  -5  201.45   57.14
   4   5   5  182.07   57.86
  -4  -5  -5  186.16   43.54
   4   5   5  216.61   49.68
  -4  -5  -5  218.46   51.41
  -4   5  -6   54.92   24.68
   4   5   6   26.77    8.72
   4   5   6   17.67    7.58
   4  -5   6   41.26   25.39
  -4  -5  -6   45.40   25.65
  -4  -5  -6   24.62   16.91
   4  -5   6   32.10   20.04
  -4   5  -6   49.06   27.63
   4  -5   6   41.47   16.37
  -4   5  -6   42.75   25.84
  -4  -5  -6   57.44   30.86
   4   5   6   48.50   29.96
  -4  -5  -6   31.62   18.15
   4   5   6   45.18   21.73
  -4   5  -7   12.09   11.60
   4   5   7    1.39    2.39
   4  -5   7   15.95   15.95
  -4  -5  -7    7.77   12.82
  -4  -5  -7   12.67   12.16
   4  -5   7   25.98   17.67
  -4   5  -7   14.73   14.63
   4   5   7    9.61   13.30
  -4  -5  -7   -2.49    6.55
  -4   5  -7   -3.15    7.16
  -4  -5  -7    6.63    8.67
   4   5   7    7.88    9.18
   4  -5   7    0.27    1.22
  -4   5  -8   -5.02    7.47
  -4   5  -8    3.33    7.51
   4   5   8    0.22    1.09
   4  -5   8   27.80   21.45
  -4  -5  -8   -2.43    5.52
   4  -5   8   -0.30    1.14
   4   5   8   14.90   16.83
  -4   5  -8    5.17    8.84
   4  -5   8  -10.16   11.40
  -4  -5  -8   18.56   14.71
  -4  -5  -8   -6.85   11.05
  -4   5  -8    9.30    6.99
   4   5   8    3.25    5.83
  -4  -5  -8   -8.56   10.26
   4   5   9   34.57   15.00
  -4   5  -9   20.77   19.23
   4   5   9   20.77   20.24
  -4  -5  -9   34.11   27.90
   4  -5   9   19.13    7.59
   4  -5   9   15.19   16.15
  -4   5  -9   50.20   28.15
   4  -5   9   29.17   19.91
  -4  -5  -9   49.84   24.01
   4   5   9   40.28   20.27
  -4  -5  -9   52.91   28.61
  -4   5  -9   15.09   12.82
   4   5  10    1.46    3.34
  -4  -5 -10  -17.59   18.37
  -4   5 -10   -9.89   13.58
   4  -5  10  -11.87   14.50
  -4   5 -10   27.60   21.29
   4  -5  10    9.69   11.81
  -4  -5 -10   25.04   16.90
   4   5  10   21.62   21.03
   4   5  10   16.25   12.73
  -4  -5 -10  -10.24   12.13
  -4   5 -10   -1.44    3.92
   4   5  11   96.82   29.66
  -4  -5 -11   89.70   31.59
   4  -5  11   92.97   41.42
  -4  -5 -11   75.17   37.01
  -4   5 -11   91.92   41.02
   4  -5  11   96.25   38.39
   4   5  11  114.87   49.38
  -4   5 -11   82.58   40.28
   4   5  11   94.76   30.31
  -4  -5 -11   71.03   33.14
  -4   5 -11   98.07   33.73
   4   5  12   25.98   16.20
   4  -5  12   31.08   24.38
  -4   5 -12   28.85   22.19
   4  -5  12   10.56   13.11
  -4  -5 -12   62.33   35.70
   4   5  12   26.63   24.28
  -4   5 -12    8.50   13.24
  -4  -5 -12   40.61   20.50
   4   5  12   31.31   17.15
  -4   5 -12   26.57   16.64
  -4  -5 -12   37.06   24.84
  -4  -6  10   39.55   24.28
   4   6 -10   19.07   17.69
  -4   6  10   42.66   21.89
  -4   6  10   36.62   26.84
  -4  -6  10   12.35    9.91
  -4  -6  10    6.21   11.51
   4  -6 -10   54.20   32.21
  -4  -6   9   -8.86   13.33
  -4  -6   9    6.42    9.37
  -4   6   9  -16.45   13.55
  -4   6   9    2.31    6.67
  -4  -6   9   23.13   13.66
   4   6  -9  -21.40   18.75
   4  -6  -9   13.05   15.50
  -4  -6   8   22.35   20.46
  -4  -6   8   20.70   16.07
  -4   6   8   11.46   11.35
  -4   6   8   15.49   17.12
   4   6  -8   -9.53   12.54
   4   6  -8   33.40   21.64
   4  -6  -8    6.37   10.62
   4   6  -7    3.52    7.64
  -4  -6   7   20.92   19.15
  -4  -6   7   22.97   16.12
  -4   6   7   31.50   24.28
  -4   6   7   16.64   13.70
   4   6  -7   15.38   15.69
   4  -6  -7   -7.88   11.56
  -4  -6   6   29.66   21.26
  -4  -6   6   18.89   13.74
  -4   6   6    8.26   12.43
  -4   6   6   23.60   16.31
   4   6  -6   32.78   23.43
   4   6  -6   26.15   19.83
   4   6  -6   21.57   18.43
   4  -6  -6    8.34   11.63
  -4  -6   5    4.36    8.15
  -4  -6   5   26.55   15.11
  -4  -6   5   10.43    8.53
  -4   6   5   -0.22    1.44
  -4   6   5   25.09   16.77
   4   6  -5    8.78   12.17
   4  -6  -5    7.39    7.45
  -4   6   5   20.18   15.30
   4   6  -5   10.53   12.82
   4   6  -5   13.95   14.35
   4  -6  -5   30.29   21.70
  -4   6   4   43.29   22.98
  -4  -6   4   19.66   16.69
   4  -6  -4   32.43   21.99
  -4  -6   4   29.67   14.39
  -4  -6   4   44.91   17.07
  -4   6   4   69.81   35.79
  -4   6   4   29.09   17.98
   4   6  -4   41.48   25.79
   4  -6  -4   19.61   12.35
   4   6  -4   55.10   30.64
   4   6  -4   37.41   23.13
   4  -6  -4   38.39   23.87
  -4   6   3   27.99   18.32
  -4  -6   3   16.93   14.98
   4  -6  -3   20.56   17.02
  -4  -6   3   19.80   10.16
  -4  -6   3   18.21   10.57
  -4   6   3    4.17    8.75
   4  -6  -3   19.83   12.68
  -4  -6   3   31.24   21.48
   4   6  -3   50.39   28.75
   4   6  -3   34.51   22.73
   4  -6  -3   28.60   20.12
  -4   6   2    1.89    4.74
  -4  -6   2    2.93    6.02
   4  -6  -2   13.76   13.51
  -4  -6   2    2.54    2.95
   4   6  -2   22.45   19.37
  -4   6   2   -0.54    2.44
  -4  -6   2    3.00    4.17
   4  -6  -2   -4.87    6.40
  -4  -6   2    0.70    3.25
   4   6  -2   32.37   21.83
   4  -6  -2   -0.27    1.92
   4  -6  -1   21.72   15.85
  -4   6   1   24.57   16.56
   4   6  -1    7.97   11.59
   4  -6  -1   11.89   10.26
  -4   6   1    9.92   10.67
  -4   6   1   17.85   12.78
  -4  -6   1   13.95   14.63
  -4  -6   1    5.50    5.36
   4   6  -1    9.69   11.82
  -4  -6   1    4.53    7.32
  -4   6   0   28.96   18.56
  -4  -6   0    9.46   10.40
   4  -6   0   -1.33    3.93
  -4   6   0    0.35    2.00
   4  -6   0   12.70   10.84
  -4   6   0    8.97   10.32
  -4  -6   0    6.39   10.02
  -4  -6   0    0.54    1.71
   4   6   0    2.06    5.93
   4   6   0    0.94    8.32
  -4   6  -1    6.69    8.97
  -4  -6  -1   -1.54    4.14
   4  -6   1    8.21    9.42
  -4   6  -1   13.27   12.51
  -4  -6  -1   -9.04   11.18
   4  -6   1    2.79    5.22
  -4   6  -1    1.06    3.61
  -4  -6  -1   15.93   15.99
   4   6   1   12.70   14.80
  -4  -6  -1   -3.27    4.34
   4   6   1    2.39    5.80
  -4   6  -2   -6.31    8.80
  -4  -6  -2  -12.71   11.82
   4  -6   2  -12.08   11.00
  -4  -6  -2   12.59   13.16
   4  -6   2    0.11    1.03
  -4   6  -2  -11.48   12.16
  -4  -6  -2    1.24    4.52
   4   6   2   13.03   15.15
  -4  -6  -2   -1.55    3.12
   4   6   2    3.09    6.53
  -4   6  -3    8.18   10.11
  -4  -6  -3    9.59   10.27
   4  -6   3  -14.30   15.15
   4  -6   3    0.73    2.62
  -4  -6  -3   13.71   13.73
   4  -6   3   -6.21    8.20
  -4   6  -3   -5.04    8.24
  -4  -6  -3   -9.32   12.54
   4   6   3   29.77   23.11
  -4  -6  -3   18.26   11.29
   4   6   3   -4.17    7.51
  -4   6  -4    9.38   10.97
  -4  -6  -4  -13.08   12.11
   4  -6   4    0.10    1.28
   4  -6   4   16.74   11.89
   4  -6   4   -3.38    6.20
  -4  -6  -4   -1.54    4.58
  -4   6  -4  -14.74   14.44
  -4  -6  -4    0.81    3.76
   4   6   4   -3.22    7.69
  -4  -6  -4   -8.54    8.15
   4   6   4   -4.61    7.85
  -4   6  -5   28.93   19.40
   4  -6   5   39.91   25.87
  -4  -6  -5   26.65   17.47
   4  -6   5   15.36   13.57
  -4  -6  -5   27.72   19.50
  -4   6  -5   11.06   12.81
  -4  -6  -5   23.38   20.48
   4   6   5   32.42   22.41
  -4  -6  -5   24.95   14.66
   4   6   5   23.46   17.55
  -4   6  -6   90.91   33.98
   4  -6   6   73.20   35.49
  -4  -6  -6  110.51   35.33
   4   6   6   67.18   36.14
   4   6   6   79.72   32.75
   4  -6   6   69.75   22.02
   4  -6   6   47.25   24.51
  -4   6  -6   22.46   18.67
  -4  -6  -6   54.40   26.41
  -4   6  -6   74.55   34.59
  -4  -6  -6   43.97   28.52
  -4  -6  -6   60.00   24.32
  -4   6  -7   -0.22    1.70
   4  -6   7   -2.57    6.18
  -4  -6  -7   -3.38    6.32
   4  -6   7    4.98    8.16
  -4   6  -7   -4.50    8.56
  -4  -6  -7   30.72   20.57
   4  -6   7    3.80    4.79
  -4   6  -7   17.39   17.01
  -4  -6  -7    2.65    7.13
   4   6   7   -3.90    7.07
   4   6   7   -2.20    6.66
  -4  -6  -7   -0.32    1.84
  -4   6  -8    0.84    3.33
  -4  -6  -8   -3.84    8.72
   4  -6   8   11.65   13.92
  -4   6  -8   37.95   25.62
   4  -6   8    5.41    8.73
  -4   6  -8   -2.43    6.42
  -4  -6  -8    5.61    8.80
   4   6   8   18.80   13.36
   4   6   8    9.65   11.05
  -4  -6  -8    6.29    8.53
   4  -6   8    8.26    6.25
  -4  -6  -9   -2.17    6.67
   4  -6   9    4.04    8.64
  -4   6  -9  -14.00   15.77
   4  -6   9   16.50   15.74
  -4  -6  -9    5.23    8.50
  -4   6  -9    9.73   13.27
   4   6   9    6.80   12.09
   4   6   9   15.71   13.98
  -4  -6  -9  -18.61   15.33
  -4   6  -9   16.20   14.58
  -4  -6 -10  -19.78   16.49
  -4  -6 -10   33.84   21.56
   4  -6  10   -9.38   13.43
  -4   6 -10    4.60    3.92
   4  -6  10  -11.43   13.46
  -4  -6 -10    4.50    9.78
   4   6  10   -5.14   10.72
  -4   6 -10    1.81    5.85
   4   6  10   -4.31    7.26
  -4   6 -10    4.77    7.86
  -4   7   7   -2.03    5.63
  -4  -7   7    0.52    3.06
  -4  -7   7   16.80   13.74
  -4   7   7    7.94   12.76
   4   7  -7   14.00   16.01
  -4   7   7   -8.62    9.59
  -4  -7   7    8.69   11.52
   4   7  -7   -0.84    3.66
   4  -7  -7    1.82    5.83
  -4   7   6   -1.66    5.01
  -4  -7   6    6.66   10.57
  -4  -7   6   13.92   11.70
   4   7  -6    5.53   15.19
  -4   7   6   -0.33    2.58
   4   7  -6   11.38   13.74
  -4   7   6   -3.30    5.85
  -4  -7   6    3.01    6.85
   4  -7  -6  -13.79   15.72
  -4   7   5   -6.96   10.11
  -4  -7   5   -9.04   11.87
  -4  -7   5   -1.00    2.87
  -4   7   5   -3.23    8.05
  -4   7   5   18.04   13.55
   4  -7  -5   13.35   11.21
  -4  -7   5  -18.99   17.36
   4   7  -5   -8.64   12.14
   4   7  -5   -3.14    7.43
   4  -7  -5   -8.26   11.94
  -4   7   4    2.11    5.52
  -4  -7   4    5.55    8.97
  -4  -7   4    4.88    5.56
   4   7  -4    6.90   10.98
  -4   7   4    2.03    4.50
   4  -7  -4    6.13    7.70
  -4  -7   4    2.58    6.50
  -4   7   4   -0.02    4.17
  -4  -7   4   12.71   14.35
   4   7  -4   10.18   13.28
   4  -7  -4   14.12   18.82
  -4   7   3   34.16   23.32
  -4  -7   3   93.32   35.57
   4   7  -3   79.41   37.55
  -4   7   3   71.87   25.41
   4  -7  -3   74.66   29.55
  -4  -7   3   70.38   34.03
  -4   7   3   64.67   27.71
  -4  -7   3   68.64   32.45
   4   7  -3   86.79   38.45
   4  -7  -3  102.59   41.56
  -4  -7   2   -2.88    6.06
  -4   7   2   -7.32    8.64
  -4   7   2   16.20   15.09
   4  -7  -2   -4.52    6.80
  -4  -7   2    9.45   12.36
  -4   7   2    2.92    5.98
  -4  -7   2    9.32   12.54
   4   7  -2   -0.89    3.87
   4  -7  -2   24.85   20.89
   4   7  -2   -0.70    3.55
  -4   7   1    2.74    6.21
  -4  -7   1   -1.44    4.17
   4  -7  -1    2.14    4.76
  -4  -7   1    6.42   10.18
  -4   7   1   -2.55    5.67
  -4  -7   1   14.68   15.90
   4   7  -1    9.81   13.38
   4   7  -1  -11.73   13.93
   4  -7  -1    4.14    7.74
  -4   7   0   46.29   25.55
   4  -7   0   45.35   24.41
  -4  -7   0   58.40   25.95
   4   7   0   39.56   26.99
   4  -7   0   54.58   24.49
  -4  -7   0   54.08   29.50
  -4   7   0   61.14   30.15
  -4  -7   0   72.71   35.74
   4   7   0   43.34   26.55
   4  -7   0   56.30   31.31
  -4   7  -1    1.28    4.26
   4  -7   1    2.33    5.34
  -4  -7  -1   -2.62    5.39
   4   7   1   18.13   22.41
   4  -7   1    5.63    8.00
  -4  -7  -1    7.67   11.08
  -4   7  -1   -0.03   20.56
  -4  -7  -1    8.69   12.49
   4   7   1   20.61   18.18
  -4  -7  -1   -1.93    2.65
   4  -7   2    9.49   10.40
  -4  -7  -2    6.13    8.20
  -4   7  -2   17.94   16.12
   4  -7   2   -2.79    5.75
  -4  -7  -2    9.70   12.44
  -4   7  -2   -1.78    5.04
  -4  -7  -2  -12.14   14.95
   4   7   2    5.01    9.78
   4   7   2    3.96    7.91
  -4  -7  -2   -6.69    5.45
  -4   7  -3   -9.48   11.81
   4   7   3   -9.38   12.14
  -4  -7  -3   27.14   17.20
   4  -7   3   -0.62    3.30
   4  -7   3   -1.93    4.90
   4  -7   3    0.05    0.67
  -4  -7  -3  -13.87   14.84
  -4   7  -3   16.87   15.90
  -4  -7  -3    0.81    3.90
   4   7   3  -12.11   15.36
  -4  -7  -3   -2.93    3.96
  -4   7  -4   14.88   14.95
   4   7   4   -1.65    5.06
   4  -7   4  -11.52   14.38
   4  -7   4    4.39    6.48
  -4  -7  -4    2.74    5.48
   4  -7   4   16.34   14.55
  -4  -7  -4   37.39   24.35
  -4   7  -4   23.06   19.02
  -4  -7  -4   31.43   24.66
   4   7   4   19.15   19.54
  -4  -7  -4  -19.54   11.13
  -4  -7  -5   -1.00    2.71
  -4   7  -5   15.57   15.41
   4  -7   5    3.46    7.94
  -4  -7  -5   13.54   12.28
   4  -7   5    3.09    5.15
   4  -7   5   30.15   20.21
  -4   7  -5   -2.92    6.93
  -4  -7  -5   -0.32    2.27
  -4   7  -5    1.70    5.23
  -4  -7  -5  -16.07   17.88
   4   7   5   12.32   15.91
   4   7   5    1.19    4.26
  -4   7  -6   40.37   24.97
   4   7   6   47.22   26.74
   4  -7   6   31.29   24.14
  -4  -7  -6   29.09   18.07
   4  -7   6   28.50   14.77
   4  -7   6   30.81   20.89
  -4   7  -6   39.01   25.95
  -4  -7  -6   33.75   26.31
  -4  -7  -6   21.49   18.50
  -4   7  -6    7.16   10.89
   4   7   6   26.95   23.89
  -4  -7  -6   38.42   17.99
  -5   0  14  -17.53   19.42
  -5   0  14  -17.47   19.64
   5   0 -14   -0.32    2.31
  -5   0  13  107.14   48.19
  -5   0  13  105.85   47.06
   5   0 -13   80.22   39.10
  -5   0  12   12.46   15.66
  -5   0  12    9.11   13.44
   5   0 -12   -5.12    9.07
  -5   0  11   39.25   27.22
  -5   0  11   29.02   23.40
   5   0 -11   32.04    7.80
   5   0 -11   23.62   19.12
  -5   0  10   16.79   17.39
  -5   0  10    2.62    6.83
   5   0 -10   -9.49   11.90
  -5   0   9    8.31   11.92
  -5   0   9   42.56   26.99
  -5   0   9   11.41    4.93
   5   0  -9   23.67   18.47
  -5   0   8    3.30    7.32
  -5   0   8    7.77   11.19
  -5   0   8   -2.06    2.08
   5   0  -8   -2.30    5.66
  -5   0   7   37.44   24.13
  -5   0   7   35.73   23.41
  -5   0   7   20.53    7.12
   5   0  -7   20.45   16.61
  -5   0   6   -9.86   12.06
  -5   0   6   -7.48   10.53
   5   0  -6   -0.76    1.17
   5   0  -6  -17.93   15.34
  -5   0   5   44.45   26.06
  -5   0   5   63.21   30.01
   5   0  -5   61.12   12.46
   5   0  -5   60.20   28.64
   5   0  -4    4.90    7.85
  -5   0   4    1.63    4.74
  -5   0   4    1.24    4.12
   5   0  -4    8.72    5.23
   5   0  -3   33.70   19.31
  -5   0   3   83.55   34.70
  -5   0   3   46.24   27.26
   5   0  -3   45.90   13.20
  -5   0   2    0.11    5.79
   5   0  -2    1.03   11.16
  -5   0   2   -4.33    7.51
   5   0  -2   -0.54    2.87
  -5   0   1  184.57   50.95
  -5   0   1  180.48   49.22
  -5   0   1  145.51   30.75
   5   0  -1  160.48   29.32
   5   0  -1  154.37   45.79
  -5   0   0  -12.22   13.00
   5   0   0   -0.44    1.62
   5   0   0    3.74    6.72
   5   0   1    4.39    5.39
   5   0   1   -6.25    8.67
   5   0   1    0.71    3.01
  -5   0  -2   16.25   15.31
   5   0   2   -3.77    5.26
   5   0   2   -2.85    5.99
   5   0   2   -4.52    7.35
   5   0   3   21.99   18.12
   5   0   3   70.98   28.90
  -5   0  -3   47.49   29.51
   5   0   3   28.28   16.04
  -5   0  -4   -6.91   10.21
   5   0   4   -6.07    8.50
   5   0   4   -7.51    8.15
   5   0   4    4.66    7.70
   5   0   5   16.10   13.90
  -5   0  -5    9.08   11.82
   5   0   5    6.48    7.89
   5   0   5    5.79    5.45
   5   0   6   -2.44    5.45
   5   0   6   11.29   12.16
  -5   0  -6  -13.81   14.71
   5   0   6    9.59    9.97
  -5   0  -6  -15.28   15.85
   5   0   7  295.50   62.15
   5   0   7  268.23   55.51
  -5   0  -7  246.71   63.56
  -5   0  -7  365.39   81.74
   5   0   7  270.74   60.46
   5   0   8    0.92    3.52
  -5   0  -8   -2.54    6.44
   5   0   8    0.19    1.54
  -5   0  -8   10.54   24.05
   5   0   9   28.77   20.00
   5   0   9   28.09   19.78
  -5   0  -9   40.52   28.02
  -5   0  -9   41.61   13.95
   5   0  10    7.21    9.97
  -5   0 -10    6.45    8.08
  -5   0 -10   -4.71    7.39
  -5   0 -10  -20.96   20.67
   5   0  10   -3.14    6.69
  -5   0 -10   -9.99    6.47
   5   0  11    0.03    0.67
   5   0  11   -9.24   11.63
  -5   0 -11    1.63    4.11
  -5   0 -11   15.50   13.68
  -5   0 -11   -0.79    4.12
  -5   0 -11   -4.12    3.80
   5   0  12   -2.20    5.86
  -5   0 -12   -8.89    9.70
  -5   0 -12    9.11   10.60
   5   0  12   17.09   16.04
  -5   0 -12   -7.58   13.09
   5   0  13   21.72   19.02
  -5   0 -13   12.90   11.92
  -5   0 -13   41.99   22.73
   5   0  13   48.12   27.41
  -5   0 -13   67.32   40.09
   5   0  14    9.30   12.86
  -5   0 -14  -21.35   15.72
  -5   0 -14   -2.30    5.26
   5   0  14   16.94   16.53
  -5   0 -14    0.30    2.77
  -5  -1  14   24.51   23.43
  -5   1  14   16.01   18.21
  -5  -1  14   13.35   16.96
  -5   1  14    8.58   13.89
   5  -1 -14   -3.74    8.08
  -5  -1  14    8.89    7.35
   5   1 -14   14.77   15.96
  -5  -1  13   22.46   21.99
  -5   1  13   62.30   34.59
  -5  -1  13   29.21   24.51
  -5   1  13   48.73   32.32
   5  -1 -13   39.10   25.68
  -5  -1  13   42.43   15.45
   5   1 -13   22.70   19.48
  -5  -1  12   53.36   33.21
  -5   1  12   38.80   27.04
  -5  -1  12   81.00   41.26
  -5   1  12   64.24   36.11
  -5  -1  12   45.45   15.41
   5  -1 -12   27.69   21.21
   5   1 -12   41.67   25.96
  -5  -1  11  -11.63   15.19
  -5   1  11  -13.62   15.63
  -5  -1  11   12.82   15.36
  -5   1  11   -5.44   10.22
   5  -1 -11   -7.40    6.04
   5  -1 -11   -3.31    7.20
   5   1 -11   -4.69    8.56
  -5  -1  10    6.71   11.25
  -5   1  10    4.17    8.42
  -5  -1  10   21.11   19.15
  -5   1  10   -0.33    2.49
   5  -1 -10    8.80    6.58
   5  -1 -10    9.11   11.71
   5   1 -10   -0.03   19.81
  -5  -1   9    4.50    9.02
  -5   1   9    5.50    9.43
  -5  -1   9  -16.60   16.55
  -5   1   9   -3.27    7.56
  -5  -1   9    0.46    1.51
   5  -1  -9    0.87    2.03
   5  -1  -9   -0.06    0.92
   5   1  -9    6.50    6.90
   5   1  -8   25.06   18.86
  -5  -1   8   25.68   21.00
  -5   1   8   34.70   23.02
  -5  -1   8   59.68   30.47
  -5  -1   8   28.96   11.81
   5  -1  -8   45.02   25.03
  -5   1   8   35.95   24.46
   5   1  -7    7.66   10.29
  -5  -1   7   12.62   14.38
  -5   1   7   13.30   13.92
  -5   1   7   28.14   22.52
  -5  -1   7   12.21   13.44
   5  -1  -7   24.09   17.99
  -5  -1   6    7.64   15.11
  -5   1   6    8.04   10.62
   5   1  -6    5.28    8.43
  -5  -1   6   21.27   17.25
  -5   1   6   -9.94   12.44
   5  -1  -6   -3.44    6.69
   5  -1  -6    6.21    5.37
  -5  -1   5   76.78   34.65
  -5   1   5   62.79   29.82
  -5  -1   5   82.85   33.29
  -5   1   5   35.16   25.47
   5   1  -5   71.96   31.34
   5  -1  -5   52.15   16.34
   5  -1  -5   52.78   25.79
  -5  -1   4   91.76   37.79
  -5   1   4   63.28   29.59
  -5  -1   4   79.34   31.78
  -5   1   4   72.11   32.64
   5   1  -4   51.29   11.03
   5  -1  -4   66.16   18.58
   5   1  -4   77.24   32.61
  -5   1   4   52.69    9.94
   5  -1  -4   51.28   25.09
  -5  -1   3  -18.55   16.09
  -5   1   3   11.13   12.16
  -5  -1   3  -10.83   11.49
  -5   1   3   10.21   12.17
   5  -1  -3   -2.82    3.84
   5   1  -3   -2.06    5.15
   5   1  -3   -1.43    2.08
  -5   1   3   -2.46    2.57
   5  -1  -3   -0.10    1.09
  -5  -1   2  110.75   39.91
  -5   1   2   80.46   34.75
  -5  -1   2   72.20   29.47
  -5   1   2   89.59   36.82
  -5  -1   2   51.85   14.80
   5  -1  -2   70.51   20.46
   5   1  -2   82.93   17.72
   5   1  -2  101.40   36.49
  -5   1   2   83.68   17.23
   5  -1  -2   79.95   30.81
   5  -1  -1  102.37   35.16
  -5  -1   1   83.77   34.76
  -5   1   1   87.80   35.13
  -5  -1   1   98.29   34.56
  -5   1   1  114.19   40.21
  -5  -1   1   86.34   20.59
   5  -1  -1   89.57   23.92
   5   1  -1   87.07   20.12
  -5   1   1   90.46   19.64
   5   1  -1  106.12   37.61
   5   1  -1   86.39   34.95
   5  -1   0   36.85   20.69
  -5  -1   0   62.61   32.67
  -5   1   0   41.89   25.90
  -5  -1   0   40.36   15.85
   5  -1   0   33.48   15.84
   5   1   0   44.70   16.17
   5   1   0   22.84   16.82
   5   1   0   41.72   23.22
   5   1   1   24.51   17.80
  -5  -1  -1    1.06    4.22
  -5   1  -1   27.20   20.92
   5  -1   1   14.36   12.84
   5  -1   1    4.07    5.47
   5   1   1   10.16    5.36
   5   1   1   19.07   12.40
  -5  -1  -2  202.12   54.34
   5  -1   2  173.63   37.49
   5   1   2  196.76   37.16
   5   1   2  192.24   51.58
   5   1   2  188.77   50.91
   5  -1   2  185.65   46.75
  -5   1  -2  271.37   64.99
  -5  -1  -3   36.51   25.47
  -5   1  -3   52.34   28.01
   5  -1   3   34.32   17.18
   5   1   3   46.27   26.53
   5   1   3   62.31   22.00
   5   1   3   30.77   20.15
   5  -1   3   26.73   17.20
  -5  -1  -4   55.35   30.61
  -5   1  -4   99.16   39.56
   5  -1   4   84.63   28.41
   5   1   4   90.89   27.79
   5   1   4   72.41   32.99
   5  -1   4   82.35   30.37
   5  -1   4   68.60   29.40
   5   1   4   83.01   35.00
   5  -1   5   43.88   22.81
  -5  -1  -5   52.29   28.20
  -5   1  -5   61.91   32.35
   5  -1   5   61.11   24.97
   5   1   5   39.71   18.85
   5   1   5   61.31   28.98
  -5  -1  -5   85.72   35.95
   5  -1   5   54.43   25.87
   5   1   5   66.08   31.34
   5   1   6    8.67   11.11
  -5  -1  -6    1.08    4.09
  -5   1  -6  -10.16   12.71
   5  -1   6   -8.83    9.72
   5   1   6    0.25    1.62
   5  -1   6    1.76    4.33
   5   1   6   -4.31    7.77
  -5   1  -6   14.87   15.84
  -5  -1  -6   -1.43    4.79
   5  -1   6    6.58    8.94
   5  -1   7    2.52    5.20
  -5  -1  -7   15.50   15.68
   5  -1   7    4.17    6.91
  -5   1  -7    3.84    7.89
   5  -1   7   18.94   15.28
   5   1   7   16.12   13.47
  -5   1  -7    9.94   13.30
  -5  -1  -7    0.17    1.70
   5   1   7   -1.51    6.26
   5  -1   8   53.39   24.06
  -5   1  -8   30.85   24.05
  -5  -1  -8   39.50   25.30
   5  -1   8   30.51   19.28
  -5   1  -8   46.19   27.76
   5   1   8   36.77   21.18
   5  -1   8   38.12   21.35
  -5  -1  -8   34.46   24.78
   5   1   8   32.84   22.13
   5   1   9   14.16   14.77
  -5   1  -9    1.57    5.56
   5  -1   9    3.84    7.05
  -5  -1  -9   12.46   14.38
   5   1   9   -2.11    5.26
  -5   1  -9   18.89   14.52
  -5  -1  -9   -1.84    4.85
   5  -1   9   21.34   16.41
  -5  -1  -9   16.07   17.37
  -5  -1  -9    8.72    6.78
   5  -1  10   12.43   14.61
  -5   1 -10   29.51   24.74
   5  -1  10   18.99   14.90
   5   1  10   33.53   23.17
  -5   1 -10   13.55   15.45
  -5  -1 -10   11.57   12.41
   5   1  10    6.07    9.81
  -5  -1 -10    4.57    9.53
  -5  -1 -10   22.46   10.41
  -5   1 -11    2.08    2.90
   5  -1  11   22.46   17.15
   5  -1  11   20.34   17.29
   5   1  11   30.12   21.32
  -5   1 -11   20.40   15.36
  -5  -1 -11   22.29   14.23
  -5   1 -11   16.34   13.01
  -5  -1 -11   33.51   21.56
   5   1  11   13.38   14.79
  -5   1 -11   12.40   16.47
  -5  -1 -11   32.16   25.93
  -5  -1 -11   11.63    7.20
  -5   1 -12    5.39    4.23
   5  -1  12   -2.81    6.13
   5  -1  12    3.28    7.15
   5   1  12   13.44   14.73
  -5  -1 -12    0.48    1.32
  -5   1 -12   -2.98    5.96
  -5  -1 -12   -1.81    4.11
  -5   1 -12    7.09    8.61
  -5  -1 -12    5.48    8.83
   5   1  12   12.16   14.35
  -5   1 -12   -4.74   10.43
  -5  -1 -12   -6.66   12.11
   5  -1  13    1.19    4.42
   5  -1  13   -4.68    8.00
   5   1  13    9.69   12.90
  -5   1 -13    1.32    4.04
  -5  -1 -13   10.60   10.11
  -5   1 -13   13.31   11.70
  -5  -1 -13   -0.14    1.46
   5   1  13   18.72   18.13
  -5   1 -13  -14.61   18.82
  -5  -1 -13   24.05   24.52
  -5  -1 -14    0.90    3.61
   5  -1  14    2.84    7.07
   5   1  14    4.45    9.04
  -5   1 -14   -6.02    8.86
  -5  -1 -14    3.11    5.63
  -5   1 -14   -6.55    8.02
   5  -1  14    2.09    5.42
   5   1  14   13.52   15.68
  -5   1 -14    6.07   12.44
  -5  -1 -14   30.62   27.36
  -5  -2  13   30.89   26.38
  -5   2  13    2.24    6.48
   5   2 -13   26.08   21.10
  -5  -2  13   15.14   17.45
  -5   2  13   29.09   25.17
   5  -2 -13   19.10   18.34
  -5  -2  13   32.21   15.80
  -5  -2  12   -0.35    2.76
  -5   2  12   16.30   17.06
   5   2 -12   -0.68    3.34
  -5  -2  12    5.39   10.49
  -5   2  12    2.33    6.97
   5  -2 -12  -11.21   13.77
  -5  -2  12    7.09    7.29
  -5   2  11    6.72   10.65
  -5  -2  11   -9.42   13.06
   5   2 -11   15.58   15.79
  -5  -2  11   21.30   21.02
  -5   2  11   15.33   17.40
  -5  -2  11   -3.46    5.02
   5  -2 -11    3.68    7.72
  -5  -2  10   -8.75   13.17
  -5   2  10    3.58    7.58
  -5  -2  10   -5.47    9.65
  -5   2  10   -2.95    7.45
   5   2 -10    9.64   12.22
  -5  -2  10   -2.95    4.58
   5  -2 -10   11.16   13.17
  -5  -2   9    0.97    4.28
  -5   2   9   -4.82    8.53
  -5  -2   9   -9.43   12.30
  -5   2   9    3.25    7.67
   5   2  -9    3.34    7.10
  -5  -2   9   -1.84    3.55
   5  -2  -9  -16.44   15.65
  -5  -2   8   25.81   24.47
  -5   2   8   59.98   29.36
  -5  -2   8   47.71   26.90
  -5   2   8   72.47   35.52
   5   2  -8   40.26   24.28
   5  -2  -8   15.33   14.79
  -5  -2   7   16.15   16.64
  -5   2   7   15.22   14.50
  -5  -2   7    9.49   16.79
  -5   2   7   18.74   21.40
   5   2  -7   14.76   14.54
   5  -2  -7   21.57   13.52
  -5  -2   6   56.08   32.51
  -5   2   6   73.66   31.42
  -5  -2   6   37.98   22.68
  -5   2   6   54.18   29.82
   5   2  -6   50.47   27.20
   5  -2  -6   34.35   21.29
  -5  -2   5   11.22   13.19
  -5   2   5    8.02   10.30
  -5  -2   5   19.35   15.52
  -5   2   5    2.27    6.02
   5   2  -5    3.95    7.42
   5  -2  -5    7.78    9.94
  -5  -2   4   -4.79    8.42
  -5   2   4   20.13   16.07
  -5  -2   4   17.50   14.35
  -5   2   4   17.58   19.05
   5  -2  -4   20.16   12.43
  -5  -2   4    6.21    3.95
   5   2  -4   26.82   19.24
   5  -2  -4    9.72   13.81
  -5  -2   3   22.95   18.29
  -5   2   3   32.45   20.97
  -5  -2   3   49.49   23.76
  -5   2   3   27.57   20.81
   5  -2  -3   46.52   18.85
  -5  -2   3   37.81   10.62
  -5   2   3   48.12   11.92
   5  -2  -3   80.21   30.48
   5   2  -3   53.01   25.63
   5   2  -3   47.95   25.76
  -5  -2   2  127.70   44.38
  -5   2   2  109.39   38.63
  -5  -2   2  103.13   33.03
  -5   2   2  102.18   41.10
   5  -2  -2   80.14   25.28
  -5  -2   2   83.65   17.25
  -5   2   2   88.51   17.75
   5   2  -2   68.35   30.81
   5  -2  -2   93.65   33.43
   5   2  -2   88.64   36.14
   5   2  -1    7.69   10.35
  -5  -2   1    8.20   10.68
  -5   2   1    3.03    6.48
  -5  -2   1    4.61    6.07
  -5   2   1   29.17   19.01
   5  -2  -1   22.18   13.36
  -5  -2   1    0.25    1.06
  -5   2   1    9.23    6.17
   5   2  -1   -6.06    9.16
   5  -2  -1    9.19   10.27
   5   2   0    7.96   10.57
  -5  -2   0    2.47    5.85
  -5   2   0   -1.46    4.55
   5   2   0    0.67    3.04
   5  -2   0    6.28    8.02
  -5  -2   0   24.60   11.44
   5   2   0   32.24   13.96
  -5   2   0    6.82    5.74
   5  -2   0    8.89   10.03
   5  -2   1  224.37   51.28
   5   2   1  233.95   59.08
  -5  -2  -1  244.93   58.70
   5  -2   1  235.88   45.41
   5   2   1  210.77   37.84
   5   2   1  212.83   55.75
  -5   2  -1  261.45   62.45
   5  -2   2   67.00   27.57
  -5  -2  -2   60.74   27.30
  -5   2  -2  104.86   39.63
   5  -2   2   86.12   29.37
   5   2   2   49.98   19.39
   5   2   2   43.64   25.11
   5   2   2   83.12   35.51
  -5  -2  -3   28.79   20.46
   5  -2   3   10.91   10.79
  -5   2  -3   15.87   15.57
   5  -2   3   -3.30    5.66
   5   2   3    0.30    2.12
   5   2   3   -5.48    6.72
   5   2   3   20.27   17.23
  -5  -2  -4   -3.57    7.28
  -5   2  -4    4.01    7.91
   5  -2   4    2.36    5.74
   5   2   4   -7.23    8.07
   5  -2   4  -12.67   11.41
   5   2   4    1.35    2.69
   5   2   4    4.98    8.69
   5   2   5   55.13   29.28
  -5  -2  -5   52.82   29.42
   5  -2   5   46.90   21.53
  -5   2  -5  107.23   43.92
   5   2   5   41.34   25.11
   5   2   5   47.97   22.67
  -5  -2  -5   42.02   23.65
   5  -2   5   37.27   19.18
   5  -2   6   46.32   20.97
  -5  -2  -6   40.39   25.00
   5  -2   6   21.59   15.80
  -5  -2  -6   17.29   14.79
  -5   2  -6   35.90   24.14
   5   2   6   18.02   13.92
   5   2   6   51.48   28.42
   5  -2   7    6.74    8.80
  -5  -2  -7   15.42   14.46
   5  -2   7    0.14    1.36
  -5   2  -7   -5.04    9.16
   5   2   7    0.21    1.59
   5  -2   7   -0.32    1.74
  -5  -2  -7   -1.68    5.22
   5   2   7    0.30    2.17
  -5   2  -7    7.32   11.52
   5  -2   8   -3.01    5.28
   5  -2   8   -3.12    6.39
  -5  -2  -8  -10.27   12.86
   5   2   8    3.73    6.85
  -5   2  -8   19.08   15.23
  -5  -2  -8   -0.70    3.12
  -5   2  -8   13.82   16.22
   5  -2   8  -25.76   17.23
   5   2   8  -20.56   18.42
  -5  -2  -8    6.85   10.81
  -5   2  -9   37.69   27.44
   5  -2   9    0.78    3.28
  -5  -2  -9  -13.47   14.90
   5   2   9   15.00   17.12
   5  -2   9   -7.48    9.30
  -5   2  -9   13.06   12.71
   5  -2   9   -1.87    4.15
  -5  -2  -9    9.56   11.76
   5   2   9   21.89   19.28
  -5  -2  -9   -2.43    6.63
  -5   2 -10    1.54    3.01
   5  -2  10    9.59   10.57
   5  -2  10   13.52   14.03
   5   2  10   -3.49    7.13
  -5   2 -10    1.52    4.39
  -5  -2 -10    8.54   11.37
  -5   2 -10    1.33    5.28
   5   2  10   28.15   22.26
  -5  -2 -10    1.47    5.29
  -5  -2 -10    8.84    7.53
  -5   2 -11   26.77   12.24
   5   2  11    2.16    6.25
   5  -2  11    2.24    5.85
   5   2  11   -2.90    6.74
  -5  -2 -11    8.48    7.16
  -5   2 -11    3.47    6.72
  -5  -2 -11   10.14    8.97
   5  -2  11   -2.69    5.63
  -5  -2 -11   25.71   20.08
  -5   2 -11   23.36   22.70
  -5  -2 -11   -6.93   11.79
  -5   2 -12    6.40    5.60
   5  -2  12   12.22   12.06
   5  -2  12    4.20    8.24
   5   2  12   15.69   16.20
  -5  -2 -12   16.18    9.21
  -5   2 -12   21.59   17.02
  -5  -2 -12    9.00    8.50
  -5   2 -12   11.27    9.91
  -5  -2 -12   -6.44   10.21
   5   2  12   27.30   22.65
  -5   2 -12   31.54   27.06
  -5  -2 -12   10.29   14.77
   5  -2  13   13.35   15.12
   5   2  13   12.24   14.79
  -5   2 -13   36.30   22.51
  -5  -2 -13    3.42    5.33
  -5   2 -13   27.42   15.04
  -5  -2 -13   14.41   15.41
   5  -2  13    9.72   10.83
   5   2  13   18.18   18.80
  -5   2 -13   19.94   22.03
  -5  -2 -13   33.11   27.20
  -5   3  13   -5.22    9.64
  -5  -3  13   27.77   23.54
  -5   3  13    3.28    8.56
   5   3 -13   -6.09   10.32
   5  -3 -13   11.94   15.04
  -5  -3  13   -0.95    3.06
  -5  -3  12  -10.49   15.42
  -5   3  12   -5.77    9.84
  -5  -3  12   10.95   14.36
  -5   3  12   12.36   16.18
   5   3 -12   11.40   13.89
   5  -3 -12    2.82    7.15
  -5  -3  12   -0.70    2.57
  -5  -3  11    2.04    6.66
  -5   3  11   -2.73    6.55
  -5  -3  11    0.40    2.66
  -5   3  11   -1.27    5.07
   5  -3 -11    3.50    7.81
   5   3 -11    6.07    9.99
  -5  -3  11    1.74    3.99
  -5  -3  10    2.96    7.85
  -5   3  10   16.26   15.57
  -5  -3  10   -1.17    4.44
  -5   3  10    8.50   12.87
   5  -3 -10   -2.62    6.58
  -5  -3  10   11.59   10.11
   5   3 -10    9.81   12.55
  -5  -3   9   25.79   22.57
  -5   3   9    2.77    6.28
  -5  -3   9   -4.47    8.40
  -5   3   9   -8.99   12.98
   5  -3  -9  -19.83   17.74
   5   3  -9   -0.16    1.59
  -5  -3   8    7.72   12.05
  -5   3   8    2.54    5.88
  -5  -3   8    0.06    0.94
  -5   3   8    5.36    9.84
   5  -3  -8    0.55    2.90
   5   3  -8   -6.66   10.11
  -5  -3   7   14.23   15.96
  -5   3   7   10.46   11.81
  -5  -3   7   13.95    9.65
  -5   3   7   12.76   15.03
   5  -3  -7    9.42   11.63
   5   3  -7   12.21   13.57
  -5  -3   6   40.47   26.20
  -5   3   6   51.67   29.10
  -5  -3   6   27.37   18.59
  -5   3   6   32.51   23.90
   5  -3  -6   45.37   24.35
   5   3  -6   48.16   26.88
  -5  -3   5    4.28    8.31
  -5  -3   5    5.75    8.20
  -5   3   5   -3.03    6.29
  -5   3   5    6.12   10.24
  -5  -3   5    3.84    2.60
   5  -3  -5    1.90    4.99
   5   3  -5   10.68   12.62
  -5  -3   4   11.51   13.28
  -5  -3   4   38.82   20.45
  -5   3   4   18.20   15.53
  -5   3   4   28.20   21.95
  -5  -3   4   10.83    5.52
   5   3  -4   30.40   20.94
   5   3  -4   -6.74    9.94
   5  -3  -4    8.34   10.26
  -5  -3   3   54.83   28.44
   5   3  -3   55.13   28.88
  -5  -3   3   41.58   20.94
  -5   3   3   36.62   22.87
  -5   3   3   52.42   29.83
  -5  -3   3   43.94   13.09
   5  -3  -3   21.68   15.36
   5   3  -3   51.56   26.58
  -5  -3   2   21.95   17.72
  -5  -3   2   34.54   17.77
  -5   3   2   22.67   17.77
  -5   3   2   32.75   23.48
   5  -3  -2   18.02   13.55
   5   3  -2   33.79   22.46
   5   3  -2   27.88   19.18
  -5  -3   2   22.87   10.26
   5  -3  -2   34.25   21.27
  -5  -3   1  115.59   40.37
  -5  -3   1   53.01   21.27
  -5   3   1   72.44   32.32
   5  -3  -1   92.57   32.69
  -5  -3   1   87.82   21.84
  -5   3   1   80.27   21.73
   5   3  -1   61.53   30.42
   5  -3  -1   81.38   30.72
   5   3  -1   75.13   33.46
  -5  -3   0   88.21   35.11
  -5   3   0  137.51   47.03
   5  -3   0  107.72   34.97
   5   3   0  110.28   41.31
   5  -3   0  130.19   38.19
   5   3   0   92.00   39.44
   5   3   1   92.17   39.56
   5   3   1   59.41   19.80
  -5  -3  -1   72.50   32.46
   5   3   1  118.79   43.54
  -5   3  -1  109.14   42.47
   5  -3   1   78.40   30.12
   5  -3   1   77.08   29.29
   5   3   2  577.16   69.14
   5  -3   2  586.16   80.57
   5   3   2  595.16   99.32
   5  -3   2  605.75   83.44
   5   3   2  606.18   99.83
  -5  -3  -2  612.41   95.15
  -5   3  -2  669.43  103.22
   5   3   3  350.82   54.32
   5  -3   3  333.38   60.33
   5   3   3  356.03   77.78
   5  -3   3  344.30   64.48
   5   3   3  329.75   75.28
  -5  -3  -3  350.96   72.03
  -5   3  -3  433.10   85.12
   5  -3   4   21.00   14.52
  -5  -3  -4   19.73   16.34
   5  -3   4   24.01   18.47
  -5   3  -4   16.01   15.96
   5   3   4   11.89   10.81
  -5  -3  -4    9.13   10.94
   5   3   4   16.15   16.33
   5   3   4   52.45   29.90
  -5  -3  -5   -5.14    8.80
   5   3   5   -0.35    2.41
   5  -3   5   -0.84    3.27
   5  -3   5   10.49    9.95
  -5   3  -5    5.79   10.24
   5   3   5   10.37   10.48
  -5  -3  -5   -8.72   10.97
  -5  -3  -6  127.13   45.75
   5  -3   6  171.99   47.92
  -5   3  -6  106.77   41.82
   5   3   6  120.29   36.98
   5  -3   6  144.55   36.01
  -5   3  -6  147.05   43.35
  -5  -3  -6  175.55   51.06
  -5  -3  -6  157.24   47.84
   5   3   6  119.17   45.87
   5  -3   7    9.02   11.16
  -5  -3  -7   10.73   12.98
   5   3   7   13.16   12.68
   5   3   7    4.98    9.40
  -5   3  -7   -0.70    3.01
  -5  -3  -7  -10.18   12.35
  -5   3  -7   11.44   14.54
  -5  -3  -7   20.38   17.69
   5  -3   7   -5.53    6.78
  -5   3  -8    7.75    7.69
   5  -3   8   20.61   17.28
  -5  -3  -8   19.40   17.64
   5  -3   8   21.27   13.05
   5   3   8   28.72   19.43
  -5   3  -8   25.84   18.61
  -5  -3  -8   15.01   15.31
  -5   3  -8   17.42   18.34
   5   3   8   10.87   14.06
  -5  -3  -8   15.09   15.66
  -5   3  -9   31.78   15.74
   5  -3   9   12.92   14.00
   5  -3   9    8.64    8.18
  -5  -3  -9    7.43   11.03
   5   3   9   10.95   12.43
  -5   3  -9   27.88   19.54
  -5  -3  -9   17.33   17.67
  -5   3  -9   44.10   29.82
   5   3   9   42.85   31.27
  -5  -3  -9    4.09    8.37
  -5   3 -10   -1.59    3.49
   5   3  10   11.68   15.03
   5  -3  10    2.33    6.10
   5   3  10    7.66   10.75
  -5  -3 -10    6.77    7.47
  -5   3 -10  -10.86   12.38
  -5  -3 -10    1.08    4.26
  -5   3 -10   -1.81    6.18
  -5  -3 -10    6.83   11.14
  -5   3 -11    3.30    4.88
   5  -3  11   28.80   21.95
   5   3  11    4.96    8.96
  -5  -3 -11    9.21    8.54
  -5   3 -11    2.52    6.06
  -5  -3 -11   -3.88    8.26
  -5   3 -11   -5.04   10.56
   5   3  11    4.79    9.78
  -5  -3 -11   31.29   24.49
   5  -3  12   -2.08    6.02
   5   3  12   -6.15   10.29
  -5   3 -12   -4.41    8.15
  -5  -3 -12   -3.44    4.82
  -5  -3 -12   -4.15    5.45
  -5  -3 -12    0.78   10.08
   5  -3  12    2.49    5.20
   5   3  12    3.63    8.67
  -5   3 -12    6.96   12.70
  -5  -3 -12   -9.91   14.16
  -5   3 -12    6.45    6.58
  -5  -4  11   32.15   27.04
  -5   4  11   39.30   24.05
  -5  -4  11   29.97   23.02
  -5   4  11   36.28   27.58
   5   4 -11   45.05   27.80
   5  -4 -11   31.81   24.55
  -5  -4  11   22.57   15.61
  -5  -4  10   -7.43   12.70
  -5   4  10    0.95    3.66
  -5  -4  10   -1.17    4.42
  -5   4  10  -18.28   19.21
   5  -4 -10   -7.07   11.25
  -5  -4  10    1.90    4.49
   5   4 -10   20.77   18.67
  -5  -4   9   17.25   18.85
  -5  -4   9    6.67   10.14
  -5   4   9    6.13    9.13
  -5   4   9    0.87    4.14
   5  -4  -9    8.77   12.25
   5   4  -9    8.50   11.86
  -5  -4   8   -9.81   13.85
  -5  -4   8  -19.35   16.69
  -5   4   8    4.98    8.15
  -5   4   8    6.80   11.38
   5  -4  -8    6.36   10.18
   5   4  -8   17.98   17.14
  -5  -4   7   85.79   38.82
   5   4  -7   42.02   25.12
  -5  -4   7  112.04   38.42
  -5   4   7   97.22   36.71
  -5   4   7   52.42   31.27
  -5  -4   7   49.93   11.57
   5  -4  -7   61.42   29.55
  -5  -4   7   64.97   13.33
  -5  -4   6   12.08   14.54
  -5  -4   6  -10.91   11.44
  -5   4   6   -9.48   11.21
  -5   4   6    4.25    8.84
   5   4  -6  -10.26   12.90
   5   4  -6   20.02   18.86
  -5  -4   6   11.25    6.26
  -5  -4   5   11.97   14.11
  -5  -4   5   -0.54    2.41
  -5   4   5   10.14   11.70
  -5   4   5   -1.43    5.12
   5   4  -5    7.18   10.60
   5   4  -5    0.13    1.47
   5  -4  -5  -12.19   13.09
  -5  -4   5    7.59    5.69
  -5  -4   4    6.15    9.83
  -5  -4   4   -1.84    4.23
  -5   4   4    4.64    8.00
   5   4  -4   -6.85   10.40
  -5   4   4   -2.43    6.66
   5  -4  -4    0.33    2.09
  -5  -4   4    6.04    5.48
   5   4  -4   -5.42    9.43
  -5  -4   3   15.71   11.70
  -5   4   3   14.55   16.26
  -5   4   3    7.80   10.51
   5   4  -3    5.71    4.42
   5   4  -3   -5.61    9.64
  -5  -4   3    3.98    4.77
   5  -4  -3    0.60    2.76
   5  -4  -3    2.87    3.53
  -5  -4   3   22.56   18.42
   5   4  -2   20.40   19.59
  -5  -4   2   16.91   15.69
  -5  -4   2    1.92    3.87
  -5   4   2    7.91   10.72
   5  -4  -2   18.18   14.88
   5  -4  -2   13.01    8.18
   5   4  -2   18.75   18.23
   5   4  -1   14.08    9.30
  -5  -4   1   65.40   30.53
  -5  -4   1   10.75    8.69
   5  -4  -1   11.62   12.21
  -5   4   1   38.84   25.31
   5   4  -1   37.88   25.46
   5  -4  -1   18.53   14.74
   5  -4  -1   25.20   12.17
   5   4  -1   20.35   18.42
   5   4   0    1.85    3.30
  -5  -4   0   -7.77   10.46
   5  -4   0   -7.47    9.88
  -5   4   0  -14.57   14.84
   5  -4   0  -11.90   11.62
   5   4   0   -7.26   11.10
   5  -4   0    1.55    3.20
   5   4   0    2.20    6.20
   5   4   1    4.63    5.15
  -5  -4  -1   49.46   26.34
   5  -4   1   -4.45    7.72
  -5   4  -1    6.56   10.05
   5  -4   1    9.99   10.49
   5  -4   1    1.78    3.61
   5   4   1    7.89   11.86
   5   4   1   23.87   18.74
   5   4   2    8.61    7.04
  -5  -4  -2   19.35   16.58
   5   4   2    1.11    4.49
   5  -4   2   25.31   20.15
  -5   4  -2   10.45   12.76
   5  -4   2   22.83   13.62
   5  -4   2   -1.39    3.87
   5   4   2   28.53   22.30
   5   4   3   12.14    8.46
  -5  -4  -3   18.20   16.18
   5  -4   3   17.34   16.15
  -5   4  -3   23.60   19.32
  -5  -4  -3   18.37   14.65
   5   4   3   -2.62    6.82
   5  -4   3   13.36   11.79
   5   4   4    1.59    3.11
  -5  -4  -4    3.08    6.72
  -5  -4  -4  -12.84   12.54
   5  -4   4    2.17    5.55
  -5   4  -4   17.71   16.88
   5   4   4   -0.52    3.06
   5  -4   4   -1.09    3.31
   5  -4   5    5.12    6.94
   5   4   5    5.99    6.25
  -5  -4  -5    2.84    6.53
   5  -4   5    5.52    8.99
  -5   4  -5   -0.90    3.87
   5   4   5   -0.52    3.12
  -5   4  -5  -13.90   13.71
  -5  -4  -5  -15.90   15.80
  -5  -4  -5   -2.82    6.04
  -5   4  -6   -3.99    6.04
   5   4   6   10.24    8.58
   5  -4   6   -3.55    5.53
  -5  -4  -6   -5.36    9.07
   5  -4   6  -10.73   12.79
   5   4   6  -14.71   16.68
  -5  -4  -6   -5.01    8.26
  -5   4  -6   -0.59    6.69
  -5  -4  -6   -0.03   11.16
  -5   4  -7    7.45    7.66
   5  -4   7   25.79   20.15
  -5  -4  -7   25.68   20.07
   5  -4   7   22.30   13.19
  -5   4  -7   35.60   22.56
  -5  -4  -7   16.10   16.45
  -5   4  -7   26.19   22.19
   5   4   7   19.72   19.53
  -5  -4  -7   19.50   16.77
  -5   4  -8   22.40   14.73
   5  -4   8    2.68    6.63
  -5  -4  -8   21.00   18.32
  -5  -4  -8   21.43   14.87
  -5   4  -8    1.92    9.46
  -5  -4  -8   45.38   28.15
  -5   4  -8   17.82   18.67
   5   4   8   26.92   23.92
  -5  -4  -8   40.04   24.76
   5  -4   8   24.43   13.17
  -5   4  -9   58.00   23.73
  -5   4  -9   47.32   31.02
   5  -4   9   61.25   33.30
  -5  -4  -9   46.11   27.45
  -5  -4  -9   51.53   23.08
   5  -4   9   36.16   15.39
  -5   4  -9   39.50   24.51
  -5  -4  -9   89.35   40.26
   5   4   9   62.20   35.74
  -5  -4  -9   76.23   35.17
  -5   4 -10   42.43   20.05
   5  -4  10    7.70    6.74
   5  -4  10   13.46    4.69
  -5   4 -10   32.19   26.14
  -5  -4 -10   37.87   19.69
  -5   4 -10   14.58   15.12
  -5  -4 -10   17.29   18.05
   5   4  10   22.13   21.64
  -5  -4 -10   18.83   18.01
  -5   4 -11   45.65   20.35
  -5   4 -11   44.46   26.85
  -5  -4 -11   52.39   22.81
  -5  -4 -11   30.47   24.39
  -5   4 -11   67.67   38.71
   5   4  11   75.72   40.66
  -5  -4 -11   85.03   41.48
  -5  -5  10  -15.58   16.03
  -5   5  10    5.44    8.64
  -5   5  10    1.84    6.23
  -5  -5  10   -8.29   13.70
   5  -5 -10  -11.89   15.26
   5   5 -10    5.06    9.49
  -5  -5   9   -6.04   11.38
  -5  -5   9    7.01   10.33
  -5   5   9   -2.87    6.23
  -5   5   9    1.17    4.91
   5  -5  -9   30.91   21.21
   5   5  -9  -13.22   15.31
  -5  -5   8   21.48   20.84
  -5  -5   8  -14.00   14.04
  -5   5   8   -3.08    6.44
  -5   5   8   -1.19    4.90
  -5  -5   8    2.14    3.19
   5  -5  -8   11.08   14.06
   5   5  -8   -4.07    8.50
  -5  -5   7   24.95   21.84
  -5  -5   7   24.89   17.82
  -5   5   7   43.91   24.46
  -5   5   7   30.07   27.17
   5  -5  -7   43.46   27.20
   5  -5  -7   20.10    8.34
   5   5  -7   37.57   25.79
   5   5  -7   44.91   29.45
  -5  -5   6   -1.70    5.52
  -5  -5   6   18.82   14.65
  -5   5   6    9.92   11.73
  -5   5   6   13.89   16.60
   5  -5  -6    3.14    7.13
   5  -5  -6    7.80    5.61
   5   5  -6  -11.33   13.77
   5   5  -6  -13.01   15.20
   5   5  -5    0.70    3.52
  -5  -5   5    5.17    9.38
  -5  -5   5   13.35   11.59
  -5   5   5   10.16   14.14
  -5   5   5    7.99   10.64
   5  -5  -5    2.50    6.21
  -5  -5   5   13.46    9.45
   5  -5  -5   -0.71    1.81
   5   5  -5   11.18   13.79
  -5  -5   4   45.73   27.09
  -5  -5   4   41.50   19.04
  -5   5   4   52.04   31.94
  -5   5   4   45.89   25.76
   5  -5  -4   53.15   27.77
   5   5  -4   57.41   32.27
   5  -5  -4   34.75   13.73
   5   5  -4   46.14   28.90
  -5  -5   3   13.89   14.58
  -5  -5   3    2.06    3.93
   5   5  -3   20.84   19.26
  -5   5   3    4.06    8.89
  -5   5   3   -6.66    9.91
   5  -5  -3   10.45   12.00
   5  -5  -3   -0.84    2.22
   5   5  -3    9.38   13.12
  -5  -5   2   26.65   19.83
   5   5  -2   15.28   16.87
  -5  -5   2    0.63    2.00
  -5   5   2    2.81    6.47
   5  -5  -2    0.89    3.39
   5  -5  -2    7.81    7.12
   5   5  -2   -7.80   11.87
   5   5  -1   20.99   19.92
   5   5  -1    8.59    6.25
  -5  -5   1   17.50   15.87
  -5   5   1   38.30   24.01
   5  -5  -1   11.32   11.87
   5  -5  -1   15.41   10.46
   5   5  -1   39.53   26.95
   5   5   0   13.54    7.07
  -5  -5   0   10.83   12.36
   5  -5   0   19.86   17.20
  -5   5   0   30.89   21.68
   5  -5   0   23.06   16.53
   5  -5   0   17.04   11.54
   5   5   0   26.69   22.65
   5   5   0    8.89   12.86
   5   5   1    4.39    3.60
  -5  -5  -1    5.01    8.39
   5  -5   1    8.37   11.27
  -5   5  -1    9.45   12.05
   5  -5   1   12.36   11.84
   5  -5   1   10.57    9.46
   5   5   1    7.31   11.75
  -5  -5  -2   13.52   13.82
   5  -5   2    7.26   10.62
   5   5   2   14.95   16.90
  -5   5  -2    8.42   11.44
   5   5   2    9.35   10.97
   5  -5   2   25.55   16.71
   5  -5   2    9.57    9.35
  -5  -5  -2   20.23   18.18
  -5  -5  -2   -6.75    8.31
  -5   5  -3   72.50   28.80
   5   5   3   66.56   13.47
  -5  -5  -3  115.30   40.91
   5  -5   3  108.60   42.42
  -5  -5  -3  127.98   38.28
  -5   5  -3   81.76   35.90
   5  -5   3   83.84   29.50
   5  -5   3   92.49   31.16
  -5   5  -3   97.01   37.06
  -5  -5  -3  109.06   44.38
   5   5   3   95.42   42.81
   5   5   3   71.79   30.86
  -5   5  -4    4.95    7.28
  -5  -5  -4    6.86   10.00
   5  -5   4   25.55   20.35
  -5   5  -4  -15.28   15.71
   5   5   4   20.75   20.23
   5  -5   4   17.91   13.74
  -5   5  -4   25.82   18.83
  -5  -5  -4    9.53   12.76
   5  -5   4   25.16   15.90
  -5  -5  -4    3.74    6.50
   5   5   4    3.04    6.13
  -5   5  -5   49.60   23.36
  -5  -5  -5   77.91   34.08
   5  -5   5   76.10   37.65
   5  -5   5   54.70   26.12
  -5   5  -5   52.02   28.39
  -5  -5  -5   76.39   39.20
   5   5   5   28.69   24.00
  -5  -5  -5   50.91   24.70
   5  -5   5   67.18   25.25
   5   5   5   37.22   21.19
   5  -5   6   19.16   12.92
  -5   5  -6   18.50   14.47
   5  -5   6   29.48   22.43
  -5  -5  -6   23.62   19.01
  -5  -5  -6    7.97    9.94
  -5   5  -6   18.26   16.60
   5  -5   6   34.13   20.27
  -5  -5  -6   -3.33    7.75
   5   5   6   21.43   20.96
  -5  -5  -6   33.75   20.72
   5   5   6   22.22   18.50
  -5   5  -7    1.65    4.37
   5  -5   7    5.36    6.44
   5  -5   7   -2.01    8.70
  -5  -5  -7   11.05   13.11
  -5  -5  -7    8.46   10.24
  -5   5  -7   -4.68    8.54
   5  -5   7  -10.46   11.60
  -5  -5  -7   -9.67   13.44
  -5   5  -7   -6.71   11.35
   5   5   7    9.49   14.11
  -5  -5  -7   18.61   15.88
   5   5   7   18.23   14.47
  -5   5  -8   70.59   29.97
   5  -5   8   76.21   38.03
  -5  -5  -8   97.34   39.88
   5  -5   8   50.82   18.43
  -5  -5  -8   68.05   29.06
  -5   5  -8   59.05   30.94
   5  -5   8   83.22   33.79
  -5  -5  -8   34.67   31.34
  -5   5  -8  101.13   44.81
   5   5   8   69.73   39.75
  -5  -5  -8   76.56   36.27
   5   5   8   54.89   24.78
  -5   5  -9   10.00   10.79
  -5   5  -9   35.65   27.07
   5  -5   9   -3.42    8.05
  -5  -5  -9    6.90   10.56
  -5  -5  -9   -1.19    3.84
  -5   5  -9   -3.49    9.07
  -5  -5  -9    5.07   10.08
   5   5   9   -8.70   13.92
  -5  -5  -9   -3.69    7.55
   5   5   9    7.66    9.11
  -5  -6   7   11.44   15.00
  -5  -6   7   -5.83    8.45
   5   6  -7    7.51   11.57
   5  -6  -7    9.08   12.98
  -5   6   7   20.83   21.10
  -5   6   7    0.73    3.22
   5  -6  -7    4.22    4.90
   5   6  -7   -7.01   11.67
  -5  -6   6    0.98    4.25
  -5  -6   6    7.05    8.70
   5  -6  -6   -9.48   12.95
  -5   6   6   -1.00    4.60
  -5   6   6    5.69    9.08
   5   6  -6   -3.11    7.53
   5  -6  -6    1.87    3.38
  -5  -6   5   14.76   16.03
  -5  -6   5    4.47    6.39
  -5   6   5    0.55    3.44
   5  -6  -5    2.65    6.67
   5   6  -5    4.30    9.21
  -5   6   5   -4.50    8.12
   5  -6  -5    5.79    6.15
   5   6  -5    3.12    7.62
  -5  -6   4    8.46   11.76
  -5  -6   4   15.96   10.98
  -5   6   4  -34.29   26.84
   5  -6  -4   -4.82    8.78
  -5   6   4   11.68   13.11
   5   6  -4    1.52    5.39
   5  -6  -4   13.54    9.73
   5   6  -4   -3.53    8.40
   5   6  -3    5.60   21.83
  -5  -6   3   12.43   13.90
  -5  -6   3   -9.07    7.39
   5  -6  -3   11.57    2.90
  -5   6   3   24.52   18.99
   5   6  -3   21.41   20.38
   5  -6  -3    3.09    4.82
   5   6  -3  -13.09   14.57
  -5  -6   2   47.79   26.73
  -5  -6   2   32.89   12.21
   5  -6  -2   42.85   24.82
  -5   6   2   37.54   19.97
   5  -6  -2   49.47   19.96
   5   6  -2   43.84   29.42
   5   6  -2   51.07   29.50
  -5   6   1   -6.63    9.02
  -5  -6   1   15.00   14.76
   5  -6  -1    1.16    3.96
  -5   6   1    3.96    7.64
   5  -6  -1    6.59    7.53
   5   6  -1   11.82   15.34
  -5  -6   1   30.61   24.13
   5   6  -1   10.29   12.71
  -5   6   0    6.88    9.18
  -5  -6   0   -8.42   10.94
   5   6   0   44.95   30.15
  -5   6   0    5.42    8.96
   5  -6   0    3.65    6.83
   5  -6   0   18.31   13.01
  -5  -6   0   11.97   14.49
  -5  -6   0    6.31    7.24
   5   6   0   21.10   18.05
  -5   6  -1   36.54   21.54
  -5  -6  -1   77.45   32.97
   5  -6   1   61.95   31.73
  -5   6  -1   35.79   23.35
   5  -6   1   51.36   24.95
  -5  -6  -1   63.25   23.33
   5  -6   1   59.71   24.22
  -5   6  -1   67.30   30.53
  -5  -6  -1   35.35   26.93
   5   6   1   57.84   34.33
   5   6   1   84.46   35.76
  -5   6  -2    3.01    6.10
   5   6   2    8.61   13.31
  -5  -6  -2   15.82   14.93
   5  -6   2   -5.88   10.03
  -5   6  -2   25.95   19.85
   5  -6   2   -2.47    5.33
  -5   6  -2   15.03   14.63
  -5  -6  -2    5.17    9.70
  -5  -6  -2    0.81    2.69
   5   6   2   15.22   15.11
  -5   6  -3   -1.03    3.60
  -5  -6  -3   13.01   13.60
   5  -6   3    9.46   12.87
  -5  -6  -3    9.49   15.01
   5  -6   3    4.99    7.35
   5  -6   3   16.17   13.38
  -5   6  -3   22.56   18.21
  -5  -6  -3   13.43   15.80
   5   6   3    0.13    1.63
  -5  -6  -3   -0.87    8.80
   5   6   3   27.50   20.13
  -5   6  -4   18.64   14.00
  -5  -6  -4   12.41   13.39
   5  -6   4   29.44   24.11
  -5  -6  -4   32.45   24.98
   5  -6   4    3.03    5.58
   5  -6   4   13.79   12.79
  -5   6  -4   13.98   14.58
  -5  -6  -4   28.14   23.14
   5   6   4    2.85    7.78
  -5  -6  -4    1.17    3.46
   5   6   4   23.98   18.64
  -5   6  -5   -2.95    6.23
  -5  -6  -5    1.38    4.52
   5  -6   5    0.78    3.77
  -5  -6  -5  -18.29   16.31
   5  -6   5   -8.24   10.18
  -5   6  -5   -8.58   11.63
   5   6   5    7.18   12.46
   5  -6   5   -0.25    1.57
  -5  -6  -5   -4.53    9.40
  -5  -6  -5    2.74    5.48
   5   6   5   -0.46    2.57
  -5   6  -6   89.37   34.67
   5  -6   6   98.26   44.49
  -5  -6  -6   84.25   35.68
  -5  -6  -6   98.91   37.88
   5  -6   6   64.15   30.15
  -5   6  -6   86.12   37.93
  -5   6  -6   94.36   43.65
  -5  -6  -6   96.83   44.07
   5   6   6   92.35   45.30
   5  -6   6   67.48   24.52
  -5  -6  -6   86.33   32.73
   5   6   6  110.10   39.82
  -5   6  -7   40.20   22.52
   5  -6   7   74.15   37.68
  -5  -6  -7   48.12   27.82
  -5  -6  -7   62.50   30.10
  -5   6  -7   57.57   31.37
   5  -6   7   43.48   24.73
  -5   6  -7   38.61   27.55
  -5  -6  -7   35.21   26.98
   5   6   7   40.58   30.39
  -5  -6  -7   44.53   23.30
   5   6   7   63.72   29.55
   5  -6   7   40.34   17.88
  -6   0  12   41.21   30.31
  -6   0  12   71.57   39.98
   6   0 -12   42.29   28.23
  -6   0  11    7.50   18.61
  -6   0  11   -8.51   13.52
   6   0 -11  -16.01   17.12
  -6   0  10    9.42   13.90
  -6   0  10   27.98   23.98
   6   0 -10  -11.68   14.41
  -6   0   9   -6.61   11.40
   6   0  -9   -4.07    8.39
  -6   0   8   -9.62   13.43
  -6   0   8   -0.08    1.22
  -6   0   8   -2.79    2.38
   6   0  -8   -3.99    8.18
  -6   0   7   -5.02    9.51
  -6   0   7   -4.20    8.77
   6   0  -7    3.87    7.96
   6   0  -6   -0.86    3.69
  -6   0   6    6.96   11.02
  -6   0   6   12.95   15.07
   6   0  -5    5.74    9.51
  -6   0   5    9.29   13.44
  -6   0   5    3.25    7.43
   6   0  -5   -3.58    3.33
  -6   0   4  105.82   41.55
   6   0  -4   73.09   34.98
  -6   0   4   95.11   41.63
   6   0  -4   79.43   17.53
  -6   0   3   -7.37   11.03
  -6   0   3   19.50   17.72
   6   0  -3    9.02   11.79
   6   0  -3    6.93    5.74
  -6   0   2   13.92   15.17
  -6   0   2   18.75   17.15
   6   0  -2   15.12   15.22
   6   0  -2    4.11    4.79
  -6   0   1   10.29   13.12
  -6   0   1  -12.11   13.60
   6   0  -1    0.29    3.30
   6   0  -1   -0.97    3.82
  -6   0   0    4.34    8.61
   6   0   0   10.19    8.53
   6   0   0    5.94    9.49
  -6   0  -1    7.48   11.41
   6   0   1    1.66    3.63
   6   0   1   -1.70    5.04
  -6   0  -2   16.55   17.17
   6   0   2    1.60    3.74
   6   0   2   12.67   14.04
   6   0   2    6.51    9.89
   6   0   3   -2.24    5.77
  -6   0  -3   -7.18   11.43
   6   0   3   10.18   12.59
   6   0   3    6.18    7.67
  -6   0  -4   34.87   26.42
   6   0   4   40.14   24.36
   6   0   4   27.30   16.77
   6   0   4   50.98   27.14
  -6   0  -5   -0.84    3.99
   6   0   5   14.06   12.51
   6   0   5    8.27   11.06
   6   0   5    2.20    3.39
   6   0   6    8.15   10.98
   6   0   6    4.68    8.61
  -6   0  -6    3.50    8.18
   6   0   6    3.99    6.91
  -6   0  -6    6.86   11.43
  -6   0  -7  -20.78   20.05
   6   0   7   -5.60    8.46
   6   0   7   -3.36    7.32
  -6   0  -7    9.38   13.68
   6   0   7    8.77   11.44
   6   0   8   36.90   24.35
  -6   0  -8   15.53   17.45
   6   0   8   20.53   16.77
  -6   0  -8   14.85   17.61
   6   0   8   20.12   17.45
  -6   0  -9   -8.96   13.35
   6   0   9   -6.74    9.92
  -6   0  -9  -18.18   19.92
   6   0   9   -2.19    6.01
   6   0  10   25.87   20.02
   6   0  10   24.08   20.10
  -6   0 -10   31.77   27.01
   6   0  11    6.58   10.40
  -6   0 -11   -0.03   21.83
  -6   0 -11  -16.69   15.30
   6   0  11   17.33   17.21
  -6   0 -11   -0.05   10.11
   6   1 -11   27.68   22.67
  -6  -1  11    5.56   11.18
  -6   1  11   45.02   30.28
  -6  -1  11    6.56   11.71
  -6   1  11   10.38   15.11
   6  -1 -11    2.73    7.05
   6   1 -10    3.79    8.26
  -6  -1  10   -3.20    8.31
  -6   1  10   -5.20   10.03
  -6  -1  10   15.98   17.91
  -6   1  10   -4.15    9.38
   6  -1 -10    0.79    1.81
  -6  -1  10   -3.96    4.31
   6  -1 -10    5.12    9.51
  -6  -1   9   38.72   28.28
   6   1  -9   19.80   18.64
  -6   1   9    5.66   10.24
  -6  -1   9   35.38   26.01
  -6   1   9    1.54    5.60
   6  -1  -9   14.28    7.61
  -6  -1   9   32.24   12.51
   6  -1  -9   15.30   16.18
  -6  -1   8    2.04   12.40
  -6   1   8   -9.73   13.17
   6   1  -8  -20.42   18.67
  -6  -1   8   -7.32   11.54
  -6   1   8   -2.68    7.26
   6  -1  -8   -1.00    2.03
   6  -1  -8  -13.20   14.80
  -6  -1   7    6.74   11.27
  -6   1   7   -2.46    6.48
  -6  -1   7   14.14   15.74
  -6   1   7   14.96   16.85
   6   1  -7   -8.65   12.02
   6  -1  -7    0.11    0.68
   6  -1  -7    1.01    4.06
  -6  -1   6    0.33   12.32
  -6   1   6   22.35   19.31
  -6  -1   6   -9.62   12.67
  -6   1   6    1.70    5.58
   6   1  -6    9.34   12.38
   6  -1  -6    9.32    6.63
   6  -1  -6    4.12    8.07
  -6  -1   5   39.72   26.44
  -6   1   5   58.90   31.10
  -6  -1   5   34.19   23.36
  -6   1   5   35.73   25.33
   6  -1  -5   21.91   10.95
   6   1  -5   40.93   23.52
  -6   1   5   22.22    6.20
   6  -1  -5   46.13   26.71
  -6  -1   4  137.29   49.69
  -6   1   4  135.31   46.52
  -6  -1   4  198.39   55.07
  -6   1   4  176.00   55.84
   6   1  -4   86.09   16.79
   6  -1  -4  108.93   25.60
  -6   1   4   91.05   16.20
   6   1  -4  122.70   44.95
   6  -1  -4  109.61   41.21
   6  -1  -3    1.11    4.07
  -6  -1   3   29.31   22.27
  -6   1   3   11.37   13.58
  -6  -1   3    5.22    8.77
  -6   1   3    6.75   10.83
   6  -1  -3    0.95    2.44
   6   1  -3    5.96    4.90
   6   1  -3   -1.63    5.09
  -6   1   3   -2.01    2.68
   6  -1  -2   11.16   12.90
  -6  -1   2    5.64    9.73
  -6   1   2   18.05   17.25
  -6  -1   2   -4.77    8.26
  -6   1   2   -3.47    7.69
  -6  -1   2   12.03    8.10
   6  -1  -2   12.78    9.32
   6   1  -2    7.86    6.17
   6   1  -2    4.28    8.24
  -6   1   2    5.77    4.96
   6  -1  -1   -8.67   11.33
  -6  -1   1   -3.98    8.18
  -6   1   1    3.49    7.64
  -6  -1   1  -12.93   13.36
  -6  -1   1  -10.94    8.10
   6  -1  -1   -4.03    5.47
   6   1  -1   -5.06    5.36
   6   1  -1    2.87    6.75
  -6  -1   0    3.23    7.43
  -6   1   0   13.55   15.23
   6  -1   0   16.72   15.69
   6   1   0  -13.28   14.65
   6  -1   0   14.74   10.87
   6   1   0    7.66    7.07
   6   1   0   16.03   15.96
   6   1   1    0.87    3.73
  -6  -1  -1  -10.60   13.57
  -6   1  -1   19.23   18.37
   6  -1   1   11.10    9.83
   6  -1   1    9.86   11.98
   6   1   1    7.29    7.34
   6   1   1   16.69   16.41
  -6  -1  -2   39.52   26.46
   6   1   2   22.14   18.82
  -6   1  -2   21.89   19.85
   6  -1   2    9.34    9.37
   6   1   2   -1.73    3.79
   6  -1   2    4.25    7.83
   6   1   2    9.83   12.60
  -6  -1  -3   23.62   20.65
  -6   1  -3   18.58   18.47
   6  -1   3   16.14   12.74
   6   1   3   20.70   13.81
   6   1   3   20.26   21.62
   6  -1   3   20.99   17.20
   6   1   3   16.94   16.63
  -6  -1  -4   -8.31   12.36
  -6   1  -4    6.20   10.76
   6  -1   4   -0.70    2.76
   6   1   4   -8.67    9.37
   6   1   4   -4.03    8.13
   6   1   4    5.50    9.43
   6  -1   4    3.22    6.66
   6  -1   5   18.07   15.66
   6   1   5    3.80    7.89
  -6  -1  -5   14.57   16.50
  -6   1  -5   34.92   25.76
   6  -1   5    3.71    6.53
   6   1   5   28.14   21.62
   6   1   5   -2.90    5.67
   6  -1   5   -1.11    4.07
   6   1   6    8.21   10.92
  -6  -1  -6    7.72   15.47
  -6   1  -6    1.14    4.68
   6  -1   6    8.61   10.27
   6   1   6    9.19   10.51
   6  -1   6    0.62    3.03
   6  -1   6    3.98    7.31
  -6  -1  -6  -14.11   16.14
   6   1   6    6.29   10.21
   6  -1   7   33.19   22.37
   6   1   7   55.04   29.90
  -6  -1  -7   42.39   28.56
  -6   1  -7   17.85   18.66
   6  -1   7   25.69   19.35
   6   1   7   29.88   19.67
  -6   1  -7   45.46   30.47
  -6  -1  -7   14.49   16.75
   6   1   7   60.16   32.27
   6  -1   7   32.11   20.67
  -6  -1  -8   13.76   16.39
  -6   1  -8   -1.57    5.56
   6  -1   8    4.31    7.70
   6   1   8   14.55   14.22
   6  -1   8   15.50   14.41
  -6   1  -8    7.97   13.05
   6  -1   8   28.50   20.77
  -6  -1  -8   27.52   23.62
   6   1   8   13.79   15.53
   6  -1   9   -0.14    1.35
  -6  -1  -9   12.78   15.90
   6  -1   9    5.88    9.29
   6   1   9    4.61    9.10
  -6   1  -9  -17.53   18.80
   6   1   9   13.60   14.23
   6  -1   9   36.28   23.55
  -6  -1  -9   14.23   17.40
  -6   1  -9    7.50   12.93
   6  -1  10   -8.18   11.22
   6  -1  10   10.51   12.78
  -6  -1 -10   31.96   25.39
   6   1  10   14.73   15.31
  -6   1 -10    2.14    5.34
  -6  -1 -10   24.14   19.10
  -6   1 -10   12.06   16.79
   6   1  10  -24.87   21.38
  -6  -1 -10   16.45   19.15
   6   1  11  -14.06   16.28
  -6   1 -11  -13.14   17.93
   6  -1  11   -2.95    6.94
   6   1  11    4.22    8.46
  -6   1 -11   -3.60    6.96
  -6  -1 -11   -2.20    4.98
   6  -1  11    0.54    2.90
  -6  -1 -11  -13.93   14.79
  -6  -1 -11   -8.69   14.27
  -6  -2  11    9.04   14.55
  -6   2  11    4.09    8.84
  -6  -2  11    7.45   12.36
  -6   2  11   -0.79    4.22
   6   2 -11   -3.25    7.86
  -6  -2  11   -1.63    3.42
   6  -2 -11    7.15   11.56
  -6  -2  10   -4.22    9.73
  -6   2  10   14.90   16.50
  -6  -2  10   -6.04   10.86
  -6   2  10   -1.78    6.21
   6   2 -10   18.37   18.43
  -6  -2  10    3.23    4.79
   6  -2 -10   -9.24   12.90
  -6  -2   9   -4.79   10.16
  -6   2   9   -5.91   10.18
  -6  -2   9   24.05   21.16
  -6   2   9   16.87   18.83
   6   2  -9   -5.25    9.72
   6  -2  -9   12.09   14.49
  -6  -2   8   13.14   16.47
  -6   2   8   29.63   22.40
  -6  -2   8   25.63   21.24
  -6   2   8    4.26    9.30
   6   2  -8   12.40   14.76
   6  -2  -8  -11.00   13.57
  -6  -2   7   13.22   16.12
  -6   2   7    4.26    8.39
  -6  -2   7   16.41   16.58
  -6   2   7    8.39   12.87
   6  -2  -7   -1.97    3.82
   6   2  -7   -7.62   11.46
   6  -2  -7    1.59    5.07
  -6  -2   6   -3.11    7.67
  -6   2   6   -8.56   11.76
  -6  -2   6   -4.87    8.78
  -6   2   6   -3.53    8.27
   6  -2  -6   -3.82    5.34
   6   2  -6   13.51   15.17
   6  -2  -6   -1.09    4.15
  -6  -2   5   -0.67    3.49
  -6   2   5  -14.06   15.00
  -6  -2   5    4.95    8.59
  -6   2   5    6.85   11.40
   6  -2  -5  -10.05    8.70
   6   2  -5   -4.36    8.56
   6  -2  -5   -3.79    7.62
  -6  -2   4   11.16   14.03
  -6   2   4  -15.58   15.80
  -6  -2   4  -17.15   15.55
  -6   2   4    3.99    8.67
   6  -2  -4    0.49    1.95
  -6   2   4    3.15    2.76
   6   2  -4  -12.71   14.58
   6  -2  -4   15.20   15.12
  -6  -2   3    9.15   12.59
  -6   2   3   18.66   17.42
  -6  -2   3  -21.92   17.14
  -6   2   3    3.63    8.23
  -6  -2   3   -7.23    5.28
   6  -2  -3  -11.60    9.62
  -6   2   3   -5.42    4.28
   6   2  -3   -1.47    4.96
   6  -2  -3   -4.14    7.83
  -6  -2   2    1.25    4.63
  -6   2   2   12.98   14.66
  -6  -2   2   21.53   16.63
  -6   2   2   29.99   23.46
  -6  -2   2   -2.41    3.34
   6  -2  -2    0.41    1.85
  -6   2   2    9.51    6.29
   6   2  -2   -3.66    7.88
   6  -2  -2   33.19   22.05
   6   2  -2    5.29    9.43
   6   2  -1  101.00   41.91
  -6  -2   1  148.05   52.85
  -6   2   1  141.00   49.98
  -6  -2   1  121.58   40.36
   6  -2  -1  127.21   35.02
  -6  -2   1   91.76   22.32
   6   2  -1  114.94   26.19
  -6   2   1  107.52   23.03
   6   2  -1  120.85   45.26
   6  -2  -1  173.44   50.91
   6  -2   0   14.31   14.36
  -6  -2   0  -10.16   13.20
  -6   2   0  -10.30   13.41
   6   2   0    5.67    9.83
   6  -2   0    7.42    8.31
   6   2   0   -5.17    6.06
   6   2   0   29.37   22.32
   6  -2   1  -15.03   14.65
  -6  -2  -1   -0.75    3.60
  -6   2  -1    2.19    6.26
   6  -2   1   -4.34    6.55
   6   2   1  -29.91   22.62
   6   2   1    9.84    8.80
   6   2   1  -13.79   15.38
  -6  -2  -2   26.08   24.98
   6  -2   2   15.41   18.45
  -6   2  -2    6.83   11.18
   6  -2   2    9.05    9.72
   6   2   2   25.65   14.92
   6   2   2   40.80   26.61
   6   2   2   25.01   20.77
   6   2   3   -8.75   12.40
  -6  -2  -3    4.18    8.67
  -6   2  -3   21.34   19.94
   6  -2   3   26.63   17.15
   6  -2   3   -2.68    6.06
   6   2   3    6.86    8.07
   6   2   3   13.81   21.26
  -6  -2  -4   45.78   28.98
  -6   2  -4   24.03   21.37
   6  -2   4   26.30   17.56
   6   2   4   28.69   22.54
   6   2   4   19.80   14.33
   6  -2   4   20.16   16.34
   6   2   4   38.91   26.41
   6   2   5   27.22   28.12
  -6  -2  -5   22.40   20.43
   6   2   5   14.09   16.03
  -6   2  -5    3.41    8.10
   6  -2   5   15.49   13.84
   6   2   5    6.09    8.29
  -6  -2  -5   11.05   13.73
   6  -2   5   12.46   12.62
   6  -2   6   42.24   22.81
  -6  -2  -6   35.32   27.20
   6  -2   6   28.50   20.12
  -6   2  -6   46.71   30.16
   6   2   6   56.75   26.39
  -6  -2  -6   46.87   28.93
   6   2   6   46.05   29.07
   6   2   6   64.21   34.49
  -6  -2  -7   27.47   22.98
   6  -2   7    4.96    8.29
  -6   2  -7  -12.49   15.69
   6  -2   7  -19.48   15.26
   6   2   7   -3.33    6.64
  -6   2  -7   11.44   15.47
  -6  -2  -7   -3.92    8.54
   6   2   7   -3.85    8.50
  -6  -2  -8    0.63    3.52
   6  -2   8    3.41    7.05
  -6   2  -8  -26.50   23.06
   6   2   8   -7.99   10.70
  -6  -2  -8   -0.21    1.98
   6   2   8   12.44   15.42
   6  -2   8    4.82    7.55
  -6   2  -9  -14.14   17.93
   6  -2   9  -11.48   13.28
  -6  -2  -9   27.33   23.25
   6   2   9  -24.00   19.21
  -6   2  -9   -9.53   11.70
  -6  -2  -9  -17.82   16.99
   6  -2   9  -19.56   16.75
   6  -2   9    0.08    0.92
   6   2   9   -3.95    8.80
  -6  -2  -9   -3.88    8.92
  -6   2 -10   -8.21   13.95
   6  -2  10    4.69    8.73
  -6  -2 -10   -5.50   10.51
   6   2  10   -0.03    1.28
  -6   2 -10   13.66   14.09
  -6  -2 -10   -3.01    7.13
   6  -2  10    5.20    8.64
   6   2  10   10.97   14.90
  -6  -2 -10   -3.73    8.97
  -6   2 -11    5.61    6.20
   6  -2  11   -7.40   11.22
   6   2  11   -7.45   11.44
  -6   2 -11   11.16   12.82
  -6  -2 -11   24.59   20.75
   6  -2  11   -9.84   11.89
   6   2  11   -2.28    6.90
  -6   2 -11   10.65   16.25
  -6  -2 -11    7.32   12.86
  -6  -3  10   14.33   18.32
  -6   3  10  -16.22   16.77
  -6  -3  10   -7.35   11.86
  -6   3  10   -2.68    7.74
  -6  -3  10   11.68   10.24
   6  -3 -10   11.48   14.63
   6   3 -10   12.16   15.23
  -6  -3   9   -1.65    6.07
  -6   3   9    8.83   12.14
  -6  -3   9  -10.70   13.89
  -6   3   9    9.30   14.19
   6  -3  -9   38.66   26.31
   6   3  -9    3.76    8.37
  -6  -3   8   24.24   22.79
  -6   3   8   21.70   18.82
  -6  -3   8   29.18   22.27
  -6   3   8   16.42   18.61
   6  -3  -8   13.82   15.44
   6   3  -8   18.37   18.32
  -6  -3   7   15.55   17.79
  -6   3   7  -31.67   22.52
  -6  -3   7    6.93   10.48
  -6   3   7    5.25   10.40
   6  -3  -7    5.50    9.57
   6   3  -7   11.54   14.46
  -6  -3   6  -13.89   16.45
  -6   3   6  -12.21   13.93
  -6  -3   6   -2.00    5.47
  -6   3   6   -0.21    2.04
   6  -3  -6    1.47    4.87
   6   3  -6   22.38   20.02
  -6  -3   5   46.59   29.51
  -6   3   5   11.73   13.68
  -6  -3   5    9.61   11.52
  -6   3   5   12.70   15.99
   6  -3  -5   13.58   11.90
   6  -3  -5   25.41   19.88
   6   3  -5   22.06   19.81
   6   3  -4   16.28   17.01
  -6  -3   4    6.42   10.78
  -6  -3   4   11.78   12.32
  -6   3   4    7.01   10.65
  -6   3   4    4.36    9.32
   6  -3  -4    5.90    7.88
  -6  -3   4    5.96    4.22
   6  -3  -4   -5.22    8.88
   6   3  -4   -1.20    4.66
  -6  -3   3   93.90   40.64
   6   3  -3   64.89   34.08
  -6  -3   3   47.98   24.03
  -6   3   3   66.75   32.34
  -6   3   3   58.79   34.11
   6  -3  -3   37.61   20.04
  -6  -3   3   41.86   12.98
   6  -3  -3   51.56   27.61
   6   3  -3   14.61   16.18
  -6  -3   2   40.44   26.46
  -6  -3   2   11.78   11.59
  -6   3   2   -3.08    7.23
   6  -3  -2    3.11    5.79
   6   3  -2   -6.01   10.38
  -6  -3   2   -2.98    3.85
   6   3  -2   -0.89    3.98
  -6   3   2   18.02    9.59
   6  -3  -2   29.48   20.69
  -6  -3   1   -8.62   12.16
  -6   3   1    5.94   10.19
   6  -3  -1    8.05    9.45
   6   3  -1   -5.99   10.45
   6   3  -1  -24.01   20.86
   6  -3  -1    1.63    4.83
  -6  -3   0    4.41    8.69
  -6   3   0   17.02   17.47
   6  -3   0   13.95   12.57
   6   3   0   15.06   16.58
   6   3   0   11.60   14.63
   6  -3   0   28.52   20.12
   6   3   1    8.59   12.70
  -6  -3  -1   41.99   26.98
  -6   3  -1   38.91   26.71
   6  -3   1   27.64   19.20
   6   3   1   18.28   18.34
   6  -3   1   13.66   13.85
   6  -3   2   75.67   32.34
  -6  -3  -2   71.09   37.41
  -6   3  -2   47.09   32.34
   6  -3   2   66.80   28.50
   6   3   2   56.81   32.95
   6   3   2   90.37   41.10
   6   3   3    2.69    7.24
   6  -3   3   -5.96    8.96
  -6  -3  -3    0.55    3.14
   6  -3   3   -7.18    9.56
  -6   3  -3    2.98    9.72
   6   3   3   21.24   14.76
   6   3   3    3.17    7.74
   6   3   4    6.15   11.05
  -6  -3  -4   13.09   15.45
   6  -3   4   -8.24   10.48
   6  -3   4   -7.86   10.10
  -6   3  -4    4.63    9.43
   6   3   4    9.86   10.43
   6   3   4   12.19   15.33
  -6  -3  -4   17.02   16.34
   6   3   5   -4.20    9.07
  -6  -3  -5   -1.17    4.68
   6  -3   5   -1.47    4.53
  -6   3  -5   -3.93    8.75
   6   3   5   -3.79    8.73
   6   3   5    5.53    8.10
   6  -3   5   -2.93    6.02
  -6  -3  -5   -8.00   11.44
  -6  -3  -6   11.44   13.98
  -6  -3  -6  -16.15   17.47
   6  -3   6   20.89   16.85
  -6   3  -6   11.19   16.33
   6   3   6   -2.79    5.98
   6  -3   6    5.91    8.31
   6   3   6    9.19   15.50
   6  -3   7    6.09    8.20
  -6  -3  -7    4.45    8.92
  -6  -3  -7  -21.11   20.13
   6  -3   7  -10.97   12.97
  -6   3  -7    4.45    9.45
   6   3   7    7.81   10.37
  -6   3  -7    6.47    9.91
  -6   3  -7    8.10   13.17
   6   3   7  -16.04   18.09
   6  -3   8    7.09   10.65
  -6  -3  -8  -14.57   16.85
   6  -3   8  -11.33   10.97
   6   3   8   -7.66   10.64
  -6   3  -8    2.50    6.20
  -6  -3  -8  -12.97   14.98
  -6   3  -8    9.70   14.69
   6   3   8   -8.77   13.57
  -6  -3  -8   12.16    7.59
   6  -3   9   20.24   14.46
  -6   3  -9   -1.19    3.20
   6  -3   9  -18.83   17.79
  -6  -3  -9   -0.97    4.37
   6   3   9    8.89   11.84
  -6   3  -9   -3.17    7.04
  -6  -3  -9    2.96    7.29
  -6   3  -9   30.29   26.44
   6   3   9  -20.96   21.22
  -6  -3  -9    9.69   13.81
  -6   3 -10    8.69    8.70
   6  -3  10    6.15   10.41
  -6  -3 -10   23.41   21.70
   6   3  10  -12.28   14.41
  -6   3 -10    8.04   11.27
  -6  -3 -10   23.60   20.99
  -6   3 -10   45.06   32.86
   6   3  10   11.56   15.98
  -6  -3 -10   32.65   25.93
   6   4  -8    1.70    5.71
  -6  -4   8   23.38   22.73
  -6  -4   8   25.73   20.51
  -6   4   8   20.83   18.26
  -6   4   8   17.74   21.08
   6  -4  -8    8.61   12.49
  -6  -4   7   28.15   24.36
   6   4  -7   16.12   17.58
  -6  -4   7   35.68   23.19
  -6   4   7   10.76   13.11
  -6   4   7   12.52   16.44
   6  -4  -7    1.24    4.64
  -6  -4   6   18.82   19.39
  -6  -4   6   -2.87    6.31
  -6   4   6    3.31    7.31
  -6   4   6   13.60   17.07
   6   4  -6  -17.77   18.42
   6  -4  -6    1.73    5.39
  -6  -4   5   -4.60    9.38
  -6  -4   5   10.97   11.81
  -6   4   5  -10.02   12.81
  -6   4   5   11.54   15.66
   6   4  -5  -12.24   15.30
   6  -4  -5  -15.20   15.63
   6   4  -5   24.98   21.83
  -6  -4   4  -12.89   15.41
  -6  -4   4   -7.21    9.15
  -6   4   4  -11.75   14.03
  -6   4   4  -10.64   15.00
   6  -4  -4    8.15   10.30
   6   4  -4  -22.76   20.86
   6   4  -4   -1.97    6.15
   6  -4  -4   -6.34    9.94
  -6  -4   3   -3.34    7.74
  -6  -4   3   -4.14    6.64
  -6   4   3    4.68    9.92
  -6   4   3    9.32   12.67
   6  -4  -3    7.85   10.16
   6  -4  -3   15.25   15.17
   6   4  -3    6.93   11.59
   6   4  -3  -19.24   19.24
  -6  -4   2  -15.90   16.68
  -6  -4   2  -15.20   12.27
  -6   4   2   -5.72   10.05
   6  -4  -2    5.26    8.39
   6  -4  -2   -2.93    6.56
   6   4  -2   -1.90    6.09
   6   4  -2    9.76   13.84
  -6  -4   1   -9.07   12.51
   6   4  -1    2.65    7.28
  -6   4   1   19.58   18.82
   6  -4  -1   -6.71    9.56
   6  -4  -1   -1.39    4.49
   6   4  -1   -4.44    9.34
  -6  -4   0    5.98   10.13
   6   4   0    8.48   13.00
   6  -4   0   31.75   20.91
  -6   4   0   31.46   24.11
   6   4   0   21.87   21.07
   6  -4   0   24.60   18.63
   6   4   1   12.74   16.22
  -6  -4  -1   11.84   14.31
   6  -4   1   14.28   14.22
  -6   4  -1   -9.48   13.33
   6   4   1   14.85   17.28
   6  -4   1   20.12   16.69
  -6  -4  -2   39.23   26.47
   6  -4   2   24.95   18.96
  -6   4  -2   32.10   26.90
   6   4   2   32.51   25.73
   6   4   2   49.52   35.84
   6  -4   2   33.18   21.27
  -6  -4  -3   22.49   20.00
   6  -4   3   -4.07    7.78
  -6   4  -3   15.95   17.53
   6   4   3   25.04   23.16
  -6  -4  -3   28.22   20.10
   6   4   3    3.12    8.04
   6  -4   3   14.85   14.06
   6  -4   4   15.93   15.49
  -6  -4  -4    3.36    7.81
   6  -4   4    6.53   11.24
  -6   4  -4   15.79   17.53
  -6  -4  -4    8.23   11.06
   6   4   4   13.63   16.91
   6   4   5   -2.65    7.51
   6  -4   5   15.15   13.57
  -6  -4  -5   24.89   21.45
   6  -4   5   12.70   14.23
  -6   4  -5   16.64   18.09
  -6  -4  -5   -4.07    7.94
  -6  -4  -6  113.35   45.54
   6  -4   6   65.64   33.45
  -6   4  -6  104.82   46.52
   6  -4   6   74.88   31.10
  -6   4  -6   76.24   34.89
  -6  -4  -6   88.15   39.79
  -6  -4  -6   91.32   38.47
   6   4   6  103.29   47.49
  -6   4  -7   55.38   23.73
  -6  -4  -7   84.23   42.72
   6  -4   7   33.65   24.16
  -6   4  -7  112.53   42.72
  -6  -4  -7   73.69   36.98
  -6   4  -7   56.78   35.33
   6  -4   7   54.70   23.95
   6   4   7   22.02   22.14
  -6  -4  -7   52.32   29.78
   6  -4   8   13.54   11.49
  -6   4  -8    1.35    3.74
   6  -4   8   25.14   21.27
  -6  -4  -8   -4.76    9.62
  -6   4  -8   -1.79    5.44
  -6  -4  -8   12.57   15.52
  -6   4  -8   24.78   23.70
   6   4   8   17.86   20.18
  -6  -4  -8   11.00   14.00
  -6  -5   6   -5.41   10.49
  -6  -5   6   24.14   17.61
  -6   5   6    2.30    6.20
  -6   5   6    6.55   12.17
   6   5  -6   -0.79    3.99
   6  -5  -6   -2.20    6.26
   6   5  -6   -4.85   10.00
  -6  -5   5   18.53   18.99
  -6  -5   5  -16.98   13.96
  -6   5   5  -10.81   15.60
  -6   5   5    8.12   11.79
   6  -5  -5   -5.12    9.32
   6   5  -5   14.46   17.20
   6   5  -5    9.02   13.70
  -6  -5   4   -1.52    5.34
   6   5  -4    3.09    8.05
  -6  -5   4   -4.26    6.61
   6   5  -4    3.33    8.27
  -6   5   4   21.32   21.84
  -6   5   4   41.02   26.85
   6  -5  -4    6.71   10.46
  -6  -5   3   11.89   14.65
  -6  -5   3   10.26    9.73
   6  -5  -3   -4.57    8.37
  -6   5   3   -8.21   12.14
   6   5  -3   18.93   20.07
   6  -5  -3    7.80   11.05
   6   5  -3   28.45   24.39
  -6  -5   2  -19.81   18.69
  -6  -5   2   -3.71    5.53
   6  -5  -2   26.14   20.15
  -6   5   2   -0.90    4.06
   6  -5  -2    1.93    5.42
   6   5  -2   11.33   15.47
   6   5  -2   -4.26    9.57
  -6  -5   1   14.73   15.98
   6  -5  -1   11.79   13.63
  -6   5   1    7.43   13.38
   6   5  -1   15.80   18.58
   6  -5  -1   25.88   19.50
   6   5  -1   16.22   18.64
   6   5   0   14.50   17.96
  -6  -5   0   15.61   16.37
   6  -5   0    8.00   11.33
  -6   5   0   17.42   18.12
   6  -5   0   19.96   16.87
   6   5   0   28.75   24.95
  -6  -5  -1   27.07   21.62
   6  -5   1   39.79   25.52
  -6   5  -1   36.27   28.77
   6   5   1   19.35   20.61
   6  -5   1   24.65   18.99
   6   5   1   50.07   33.64
   6   5   2   29.13   25.41
  -6  -5  -2   19.67   18.51
   6  -5   2   -0.81    3.68
  -6   5  -2    2.11    6.34
  -6  -5  -2   31.07   20.04
   6  -5   2   14.79   14.16
  -6  -5  -3  -20.72   19.13
   6  -5   3   -4.11    8.39
  -6   5  -3  -19.85   19.56
  -6  -5  -3  -10.32   11.76
   6   5   3   -7.45   12.92
   6  -5   3  -14.11   13.63
  -6   5  -4   12.09   11.79
  -6  -5  -4   32.11   24.05
   6  -5   4   15.91   16.66
  -6   5  -4  -14.01   16.52
  -6   5  -4   29.72   22.02
  -6  -5  -4    7.26   11.75
  -6  -5  -4   17.47   15.60
   6   5   4   20.50   21.64
   6  -5   4   27.66   18.75
  -6   5  -5  143.91   41.47
   6  -5   5  156.09   43.38
  -6  -5  -5  184.13   57.60
   6  -5   5  192.92   59.24
  -6   5  -5  142.76   51.47
  -6   5  -5  178.63   55.97
  -6  -5  -5  141.25   53.31
  -6  -5  -5  211.60   55.40
   6   5   5  242.89   77.12
  -6   5  -6   62.10   27.30
   6  -5   6   85.14   30.88
  -6  -5  -6  133.24   49.99
   6  -5   6   73.91   37.71
  -6   5  -6  108.61   44.91
  -6  -5  -6   75.74   38.85
   6   5   6  126.41   54.59
  -6  -5  -6   89.62   36.95
   7   0  -8   -8.81   13.25
  -7   0   8  -15.57   18.32
  -7   0   8   -2.92    7.99
   7   0  -7   11.95   15.28
  -7   0   7   -4.64    9.86
  -7   0   7  -10.24   14.73
  -7   0   6    4.12    9.18
   7   0  -6  -13.08   15.85
  -7   0   6    5.29   10.40
  -7   0   5    0.82    4.04
  -7   0   5   17.74   18.74
   7   0  -5   15.39   17.10
   7   0  -5   11.75    8.07
  -7   0   4   -2.54    7.10
  -7   0   4    0.43   15.55
   7   0  -4    8.61   12.73
   7   0  -4   -0.51    1.54
  -7   0   3   11.70   15.20
  -7   0   3   -5.01    9.70
   7   0  -3  -17.17   17.93
   7   0  -3   -5.72    5.66
  -7   0   2  -18.04   18.94
  -7   0   2  -23.90   20.91
   7   0  -2    3.01    4.44
   7   0  -2   -7.48   11.81
  -7   0   1   13.71   16.61
   7   0  -1    3.79    5.31
   7   0  -1   -1.79    5.77
  -7   0   0  -26.66   23.36
   7   0   0   12.06   10.02
   7   0   0  -11.98   14.92
  -7   0  -1   94.57   44.48
   7   0   1   36.28   18.29
   7   0   1   65.83   34.92
  -7   0  -2  -10.41   14.93
   7   0   2   10.70   10.40
   7   0   2  -10.59   13.95
   7   0   3   -0.30    2.33
  -7   0  -3   -5.52   10.97
   7   0   3  -16.74   17.72
   7   0   3   -7.50    9.08
  -7   0  -4    4.58   10.08
   7   0   4   12.19   14.82
   7   0   4    0.75    3.00
   7   0   4  -14.93   16.72
  -7   0  -5  -10.60   15.45
   7   0   5   13.62   13.20
   7   0   5   -4.12   12.30
   7   0   5    2.44    6.77
   7   0   6  -11.87   14.54
  -7   0  -6  -11.38   16.14
   7   0   6   -6.40    9.37
   7   0   6   -3.49    8.10
   7   0   7  -31.21   24.28
  -7   0  -7   14.82   18.50
   7   0   7   -0.87    3.57
   7   0   7    6.61   10.84
  -7   0  -7   -6.31   11.97
   7   0   8   -5.02    9.81
  -7   0  -8   18.37   20.69
   7   0   8    3.55    7.45
   7   0   8  -13.08   15.28
  -7   0  -8    2.03    6.91
  -7  -1   8   19.51   20.97
  -7   1   8    4.25    9.35
  -7  -1   8   16.60   18.74
  -7   1   8   17.15   19.73
   7   1  -8   -4.06    9.08
   7  -1  -8    2.33    6.77
  -7  -1   7   17.44   19.50
  -7   1   7   15.99   17.94
  -7  -1   7   40.28   28.56
  -7   1   7    5.29   10.79
   7   1  -7   33.48   25.84
   7  -1  -7    1.57    5.50
   7  -1  -6   -0.59    3.31
  -7  -1   6    8.61   13.49
  -7   1   6  -12.17   15.49
  -7  -1   6    5.37   10.19
  -7   1   6   11.14   15.45
   7  -1  -6    7.45    6.28
   7   1  -6   -4.52    9.42
   7  -1  -5   10.46   13.98
  -7  -1   5    6.28   11.40
  -7   1   5   14.27   16.66
  -7  -1   5   -8.83   12.81
  -7   1   5    7.29   12.40
   7  -1  -5   -2.76    4.04
   7   1  -5   10.56   14.31
   7  -1  -4   -5.66   10.22
  -7  -1   4   20.13   20.23
  -7   1   4   10.62   14.35
  -7  -1   4   15.80   16.85
  -7   1   4   -0.21    2.08
   7  -1  -4    7.23    6.91
   7   1  -4    1.89    2.76
   7   1  -4   -7.05   11.68
   7  -1  -3   13.89   15.96
  -7  -1   3   17.29   18.66
  -7   1   3  -18.85   19.16
  -7  -1   3   12.44   14.68
  -7   1   3   17.47   18.77
   7  -1  -3   16.47   10.95
   7   1  -3   -1.78    2.96
   7   1  -3   11.60   14.95
  -7  -1   2  -10.60   14.58
  -7   1   2   22.98   21.30
  -7  -1   2   14.14   15.39
  -7   1   2   -2.74    7.37
   7  -1  -2  -11.57   14.55
   7  -1  -2    3.15    5.37
   7   1  -2  -10.21    7.72
   7   1  -2    6.02   10.75
  -7  -1   1   31.27   25.17
  -7   1   1   15.15   17.44
   7  -1  -1   42.16   27.72
   7  -1  -1   43.83   19.54
   7   1  -1   23.73   12.65
   7   1  -1   29.45   23.81
  -7  -1   0    9.59   14.03
  -7   1   0    9.75   14.16
   7  -1   0    2.57    4.91
   7  -1   0   15.52   16.77
   7   1   0    4.33    5.75
   7   1   0    7.26   11.82
   7   1   1   25.96   22.38
  -7  -1  -1    7.02   12.11
  -7   1  -1    8.83   13.63
   7  -1   1   -0.55    2.38
   7   1   1    6.29   11.05
   7   1   1    6.12    7.26
   7  -1   1   -2.71    7.01
  -7  -1  -2    6.26   11.56
  -7   1  -2    1.84   20.62
   7   1   2   40.90   28.07
   7  -1   2   10.89   10.87
   7   1   2   11.02   10.29
   7  -1   2   -0.65    3.39
   7   1   2   23.17   21.19
   7   1   3   -0.32    2.47
  -7  -1  -3    9.53   14.41
  -7   1  -3    7.12   12.51
   7  -1   3   -2.65    5.56
   7   1   3   -1.01    3.28
   7   1   3   10.83   14.46
   7  -1   3   20.99   19.16
   7  -1   4   29.40   22.40
  -7  -1  -4   36.33   28.37
  -7   1  -4   10.07   15.00
   7  -1   4    4.25    7.24
   7   1   4   -0.87    3.19
   7   1   4   -8.45   12.82
   7   1   4   -3.58    8.32
   7   1   5    8.20   12.62
   7  -1   5   13.93   15.26
  -7  -1  -5   -1.79    6.34
  -7   1  -5   20.65   21.67
   7  -1   5   15.06   14.06
   7   1   5   16.42   14.41
   7   1   5   10.26   14.20
  -7  -1  -6   32.10   27.09
  -7   1  -6   -5.85   11.59
   7  -1   6   10.62   12.16
   7   1   6   14.42   14.04
   7  -1   6   29.67   25.98
  -7  -1  -6    0.78    4.07
   7   1   6   17.09   18.26
   7   1   6    0.16   15.77
   7  -1   6   31.96   24.70
  -7  -1  -7  -13.11   17.39
  -7   1  -7    5.72   11.51
   7  -1   7   -5.33    8.86
   7   1   7   -4.03    7.70
   7   1   7    6.01   10.87
  -7   1  -7   17.85   20.40
   7  -1   7    8.20   12.19
  -7  -1  -7   -2.25    7.05
   7   1   7   19.39   19.72
   7  -1   7   -5.34    9.30
  -7  -2   7    0.92   15.15
  -7   2   7    8.86   13.11
  -7  -2   7    6.40   11.10
  -7   2   7   19.83   21.30
   7  -2  -7    9.86    8.43
   7   2  -7    4.85    9.97
   7  -2  -7    7.09   11.65
  -7  -2   6  -12.54   16.55
  -7   2   6    1.87    5.99
  -7  -2   6   10.24   13.68
  -7   2   6   20.10   20.46
   7  -2  -6   -1.03    2.79
   7   2  -6    0.57    3.42
   7  -2  -6  -16.61   17.67
  -7  -2   5   -2.52    7.32
  -7   2   5   -8.89   13.01
  -7  -2   5    8.40   12.06
  -7   2   5   16.66   19.21
   7  -2  -5   12.28    9.86
   7   2  -5   22.14   21.07
   7  -2  -5   -1.81    5.79
  -7  -2   4   17.09   18.85
  -7   2   4  -10.57   14.25
  -7  -2   4    1.70    5.29
  -7   2   4   50.69   33.24
   7  -2  -4   10.64    9.40
   7   2  -4   25.20   22.48
   7  -2  -4   33.37   24.68
  -7  -2   3    1.71    5.93
  -7   2   3   20.42   19.92
  -7  -2   3   27.49   20.88
  -7   2   3    4.07    9.35
   7  -2  -3   29.01   17.47
   7   2  -3   19.78   19.89
   7  -2  -3   33.03   25.50
   7   2  -2    8.45   13.01
   7  -2  -2   12.98   16.33
  -7  -2   2   -8.29   12.98
  -7   2   2   10.29   14.28
  -7  -2   2    6.53    9.97
   7  -2  -2   -0.21    1.41
   7  -2  -1   11.18   14.14
   7   2  -1   28.31   23.89
  -7  -2   1   19.01   19.67
  -7   2   1  -17.02   18.58
   7  -2  -1   -2.20    4.68
   7   2  -1   -5.75    6.45
   7   2  -1  -24.01   22.06
  -7  -2   0   25.31   22.83
   7  -2   0   24.14   20.73
  -7   2   0   21.24   21.02
   7   2   0   13.25   16.39
   7  -2   0   52.37   23.51
   7   2   0   24.55   14.09
   7   2   0    3.58    8.53
  -7  -2  -1   20.12   20.50
  -7   2  -1   13.51   16.98
   7  -2   1   10.59   13.68
   7  -2   1   11.92   11.56
   7   2   1    1.30    3.41
   7   2   1    0.62    3.57
   7   2   1    2.47    7.09
  -7  -2  -2    5.15   10.48
  -7   2  -2   25.65   23.65
   7  -2   2   26.15   17.58
   7  -2   2   -3.93    8.26
   7   2   2   15.42   12.32
   7   2   2   19.29   19.78
   7   2   2   11.11   15.12
   7   2   3  -20.04   20.38
  -7  -2  -3   10.33   14.98
  -7   2  -3   28.10   24.98
   7  -2   3   28.63   18.91
   7   2   3   11.68   11.21
   7  -2   3    4.68    8.92
   7   2   3   17.42   18.89
  -7  -2  -4   -4.90   10.41
  -7   2  -4   14.85   18.34
   7  -2   4   -1.27    4.09
   7   2   4    0.38    2.12
   7   2   4  -10.10   14.57
   7  -2   4  -10.98   13.44
   7   2   4   -1.27    5.10
   7   2   5   49.12   32.27
  -7  -2  -5   65.51   38.34
  -7   2  -5   19.96   21.32
   7  -2   5   43.08   24.52
   7   2   5   40.33   22.71
  -7  -2  -5   33.03   25.60
   7   2   5   62.61   36.24
   7  -2   5    9.30   12.16
   7  -2   6   13.28   14.28
  -7  -2  -6    0.70    3.98
  -7   2  -6  -17.82   20.29
   7  -2   6  -14.90   14.79
   7   2   6   25.16   18.69
  -7  -2  -6   46.49   30.94
   7   2   6   13.39   16.88
   7   2   6    2.19    6.85
  -7  -2  -7    6.48   12.22
  -7   2  -7  -13.36   17.66
   7  -2   7    8.99   11.79
   7   2   7   -6.44   11.81
   7   2   7    5.29    8.91
   7  -2   7    5.58    9.11
  -7   2  -7   57.02   37.01
  -7  -2  -7  -21.95   21.67
   7   2   7   34.73   27.39
   7   3  -5   -9.42   14.06
  -7  -3   5   19.50   20.57
  -7   3   5    7.34   11.82
  -7  -3   5    7.26   10.78
  -7   3   5    9.75   15.04
   7  -3  -5   -4.09    6.53
   7  -3  -5   -3.77    8.35
   7   3  -4    7.47   12.52
  -7  -3   4   19.48   20.32
  -7   3   4   46.95   30.13
  -7  -3   4  -28.56   20.80
  -7   3   4    1.41    5.67
   7  -3  -4    9.19    9.91
   7  -3  -4   15.50   16.77
  -7  -3   3   -7.29   12.30
  -7  -3   3   14.11   14.22
  -7   3   3   -0.60    3.71
   7   3  -3   26.47   23.63
   7  -3  -3    7.85    9.26
   7   3  -3   11.40   15.63
   7  -3  -3   -1.32    4.87
  -7  -3   2  -17.07   18.72
  -7  -3   2   17.72   15.55
  -7   3   2  -16.45   18.23
   7  -3  -2    8.94   10.07
   7   3  -2    2.25   15.68
   7   3  -2   -2.04    6.63
   7  -3  -2   13.00   15.20
  -7  -3   1    7.01   11.97
  -7   3   1   -6.97   12.02
   7  -3  -1    4.64    5.06
   7   3  -1   -2.84    7.80
   7   3  -1   21.22   21.30
   7  -3  -1   18.55   18.09
   7  -3   0    8.69   12.33
  -7  -3   0   25.30   22.84
   7   3   0    8.26   13.30
  -7   3   0   34.06   26.92
   7  -3   0   30.59   18.69
   7   3   0   -8.65   13.70
   7   3   1   24.84   23.33
   7  -3   1   45.26   28.04
  -7  -3  -1   52.78   33.18
  -7   3  -1   78.02   41.21
   7  -3   1    8.94   10.70
   7   3   1   59.63   35.89
   7  -3   2   17.91   17.52
  -7   3  -2   44.54   31.43
   7  -3   2   17.88   15.49
   7   3   2   -3.27    8.53
   7   3   2   55.97   34.89
  -7  -3  -3  -14.63   17.77
  -7   3  -3    5.99   11.65
   7  -3   3   -3.85    7.34
   7  -3   3   -7.96   11.52
   7   3   3   -3.47    6.26
   7   3   3  -21.00   21.46
   7   3   3    6.99   12.55
  -7  -3  -4    2.50    7.42
  -7   3  -4  -17.36   19.92
   7  -3   4   12.06   13.31
   7   3   4   -0.52    2.54
   7  -3   4  -17.58   16.83
  -7  -3  -4    3.85    8.45
   7   3   4    0.51    3.33
  -7  -3  -5   32.11   26.79
   7  -3   5  -20.54   17.80
  -7   3  -5  -13.44   17.63
   7   3   5    5.72    8.69
   7  -3   5    1.51    4.80
  -7  -3  -5    0.40    2.73
   7   3   5   -1.24    5.29
   7   3   5   13.38   17.63
   7   4  -1  -10.91   15.85
  -7  -4   1   -1.05    4.63
  -7   4   1   12.40   16.30
   7  -4  -1   13.47   13.82
   7  -4  -1    4.95    9.29
   7   4  -1    6.72   12.40
  -7  -4   0   -6.72   11.76
  -7   4   0   14.38   17.74
   7  -4   0   24.63   18.88
   7   4   0   17.29   20.15
   7   4   0    3.30    8.72
   7  -4   0   19.61   18.42
  -7  -4  -1   -4.36    9.51
   7  -4   1    8.75   11.44
  -7   4  -1    5.63   11.21
   7   4   1   27.47   25.27
   7   4   1   34.97   28.85
   7  -4   1   41.28   26.57
   0   0   0    0.00    0.00
;
_shelx_hkl_checksum              19646
loop_
_space_group_symop_operation_xyz
'x, y, z'
'-x+1/2, y+1/2, -z+1/2'
'-x, -y, -z'
'x-1/2, -y-1/2, z-1/2'
loop_
_atom_site_label
_atom_site_type_symbol
_atom_site_fract_x
_atom_site_fract_y
_atom_site_fract_z
_atom_site_U_iso_or_equiv
_atom_site_adp_type
_atom_site_occupancy
_atom_site_site_symmetry_order
_atom_site_calc_flag
_atom_site_refinement_flags_posn
_atom_site_refinement_flags_adp
_atom_site_refinement_flags_occupancy
_atom_site_disorder_assembly
_atom_site_disorder_group
Ti1 Ti 0.5570(11) 0.0239(9) 0.5025(5) 0.122(4) Uani 0.25 1 d . . P A 2
O1 O 0.715(3) 0.088(2) 0.5142(12) 0.119(9) Uani 0.25 1 d . . P A 2
O2 O 0.2142(9) 0.1348(8) 0.9228(4) 0.127(3) Uani 1 1 d . . . . .
O3 O 0.3417(8) 0.3033(9) 0.9069(3) 0.120(3) Uani 1 1 d . . . . .
O4 O 0.0206(9) 0.7282(7) 0.3267(3) 0.112(3) Uani 1 1 d . . . . .
O5 O 0.2210(9) 0.8161(8) 0.3567(3) 0.131(3) Uani 1 1 d . U . . .
N1 N 0.4017(8) 0.1459(8) 0.5393(6) 0.076(3) Uani 1 1 d . . . . .
H1 H 0.446530 0.084394 0.524422 0.091 Uiso 0.5 1 calc R U P B 1
N2 N 0.4852(9) 0.0802(10) 0.4206(4) 0.077(2) Uani 1 1 d . . . . .
C1 C 0.3969(11) 0.0784(13) 0.6450(7) 0.074(3) Uani 1 1 d . . . . .
C2 C 0.3647(11) 0.1622(13) 0.5993(7) 0.073(3) Uani 1 1 d . . . . .
C3 C 0.2887(11) 0.2770(13) 0.6042(6) 0.082(3) Uani 1 1 d . . . . .
H3A H 0.251334 0.310202 0.639066 0.098 Uiso 1 1 calc R U . . .
C4 C 0.2818(12) 0.3262(10) 0.5501(8) 0.087(4) Uani 1 1 d . . . . .
H4A H 0.237840 0.400332 0.540797 0.104 Uiso 1 1 calc R U . . .
C5 C 0.3519(11) 0.2487(12) 0.5081(8) 0.074(3) Uani 1 1 d . . . . .
C6 C 0.3623(11) 0.2733(12) 0.4476(8) 0.074(4) Uani 1 1 d . . . . .
C7 C 0.4209(11) 0.1957(13) 0.4075(7) 0.070(3) Uani 1 1 d . . . . .
C8 C 0.4336(11) 0.2167(10) 0.3445(8) 0.092(3) Uani 1 1 d . . . . .
H8A H 0.401355 0.286902 0.325040 0.110 Uiso 1 1 calc R U . . .
C9 C 0.4984(12) 0.1217(14) 0.3168(5) 0.090(3) Uani 1 1 d . . . . .
H9A H 0.517251 0.112754 0.276223 0.108 Uiso 1 1 calc R U . . .
C10 C 0.5315(12) 0.0375(12) 0.3651(7) 0.076(3) Uani 1 1 d . . . . .
C11 C 0.3621(16) 0.1124(13) 0.7072(6) 0.077(3) Uani 1 1 d . . . . .
C12 C 0.2640(15) 0.0501(10) 0.7397(9) 0.091(3) Uani 1 1 d . . . . .
H12A H 0.215125 -0.014791 0.721921 0.109 Uiso 1 1 calc R U . . .
C13 C 0.4349(11) 0.2081(12) 0.7340(8) 0.083(3) Uani 1 1 d . . . . .
H13A H 0.501765 0.252291 0.712424 0.100 Uiso 1 1 calc R U . . .
C14 C 0.2352(11) 0.0800(12) 0.7977(8) 0.085(3) Uani 1 1 d . . . . .
H14A H 0.166241 0.037159 0.818727 0.103 Uiso 1 1 calc R U . . .
C15 C 0.4082(15) 0.2377(9) 0.7926(9) 0.086(3) Uani 1 1 d . . . . .
H15A H 0.457918 0.301663 0.810778 0.103 Uiso 1 1 calc R U . . .
C16 C 0.3092(17) 0.1740(15) 0.8246(6) 0.076(3) Uani 1 1 d . . . . .
C17 C 0.2823(12) 0.1967(12) 0.8903(7) 0.084(3) Uani 1 1 d . . . . .
C18A C 0.331(5) 0.317(5) 0.973(3) 0.174(7) Uiso 0.429(14) 1 d D U P C 1
H18A H 0.365881 0.244266 0.993687 0.209 Uiso 0.429(14) 1 calc R U P C 1
H18B H 0.233800 0.332181 0.985115 0.209 Uiso 0.429(14) 1 calc R U P C 1
C19A C 0.429(3) 0.432(3) 0.9882(13) 0.174(7) Uiso 0.429(14) 1 d D U P C 1
H19A H 0.524033 0.415339 0.975606 0.261 Uiso 0.429(14) 1 calc R U P C 1
H19B H 0.428123 0.446527 1.030635 0.261 Uiso 0.429(14) 1 calc R U P C 1
H19C H 0.392643 0.502543 0.967551 0.261 Uiso 0.429(14) 1 calc R U P C 1
C18B C 0.319(4) 0.347(4) 0.969(2) 0.174(7) Uiso 0.571(14) 1 d D U P C 2
H18C H 0.238587 0.305741 0.987485 0.209 Uiso 0.571(14) 1 calc R U P C 2
H18D H 0.303958 0.434884 0.970537 0.209 Uiso 0.571(14) 1 calc R U P C 2
C19B C 0.462(2) 0.310(3) 0.9999(10) 0.174(7) Uiso 0.571(14) 1 d D U P C 2
H19D H 0.476437 0.222645 0.995824 0.261 Uiso 0.571(14) 1 calc R U P C 2
H19E H 0.459800 0.330629 1.041645 0.261 Uiso 0.571(14) 1 calc R U P C 2
H19F H 0.539319 0.352340 0.981134 0.261 Uiso 0.571(14) 1 calc R U P C 2
C21 C 0.3029(18) 0.3939(11) 0.4236(4) 0.073(3) Uani 1 1 d . . . . .
C22 C 0.1708(19) 0.3981(13) 0.3993(6) 0.109(4) Uani 1 1 d . . . . .
H22A H 0.116229 0.326924 0.398292 0.131 Uiso 1 1 calc R U . . .
C23 C 0.3831(12) 0.4981(16) 0.4248(4) 0.093(3) Uani 1 1 d . . . . .
H23A H 0.474525 0.496826 0.441019 0.112 Uiso 1 1 calc R U . . .
C24 C 0.1159(12) 0.5033(17) 0.3765(5) 0.101(4) Uani 1 1 d . . . . .
H24A H 0.024240 0.504214 0.360559 0.121 Uiso 1 1 calc R U . . .
C25 C 0.3278(18) 0.6054(11) 0.4016(5) 0.094(3) Uani 1 1 d . . . . .
H25A H 0.381754 0.676948 0.402915 0.112 Uiso 1 1 calc R U . . .
C26 C 0.1954(18) 0.6077(14) 0.3770(5) 0.081(3) Uani 1 1 d . . . . .
C27 C 0.1328(14) 0.7216(14) 0.3489(5) 0.100(4) Uani 1 1 d . . . . .
C28 C 0.1547(13) 0.9507(11) 0.3409(6) 0.144(5) Uani 1 1 d . . . . .
H28A H 0.054305 0.954044 0.350412 0.173 Uiso 1 1 calc R U . . .
H28B H 0.204091 1.014763 0.362992 0.173 Uiso 1 1 calc R U . . .
C29 C 0.1770(15) 0.9640(11) 0.2757(6) 0.165(5) Uani 1 1 d . . . . .
H29A H 0.166508 1.048620 0.264580 0.248 Uiso 1 1 calc R U . . .
H29B H 0.107959 0.915467 0.254368 0.248 Uiso 1 1 calc R U . . .
H29C H 0.270866 0.936429 0.265868 0.248 Uiso 1 1 calc R U . . .
loop_
_atom_site_aniso_label
_atom_site_aniso_U_11
_atom_site_aniso_U_22
_atom_site_aniso_U_33
_atom_site_aniso_U_23
_atom_site_aniso_U_13
_atom_site_aniso_U_12
Ti1 0.140(15) 0.094(9) 0.132(7) -0.014(6) -0.009(10) 0.009(9)
O1 0.09(2) 0.11(2) 0.15(2) 0.017(17) -0.01(2) -0.06(2)
O2 0.146(8) 0.121(7) 0.114(7) 0.026(5) 0.039(5) -0.007(6)
O3 0.149(7) 0.115(6) 0.097(6) -0.016(5) 0.018(5) 0.000(6)
O4 0.094(7) 0.096(5) 0.147(7) 0.008(4) -0.019(5) 0.003(6)
O5 0.119(6) 0.095(5) 0.177(6) 0.046(5) -0.044(5) 0.004(5)
N1 0.089(6) 0.031(6) 0.107(10) -0.004(6) -0.014(6) 0.008(4)
N2 0.099(7) 0.057(7) 0.076(8) 0.005(6) -0.005(6) -0.005(5)
C1 0.084(8) 0.057(10) 0.082(13) 0.010(11) -0.015(8) -0.010(7)
C2 0.084(9) 0.071(13) 0.065(11) -0.009(10) -0.005(8) -0.021(8)
C3 0.093(8) 0.040(8) 0.113(12) -0.019(8) 0.000(7) 0.021(7)
C4 0.106(9) 0.059(8) 0.095(9) 0.019(10) -0.023(8) 0.002(8)
C5 0.063(8) 0.052(10) 0.107(13) -0.037(12) -0.003(8) 0.000(6)
C6 0.091(9) 0.079(12) 0.053(11) -0.034(10) 0.002(7) -0.018(8)
C7 0.085(8) 0.067(11) 0.057(12) 0.005(10) -0.007(8) -0.020(7)
C8 0.121(10) 0.055(8) 0.099(12) -0.003(9) -0.007(8) 0.003(7)
C9 0.129(10) 0.072(8) 0.069(9) -0.018(9) 0.005(7) -0.013(7)
C10 0.091(8) 0.052(10) 0.084(12) 0.023(11) -0.013(8) -0.018(7)
C11 0.089(9) 0.073(10) 0.067(11) -0.001(10) 0.012(9) -0.001(7)
C12 0.098(11) 0.068(8) 0.108(13) -0.007(10) 0.027(8) 0.002(8)
C13 0.093(9) 0.073(9) 0.083(12) -0.003(7) -0.007(9) -0.010(8)
C14 0.096(9) 0.058(9) 0.103(12) -0.006(7) 0.030(9) -0.003(8)
C15 0.105(11) 0.074(8) 0.079(11) 0.002(9) -0.005(8) -0.007(8)
C16 0.096(10) 0.064(10) 0.068(12) 0.002(10) 0.011(10) 0.024(8)
C17 0.082(10) 0.065(10) 0.104(16) 0.005(10) 0.002(9) 0.017(7)
C21 0.085(11) 0.043(11) 0.090(8) 0.002(6) -0.021(7) 0.020(9)
C22 0.112(14) 0.047(11) 0.168(11) 0.024(7) -0.035(9) -0.017(8)
C23 0.103(9) 0.055(8) 0.122(9) 0.013(7) -0.019(7) -0.027(10)
C24 0.084(9) 0.057(8) 0.161(10) 0.017(8) -0.027(7) -0.015(11)
C25 0.111(13) 0.038(10) 0.131(9) 0.029(6) -0.019(8) -0.015(8)
C26 0.082(11) 0.064(12) 0.097(8) 0.012(7) -0.010(8) 0.009(11)
C27 0.072(11) 0.101(12) 0.127(10) -0.006(9) -0.024(9) -0.037(12)
C28 0.139(12) 0.142(12) 0.151(12) 0.033(9) -0.031(9) -0.018(9)
C29 0.217(16) 0.149(12) 0.130(12) -0.005(9) 0.013(10) -0.007(10)
loop_
_atom_type_symbol
_atom_type_description
_atom_type_scat_dispersion_real
_atom_type_scat_dispersion_imag
_atom_type_scat_source
C C 0.0033 0.0016 'International Tables Vol C Tables 4.2.6.8 and 6.1.1.4'
H H 0.0000 0.0000 'International Tables Vol C Tables 4.2.6.8 and 6.1.1.4'
N N 0.0061 0.0033 'International Tables Vol C Tables 4.2.6.8 and 6.1.1.4'
O O 0.0106 0.0060 'International Tables Vol C Tables 4.2.6.8 and 6.1.1.4'
Ti Ti 0.2776 0.4457 'International Tables Vol C Tables 4.2.6.8 and 6.1.1.4'
loop_
_geom_angle_atom_site_label_1
_geom_angle_atom_site_label_2
_geom_angle_atom_site_label_3
_geom_angle
_geom_angle_site_symmetry_1
_geom_angle_site_symmetry_3
_geom_angle_publ_flag
Ti1 Ti1 O1 176.2(17) 3_656 . ?
Ti1 Ti1 N2 76.0(11) 3_656 . ?
O1 Ti1 N2 107.6(10) . . ?
N2 Ti1 N2 146.4(5) . 3_656 ?
N2 Ti1 N1 85.9(6) . 3_656 ?
N2 Ti1 N1 85.7(6) 3_656 3_656 ?
C18B O1 Ti1 130(2) 4_665 . ?
C17 O3 C18B 118.2(17) . . ?
C17 O3 C18A 109.4(19) . . ?
C27 O5 C28 115.5(10) . . ?
C5 N1 C2 106.9(10) . . ?
C5 N1 H1 126.6 . . ?
C2 N1 H1 126.6 . . ?
C10 N2 C7 104.3(9) . . ?
C10 N2 Ti1 126.3(9) . . ?
C7 N2 Ti1 125.8(10) . . ?
C10 N2 Ti1 127.5(9) . 3_656 ?
C7 N2 Ti1 124.1(10) . 3_656 ?
C2 C1 C10 123.7(12) . 3_656 ?
C2 C1 C11 118.2(12) . . ?
C10 C1 C11 118.1(13) 3_656 . ?
C1 C2 N1 124.1(13) . . ?
C1 C2 C3 127.9(14) . . ?
N1 C2 C3 108.0(10) . . ?
C4 C3 C2 107.6(10) . . ?
C4 C3 H3A 126.2 . . ?
C2 C3 H3A 126.2 . . ?
C3 C4 C5 109.9(11) . . ?
C3 C4 H4A 125.0 . . ?
C5 C4 H4A 125.0 . . ?
C6 C5 N1 128.1(13) . . ?
C6 C5 C4 124.3(14) . . ?
N1 C5 C4 107.6(12) . . ?
C7 C6 C5 123.9(12) . . ?
C7 C6 C21 117.2(12) . . ?
C5 C6 C21 118.9(11) . . ?
C6 C7 N2 126.3(12) . . ?
C6 C7 C8 126.1(13) . . ?
N2 C7 C8 107.6(10) . . ?
C9 C8 C7 111.7(11) . . ?
C9 C8 H8A 124.2 . . ?
C7 C8 H8A 124.2 . . ?
C8 C9 C10 103.9(10) . . ?
C8 C9 H9A 128.1 . . ?
C10 C9 H9A 128.1 . . ?
N2 C10 C9 112.5(10) . . ?
N2 C10 C1 125.2(12) . 3_656 ?
C9 C10 C1 122.4(15) . 3_656 ?
C12 C11 C13 118.7(11) . . ?
C12 C11 C1 122.3(16) . . ?
C13 C11 C1 118.9(16) . . ?
C11 C12 C14 121.9(11) . . ?
C11 C12 H12A 119.0 . . ?
C14 C12 H12A 119.0 . . ?
C15 C13 C11 119.8(10) . . ?
C15 C13 H13A 120.1 . . ?
C11 C13 H13A 120.1 . . ?
C12 C14 C16 119.3(10) . . ?
C12 C14 H14A 120.3 . . ?
C16 C14 H14A 120.3 . . ?
C16 C15 C13 120.6(10) . . ?
C16 C15 H15A 119.7 . . ?
C13 C15 H15A 119.7 . . ?
C15 C16 C14 119.6(10) . . ?
C15 C16 C17 123.0(17) . . ?
C14 C16 C17 117.3(17) . . ?
O2 C17 O3 123.4(14) . . ?
O2 C17 C16 126.8(13) . . ?
O3 C17 C16 109.7(13) . . ?
O3 C18A C19A 104(3) . . ?
O3 C18A H18A 110.9 . . ?
C19A C18A H18A 110.9 . . ?
O3 C18A H18B 110.9 . . ?
C19A C18A H18B 110.9 . . ?
H18A C18A H18B 108.9 . . ?
C18A C19A H19A 109.5 . . ?
C18A C19A H19B 109.5 . . ?
H19A C19A H19B 109.5 . . ?
C18A C19A H19C 109.5 . . ?
H19A C19A H19C 109.5 . . ?
H19B C19A H19C 109.5 . . ?
O3 C18B C19B 101(3) . . ?
O3 C18B H18C 111.5 . . ?
C19B C18B H18C 111.5 . . ?
O3 C18B H18D 111.5 . . ?
C19B C18B H18D 111.5 . . ?
H18C C18B H18D 109.3 . . ?
C18B C19B H19D 109.5 . . ?
C18B C19B H19E 109.5 . . ?
H19D C19B H19E 109.5 . . ?
C18B C19B H19F 109.5 . . ?
H19D C19B H19F 109.5 . . ?
H19E C19B H19F 109.5 . . ?
C22 C21 C23 119.1(9) . . ?
C22 C21 C6 120.2(14) . . ?
C23 C21 C6 120.7(14) . . ?
C21 C22 C24 121.7(10) . . ?
C21 C22 H22A 119.2 . . ?
C24 C22 H22A 119.2 . . ?
C21 C23 C25 119.5(9) . . ?
C21 C23 H23A 120.2 . . ?
C25 C23 H23A 120.2 . . ?
C22 C24 C26 119.8(11) . . ?
C22 C24 H24A 120.1 . . ?
C26 C24 H24A 120.1 . . ?
C26 C25 C23 120.6(10) . . ?
C26 C25 H25A 119.7 . . ?
C23 C25 H25A 119.7 . . ?
C25 C26 C24 119.3(10) . . ?
C25 C26 C27 122.4(14) . . ?
C24 C26 C27 118.2(15) . . ?
O4 C27 O5 124.7(14) . . ?
O4 C27 C26 125.2(12) . . ?
O5 C27 C26 110.0(11) . . ?
C29 C28 O5 104.0(10) . . ?
C29 C28 H28A 110.9 . . ?
O5 C28 H28A 110.9 . . ?
C29 C28 H28B 110.9 . . ?
O5 C28 H28B 110.9 . . ?
H28A C28 H28B 109.0 . . ?
C28 C29 H29A 109.5 . . ?
C28 C29 H29B 109.5 . . ?
H29A C29 H29B 109.5 . . ?
C28 C29 H29C 109.5 . . ?
H29A C29 H29C 109.5 . . ?
H29B C29 H29C 109.5 . . ?
loop_
_geom_bond_atom_site_label_1
_geom_bond_atom_site_label_2
_geom_bond_distance
_geom_bond_site_symmetry_2
_geom_bond_publ_flag
Ti1 Ti1 1.195(17) 3_656 ?
Ti1 O1 1.66(3) . ?
Ti1 N2 2.037(14) . ?
Ti1 N2 2.099(14) 3_656 ?
Ti1 N1 2.109(13) 3_656 ?
O1 C18B 1.57(5) 4_665 ?
O2 C17 1.183(12) . ?
O3 C17 1.341(11) . ?
O3 C18B 1.49(5) . ?
O3 C18A 1.49(6) . ?
O4 C27 1.164(11) . ?
O5 C27 1.332(11) . ?
O5 C28 1.631(12) . ?
N1 C5 1.397(12) . ?
N1 C2 1.399(10) . ?
N1 H1 0.8600 . ?
N2 C10 1.397(11) . ?
N2 C7 1.425(11) . ?
C1 C2 1.399(12) . ?
C1 C10 1.449(13) 3_656 ?
C1 C11 1.476(13) . ?
C2 C3 1.445(13) . ?
C3 C4 1.322(10) . ?
C3 H3A 0.9300 . ?
C4 C5 1.428(13) . ?
C4 H4A 0.9300 . ?
C5 C6 1.380(13) . ?
C6 C7 1.353(13) . ?
C6 C21 1.523(13) . ?
C7 C8 1.431(13) . ?
C8 C9 1.353(11) . ?
C8 H8A 0.9300 . ?
C9 C10 1.447(12) . ?
C9 H9A 0.9300 . ?
C11 C12 1.361(12) . ?
C11 C13 1.381(11) . ?
C12 C14 1.363(12) . ?
C12 H12A 0.9300 . ?
C13 C15 1.374(11) . ?
C13 H13A 0.9300 . ?
C14 C16 1.374(12) . ?
C14 H14A 0.9300 . ?
C15 C16 1.367(12) . ?
C15 H15A 0.9300 . ?
C16 C17 1.509(14) . ?
C18A C19A 1.58(3) . ?
C18A H18A 0.9700 . ?
C18A H18B 0.9700 . ?
C19A H19A 0.9600 . ?
C19A H19B 0.9600 . ?
C19A H19C 0.9600 . ?
C18B C19B 1.56(3) . ?
C18B H18C 0.9700 . ?
C18B H18D 0.9700 . ?
C19B H19D 0.9600 . ?
C19B H19E 0.9600 . ?
C19B H19F 0.9600 . ?
C21 C22 1.351(12) . ?
C21 C23 1.364(11) . ?
C22 C24 1.355(13) . ?
C22 H22A 0.9300 . ?
C23 C25 1.378(12) . ?
C23 H23A 0.9300 . ?
C24 C26 1.360(12) . ?
C24 H24A 0.9300 . ?
C25 C26 1.357(11) . ?
C25 H25A 0.9300 . ?
C26 C27 1.508(15) . ?
C28 C29 1.480(12) . ?
C28 H28A 0.9700 . ?
C28 H28B 0.9700 . ?
C29 H29A 0.9600 . ?
C29 H29B 0.9600 . ?
C29 H29C 0.9600 . ?
