#------------------------------------------------------------------------------
#$Date: 2021-06-05 21:00:10 +0300 (Sat, 05 Jun 2021) $
#$Revision: 265929 $
#$URL: file:///home/coder/svn-repositories/cod/cif/1/56/11/1561103.cif $
#------------------------------------------------------------------------------
#
# This file is available in the Crystallography Open Database (COD),
# http://www.crystallography.net/
#
# All data on this site have been placed in the public domain by the
# contributors.
#
data_1561103
loop_
_publ_author_name
'Gimeno, Ignacio'
'Urtizberea, Ainhoa'
'Rom\'an-Roche, Juan'
'Zueco, David'
'Cam\'on, Agust\'in'
'Alonso, Pablo J.'
'Roubeau, Olivier'
'Luis, Fernando'
_publ_section_title
;
 Broad-band spectroscopy of a vanadyl porphyrin: a model electronuclear
 spin qudit
;
_journal_issue                   15
_journal_name_full               'Chemical Science'
_journal_page_first              5621
_journal_page_last               5630
_journal_paper_doi               10.1039/D1SC00564B
_journal_volume                  12
_journal_year                    2021
_chemical_formula_moiety         'C56 H44 N4 O9 V'
_chemical_formula_sum            'C56 H44 N4 O9 V'
_chemical_formula_weight         967.89
_space_group_crystal_system      monoclinic
_space_group_IT_number           14
_space_group_name_Hall           '-P 2yn'
_space_group_name_H-M_alt        'P 1 21/n 1'
_atom_sites_solution_hydrogens   geom
_audit_creation_method           SHELXL-2014
_audit_update_record
;
2021-01-26 deposited with the CCDC.	2021-03-10 downloaded from the CCDC.
;
_cell_angle_alpha                90
_cell_angle_beta                 93.508(8)
_cell_angle_gamma                90
_cell_formula_units_Z            2
_cell_length_a                   9.3937(6)
_cell_length_b                   10.8559(6)
_cell_length_c                   22.317(2)
_cell_measurement_reflns_used    3348
_cell_measurement_temperature    150(2)
_cell_measurement_theta_max      26.21
_cell_measurement_theta_min      4.05
_cell_volume                     2271.6(3)
_computing_cell_refinement       'CrysAlisPro 1.171.38.41r (Rigaku OD, 2015)'
_computing_data_collection       'CrysAlisPro 1.171.38.41r (Rigaku OD, 2015)'
_computing_data_reduction        'CrysAlisPro 1.171.38.41r (Rigaku OD, 2015)'
_computing_structure_refinement  'SHELXL-2014 (Sheldrick, 2015)'
_computing_structure_solution    'SHELXT (Sheldrick, 2015)'
_diffrn_ambient_temperature      150(2)
_diffrn_detector                 'CCD plate'
_diffrn_detector_area_resol_mean 16.3990
_diffrn_detector_type            Sapphire3
_diffrn_measured_fraction_theta_full 0.998
_diffrn_measured_fraction_theta_max 0.998
_diffrn_measurement_device       'four-circle diffractometer'
_diffrn_measurement_device_type  'Xcalibur, Sapphire3'
_diffrn_measurement_method       '\w scans'
_diffrn_radiation_monochromator  graphite
_diffrn_radiation_type           MoK\a
_diffrn_radiation_wavelength     0.71073
_diffrn_reflns_av_R_equivalents  0.0418
_diffrn_reflns_av_unetI/netI     0.0434
_diffrn_reflns_Laue_measured_fraction_full 0.998
_diffrn_reflns_Laue_measured_fraction_max 0.998
_diffrn_reflns_limit_h_max       11
_diffrn_reflns_limit_h_min       -11
_diffrn_reflns_limit_k_max       12
_diffrn_reflns_limit_k_min       -12
_diffrn_reflns_limit_l_max       25
_diffrn_reflns_limit_l_min       -26
_diffrn_reflns_number            16887
_diffrn_reflns_point_group_measured_fraction_full 0.998
_diffrn_reflns_point_group_measured_fraction_max 0.998
_diffrn_reflns_theta_full        25.025
_diffrn_reflns_theta_max         25.026
_diffrn_reflns_theta_min         3.324
_diffrn_source                   'fine-focus sealed X-ray tube'
_diffrn_source_type              'Enhance (Mo) X-ray Source'
_exptl_absorpt_coefficient_mu    0.285
_exptl_absorpt_correction_T_max  1.000
_exptl_absorpt_correction_T_min  0.783
_exptl_absorpt_correction_type   multi-scan
_exptl_absorpt_process_details
;
CrysAlisPro 1.171.38.41r (Rigaku Oxford Diffraction, 2015)
Empirical absorption correction using spherical harmonics,
 implemented in SCALE3 ABSPACK scaling algorithm.
;
_exptl_crystal_colour            violet
_exptl_crystal_density_diffrn    1.415
_exptl_crystal_description       block
_exptl_crystal_F_000             1006
_exptl_crystal_preparation       'Magnetic properties'
_exptl_crystal_size_max          0.880
_exptl_crystal_size_mid          0.470
_exptl_crystal_size_min          0.190
_refine_diff_density_max         0.359
_refine_diff_density_min         -1.111
_refine_diff_density_rms         0.091
_refine_ls_extinction_method     none
_refine_ls_goodness_of_fit_ref   1.029
_refine_ls_hydrogen_treatment    constr
_refine_ls_matrix_type           full
_refine_ls_number_parameters     385
_refine_ls_number_reflns         3997
_refine_ls_number_restraints     156
_refine_ls_restrained_S_all      1.018
_refine_ls_R_factor_all          0.1210
_refine_ls_R_factor_gt           0.0895
_refine_ls_shift/su_max          0.000
_refine_ls_shift/su_mean         0.000
_refine_ls_structure_factor_coef Fsqd
_refine_ls_weighting_details
'w=1/[\s^2^(Fo^2^)+(0.0941P)^2^+6.7889P] where P=(Fo^2^+2Fc^2^)/3'
_refine_ls_weighting_scheme      calc
_refine_ls_wR_factor_gt          0.2274
_refine_ls_wR_factor_ref         0.2496
_reflns_Friedel_coverage         0.000
_reflns_number_gt                2786
_reflns_number_total             3997
_reflns_threshold_expression     'I > 2\s(I)'
_cod_data_source_file            d1sc00564b2.cif
_cod_data_source_block           ORZ178-VOTCPPEt-150K
_cod_depositor_comments
'Adding full bibliography for 1561101--1561103.cif.'
_cod_original_sg_symbol_H-M      'P 21/n'
_cod_database_code               1561103
_shelx_space_group_comment
;
The symmetry employed for this shelxl refinement is uniquely defined
by the following loop, which should always be used as a source of
symmetry information in preference to the above space-group names.
They are only intended as comments.
;
_shelx_estimated_absorpt_t_min   0.787
_shelx_estimated_absorpt_t_max   0.948
_oxdiff_exptl_absorpt_empirical_full_min 0.659
_oxdiff_exptl_absorpt_empirical_full_max 1.269
_oxdiff_exptl_absorpt_empirical_details
;
Empirical correction (ABSPACK) includes:
- Absorption correction using spherical harmonics
- Frame scaling
;
_shelxl_version_number           2014-3
_shelx_res_file
;
TITL 150K in P2(1)/n
CELL 0.71073   9.3937  10.8559  22.317  90.0000  93.508  90.0000
ZERR    2.00   0.0006   0.0006   0.002   0.0000   0.008   0.0000
LATT  1
SYMM 0.5-X, 0.5+Y, 0.5-Z
SFAC C H N O V
UNIT 112 88 8 18 2
TEMP -123
SIZE 0.88 0.47 0.19

REM dark violet block
REM data cut 0.84 angstrom xprep I/sigma(I)

L.S. 24
BOND $H
ACTA 50.05
FMAP 2
PLAN 10
SADI O3 C18 O3B C18B O5 C28 O5B C28B
SADI C18 C19 C18B C19B C28 C29 C28B C29B
SIMU 0.012 O3 O3B O5 O5B C18 > C19B C28 > C29B
DELU 0.003 O3 O3B O5 O5B C18 > C19B C28 > C29B
WGHT    0.094100    6.788899
FVAR       0.12622   0.68379   0.82046
V1    5    0.456250    0.019577    0.490052    10.50000    0.05973    0.04632 =
         0.10882   -0.00819   -0.02606    0.00798
O1    4    0.308362    0.079780    0.471831    10.50000    0.07691    0.06481 =
         0.13944   -0.00058   -0.02345    0.01335
O2    4    0.776559    0.122743    0.080430    11.00000    0.06868    0.08036 =
         0.08372   -0.02663    0.01303   -0.00823
PART   1
O3    4    0.660825    0.308155    0.094849    21.00000    0.05435    0.06141 =
         0.06657   -0.00055   -0.00515   -0.00357
PART   2
O3B   4    0.614417    0.256846    0.088398   -21.00000    0.06317    0.07154 =
         0.06815    0.00360    0.01036   -0.00418
PART   0
O4    4    0.981911    0.744275    0.674216    11.00000    0.03736    0.03491 =
         0.07705   -0.01440   -0.01624   -0.00301
PART   1
O5    4    0.777690    0.834120    0.640138    31.00000    0.04537    0.02228 =
         0.07618   -0.01078   -0.01876    0.00051
PART   2
O5B   4    0.754976    0.805108    0.672613   -31.00000    0.05089    0.02180 =
         0.06354   -0.01114   -0.01324   -0.00313
PART   0
N1    3    0.600037    0.145084    0.463702    11.00000    0.03673    0.02430 =
         0.05842   -0.00457   -0.01437    0.00292
N2    3    0.492045   -0.086138    0.419456    11.00000    0.03957    0.01881 =
         0.06124   -0.00585   -0.01253    0.00133
C1    1    0.607198    0.072135    0.358039    11.00000    0.03420    0.02661 =
         0.06406   -0.00465   -0.01306    0.00479
C2    1    0.637525    0.157780    0.405191    11.00000    0.03340    0.02488 =
         0.06955   -0.00427   -0.01506    0.00363
C3    1    0.712298    0.271806    0.398009    11.00000    0.03969    0.02917 =
         0.07016   -0.00075   -0.01233   -0.00161
AFIX  43
H3A   2    0.750174    0.301553    0.362249    11.00000   -1.20000
AFIX   0
C4    1    0.718269    0.328612    0.452132    11.00000    0.04096    0.02730 =
         0.07391   -0.00639   -0.02003   -0.00467
AFIX  43
H4A   2    0.761015    0.406252    0.461182    11.00000   -1.20000
AFIX   0
C5    1    0.648974    0.251278    0.493272    11.00000    0.03505    0.01998 =
         0.06757   -0.00610   -0.02043    0.00006
C6    1    0.634542    0.277355    0.553507    11.00000    0.03387    0.02250 =
         0.06938   -0.00758   -0.01767    0.00421
C7    1    0.569727    0.199288    0.594313    11.00000    0.03883    0.02149 =
         0.06612   -0.00688   -0.01496    0.00268
C8    1    0.559405    0.224639    0.656706    11.00000    0.05185    0.02723 =
         0.06785   -0.01272   -0.01337   -0.00150
AFIX  43
H8A   2    0.593169    0.296732    0.677095    11.00000   -1.20000
AFIX   0
C9    1    0.493394    0.128559    0.681815    11.00000    0.04893    0.02871 =
         0.06089   -0.00850   -0.00917   -0.00010
AFIX  43
H9A   2    0.472708    0.119632    0.722728    11.00000   -1.20000
AFIX   0
C10   1    0.539227   -0.042188    0.366433    11.00000    0.03537    0.02620 =
         0.06819   -0.00794   -0.01384    0.00270
C11   1    0.641360    0.106937    0.296789    11.00000    0.03886    0.02696 =
         0.06541   -0.00897   -0.01243   -0.00414
C12   1    0.743286    0.042930    0.265108    11.00000    0.03860    0.03305 =
         0.08292   -0.00757   -0.00909    0.00329
AFIX  43
H12A  2    0.796699   -0.021439    0.284597    11.00000   -1.20000
AFIX   0
C13   1    0.568206    0.202902    0.267280    11.00000    0.03856    0.03105 =
         0.06854   -0.00917   -0.00495    0.00173
AFIX  43
H13A  2    0.500555    0.249090    0.287885    11.00000   -1.20000
AFIX   0
C14   1    0.767106    0.071571    0.206663    11.00000    0.03525    0.04307 =
         0.07791   -0.01812    0.00118   -0.00487
AFIX  43
H14A  2    0.836060    0.026341    0.186332    11.00000   -1.20000
AFIX   0
C15   1    0.592421    0.232247    0.208276    11.00000    0.04073    0.03218 =
         0.06982   -0.00605   -0.00894   -0.00359
AFIX  43
H15A  2    0.540984    0.298117    0.189108    11.00000   -1.20000
AFIX   0
C16   1    0.691329    0.166436    0.176548    11.00000    0.03562    0.04107 =
         0.06865   -0.01521   -0.00808   -0.00863
C17   1    0.711069    0.190093    0.112180    11.00000    0.04082    0.07828 =
         0.06258   -0.01636    0.00046   -0.01755
PART   1
C18   1    0.669864    0.339523    0.032056    21.00000    0.06796    0.08761 =
         0.06854    0.00419    0.00177   -0.01014
AFIX  23
H18A  2    0.752721    0.297531    0.015783    21.00000   -1.20000
H18B  2    0.682916    0.429516    0.027761    21.00000   -1.20000
AFIX   0
C19   1    0.535803    0.300043   -0.001798    21.00000    0.10681    0.13390 =
         0.06999   -0.00266   -0.01757   -0.03991
AFIX 137
H19A  2    0.539637    0.323517   -0.044071    21.00000   -1.50000
H19B  2    0.454028    0.340221    0.015227    21.00000   -1.50000
H19C  2    0.525647    0.210447    0.001203    21.00000   -1.50000
AFIX   0
PART   2
C18B  1    0.597273    0.252000    0.022784   -21.00000    0.07989    0.08606 =
         0.06812    0.00762    0.00526   -0.00903
AFIX  23
H18C  2    0.535679    0.182311    0.008989   -21.00000   -1.20000
H18D  2    0.690558    0.245035    0.004683   -21.00000   -1.20000
AFIX   0
C19B  1    0.526459    0.375181    0.007984   -21.00000    0.11640    0.10187 =
         0.06641    0.01683    0.01782    0.01257
AFIX 137
H19D  2    0.506611    0.381751   -0.035522   -21.00000   -1.50000
H19E  2    0.590240    0.442175    0.021802   -21.00000   -1.50000
H19F  2    0.436893    0.380992    0.028135   -21.00000   -1.50000
AFIX   0
PART   0
C21   1    0.691846    0.397241    0.577947    11.00000    0.03968    0.02342 =
         0.05873   -0.00460   -0.01100   -0.00150
C22   1    0.829525    0.405930    0.603681    11.00000    0.04656    0.02595 =
         0.10452   -0.01404   -0.02831    0.01035
AFIX  43
H22A  2    0.888409    0.334715    0.605201    11.00000   -1.20000
AFIX   0
C23   1    0.608937    0.502266    0.577051    11.00000    0.03632    0.03093 =
         0.09402   -0.01528   -0.02052    0.00474
AFIX  43
H23A  2    0.513416    0.499121    0.560478    11.00000   -1.20000
AFIX   0
C24   1    0.883176    0.514499    0.627026    11.00000    0.03929    0.03073 =
         0.09606   -0.01609   -0.02727    0.00437
AFIX  43
H24A  2    0.977971    0.517484    0.644427    11.00000   -1.20000
AFIX   0
C25   1    0.663359    0.611888    0.599994    11.00000    0.03951    0.02590 =
         0.08787   -0.01640   -0.02221    0.00732
AFIX  43
H25A  2    0.605229    0.683561    0.598238    11.00000   -1.20000
AFIX   0
C26   1    0.800308    0.619025    0.625341    11.00000    0.03337    0.02336 =
         0.05188   -0.00587   -0.00765    0.00022
C27   1    0.864548    0.735471    0.651147    11.00000    0.03757    0.02707 =
         0.05460   -0.00890   -0.00814    0.00266
PART   1
C28   1    0.833600    0.955235    0.658299    31.00000    0.05106    0.01937 =
         0.06184   -0.00273   -0.01147   -0.00557
AFIX  23
H28A  2    0.779264    1.019744    0.635405    31.00000   -1.20000
H28B  2    0.934508    0.961176    0.648161    31.00000   -1.20000
AFIX   0
C29   1    0.824204    0.978557    0.724370    31.00000    0.05902    0.03223 =
         0.06458   -0.00764   -0.00653   -0.00545
AFIX 137
H29A  2    0.842333    1.065904    0.732897    31.00000   -1.50000
H29B  2    0.895463    0.928298    0.747046    31.00000   -1.50000
H29C  2    0.728693    0.956665    0.736219    31.00000   -1.50000
AFIX   0
PART   2
C28B  1    0.801111    0.922128    0.700282   -31.00000    0.05175    0.02434 =
         0.06862   -0.01052   -0.01454   -0.00833
AFIX  23
H28C  2    0.878544    0.906443    0.731453   -31.00000   -1.20000
H28D  2    0.720307    0.960028    0.720007   -31.00000   -1.20000
AFIX   0
C29B  1    0.853211    1.009418    0.654359   -31.00000    0.05311    0.02950 =
         0.08044    0.00116   -0.01893   -0.00819
AFIX 137
H29D  2    0.879667    1.087902    0.673674   -31.00000   -1.50000
H29E  2    0.777386    1.023419    0.622959   -31.00000   -1.50000
H29F  2    0.936624    0.973971    0.636435   -31.00000   -1.50000
PART   0

AFIX   0
HKLF 4

REM  150K in P2(1)/n
REM R1 =  0.0895 for    2786 Fo > 4sig(Fo)  and  0.1210 for all    3997 data
REM    385 parameters refined using    156 restraints

END

WGHT      0.1538      3.7775

REM Highest difference peak  0.359,  deepest hole -1.111,  1-sigma level  0.091
Q1    1   0.8120  0.0683  0.1093  11.00000  0.05    0.36
Q2    1   0.6873  0.2492  0.0346  11.00000  0.05    0.31
Q3    1   0.5605  0.0985  0.4864  11.00000  0.05    0.29
Q4    1   0.4810 -0.0834  0.4635  11.00000  0.05    0.29
Q5    1   0.6902  0.1538  0.1406  11.00000  0.05    0.27
Q6    1   0.6016  0.2367  0.5681  11.00000  0.05    0.27
Q7    1   0.9810  0.7649  0.6372  11.00000  0.05    0.27
Q8    1   0.6481  0.1354  0.4413  11.00000  0.05    0.27
Q9    1   0.7134  0.6133  0.6391  11.00000  0.05    0.26
Q10   1   0.6355  0.1109  0.3849  11.00000  0.05    0.26
;
_shelx_res_checksum              42660
_shelx_hkl_file
;
   0   0  -4  205.84    1.74
   0   0   4  216.72    1.81
   0   0  -5    0.31    0.14
   0   0  -5    0.22    0.08
   0   0   5    0.13    0.10
   0   0  -6    1.91    0.18
   0   0  -6    1.54    0.21
   0   0   6    1.86    0.23
   0   0   7    0.13    0.11
   0   0  -7    0.10    0.08
   0   0  -7    0.06    0.09
   0   0  -7    0.08    0.06
   0   0  -8    9.01    0.41
   0   0  -8    8.31    0.51
   0   0  -8   10.17    0.56
   0   0   8    9.03    0.53
   0   0  -9    0.11    0.07
   0   0   9   -0.09    0.10
   0   0  -9    0.05    0.08
   0   0  -9   -0.01    0.10
   0   0 -10   41.16    1.25
   0   0 -10   42.80    1.30
   0   0 -10   42.99    1.01
   0   0  10   42.10    1.29
   0   0 -11    0.04    0.08
   0   0 -11    0.00    0.09
   0   0 -11    0.01    0.13
   0   0 -11    0.10    0.08
   0   0 -12   15.57    0.69
   0   0 -12   16.39    0.74
   0   0 -13    0.10    0.10
   0   0 -13    0.49    0.21
   0   0 -14    2.52    0.34
   0   0 -14    3.14    0.45
   0   0 -15    0.36    0.21
   0   0 -15    0.38    0.19
   0   0 -16    7.21    0.71
   0   0 -16    7.76    0.62
   0   0 -17    0.13    0.17
   0   0 -17    0.32    0.26
   0   0 -18    0.49    0.22
   0   0 -18    0.86    0.31
   0   0 -19   -0.10    0.16
   0   0 -19    0.03    0.21
   0   0 -20    0.28    0.20
   0   0 -20    0.14    0.17
   0   0 -21    0.27    0.27
   0   0 -21    0.05    0.17
   0   0 -22    3.03    0.59
   0   0 -22    3.11    0.53
   0   0 -23    0.29    0.23
   0   0 -23    0.25    0.22
   0   0 -24    0.47    0.29
   0   0 -25    0.26    0.22
   0   0 -26   -0.12    0.24
   0   1   3    0.34    0.09
   0   1   3    0.34    0.08
   0  -1   3    0.31    0.09
   0  -1  -4   43.79    0.84
   0   1  -4   40.24    0.88
   0  -1  -4   42.12    0.73
   0   1  -4   44.72    0.93
   0   1   4   42.21    0.76
   0  -1  -4   44.52    0.83
   0   1   4   43.12    0.82
   0   1   4   42.06    0.72
   0  -1   4   43.76    0.90
   0   1  -5  288.14    2.57
   0   1   5  278.44    2.05
   0   1   5  288.02    2.20
   0  -1  -5  279.94    2.14
   0   1  -5  266.77    2.50
   0  -1  -5  285.30    2.23
   0  -1   5  284.26    2.53
   0  -1  -5  286.23    2.28
   0   1   6    8.31    0.42
   0   1  -6    7.06    0.46
   0  -1  -6    7.83    0.43
   0  -1  -6    8.12    0.42
   0  -1   6    7.62    0.48
   0   1   6    7.48    0.36
   0  -1  -6    7.70    0.40
   0   1  -6    7.55    0.46
   0  -1   7   57.92    1.30
   0   1   7   56.84    1.14
   0   1  -7   50.25    1.24
   0  -1  -7   54.08    1.10
   0   1   7   53.21    0.98
   0   1  -7   55.23    1.31
   0  -1  -7   53.61    1.12
   0  -1  -7   55.07    1.14
   0  -1  -8   71.29    1.36
   0  -1  -8   65.37    1.35
   0  -1   8   71.55    1.53
   0   1   8   68.73    1.38
   0  -1  -8   68.18    1.29
   0   1   8   65.73    1.13
   0   1  -8   67.91    1.61
   0   1  -8   65.75    1.49
   0  -1  -8   64.75    1.33
   0   1   9    6.61    0.48
   0  -1   9    7.31    0.54
   0  -1  -9    6.16    0.42
   0  -1  -9    6.52    0.45
   0  -1  -9    5.75    0.43
   0  -1  -9    6.62    0.48
   0   1  -9    6.85    0.52
   0   1  -9    5.89    0.53
   0   1   9    5.94    0.38
   0  -1 -10   50.29    1.34
   0  -1 -10   48.21    1.23
   0  -1 -10   49.55    1.26
   0   1 -10   51.48    1.54
   0  -1 -10   50.36    1.37
   0   1  10   52.85    1.36
   0   1 -10   48.61    1.49
   0   1  10   48.29    1.05
   0   1 -11   10.34    0.71
   0  -1 -11   10.25    0.59
   0  -1 -11   10.36    0.65
   0  -1 -11    9.58    0.66
   0   1 -11   10.16    0.49
   0   1  11    9.46    0.61
   0  -1 -11    9.74    0.61
   0  -1 -12    7.49    0.59
   0  -1 -12    7.63    0.55
   0  -1 -12    6.81    0.51
   0   1 -12    7.06    0.43
   0   1 -12    7.43    0.65
   0  -1 -12    7.93    0.61
   0  -1 -13   13.95    0.78
   0  -1 -13   14.52    0.88
   0   1 -13   16.44    0.97
   0   1 -13   13.66    0.63
   0   1 -14    0.29    0.24
   0   1 -14    0.12    0.09
   0  -1 -14    0.29    0.17
   0  -1 -14    0.07    0.16
   0  -1 -15    0.78    0.23
   0   1 -15    0.90    0.30
   0  -1 -15    1.42    0.33
   0   1 -16    1.76    0.40
   0  -1 -16    1.63    0.39
   0  -1 -16    1.28    0.28
   0  -1 -17    0.69    0.26
   0   1 -17    0.74    0.30
   0   1 -17    0.74    0.21
   0  -1 -17    0.81    0.29
   0   1 -18   -0.10    0.11
   0   1 -18    0.31    0.27
   0  -1 -18    0.05    0.18
   0  -1 -18    0.04    0.15
   0   1 -19    0.05    0.15
   0  -1 -19    0.36    0.23
   0  -1 -19   -0.03    0.16
   0   1 -19    0.07    0.23
   0   1 -20    0.11    0.17
   0   1 -20    0.30    0.22
   0  -1 -20    0.32    0.26
   0  -1 -20    0.15    0.16
   0  -1 -21    2.66    0.56
   0   1 -21    1.78    0.38
   0  -1 -21    1.38    0.37
   0   1 -21    1.87    0.51
   0  -1 -22    0.52    0.27
   0  -1 -22    0.52    0.23
   0   1 -22    0.62    0.27
   0   1 -22    1.04    0.40
   0  -1 -23   -0.24    0.28
   0  -1 -23   -0.19    0.25
   0   1 -23    0.20    0.23
   0   1 -24    0.43    0.33
   0  -1 -24    0.18    0.24
   0   1 -25    0.14    0.21
   0  -1 -25    0.30    0.26
   0  -1 -26    0.13    0.23
   0   1 -26    0.16    0.21
   0   2   0   99.12    1.02
   0  -2   0  102.13    0.99
   0   2   0  102.71    1.00
   0   2   0   96.33    1.34
   0   2   1  116.78    1.49
   0  -2   1  114.25    1.22
   0  -2   1  111.77    1.21
   0   2  -1  114.25    1.21
   0   2  -1  115.02    1.45
   0  -2   1  116.19    1.47
   0   2  -1  116.03    1.25
   0   2  -2   15.04    0.51
   0  -2   2   14.57    0.48
   0  -2   2   14.97    0.53
   0   2   2   14.77    0.54
   0   2  -2   14.30    0.50
   0   2  -2   13.95    0.48
   0   2  -3   12.06    0.52
   0  -2   3   11.66    0.49
   0   2   3   12.04    0.52
   0  -2   3   12.96    0.50
   0   2  -3   12.46    0.47
   0   2  -3   11.53    0.49
   0   2  -4   11.63    0.52
   0  -2  -4   11.65    0.54
   0   2  -4   12.24    0.56
   0  -2   4   12.01    0.55
   0  -2   4   11.21    0.47
   0   2   4   11.59    0.52
   0   2   4   11.99    0.40
   0   2   4   11.61    0.53
   0   2   5   12.91    0.57
   0   2  -5   12.51    0.58
   0   2  -5   12.04    0.60
   0  -2   5   11.99    0.58
   0   2   5   12.46    0.45
   0  -2  -5   12.33    0.58
   0   2   5   12.33    0.55
   0  -2   5   13.27    0.53
   0   2   6   13.98    0.51
   0  -2   6   13.89    0.67
   0  -2  -6   14.65    0.65
   0   2   6   13.55    0.59
   0   2   6   14.98    0.64
   0   2  -6   12.80    0.63
   0   2  -6   13.27    0.67
   0   2   7    1.77    0.21
   0  -2  -7    1.74    0.24
   0   2   7    1.56    0.20
   0   2  -7    1.68    0.25
   0   2  -7    1.54    0.27
   0   2   7    1.85    0.24
   0  -2  -7    1.76    0.21
   0  -2   7    1.81    0.26
   0   2   8   24.05    0.85
   0  -2  -8   22.51    0.89
   0   2   8   23.70    0.80
   0  -2   8   25.36    0.98
   0  -2  -8   23.80    0.79
   0   2   8   24.00    0.78
   0  -2  -8   26.98    0.76
   0  -2  -8   22.34    0.86
   0   2  -8   26.54    1.04
   0   2  -8   21.59    0.92
   0  -2  -9    0.03    0.08
   0   2   9    0.06    0.13
   0   2  -9    0.26    0.17
   0  -2  -9    0.23    0.11
   0   2  -9    0.06    0.13
   0   2   9    0.11    0.08
   0   2   9    0.27    0.15
   0  -2  -9    0.30    0.15
   0  -2  -9   -0.12    0.15
   0  -2 -10    1.85    0.26
   0   2  10    2.42    0.30
   0  -2 -10    1.32    0.21
   0   2  10    1.54    0.24
   0  -2 -10    1.43    0.24
   0   2 -10    1.70    0.31
   0  -2 -10    0.75    0.20
   0   2  11    0.22    0.15
   0   2 -11    0.01    0.19
   0   2  11    0.01    0.08
   0  -2 -11   -0.02    0.10
   0  -2 -11    0.15    0.14
   0  -2 -11   -0.13    0.12
   0  -2 -12    5.26    0.47
   0  -2 -12    5.01    0.50
   0   2 -12    4.91    0.53
   0   2  12    5.69    0.43
   0  -2 -12    5.30    0.47
   0  -2 -13    0.98    0.24
   0   2  13    1.19    0.25
   0  -2 -13    1.10    0.27
   0   2 -13    1.33    0.36
   0  -2 -13    0.87    0.21
   0   2 -14   18.55    1.11
   0  -2 -14   19.52    1.00
   0  -2 -14   18.01    0.98
   0   2  14   17.81    0.79
   0   2 -15    4.33    0.59
   0  -2 -15    4.49    0.52
   0  -2 -15    3.82    0.50
   0  -2 -16    3.96    0.54
   0   2 -16    3.96    0.56
   0  -2 -16    3.82    0.51
   0   2 -17   -0.11    0.21
   0  -2 -17   -0.03    0.15
   0  -2 -17    0.15    0.22
   0  -2 -18    2.18    0.43
   0   2 -18    2.84    0.53
   0  -2 -18    2.23    0.44
   0   2 -19    0.61    0.33
   0  -2 -19    0.41    0.22
   0  -2 -20    2.00    0.46
   0   2 -20    2.54    0.56
   0   2 -20    3.05    0.45
   0   2 -21   -0.26    0.24
   0   2 -21    0.16    0.16
   0  -2 -21    0.23    0.19
   0   2 -22    0.20    0.25
   0   2 -22    0.13    0.15
   0  -2 -22    0.38    0.24
   0  -2 -23    0.16    0.22
   0   2 -23    0.50    0.31
   0  -2 -24    0.36    0.28
   0   2 -24   -0.08    0.24
   0  -2 -25   -0.06    0.22
   0   2 -25   -0.06    0.25
   0  -2 -26   -0.15    0.21
   0   2 -26    0.11    0.21
   0   3   0    0.07    0.07
   0   3   0    0.03    0.10
   0  -3   0    0.13    0.07
   0  -3   0    0.08    0.10
   0   3   0    0.02    0.06
   0   3  -1    0.73    0.17
   0  -3  -1    0.54    0.09
   0   3  -1    0.55    0.12
   0  -3   1    0.40    0.13
   0  -3   1    0.45    0.11
   0   3   1    0.48    0.08
   0   3  -1    0.57    0.13
   0   3   1    0.49    0.13
   0  -3  -2    0.76    0.08
   0   3   2    0.74    0.08
   0  -3   2    0.72    0.14
   0   3  -2    0.73    0.14
   0  -3   2    0.55    0.16
   0   3  -2    0.64    0.14
   0   3  -2    0.99    0.19
   0   3   2    0.81    0.08
   0   3  -3    0.72    0.15
   0  -3   3    1.05    0.19
   0  -3   3    0.69    0.14
   0   3   3    0.63    0.16
   0   3  -3    0.51    0.13
   0   3  -3    0.93    0.16
   0   3  -4    0.21    0.12
   0   3   4    0.06    0.12
   0  -3   4    0.01    0.11
   0  -3   4   -0.01    0.09
   0   3  -4   -0.01    0.07
   0   3  -4    0.13    0.11
   0  -3   5    2.06    0.28
   0   3   5    2.66    0.30
   0   3  -5    2.61    0.28
   0   3  -5    1.98    0.27
   0   3   5    2.35    0.29
   0   3  -5    2.36    0.29
   0  -3   5    2.35    0.28
   0  -3   6    0.63    0.16
   0   3  -6    0.24    0.11
   0   3   6    0.44    0.15
   0   3   6    0.50    0.11
   0  -3  -6    0.31    0.12
   0   3   6    0.44    0.14
   0  -3   6    0.67    0.17
   0   3  -6    0.32    0.13
   0  -3  -6    0.38    0.06
   0  -3   7    2.29    0.31
   0   3  -7    2.37    0.32
   0  -3   7    3.48    0.35
   0  -3  -7    2.25    0.17
   0   3  -7    2.03    0.30
   0   3   7    2.84    0.33
   0   3   7    2.20    0.22
   0  -3  -7    2.61    0.32
   0   3   7    3.08    0.34
   0   3  -8    7.35    0.58
   0   3   8    8.84    0.57
   0   3   8    8.26    0.45
   0  -3  -8    8.20    0.60
   0  -3   8    7.55    0.52
   0  -3  -8    8.61    0.38
   0  -3   8    8.51    0.62
   0   3   8    8.62    0.58
   0  -3  -9    1.04    0.15
   0   3   9    0.94    0.18
   0  -3   9    1.36    0.25
   0   3   9    1.04    0.17
   0   3  -9    0.64    0.16
   0  -3  10   45.18    1.34
   0   3 -10   45.29    1.52
   0  -3 -10   44.02    1.06
   0   3  10   45.64    1.31
   0   3  10   45.08    1.19
   0  -3 -11    1.26    0.21
   0   3  11    1.37    0.25
   0   3  11    1.03    0.21
   0   3 -11    1.08    0.27
   0   3 -12    0.28    0.20
   0   3  12    0.39    0.18
   0  -3 -12    0.39    0.16
   0   3 -13    0.38    0.19
   0  -3 -13    0.58    0.17
   0   3  13    0.78    0.22
   0   3  14    2.95    0.37
   0   3 -14    2.60    0.45
   0  -3 -14    2.15    0.32
   0  -3 -15    1.53    0.29
   0   3  15    2.07    0.33
   0   3 -15    1.40    0.37
   0   3  16    0.63    0.24
   0   3 -16    0.09    0.17
   0   3 -17    7.43    0.86
   0   3  17    6.75    0.58
   0   3 -18    4.05    0.62
   0   3 -19    0.68    0.34
   0   3 -20    0.20    0.21
   0   3 -21    0.52    0.28
   0   3 -22    0.63    0.34
   0   3 -23    0.25    0.25
   0   3 -24    0.10    0.22
   0   3 -25    0.29    0.28
   0   4   0   24.11    0.95
   0   4   0   22.11    0.65
   0  -4   0   22.99    0.95
   0   4   0   21.47    0.68
   0   4   1    9.87    0.61
   0  -4   1    9.45    0.61
   0   4   1   10.11    0.39
   0   4  -1   10.26    0.50
   0   4   1   10.12    0.39
   0   4  -1   10.55    0.50
   0   4   1    9.35    0.43
   0   4  -1   10.39    0.62
   0  -4   2   15.77    0.78
   0   4  -2   14.03    0.72
   0   4  -2   16.30    0.67
   0  -4   2   16.21    0.66
   0   4  -2   15.46    0.64
   0   4   2   15.37    0.41
   0   4   2   15.58    0.42
   0   4   2   15.37    0.77
   0  -4   3    1.08    0.20
   0   4   3    0.83    0.08
   0   4   3    0.81    0.08
   0   4  -3    0.92    0.19
   0   4  -3    0.90    0.17
   0  -4   3    0.67    0.17
   0   4  -3    0.36    0.14
   0   4   3    0.49    0.16
   0   4  -4   16.20    0.75
   0   4  -4   15.51    0.72
   0   4   4   15.58    0.80
   0  -4   4   15.98    0.73
   0  -4   4   14.61    0.77
   0   4  -4   16.13    0.76
   0   4  -5    4.10    0.38
   0  -4   5    3.82    0.38
   0  -4   5    4.13    0.42
   0   4   5    3.93    0.41
   0   4  -5    3.68    0.39
   0   4  -5    3.49    0.36
   0   4  -6   52.42    1.43
   0  -4   6   51.39    1.45
   0   4   6   53.38    1.50
   0  -4   6   55.35    1.49
   0   4  -6   56.02    1.54
   0   4   7    1.63    0.20
   0   4   7    1.90    0.31
   0   4  -7    1.83    0.30
   0  -4   7    1.71    0.26
   0   4  -8   22.09    1.03
   0  -4   8   23.32    1.03
   0  -4  -8   22.06    0.46
   0   4   8   22.74    0.76
   0   4   8   23.30    1.01
   0  -4   9    1.29    0.27
   0   4  -9    0.96    0.24
   0  -4  -9    1.12    0.13
   0   4   9    1.45    0.29
   0  -4  -9    1.03    0.13
   0   4   9    1.31    0.21
   0   4  10    2.70    0.29
   0  -4 -10    2.46    0.22
   0  -4 -10    2.53    0.22
   0   4  10    2.11    0.33
   0  -4  10    2.48    0.34
   0   4 -10    3.10    0.44
   0   4  11    0.30    0.12
   0  -4  11    0.20    0.14
   0   4 -11    0.20    0.17
   0  -4 -11    0.31    0.10
   0   4  11    0.03    0.18
   0  -4 -11    0.26    0.08
   0  -4 -12    9.29    0.50
   0  -4  12    8.16    0.68
   0   4 -12    9.87    0.79
   0   4  12    9.40    0.67
   0  -4 -12    8.29    0.46
   0  -4 -13    5.02    0.40
   0   4  13    4.82    0.50
   0   4 -13    5.12    0.61
   0  -4  13    4.79    0.54
   0   4  14    7.70    0.63
   0  -4  14    7.05    0.68
   0  -4 -14    7.01    0.50
   0   4 -14    7.09    0.76
   0   4 -15    4.89    0.66
   0  -4  15    4.58    0.57
   0  -4 -15    4.90    0.45
   0   4  15    5.34    0.54
   0   4 -16    0.13    0.23
   0  -4 -16   -0.05    0.09
   0  -4  16    0.50    0.26
   0   4  16    0.33    0.19
   0  -4  17    1.24    0.37
   0   4 -17    0.55    0.30
   0   4  17    1.30    0.30
   0   4  18    6.70    0.61
   0  -4  18    5.26    0.68
   0   4 -18    6.44    0.78
   0   4  19    1.48    0.32
   0  -4  19    0.88    0.35
   0   4 -19    0.96    0.35
   0   4 -20    0.73    0.35
   0  -4  20    0.90    0.35
   0  -4  21    1.36    0.42
   0   4 -21    1.15    0.40
   0   4 -22   -0.10    0.19
   0  -4  22    0.33    0.29
   0   4 -23    0.17    0.23
   0  -4  23    0.18    0.21
   0  -4  24    0.21    0.22
   0   4 -24    0.49    0.38
   0  -4  25    0.55    0.37
   0   4 -25    0.28    0.36
   0  -5   0    0.11    0.13
   0   5   0    0.09    0.08
   0   5   0    0.09    0.07
   0  -5   1    5.48    0.52
   0   5  -1    6.06    0.42
   0   5   1    5.79    0.35
   0   5   1    5.56    0.34
   0   5   1    5.31    0.38
   0   5  -1    6.00    0.41
   0   5   2    0.06    0.07
   0   5   2    0.15    0.07
   0   5  -2    0.11    0.08
   0   5   2    0.08    0.06
   0   5  -2    0.07    0.08
   0  -5   2    0.04    0.15
   0   5  -3    0.24    0.12
   0   5  -3    0.50    0.17
   0   5   3    0.42    0.08
   0   5   3    0.26    0.13
   0  -5   3    0.50    0.15
   0  -5   3    0.14    0.16
   0   5   3    0.49    0.08
   0   5   4   37.65    0.53
   0   5  -4   39.41    1.22
   0   5   4   40.46    1.41
   0   5  -4   40.00    1.28
   0   5   4   37.58    0.53
   0  -5   4   40.83    1.25
   0  -5   4   40.61    1.43
   0  -5   5    7.76    0.59
   0   5   5    7.15    0.60
   0  -5   5    6.99    0.60
   0   5  -5    7.51    0.58
   0   5  -5    7.11    0.55
   0   5  -6    0.14    0.12
   0  -5   6    0.15    0.18
   0   5   6    0.05    0.14
   0   5   7    2.24    0.38
   0   5  -7    1.23    0.25
   0  -5   7    2.53    0.36
   0  -5   8    6.73    0.62
   0   5   8    6.16    0.41
   0   5  -8    6.14    0.59
   0   5   8    7.13    0.62
   0  -5   9   30.35    1.32
   0   5   9   30.43    0.95
   0   5   9   33.06    1.32
   0   5  -9   34.04    1.37
   0  -5 -10    4.10    0.18
   0  -5 -10    3.03    0.17
   0   5  10    4.52    0.39
   0   5 -10    3.61    0.49
   0   5  10    5.02    0.53
   0  -5 -10    3.90    0.19
   0  -5  10    3.83    0.50
   0  -5 -11    3.97    0.23
   0   5 -11    3.69    0.50
   0  -5  11    4.42    0.53
   0  -5 -11    4.42    0.25
   0   5  11    5.16    0.56
   0   5  11    4.24    0.39
   0   5 -12    1.81    0.41
   0  -5 -12    1.56    0.17
   0   5  12    1.26    0.25
   0  -5 -12    1.70    0.18
   0  -5  12    1.95    0.38
   0  -5 -13   11.02    0.49
   0  -5 -13   10.46    0.49
   0   5  13   11.05    0.79
   0   5 -13   11.66    0.93
   0  -5  13   10.15    0.84
   0   5  14   11.59    0.82
   0  -5 -14   11.84    0.55
   0   5 -14   13.93    1.05
   0  -5 -14   12.29    0.58
   0   5  15    1.32    0.31
   0   5 -15    1.65    0.43
   0  -5  15    2.52    0.46
   0   5  16    0.86    0.24
   0   5 -16    0.64    0.31
   0  -5  16    0.74    0.27
   0  -5  17   -0.11    0.19
   0   5 -17   -0.07    0.17
   0   5  17    0.19    0.15
   0   5 -18    6.98    0.87
   0  -5  18    6.58    0.78
   0   5  18    5.93    0.63
   0   5 -19    0.15    0.18
   0  -5  19    0.21    0.30
   0   5  19    0.03    0.18
   0  -5  20    0.54    0.32
   0   5 -20    0.35    0.31
   0   5  20    0.09    0.12
   0   5  21    1.18    0.31
   0  -5  21    0.48    0.27
   0   5 -21    0.21    0.29
   0   5 -22    0.96    0.38
   0  -5  22    0.61    0.35
   0  -5  23    0.70    0.36
   0   5 -23    0.32    0.24
   0   5 -24    0.27    0.31
   0  -5  24    0.31    0.27
   0  -6   0    4.79    0.53
   0   6   0    4.69    0.38
   0   6   0    4.91    0.41
   0   6   0    4.45    0.37
   0   6   1    2.49    0.26
   0   6  -1    2.40    0.29
   0   6  -1    2.38    0.29
   0  -6   1    2.42    0.37
   0   6   1    2.86    0.28
   0   6   1    2.34    0.28
   0   6  -2   12.42    0.69
   0   6   2   11.45    0.58
   0   6  -2   11.46    0.66
   0   6   2   11.80    0.49
   0  -6   2    9.86    0.78
   0   6   2   12.25    0.50
   0   6  -3   57.12    1.53
   0   6  -3   56.72    1.54
   0   6   3   58.87    1.84
   0   6   3   56.77    0.93
   0  -6   3   57.62    1.86
   0   6   3   56.58    1.28
   0   6   3   56.42    0.92
   0   6   4    1.16    0.12
   0   6   4    1.82    0.33
   0   6   4    1.20    0.12
   0   6  -4    1.48    0.27
   0  -6   4    2.07    0.39
   0  -6   5    2.41    0.38
   0   6  -5    2.33    0.34
   0   6   5    1.86    0.33
   0   6  -6    0.05    0.14
   0  -6   6    0.13    0.18
   0   6   6   -0.04    0.15
   0  -6   7    1.49    0.34
   0   6  -7    0.95    0.27
   0   6   7    1.58    0.34
   0  -6   8    4.67    0.57
   0   6  -8    5.10    0.56
   0   6   8    5.01    0.58
   0   6   8    4.99    0.38
   0   6   9    7.07    0.47
   0  -6   9    7.77    0.75
   0   6   9    8.49    0.75
   0   6  -9    8.07    0.71
   0   6  10    2.87    0.45
   0   6 -10    2.59    0.45
   0   6  10    2.89    0.32
   0  -6  10    3.01    0.48
   0   6  11    0.06    0.09
   0   6  11    0.30    0.25
   0  -6  11    0.12    0.22
   0   6 -11    0.07    0.15
   0   6 -12    1.32    0.35
   0   6  12    1.20    0.30
   0  -6  12    0.81    0.25
   0  -6  13   -0.22    0.26
   0   6 -13    0.23    0.26
   0   6  13   -0.21    0.26
   0  -6  14    1.18    0.32
   0   6 -14    1.12    0.38
   0   6  14    1.32    0.32
   0  -6  15    0.82    0.27
   0   6 -15    1.00    0.36
   0   6  15    0.85    0.27
   0   6 -16    0.75    0.32
   0  -6  16    0.44    0.22
   0   6  16   -0.10    0.14
   0   6 -17    0.06    0.20
   0  -6  17   -0.20    0.19
   0   6  17   -0.16    0.17
   0  -6  18    0.58    0.33
   0   6  18    0.46    0.24
   0  -6  19    3.37    0.64
   0   6 -19    3.29    0.67
   0   6  19    3.17    0.50
   0   6 -20    0.24    0.24
   0  -6  20    0.09    0.16
   0   6  20    0.59    0.25
   0  -6  21   -0.11    0.20
   0   6 -21    0.55    0.37
   0   6  21    0.46    0.23
   0   6  22    1.93    0.41
   0  -6  22    1.91    0.53
   0   6 -22    3.23    0.68
   0   6 -23    0.83    0.42
   0  -6  23    0.50    0.40
   0   6  23    0.58    0.28
   0   7   0   -0.17    0.13
   0   7   0    0.04    0.09
   0   7   0   -0.05    0.08
   0   7  -1    0.18    0.10
   0   7   1    0.18    0.09
   0   7  -1    0.25    0.10
   0  -7   1    0.09    0.18
   0   7   1    0.29    0.11
   0   7  -1    0.32    0.13
   0   7   1    0.17    0.06
   0   7  -2    0.57    0.18
   0   7  -2    0.43    0.10
   0   7   2    0.63    0.13
   0  -7   2    0.54    0.21
   0   7   2    0.66    0.16
   0   7   2    0.58    0.16
   0   7   3    5.06    0.42
   0   7   3    5.08    0.31
   0  -7   3    5.23    0.62
   0   7   3    5.10    0.62
   0   7   3    5.14    0.31
   0   7  -3    5.34    0.51
   0   7   4    9.74    0.37
   0  -7   4    9.61    0.83
   0   7   4    9.68    0.37
   0   7  -4   10.61    0.72
   0   7   4    9.27    0.57
   0   7   4   10.81    0.87
   0  -7   5   19.81    1.21
   0   7   5   20.55    1.19
   0   7  -5   18.15    0.98
   0   7  -6    9.72    0.74
   0   7   6   11.02    0.90
   0  -7   6   10.43    0.88
   0   7   7   -0.05    0.18
   0   7  -7    0.21    0.14
   0  -7   7   -0.03    0.16
   0   7   8    0.50    0.17
   0  -7   8    0.22    0.18
   0   7  -8    0.34    0.22
   0  -7   9    1.16    0.33
   0   7   9    1.27    0.20
   0   7  -9    1.36    0.32
   0   7   9    1.81    0.39
   0  -7  10    0.10    0.22
   0   7  10    0.03    0.10
   0   7  10    0.40    0.29
   0   7 -10   -0.11    0.21
   0  -7  11   -0.08    0.16
   0   7  11    0.30    0.23
   0   7 -11   -0.16    0.25
   0   7  11    0.05    0.09
   0  -7  12    7.07    0.82
   0   7  12    7.86    0.78
   0   7 -12    7.30    0.82
   0   7  13    6.26    0.72
   0   7 -13    5.97    0.76
   0  -7  13    5.74    0.77
   0   7 -14    1.74    0.44
   0   7  14    1.71    0.37
   0  -7  14    2.50    0.51
   0   7 -15    0.18    0.22
   0  -7  15   -0.18    0.31
   0   7  15   -0.09    0.19
   0   7  16    0.94    0.32
   0   7 -16    0.35    0.26
   0  -7  16    0.45    0.19
   0   7  17    0.06    0.16
   0   7 -17    0.34    0.29
   0  -7  17   -0.37    0.33
   0  -7  18   -0.12    0.28
   0   7  18   -0.21    0.18
   0   7 -18   -0.03    0.24
   0   7  19    3.07    0.50
   0  -7  19    2.19    0.58
   0   7  20   -0.12    0.17
   0   7 -20    0.23    0.27
   0  -7  20   -0.34    0.35
   0   7  21    0.42    0.22
   0  -7  21   -0.12    0.27
   0   7 -21    0.58    0.39
   0  -7  22   -0.24    0.27
   0   7  22    0.19    0.19
   0   8   0   13.09    0.73
   0   8   0   13.13    0.76
   0   8   0   12.57    0.71
   0   8   1    3.60    0.36
   0   8   1    3.15    0.38
   0   8  -1    3.51    0.40
   0   8  -1    3.33    0.41
   0   8   1    3.47    0.35
   0   8  -1    3.66    0.41
   0   8  -2    4.36    0.48
   0   8   2    4.63    0.36
   0   8  -2    4.84    0.48
   0   8   2    4.98    0.38
   0   8   2    5.08    0.47
   0  -8   2    4.75    0.63
   0   8  -3    3.13    0.42
   0  -8   3    3.41    0.53
   0   8   3    2.98    0.26
   0   8   3    3.28    0.54
   0   8   3    3.48    0.37
   0   8   3    2.78    0.25
   0  -8   4    0.10    0.22
   0   8   4    0.49    0.17
   0   8   4    0.02    0.20
   0   8  -4    0.29    0.18
   0   8   4    0.51    0.10
   0   8   4    0.45    0.10
   0   8   5    2.18    0.15
   0  -8   5    2.77    0.48
   0   8   5    2.64    0.32
   0   8  -5    2.61    0.41
   0   8   5    1.94    0.41
   0  -8   6    3.33    0.53
   0   8   6    3.65    0.56
   0   8  -6    4.07    0.52
   0   8  -7    0.11    0.16
   0  -8   7    0.16    0.18
   0   8   7    0.22    0.23
   0  -8   8    0.32    0.29
   0   8  -8    0.36    0.17
   0   8   8    0.62    0.31
   0   8  -9    0.54    0.22
   0  -8   9    0.89    0.34
   0   8   9    0.84    0.33
   0  -8  10    3.58    0.58
   0   8 -10    3.72    0.53
   0   8  10    4.90    0.65
   0   8 -11    0.59    0.28
   0   8  11    1.42    0.41
   0  -8  11    1.04    0.35
   0   8 -12    0.58    0.27
   0   8  12    2.03    0.49
   0  -8  12    1.67    0.42
   0   8  13   12.07    1.02
   0  -8  13    9.93    1.03
   0   8 -13   11.32    1.04
   0   8  14    0.96    0.33
   0  -8  14    1.53    0.49
   0   8 -14    2.01    0.47
   0   8 -15    2.86    0.60
   0  -8  15    2.93    0.62
   0   8  15    3.19    0.53
   0   8  16    1.26    0.38
   0  -8  16    1.00    0.38
   0   8 -16    1.31    0.40
   0  -8  17    0.40    0.32
   0   8 -17    0.03    0.20
   0   8  17    0.05    0.16
   0   8 -18    0.48    0.30
   0   8  18   -0.10    0.19
   0  -8  18   -0.01    0.18
   0  -8  19   -0.06    0.20
   0   8  19    0.41    0.23
   0   8 -19    0.15    0.19
   0   8  20    0.40    0.23
   0   8 -20   -0.46    0.30
   0  -8  20   -0.37    0.33
   0   9   0    0.09    0.11
   0   9   0   -0.02    0.16
   0   9   1   20.21    0.99
   0   9  -1   21.69    1.03
   0   9   1   19.43    0.87
   0   9  -1   20.30    1.05
   0   9   2   15.38    0.84
   0   9   2   15.11    0.69
   0   9   2   17.22    1.24
   0   9  -2   15.34    0.93
   0   9  -2   15.12    0.91
   0  -9   2   15.29    1.19
   0   9   3    4.37    0.44
   0  -9   3    4.56    0.70
   0   9  -3    4.90    0.55
   0   9   3    4.81    0.35
   0   9   3    4.83    0.67
   0   9  -3    4.92    0.54
   0  -9   4    8.11    0.90
   0   9   4    6.66    0.54
   0   9  -4    5.54    0.60
   0   9  -4    7.15    0.68
   0   9   4    7.66    0.84
   0  -9   5   28.04    1.63
   0   9   5   29.65    1.13
   0   9   5   31.90    1.73
   0   9  -5   29.83    1.41
   0  -9   6    0.31    0.24
   0   9  -6    0.14    0.15
   0   9   6    0.49    0.30
   0   9   6    0.34    0.13
   0   9  -7    0.53    0.23
   0   9   7    0.28    0.10
   0  -9   7    0.33    0.23
   0   9   7    0.04    0.20
   0  -9   8    1.84    0.45
   0   9   8    2.26    0.48
   0   9  -8    2.22    0.42
   0  -9   9    0.46    0.29
   0   9  -9    0.56    0.24
   0   9   9    0.53    0.32
   0  -9  10    0.09    0.19
   0   9 -10    0.16    0.22
   0   9  10    0.68    0.29
   0   9  11    1.85    0.46
   0   9 -11    1.28    0.37
   0  -9  11    1.18    0.38
   0  -9  12    2.69    0.52
   0   9 -12    2.98    0.55
   0   9  12    2.88    0.57
   0   9  13    0.73    0.34
   0  -9  13    0.29    0.31
   0   9 -13    0.38    0.28
   0  -9  14    4.12    0.71
   0   9 -14    4.49    0.70
   0   9  14    4.76    0.68
   0   9 -15   -0.11    0.19
   0  -9  15   -0.23    0.23
   0   9  15   -0.13    0.26
   0   9  16    0.21    0.19
   0  -9  16    0.17    0.25
   0   9 -16   -0.05    0.19
   0   9  17    1.21    0.39
   0   9 -17    0.51    0.34
   0  -9  17    0.50    0.35
   0  -9  18    0.44    0.30
   0   9  18   -0.20    0.17
   0   9 -18    0.04    0.22
   0   9  19    0.17    0.21
   0  -9  19    0.24    0.29
   0   9 -19    0.64    0.35
   0  10   0    0.16    0.13
   0  10   0    0.15    0.12
   0  10  -1    8.19    0.66
   0  10  -1    6.80    0.64
   0  10   1    7.54    0.89
   0  10   1    7.30    0.63
   0  10   2    0.60    0.30
   0  10   2    1.04    0.26
   0  10  -2    0.89    0.23
   0  10  -2    0.57    0.22
   0  10  -3    1.75    0.34
   0  10   3    1.46    0.27
   0 -10   3    2.20    0.48
   0  10  -3    1.52    0.35
   0  10   3    0.89    0.31
   0 -10   4    1.05    0.40
   0  10   4    1.16    0.42
   0  10  -4    1.08    0.30
   0  10  -4    1.29    0.32
   0  10  -5   34.63    1.57
   0  10  -5   34.81    1.63
   0 -10   5   34.40    1.92
   0  10   5   38.11    2.02
   0  10   6   15.80    1.30
   0 -10   6   14.42    1.26
   0  10  -6   14.33    1.06
   0  10  -6   13.86    1.02
   0 -10   7    0.67    0.36
   0  10  -7    0.31    0.20
   0  10   7    1.10    0.43
   0  10  -8    0.35    0.25
   0 -10   8   -0.09    0.23
   0  10   8    0.19    0.30
   0 -10   9    0.58    0.36
   0  10   9    0.65    0.35
   0  10  -9    0.31    0.23
   0  10  10    6.88    0.86
   0 -10  10    6.56    0.90
   0  10 -10    6.90    0.83
   0  10 -11    0.05    0.25
   0 -10  11    0.19    0.24
   0  10  11    0.13    0.27
   0 -10  12    0.59    0.36
   0  10 -12    0.07    0.22
   0 -10  13    0.09    0.18
   0  10  13    0.29    0.27
   0  10 -13    0.09    0.18
   0 -10  14    0.06    0.21
   0  10 -14    0.02    0.16
   0  10  14    0.10    0.19
   0  10 -15    0.73    0.32
   0 -10  15    0.83    0.40
   0  10  15    0.13    0.21
   0  10 -16   -0.18    0.19
   0  10  16    0.45    0.29
   0 -10  16    0.30    0.25
   0  11   0    0.17    0.20
   0  11   1   -0.06    0.18
   0  11   2    1.55    0.45
   0  11   3    0.24    0.24
   0  11  -3    0.44    0.23
   0  11  -4    1.52    0.34
   0  11   4    2.61    0.59
   0  11  -4    1.73    0.36
   0  11   5    0.17    0.24
   0  11  -5    0.38    0.26
   0  11  -5   -0.08    0.20
   0 -11   5    0.30    0.25
   0 -11   6    1.66    0.50
   0  11  -6    1.58    0.38
   0  11  -6    1.69    0.40
   0  11   6    1.23    0.42
   0  11   7    0.34    0.27
   0  11  -7    0.25    0.22
   0 -11   7    1.01    0.39
   0  11  -7    0.54    0.24
   0 -11   8    1.86    0.50
   0  11  -8    1.83    0.43
   0  11   8    2.14    0.56
   0  11  -8    2.38    0.49
   0  11  -9    0.37    0.21
   0  11  -9    0.54    0.22
   0  11   9    0.86    0.31
   0  11  10    3.79    0.70
   0  11 -10    3.45    0.60
   0  11 -10    3.11    0.56
   0 -11  10    2.68    0.63
   0  11  11    0.98    0.41
   0 -11  11    0.29    0.29
   0  11 -11    0.94    0.28
   0 -11  12   -0.16    0.25
   0  11 -12    0.21    0.24
   0  11  12    0.46    0.31
   0  11  13    0.52    0.35
   0 -11  13    0.14    0.34
   0  11 -13    0.34    0.30
   0  12   0    2.21    0.53
   0  12   1   -0.08    0.24
   0  12  -1    0.03    0.21
   0  12   2    3.81    0.70
   0  12  -2    3.16    0.65
   0  12   3    1.36    0.46
   0  12   4   -0.23    0.30
   0  12   5    0.23    0.24
   0  12   6    0.92    0.44
   0 -12   6    0.31    0.31
   0  12   7    0.12    0.21
   0 -12   7   -0.25    0.27
   0 -12   8    0.30    0.33
   0  12   8    0.77    0.39
   0 -12   9    0.30    0.31
   0  12  -9    0.02    0.18
   1   0 -26   -0.52    0.37
   1   0 -25    0.13    0.18
   1   0 -25    0.16    0.17
   1   0 -24   -0.20    0.17
   1   0 -24   -0.05    0.17
   1   0 -23   -0.09    0.15
   1   0 -23    0.27    0.21
   1   0 -22    0.17    0.19
   1   0 -22   -0.07    0.18
   1   0 -21    1.60    0.38
   1   0 -21    1.57    0.45
   1   0 -20   -0.14    0.24
   1   0 -20    0.37    0.26
   1   0 -19    0.46    0.24
   1   0 -19    0.09    0.16
   1   0 -18    0.33    0.20
   1   0 -18    0.16    0.22
   1   0 -17    0.36    0.22
   1   0 -17   -0.10    0.18
   1   0 -16    0.20    0.23
   1   0 -15    1.69    0.38
   1   0 -15    1.04    0.21
   1   0 -14    0.07    0.14
   1   0 -14    0.11    0.10
   1   0 -13    0.04    0.09
   1   0 -13    0.29    0.16
   1   0 -12    0.49    0.20
   1   0 -12    0.19    0.09
   1   0 -11   23.39    0.77
   1   0 -11   23.78    1.06
   1   0 -11   23.10    1.02
   1   0 -10    0.25    0.11
   1   0 -10    0.04    0.08
   1   0 -10    0.08    0.13
   1   0  -9   31.39    1.06
   1   0  -9   32.78    1.10
  -1   0   9   31.43    1.05
   1   0  -9   29.10    0.76
  -1   0   9   29.32    0.99
  -1   0   8    0.07    0.07
   1   0  -8    0.01    0.10
  -1   0   8   -0.02    0.10
   1   0  -8    0.15    0.11
  -1   0   8    0.11    0.12
   1   0  -8    0.10    0.06
  -1   0   7   68.08    0.84
  -1   0   7   75.89    1.42
   1   0  -7   72.49    1.43
  -1   0   7   71.80    1.40
   1   0  -7   67.66    1.38
   1   0  -7   64.87    0.96
  -1   0   6    0.06    0.10
   1   0  -6    0.07    0.12
  -1   0   6    0.14    0.11
   1   0  -6   -0.02    0.05
   1   0  -6    0.12    0.10
  -1   0   6    0.17    0.06
  -1   0   5  272.33    2.31
  -1   0   5  263.42    2.30
   1   0  -5  265.91    2.33
   1   0  -5  273.92    2.33
  -1   0   5  263.25    1.38
  -1   0   4    0.07    0.03
  -1   0   4    0.10    0.08
  -1   0   4    0.00    0.05
   1   0  -4   -0.04    0.06
   1   0  -4    0.08    0.08
   1   0  -4   -0.06    0.07
  -1   0   3  104.01    1.18
  -1   0   3  101.76    1.21
   1   0   3    1.60    0.15
  -1   0  -4    0.04    0.06
   1   0   4   -0.03    0.05
   1   0   4    0.10    0.04
  -1   0  -5   50.01    1.00
   1   0   5   50.29    0.66
   1   0   5   52.44    1.04
   1   0   6   -0.04    0.08
  -1   0  -6    0.00    0.06
  -1   0  -6   -0.07    0.09
  -1   0  -7   19.29    0.53
   1   0   7   20.21    0.75
  -1   0  -7   18.49    0.72
  -1   0  -8    0.03    0.08
   1   0   8   -0.04    0.07
  -1   0  -8   -0.02    0.09
  -1   0  -8    0.09    0.07
  -1   0  -9   18.43    0.83
  -1   0  -9   19.92    0.71
  -1   0  -9   18.50    0.61
   1   0   9   21.08    0.86
  -1   0 -10    0.24    0.14
  -1   0 -10    0.17    0.11
  -1   0 -10    0.05    0.15
   1   0  10    0.29    0.18
  -1   0 -11   47.65    1.20
  -1   0 -11   45.15    1.08
  -1   0 -11   46.55    1.40
  -1   0 -12    0.12    0.12
  -1   0 -12    0.03    0.15
  -1   0 -13   23.43    0.88
  -1   0 -13   23.28    1.15
  -1   0 -14    0.14    0.16
  -1   0 -14    0.09    0.10
  -1   0 -15    0.00    0.15
  -1   0 -15   -0.24    0.13
  -1   0 -16    0.06    0.14
  -1   0 -16   -0.03    0.17
  -1   0 -17    3.39    0.52
  -1   0 -17    3.06    0.39
  -1   0 -18    0.03    0.13
  -1   0 -18    0.26    0.21
  -1   0 -19    4.38    0.51
  -1   0 -19    4.58    0.64
  -1   0 -20    0.10    0.23
  -1   0 -20   -0.16    0.18
  -1   0 -21    1.12    0.37
  -1   0 -22    0.87    0.37
  -1   0 -23    0.26    0.26
  -1   0 -24    0.03    0.17
  -1   0 -25    0.23    0.34
  -1   0 -26    0.16    0.27
   1  -1 -26   -0.13    0.24
   1   1 -26    0.25    0.31
   1  -1 -25    0.11    0.19
   1  -1 -25    0.10    0.24
   1   1 -25    0.49    0.33
   1   1 -24    0.15    0.26
   1  -1 -24   -0.12    0.21
   1  -1 -24   -0.12    0.22
   1   1 -24    0.34    0.23
   1   1 -23    0.35    0.26
   1   1 -23    0.29    0.23
   1  -1 -23    0.36    0.24
   1  -1 -23    0.11    0.21
   1  -1 -22    0.07    0.26
   1  -1 -22    0.77    0.35
   1   1 -22    0.83    0.38
   1   1 -22    0.79    0.28
   1   1 -21    2.29    0.43
   1  -1 -21    2.02    0.47
   1  -1 -21    1.58    0.47
   1   1 -21    2.32    0.54
   1   1 -20    0.34    0.28
   1   1 -20    0.53    0.24
   1  -1 -20    0.40    0.29
   1  -1 -20    0.62    0.26
   1  -1 -19    0.25    0.23
   1   1 -19    0.18    0.26
   1  -1 -19    0.14    0.19
   1  -1 -18    1.55    0.39
   1   1 -18    0.87    0.38
   1  -1 -18    1.55    0.34
   1  -1 -17    0.18    0.19
   1   1 -17    0.32    0.21
   1  -1 -17    0.20    0.23
   1  -1 -16    1.15    0.31
   1   1 -16    0.60    0.16
   1  -1 -16    1.26    0.30
   1  -1 -15   -0.21    0.17
   1  -1 -15    0.22    0.17
   1   1 -15    0.24    0.18
   1   1 -15   -0.03    0.08
   1  -1 -14    1.25    0.27
   1   1 -14    1.25    0.20
   1  -1 -14    1.11    0.23
   1  -1 -14    1.31    0.27
   1   1 -14    1.19    0.33
  -1   1  13    0.55    0.15
   1   1 -13    0.07    0.14
   1   1 -13    0.06    0.07
   1  -1 -13    0.15    0.09
   1  -1 -13    0.41    0.19
   1  -1 -13    0.28    0.17
   1   1 -12    2.21    0.37
   1  -1 -12    1.75    0.30
   1  -1 -12    1.85    0.32
  -1   1  12    2.06    0.24
   1  -1 -12    1.98    0.28
   1  -1 -12    2.23    0.33
   1   1 -12    1.88    0.21
   1  -1 -11   34.35    1.16
   1  -1 -11   33.62    1.21
  -1   1  11   35.09    0.88
   1   1 -11   32.35    1.24
   1  -1 -11   31.51    1.05
   1  -1 -11   37.98    1.18
   1   1 -11   32.70    0.78
   1  -1 -10    0.33    0.12
   1   1 -10    0.14    0.19
   1   1 -10   -0.02    0.17
  -1   1  10    0.24    0.14
  -1   1  10    0.16    0.10
   1   1 -10    0.07    0.06
   1  -1 -10    0.24    0.16
   1  -1 -10   -0.12    0.12
  -1  -1   9    0.18    0.12
   1  -1  -9    0.38    0.20
   1   1  -9    0.56    0.23
   1  -1  -9    0.23    0.12
  -1  -1   9    0.63    0.18
   1  -1  -9    0.31    0.14
   1  -1  -9    0.19    0.11
  -1   1   9    0.14    0.09
  -1   1   9    0.48    0.15
   1   1  -9    0.39    0.17
   1   1  -9    0.27    0.09
  -1  -1   8   52.94    1.39
   1  -1  -8   54.04    1.18
  -1   1   8   53.28    1.26
   1  -1  -8   54.46    1.30
   1  -1  -8   52.50    1.15
   1  -1  -8   52.12    1.22
  -1   1   8   51.24    0.99
   1   1  -8   51.70    0.75
   1   1  -8   55.80    1.43
  -1   1   8   51.33    1.13
   1   1  -8   53.65    1.35
  -1  -1   8   54.87    1.35
  -1  -1   7   64.54    1.38
   1   1  -7   64.82    0.75
   1  -1  -7   67.73    1.24
  -1   1   7   70.47    1.36
   1   1  -7   66.81    1.42
   1   1  -7   62.15    1.44
   1  -1  -7   62.99    1.17
  -1   1   7   67.48    1.12
  -1  -1   7   66.66    1.46
  -1   1   7   61.26    1.16
   1  -1  -7   68.04    1.36
  -1   1   6   77.94    1.22
  -1   1   6   84.85    1.40
   1   1  -6   78.81    1.51
  -1   1   6   79.91    1.17
   1  -1  -6   80.17    1.21
   1   1  -6   78.45    1.43
  -1  -1   6   82.62    1.43
  -1  -1   6   78.82    1.51
   1  -1  -6   80.15    1.27
  -1   1   5   88.25    1.16
   1   1  -5  100.40    1.57
  -1   1   5   93.40    1.24
   1  -1  -5   90.01    1.16
   1  -1  -5   92.86    1.18
   1   1  -5   97.12    1.46
  -1   1   5   95.85    1.40
  -1  -1   5   97.22    1.43
  -1  -1   5   93.31    1.54
  -1  -1   4  109.60    1.40
   1   1  -4  111.73    1.55
   1   1  -4  111.48    1.41
  -1   1   4  109.03    1.29
  -1  -1   4  108.09    1.53
   1  -1  -4  111.56    1.15
  -1   1   4  108.09    1.14
   1  -1  -4  107.71    1.12
  -1   1   3   72.90    0.84
  -1  -1   3   73.55    1.02
   1  -1  -3   73.83    0.82
  -1  -1   3   72.27    1.14
   1   1  -3   74.19    1.16
   1  -1  -3   74.73    0.82
   1   1  -3   71.67    1.02
  -1  -1   3   75.65    0.85
  -1   1   3   72.98    0.83
  -1   1   2   13.24    0.33
  -1  -1   2   12.60    0.37
  -1  -1  -2   21.47    0.50
   1  -1   2   22.40    0.61
   1   1   2   22.54    0.48
  -1  -1  -3  173.85    1.53
  -1  -1  -3  175.95    1.23
   1  -1   3  177.01    1.82
   1   1   3  177.57    1.48
   1   1   3  173.60    1.27
  -1  -1  -3  179.39    1.56
  -1   1  -3  173.83    1.81
   1   1   3  175.75    1.53
  -1  -1  -4    9.87    0.40
   1   1   4    9.77    0.38
   1  -1   4    9.36    0.46
  -1  -1  -4    9.29    0.34
   1   1   4    8.59    0.34
  -1   1  -4    8.85    0.44
  -1  -1  -4    9.24    0.38
  -1  -1  -5  106.27    1.38
  -1   1  -5  101.44    1.59
   1   1   5  105.83    1.30
  -1  -1  -5  100.72    1.38
   1  -1   5  107.61    1.65
  -1  -1  -5  105.44    1.29
   1   1   5  102.32    1.30
   1  -1   6    0.93    0.19
  -1  -1  -6    0.81    0.14
   1   1   6    1.29    0.19
   1   1   6    0.76    0.13
  -1  -1  -6    0.86    0.14
   1   1   6    0.79    0.13
  -1   1  -6    0.51    0.16
  -1  -1  -7    0.17    0.10
  -1   1  -7    0.21    0.13
   1   1   7    0.12    0.07
  -1  -1  -7    0.29    0.11
   1  -1   7    0.06    0.10
   1   1   7    0.11    0.08
  -1   1  -8    0.14    0.11
  -1  -1  -8    0.19    0.09
   1   1   8    0.27    0.12
   1   1   8    0.28    0.11
   1  -1   8    0.25    0.15
  -1  -1  -8    0.05    0.07
  -1   1  -9    3.66    0.39
   1   1   9    3.13    0.34
   1  -1   9    3.74    0.41
  -1  -1  -9    3.64    0.35
  -1  -1  -9    3.75    0.34
  -1  -1 -10   10.53    0.59
   1   1  10    9.27    0.63
  -1   1 -10   11.08    0.70
  -1  -1 -10   10.13    0.61
  -1   1 -11   71.36    1.20
   1   1  11   68.87    1.64
  -1   1 -11   69.41    1.81
  -1  -1 -11   71.46    1.66
  -1  -1 -12    0.31    0.16
  -1   1 -12    0.14    0.13
  -1  -1 -13    0.09    0.15
  -1   1 -13    0.16    0.12
  -1   1 -13    0.06    0.16
  -1   1 -14    0.25    0.13
  -1   1 -14    0.25    0.18
  -1  -1 -14   -0.07    0.14
  -1   1 -15    2.28    0.43
  -1  -1 -15    1.88    0.35
  -1   1 -15    2.07    0.29
  -1   1 -16    1.30    0.32
  -1   1 -16    1.28    0.24
  -1  -1 -16    1.11    0.29
  -1   1 -17    1.75    0.42
  -1  -1 -17    1.64    0.41
  -1   1 -17    1.13    0.25
  -1  -1 -18    0.29    0.19
  -1   1 -18    0.31    0.22
  -1   1 -18    0.29    0.13
  -1   1 -19    2.17    0.35
  -1   1 -19    2.71    0.52
  -1  -1 -19    3.45    0.54
  -1   1 -20    1.14    0.29
  -1  -1 -20    1.15    0.37
  -1   1 -20    1.19    0.38
  -1  -1 -21    0.26    0.27
  -1   1 -21    0.63    0.29
  -1   1 -21    0.92    0.27
  -1  -1 -22    0.52    0.33
  -1   1 -22    0.89    0.38
  -1  -1 -23   -0.03    0.25
  -1   1 -23    0.23    0.23
  -1   1 -24    0.44    0.30
  -1  -1 -24    0.39    0.23
  -1   1 -25    0.74    0.38
  -1  -1 -25    0.12    0.22
  -1   1 -26   -0.02    0.32
  -1  -1 -26    0.80    0.37
   1   2 -26    0.16    0.23
   1   2 -25    0.10    0.20
   1   2 -24    0.41    0.31
   1  -2 -24    0.09    0.19
   1   2 -23    1.14    0.34
   1  -2 -23   -0.06    0.19
   1   2 -23    0.75    0.38
   1   2 -22    0.02    0.22
   1  -2 -22   -0.14    0.18
   1   2 -21    0.27    0.21
   1  -2 -21   -0.07    0.25
   1   2 -20    0.44    0.31
   1  -2 -20    0.40    0.24
   1  -2 -19    0.09    0.18
   1   2 -19    0.27    0.17
   1  -2 -18    0.15    0.15
   1  -2 -18    0.35    0.23
   1   2 -18    0.57    0.27
   1  -2 -17    0.77    0.28
   1   2 -17    0.89    0.30
   1  -2 -17    1.23    0.31
   1   2 -17    0.66    0.17
   1   2 -16    0.91    0.18
  -1   2  16    1.12    0.23
   1  -2 -16    1.41    0.36
   1   2 -16    1.22    0.37
   1  -2 -16    0.89    0.29
  -1   2  15    6.71    0.52
   1  -2 -15    6.42    0.66
   1   2 -15    5.97    0.41
   1   2 -15    8.90    0.80
   1  -2 -15    7.15    0.68
   1  -2 -14    0.11    0.17
  -1   2  14    0.50    0.20
   1  -2 -14    0.02    0.13
   1   2 -14    0.48    0.28
   1   2 -14    0.14    0.10
  -1   2  13   14.66    0.70
   1   2 -13   16.88    1.01
   1  -2 -13   15.21    0.80
   1  -2 -13   16.07    0.93
   1   2 -13   13.84    0.55
  -1   2  12    0.09    0.12
   1   2 -12    0.44    0.24
   1  -2 -12    0.51    0.26
   1  -2 -12    0.19    0.14
   1  -2 -12    0.29    0.15
   1   2 -12    0.37    0.11
   1  -2 -11   52.51    1.50
  -1   2  11   58.62    1.33
   1   2 -11   58.58    1.71
   1  -2 -11   57.68    1.37
   1  -2 -11   58.24    1.64
   1  -2 -10   72.40    1.73
  -1   2  10   69.48    1.57
   1   2 -10   63.00    1.71
   1  -2 -10   66.11    1.61
  -1   2  10   70.35    1.43
   1  -2 -10   64.68    1.36
   1  -2  -9    2.04    0.29
   1  -2  -9    2.82    0.40
  -1  -2   9    2.60    0.39
   1   2  -9    2.99    0.42
  -1   2   9    2.87    0.31
   1  -2  -9    2.38    0.26
  -1   2   9    3.07    0.34
   1   2  -8    5.25    0.47
  -1   2   8    5.77    0.42
  -1  -2   8    5.54    0.47
   1   2  -8    4.94    0.45
  -1  -2   8    4.14    0.46
   1  -2  -8    5.18    0.33
   1  -2  -8    6.91    0.50
  -1   2   8    6.35    0.43
   1   2  -7    3.87    0.40
   1   2  -7    3.19    0.36
  -1  -2   7    3.71    0.39
   1  -2  -7    3.32    0.24
   1  -2  -7    3.77    0.37
  -1   2   7    3.29    0.31
  -1   2   7    4.05    0.33
  -1   2   7    3.49    0.25
  -1  -2   7    3.96    0.37
   1  -2  -7    3.24    0.25
   1  -2  -6    1.35    0.14
   1   2  -6    1.49    0.23
  -1   2   6    1.41    0.15
  -1  -2   6    1.33    0.22
   1  -2  -6    1.60    0.15
  -1  -2   6    1.54    0.24
  -1  -2   6    1.83    0.21
   1   2  -6    1.34    0.24
   1  -2  -6    1.53    0.25
  -1   2   6    1.59    0.20
  -1   2   6    1.40    0.21
  -1   2   5   59.46    1.23
   1   2  -5   58.95    1.21
  -1   2   5   58.04    0.78
  -1  -2   5   62.73    1.24
  -1  -2   5   58.40    1.07
  -1   2   5   61.49    1.24
   1   2  -5   62.83    1.37
   1  -2  -5   61.49    0.77
  -1  -2   5   59.46    1.34
   1  -2  -5   59.42    0.76
   1  -2  -5   60.71    1.30
  -1  -2   4    0.52    0.14
  -1   2   4    0.39    0.06
   1  -2  -4    0.49    0.15
  -1   2   4    0.63    0.16
  -1  -2   4    0.22    0.13
  -1  -2   4    0.57    0.13
  -1   2   4    0.49    0.07
   1  -2  -4    0.50    0.06
   1  -2  -4    0.46    0.06
   1   2  -4    0.30    0.13
   1   2  -4    0.59    0.15
  -1  -2   3   63.70    1.21
   1   2  -3   63.16    1.22
   1   2  -3   62.69    1.21
  -1  -2   3   64.48    1.06
   1   2  -3   64.85    1.03
  -1   2   3   67.05    1.19
   1  -2  -3   63.10    1.22
  -1  -2   3   63.08    1.08
   1   2  -3   63.51    1.04
  -1  -2   2   96.63    1.13
  -1   2   2   95.73    0.83
  -1  -2   2   92.98    1.35
  -1  -2   2   95.51    1.32
  -1   2   2   95.90    0.81
  -1   2   2   95.81    1.37
   1  -2  -2   94.47    1.41
   1   2  -2   95.85    1.38
   1   2  -2   95.76    1.12
   1   2  -2   92.67    1.35
   1  -2  -2   96.81    0.83
   1   2  -2   95.05    1.27
  -1   2   1  114.06    1.50
   1   2  -1  118.74    1.05
  -1  -2   1  115.83    1.43
   1   2  -1  117.10    1.44
   1  -2  -1  115.59    1.51
  -1  -2   1  112.47    1.42
  -1  -2   1  114.29    1.39
   1   2  -1  115.60    1.27
  -1   2   1  114.41    1.03
  -1  -2   1  115.92    1.06
  -1   2   1  114.66    1.42
   1   2  -1  117.55    1.39
   1   2  -1  119.44    1.42
  -1  -2   0   39.64    0.77
  -1  -2   0   40.16    0.78
   1  -2   0   43.51    0.93
   1   2   0   41.14    0.75
   1   2   0   43.75    0.82
  -1   2   0   41.26    0.81
   1   2   0   41.16    0.76
  -1  -2   0   42.04    0.84
   1   2   0   43.99    0.88
  -1   2   0   43.71    0.92
   1  -2   1    2.66    0.24
   1   2   1    2.42    0.17
  -1  -2  -1    2.31    0.18
  -1  -2  -1    2.41    0.17
  -1   2  -1    2.68    0.22
  -1  -2  -1    2.81    0.23
   1   2   1    2.35    0.17
   1   2   1    2.91    0.22
  -1   2  -1    2.38    0.22
   1  -2   2   19.55    0.63
  -1  -2  -2   20.14    0.64
   1   2   2   19.52    0.49
   1  -2   2   21.59    0.69
   1   2   2   20.05    0.49
  -1   2  -2   21.07    0.68
  -1  -2  -2   19.42    0.49
  -1   2  -2   20.71    0.62
   1   2   2   20.04    0.61
  -1  -2  -2   20.46    0.49
  -1  -2  -3   90.13    1.41
  -1  -2  -3   87.89    1.04
  -1  -2  -3   84.84    1.06
   1   2   3   88.32    1.32
   1  -2   3   91.10    1.48
  -1   2  -3   90.69    1.29
   1  -2   3   90.89    1.37
   1   2   3   89.05    1.05
  -1   2  -3   88.67    1.46
   1  -2   4   27.90    0.87
  -1  -2  -4   26.99    0.81
   1  -2   4   29.79    0.81
  -1  -2  -4   26.63    0.47
  -1  -2  -4   25.51    0.60
  -1   2  -4   26.76    0.84
   1   2   4   27.80    0.77
   1   2   4   26.47    0.49
   1   2   4   27.04    0.61
   1   2   5    0.81    0.12
  -1   2  -5    0.56    0.14
   1  -2   5    0.50    0.13
   1  -2   5    1.24    0.20
   1   2   5    0.63    0.15
  -1  -2  -5    0.74    0.13
  -1  -2  -5    1.34    0.21
  -1  -2  -5    0.73    0.11
  -1  -2  -6   42.08    1.10
  -1  -2  -6   41.59    0.81
   1   2   6   42.34    0.99
   1  -2   6   43.98    1.23
  -1  -2  -6   41.24    0.89
  -1   2  -6   42.21    1.19
   1   2   6   41.95    0.85
  -1  -2  -7   32.09    0.84
   1   2   7   33.39    0.92
   1   2   7   32.23    0.82
   1  -2   7   34.62    1.14
  -1   2  -7   32.10    1.07
  -1  -2  -7   32.92    0.81
  -1  -2  -7   34.04    1.02
   1   2   7   33.02    0.98
  -1  -2  -8    5.70    0.44
   1   2   8    5.83    0.41
  -1  -2  -8    6.78    0.41
  -1  -2  -8    6.32    0.39
   1  -2   8    6.49    0.53
   1   2   8    5.83    0.42
   1   2   8    6.26    0.40
  -1   2  -8    6.17    0.51
   1   2   9    3.11    0.31
  -1  -2  -9    3.34    0.36
  -1  -2  -9    3.46    0.32
   1   2   9    3.15    0.34
  -1   2  -9    3.07    0.38
   1   2   9    3.19    0.31
  -1   2 -10   -0.04    0.15
   1   2  10    0.19    0.13
  -1  -2 -10    0.16    0.11
   1   2  10   -0.11    0.08
   1   2  10    0.15    0.13
   1   2  11    0.27    0.13
  -1   2 -11    0.34    0.19
   1   2  11    0.32    0.16
  -1  -2 -11    0.40    0.15
   1   2  11    0.47    0.18
  -1   2 -12   -0.06    0.18
  -1  -2 -12    0.01    0.12
  -1   2 -13    4.67    0.55
  -1  -2 -13    4.93    0.49
  -1  -2 -14    0.07    0.15
  -1   2 -14   -0.19    0.18
  -1   2 -15    4.16    0.57
  -1  -2 -15    4.41    0.52
  -1  -2 -16    0.10    0.19
  -1   2 -16    0.05    0.16
  -1   2 -17    0.06    0.20
  -1  -2 -17   -0.11    0.16
  -1   2 -17    0.21    0.15
  -1  -2 -18   -0.19    0.24
  -1   2 -18    0.13    0.18
  -1   2 -18    0.00    0.11
  -1   2 -19    1.88    0.32
  -1   2 -19    2.33    0.49
  -1  -2 -19    2.49    0.50
  -1   2 -20    0.31    0.21
  -1  -2 -20   -0.16    0.19
  -1   2 -20    0.16    0.15
  -1   2 -21   -0.08    0.20
  -1  -2 -21    0.00    0.19
  -1   2 -22    0.18    0.29
  -1  -2 -22    0.30    0.20
  -1  -2 -23    0.16    0.19
  -1   2 -23    0.19    0.23
  -1  -2 -24    0.48    0.27
  -1   2 -24    0.86    0.39
  -1   2 -25    0.23    0.27
  -1  -2 -25   -0.22    0.23
   1   3 -25   -0.08    0.18
   1   3 -24    0.37    0.33
   1   3 -23    0.39    0.33
   1   3 -22    0.42    0.29
   1   3 -21    1.01    0.40
   1   3 -20    0.98    0.41
   1  -3 -20    0.05    0.18
   1   3 -19    0.22    0.25
   1  -3 -19    0.47    0.25
  -1   3  19    0.73    0.23
   1   3 -18    1.03    0.38
   1  -3 -18    2.01    0.48
  -1   3  18    2.05    0.35
   1   3 -17    3.45    0.33
   1   3 -17    4.87    0.67
  -1   3  17    5.69    0.52
   1  -3 -17    4.59    0.62
  -1   3  16    3.42    0.41
   1  -3 -16    3.92    0.57
   1   3 -16    4.34    0.62
   1   3 -16    2.95    0.30
   1  -3 -15    0.35    0.24
   1  -3 -15    0.58    0.21
   1   3 -15    0.82    0.30
  -1   3  15    1.26    0.26
   1  -3 -14   12.68    0.90
  -1   3  14   14.70    0.78
   1   3 -14   14.10    1.02
   1  -3 -14   13.19    0.73
   1  -3 -13    2.00    0.37
   1  -3 -13    2.09    0.29
   1   3 -13    2.24    0.42
  -1   3  13    2.45    0.32
   1  -3 -12    1.80    0.25
   1   3 -12    1.93    0.39
   1  -3 -12    1.61    0.31
  -1   3  12    1.43    0.25
   1  -3 -11    0.70    0.17
   1  -3 -11    0.57    0.14
  -1  -3  11    1.36    0.28
   1   3 -11    0.55    0.22
  -1   3  11    0.77    0.22
  -1  -3  10    6.13    0.50
   1  -3 -10    6.24    0.38
  -1   3  10    7.11    0.52
   1   3 -10    6.72    0.59
   1  -3 -10    7.14    0.60
  -1   3  10    6.20    0.52
   1  -3  -9    2.05    0.31
   1  -3  -9    2.75    0.23
  -1   3   9    3.25    0.34
  -1  -3   9    3.36    0.42
  -1  -3   9    2.17    0.28
   1   3  -9    3.45    0.42
   1  -3  -9    2.67    0.23
  -1   3   9    2.57    0.33
   1  -3  -8   17.50    0.87
  -1  -3   8   17.89    0.77
   1   3  -8   15.38    0.83
   1  -3  -8   15.43    0.47
   1  -3  -8   15.40    0.47
  -1   3   8   17.87    0.83
  -1  -3   8   15.87    0.83
  -1  -3   8   15.11    0.84
  -1   3   8   17.27    0.73
  -1  -3   7   18.04    0.88
  -1   3   7   20.70    0.87
   1  -3  -7   18.03    0.43
  -1   3   7   20.41    0.86
   1   3  -7   19.47    0.84
  -1  -3   7   20.81    0.87
   1  -3  -7   19.73    0.91
   1  -3  -7   18.77    0.44
  -1  -3   7   20.45    0.81
   1   3  -7   19.53    0.92
   1  -3  -6   41.44    0.53
   1   3  -6   44.99    1.20
  -1  -3   6   42.44    1.27
  -1  -3   6   41.94    1.19
   1  -3  -6   40.83    0.53
  -1   3   6   44.10    1.25
   1   3  -6   43.31    1.32
  -1   3   6   45.02    1.25
  -1  -3   6   42.05    1.13
   1   3  -5   19.96    0.77
  -1   3   5   21.03    0.85
  -1  -3   5   21.28    0.80
  -1  -3   5   20.18    0.77
   1   3  -5   22.00    0.90
   1   3  -5   20.07    0.71
  -1  -3   5   22.93    0.90
  -1  -3   4    4.49    0.40
  -1  -3   4    5.14    0.39
   1   3  -4    4.96    0.36
  -1   3   4    4.75    0.38
   1   3  -4    4.26    0.34
   1   3  -4    4.29    0.38
  -1  -3   4    4.20    0.33
  -1  -3   3    0.27    0.11
   1   3  -3    0.07    0.07
  -1  -3   3    0.28    0.10
  -1  -3   3    0.30    0.11
   1   3  -3    0.19    0.10
   1   3  -3    0.19    0.08
   1   3  -3    0.39    0.13
  -1   3   3    0.34    0.12
  -1   3   2   23.31    0.82
  -1  -3   2   21.52    0.77
  -1  -3   2   21.41    0.62
   1   3  -2   22.87    0.75
  -1  -3   2   21.77    0.73
   1   3  -2   21.57    0.73
   1   3  -2   20.81    0.61
  -1   3   2   22.01    0.78
   1   3  -2   22.32    0.77
  -1   3   2   20.69    0.42
  -1   3   1   20.24    0.77
   1  -3  -1   19.66    0.77
  -1  -3   1   18.98    0.72
   1   3  -1   20.77    0.67
  -1  -3   1   20.00    0.53
   1   3  -1   20.66    0.67
   1   3  -1   19.64    0.73
  -1  -3   1   20.44    0.66
   1   3  -1   20.59    0.53
   1   3   0   19.57    0.59
   1   3   0   20.14    0.70
  -1   3   0   21.93    0.79
   1   3   0   19.66    0.44
  -1  -3   0   19.35    0.44
  -1  -3   0   18.88    0.61
   1  -3   0   20.81    0.78
   1   3   0   19.74    0.59
  -1  -3   0   19.24    0.60
   1   3   0   21.00    0.76
   1   3   1   12.81    0.44
   1  -3   1   13.47    0.65
  -1   3  -1   13.19    0.58
  -1  -3  -1   12.93    0.47
  -1  -3  -1   12.62    0.45
  -1   3  -1   13.98    0.62
   1   3   1   13.17    0.45
   1   3   1   14.39    0.63
   1   3   1   13.58    0.59
   1   3   2  115.32    1.26
  -1   3  -2  118.42    1.80
   1  -3   2  113.16    1.86
   1   3   2  116.74    1.77
  -1   3  -2  113.84    1.77
   1   3   2  115.54    1.27
  -1  -3  -2  115.71    1.83
  -1  -3  -2  115.83    1.28
  -1  -3  -2  115.61    1.30
  -1   3  -3   12.48    0.58
  -1  -3  -3   12.59    0.41
   1   3   3   13.02    0.42
   1   3   3   12.83    0.61
  -1  -3  -3   12.30    0.63
   1   3   3   12.75    0.42
   1  -3   3   11.54    0.60
  -1  -3  -3   12.10    0.41
  -1   3  -3   12.95    0.62
   1  -3   3   12.94    0.62
   1  -3   4    0.08    0.10
  -1  -3  -4    0.12    0.06
  -1  -3  -4    0.07    0.05
   1   3   4    0.05    0.03
   1   3   4    0.11    0.05
   1   3   4    0.28    0.15
  -1  -3  -4    0.06    0.07
  -1   3  -4   -0.03    0.12
  -1   3  -4    0.18    0.10
   1  -3   4    0.07    0.08
  -1  -3  -5   16.23    0.48
   1   3   5   15.64    0.69
   1   3   5   15.58    0.49
  -1   3  -5   14.98    0.73
  -1  -3  -5   16.27    0.49
   1   3   5   15.74    0.41
   1  -3   5   15.52    0.75
  -1  -3  -5   17.23    0.79
   1  -3   5   16.03    0.72
   1   3   6    0.76    0.15
   1  -3   6    0.72    0.20
  -1  -3  -6    0.91    0.20
  -1  -3  -6    1.05    0.13
   1  -3   6    0.84    0.20
   1   3   6    0.86    0.11
  -1   3  -6    0.53    0.16
   1  -3   7   45.99    1.27
   1   3   7   45.80    1.22
  -1   3  -7   44.77    1.36
   1   3   7   45.00    0.90
  -1  -3  -7   48.15    1.40
   1  -3   7   48.37    1.43
  -1  -3  -7   44.77    0.92
   1   3   8   54.40    1.08
   1   3   8   54.41    1.36
  -1   3  -8   53.25    1.55
   1   3   8   54.21    1.45
  -1  -3  -8   54.39    1.08
   1  -3   8   52.36    1.40
  -1  -3  -8   53.63    1.10
   1   3   9   21.42    0.75
   1   3   9   22.09    0.87
  -1  -3  -9   21.56    0.74
   1  -3   9   23.29    0.97
  -1  -3  -9   21.33    0.73
  -1   3  -9   21.19    1.04
   1   3   9   22.91    0.97
  -1   3 -10    1.17    0.28
  -1  -3 -10    1.24    0.20
   1   3  10    0.99    0.23
  -1  -3 -10    1.05    0.19
   1  -3  10    1.33    0.28
   1   3  10    1.26    0.22
  -1   3 -11    0.41    0.20
  -1  -3 -11    0.65    0.17
   1   3  11    0.60    0.15
  -1  -3 -11    0.46    0.13
   1   3  11    0.47    0.17
  -1  -3 -12    4.78    0.44
   1   3  12    4.64    0.43
  -1  -3 -12    5.65    0.47
   1   3  12    5.34    0.48
  -1   3 -12    4.51    0.54
  -1  -3 -13    0.28    0.12
  -1   3 -13    0.12    0.16
  -1  -3 -13    0.28    0.17
   1   3  13    0.28    0.18
  -1   3 -14    0.35    0.24
   1   3  14    0.65    0.22
  -1  -3 -14    0.17    0.16
  -1  -3 -15   -0.12    0.13
  -1   3 -15   -0.24    0.21
  -1   3 -16    5.94    0.70
  -1  -3 -16    5.68    0.57
  -1   3 -17    0.24    0.22
  -1  -3 -17    0.32    0.22
  -1   3 -18    1.35    0.39
  -1  -3 -18    1.51    0.36
  -1   3 -19    0.05    0.21
  -1  -3 -19   -0.24    0.19
  -1  -3 -20    0.36    0.21
  -1   3 -20    0.02    0.20
  -1  -3 -21    1.06    0.37
  -1   3 -21    0.43    0.33
  -1  -3 -22    0.45    0.23
  -1   3 -22    0.04    0.20
  -1  -3 -23    0.65    0.31
  -1   3 -23    0.87    0.37
  -1   3 -24    0.48    0.36
  -1  -3 -24    0.08    0.15
  -1  -3 -25   -0.13    0.23
  -1   3 -25    0.14    0.25
  -1  -4  25    0.19    0.23
   1   4 -25    0.74    0.39
  -1  -4  24    0.56    0.32
   1   4 -24   -0.30    0.25
  -1  -4  23    0.18    0.21
   1   4 -23    0.07    0.20
   1   4 -22    0.92    0.38
  -1  -4  22    0.58    0.27
  -1   4  21    0.64    0.23
   1   4 -21    0.43    0.30
  -1  -4  21    0.08    0.24
   1   4 -20    3.24    0.62
  -1   4  20    2.76    0.42
  -1  -4  20    2.71    0.52
   1   4 -19    0.35    0.27
  -1   4  19    0.20    0.15
   1  -4 -19    0.23    0.15
  -1  -4  19    0.27    0.24
  -1  -4  18    0.43    0.21
   1  -4 -18   -0.03    0.15
  -1   4  18    0.50    0.21
   1   4 -18    0.90    0.37
  -1  -4  17    1.46    0.37
  -1   4  17    1.55    0.31
   1  -4 -17    1.10    0.25
   1   4 -17    1.72    0.44
  -1   4  16    2.42    0.38
   1  -4 -16    2.12    0.30
   1   4 -16    2.61    0.55
  -1  -4  16    2.73    0.47
   1  -4 -16    2.68    0.35
  -1   4  15    4.95    0.51
   1  -4 -15    4.51    0.41
   1   4 -15    4.55    0.64
  -1  -4  15    4.83    0.57
   1  -4 -15    5.31    0.45
  -1   4  14    0.55    0.22
   1  -4 -14    0.28    0.12
   1   4 -14    0.56    0.24
   1  -4 -14    0.23    0.10
  -1  -4  14    0.61    0.25
  -1   4  13    0.28    0.13
   1   4 -13    0.71    0.23
  -1  -4  13    0.75    0.23
   1  -4 -13    0.42    0.13
   1  -4 -13    0.46    0.13
   1  -4 -12    1.05    0.17
  -1   4  12    1.60    0.31
   1   4 -12    1.02    0.30
   1  -4 -12    0.98    0.16
  -1  -4  12    0.95    0.25
  -1   4  11   10.72    0.74
   1  -4 -11    9.45    0.42
  -1  -4  11   10.89    0.74
   1  -4 -11    9.79    0.43
   1   4 -11   10.81    0.80
   1  -4 -10    0.28    0.07
  -1   4  10    0.61    0.23
  -1   4  10    0.60    0.16
   1   4 -10    0.23    0.21
   1  -4 -10    0.29    0.08
  -1  -4  10    0.06    0.12
  -1   4   9    7.10    0.59
  -1  -4   9    6.29    0.55
   1   4  -9    6.11    0.56
   1  -4  -9    5.75    0.24
  -1  -4   9    6.20    0.59
  -1   4   9    6.56    0.48
   1  -4  -9    5.83    0.24
  -1   4   8    4.22    0.46
  -1  -4   8    3.60    0.46
  -1  -4   8    3.22    0.40
   1   4  -8    3.91    0.44
  -1  -4   7  114.32    2.35
  -1   4   7  120.31    2.34
   1   4  -7  114.84    2.15
  -1  -4   7  114.01    2.17
   1   4  -6    2.31    0.35
  -1   4   6    1.83    0.29
  -1  -4   6    1.92    0.30
   1   4  -6    1.80    0.28
  -1  -4   6    1.84    0.32
   1   4  -6    1.93    0.32
  -1  -4   6    2.03    0.31
   1   4  -5    0.74    0.19
  -1  -4   5    0.70    0.19
  -1  -4   5    0.89    0.20
   1   4  -5    1.02    0.22
   1   4  -5    0.66    0.18
  -1   4   5    0.85    0.22
  -1  -4   5    0.73    0.18
  -1  -4   4    5.99    0.49
  -1  -4   4    6.28    0.44
   1   4  -4    7.20    0.50
  -1  -4   4    7.41    0.55
  -1   4   4    7.72    0.55
   1   4  -4    6.30    0.49
   1   4  -4    6.85    0.46
  -1   4   3   69.52    0.73
   1   4  -3   74.79    1.62
  -1   4   3   69.07    0.75
  -1   4   3   78.29    1.79
  -1  -4   3   74.22    1.39
  -1   4   3   75.05    1.67
   1   4  -3   75.99    1.58
   1   4  -3   78.11    1.61
  -1  -4   3   73.98    1.57
  -1  -4   3   72.21    1.67
   1   4  -3   73.24    1.35
   1   4  -2    2.74    0.29
   1   4  -2    2.61    0.25
  -1  -4   2    2.96    0.26
  -1   4   2    2.75    0.32
   1   4  -2    2.66    0.33
  -1  -4   2    2.70    0.29
  -1  -4   2    2.06    0.28
   1   4  -2    2.85    0.31
  -1  -4   1    0.86    0.17
   1   4  -1    0.83    0.16
  -1  -4   1    0.58    0.15
   1   4  -1    0.95    0.17
  -1  -4   1    0.91    0.14
  -1   4   1    0.80    0.17
   1   4  -1    0.70    0.12
   1  -4  -1    0.48    0.15
   1   4  -1    0.72    0.17
   1   4   0    3.96    0.36
  -1   4   0    3.43    0.32
  -1  -4   0    3.46    0.28
  -1   4   0    4.44    0.41
   1  -4   0    4.10    0.41
   1   4   0    3.94    0.30
   1   4   0    3.77    0.29
   1   4   0    4.74    0.42
   1   4   0    3.45    0.22
   1   4   1    9.88    0.43
   1   4   1   10.34    0.44
  -1  -4  -1    9.80    0.45
   1  -4   1   10.05    0.64
   1   4   1   10.72    0.61
   1   4   1   10.38    0.62
  -1   4  -1    9.70    0.55
  -1   4  -1   10.45    0.63
   1   4   1   10.35    0.35
   1   4   2    0.06    0.11
   1   4   2    0.67    0.19
   1   4   2    0.25    0.09
   1  -4   2    0.05    0.11
   1   4   2    0.31    0.08
  -1   4  -2    0.43    0.15
   1   4   2    0.19    0.05
  -1  -4  -2    0.20    0.08
  -1  -4  -2    0.30    0.10
  -1   4  -2    0.02    0.09
  -1  -4  -3   81.51    1.14
  -1   4  -3   79.67    1.68
   1  -4   3   80.95    1.83
  -1   4  -3   83.27    1.73
   1   4   3   81.88    1.13
  -1  -4  -3   80.06    1.15
   1  -4   3   83.37    1.74
   1   4   3   81.66    1.13
   1   4   3   82.31    1.74
   1   4   4    7.21    0.54
  -1  -4  -4    7.18    0.33
   1   4   4    6.73    0.25
  -1   4  -4    7.12    0.53
   1   4   4    7.03    0.32
   1  -4   4    7.14    0.55
  -1   4  -4    7.12    0.51
  -1  -4  -4    7.12    0.32
   1  -4   4    7.09    0.52
   1   4   5    4.98    0.28
   1  -4   5    3.88    0.42
  -1  -4  -5    4.67    0.27
   1  -4   5    4.78    0.46
   1   4   5    4.17    0.22
  -1   4  -5    5.28    0.49
   1   4   5    4.29    0.43
  -1  -4  -5    4.89    0.27
   1   4   6    0.71    0.22
   1   4   6    0.53    0.09
  -1  -4  -6    0.58    0.10
  -1   4  -6    0.47    0.15
  -1  -4  -6    0.55    0.10
   1  -4   6    0.45    0.16
   1   4   7    6.53    0.33
   1   4   7    6.58    0.54
   1  -4   7    7.32    0.58
  -1  -4  -7    7.37    0.35
  -1  -4  -7    7.04    0.35
  -1   4  -7    7.17    0.59
   1  -4   8    1.75    0.30
  -1   4  -8    1.59    0.32
   1   4   8    1.93    0.28
  -1  -4  -8    2.61    0.22
   1   4   8    2.09    0.21
  -1  -4  -8    2.12    0.20
  -1   4  -9    9.85    0.75
   1  -4   9    9.43    0.68
  -1  -4  -9   10.16    0.47
   1   4   9    9.71    0.65
   1   4   9    9.82    0.48
   1   4  10    4.54    0.36
  -1   4 -10    4.94    0.56
   1  -4  10    4.57    0.50
   1   4  10    4.98    0.48
  -1  -4 -10    4.80    0.35
  -1   4 -11    6.07    0.63
   1   4  11    5.44    0.52
   1  -4  11    4.73    0.52
  -1  -4 -11    5.74    0.41
   1   4  11    5.43    0.42
  -1   4 -12   12.37    0.91
   1  -4  12   14.23    0.91
   1   4  12   12.81    0.78
  -1  -4 -12   12.48    0.63
   1   4  12   12.41    0.67
   1   4  13    8.80    0.66
  -1   4 -13    8.96    0.85
  -1  -4 -13    8.25    0.53
   1  -4  13    7.53    0.71
   1  -4  14    2.14    0.45
  -1   4 -14    1.67    0.43
   1   4  14    0.97    0.27
  -1  -4 -14    1.45    0.24
   1   4  15    1.14    0.29
  -1   4 -15    0.93    0.31
  -1  -4 -15    0.78    0.21
   1  -4  15    1.54    0.38
  -1   4 -16   -0.29    0.24
   1   4  16    0.53    0.26
   1  -4  16    0.11    0.22
   1  -4  17    2.62    0.52
   1   4  17    4.16    0.52
  -1   4 -17    3.65    0.63
  -1   4 -18    0.51    0.30
   1  -4  18    0.80    0.36
  -1   4 -19    1.73    0.44
   1  -4  19    1.40    0.40
  -1   4 -20    0.03    0.22
   1  -4  20    0.45    0.30
  -1   4 -21    0.59    0.24
   1  -4  21    0.36    0.26
   1  -4  22    0.02    0.18
  -1   4 -22    0.33    0.30
   1  -4  23   -0.05    0.19
  -1   4 -23    0.44    0.27
   1  -4  24    0.67    0.38
  -1   4 -24    0.13    0.25
   1   5 -24    0.39    0.35
  -1  -5  24    0.41    0.32
   1   5 -23    0.30    0.27
  -1   5  23    0.50    0.22
  -1  -5  23    0.20    0.26
   1   5 -22    0.80    0.41
  -1  -5  22    0.48    0.31
  -1   5  22    0.19    0.14
  -1   5  21    1.19    0.30
   1   5 -21    1.46    0.49
  -1  -5  21    0.73    0.35
  -1  -5  20    1.22    0.40
   1   5 -20    0.78    0.35
  -1   5  20    0.90    0.30
   1   5 -19    0.00    0.17
  -1   5  19    0.19    0.16
  -1  -5  19    0.11    0.18
  -1   5  18    0.38    0.21
   1   5 -18    0.88    0.34
  -1  -5  18    0.62    0.31
   1   5 -17    9.91    0.97
  -1   5  17    8.92    0.75
  -1  -5  17    7.58    0.81
   1   5 -16    0.38    0.29
   1  -5 -16    0.57    0.15
  -1   5  16    0.18    0.15
  -1  -5  16    0.82    0.27
  -1  -5  15    1.08    0.27
  -1   5  15    1.59    0.31
   1   5 -15    1.02    0.35
   1  -5 -15    1.24    0.18
   1  -5 -14    0.06    0.05
   1  -5 -14    0.11    0.07
  -1  -5  14    0.09    0.16
  -1   5  13    0.79    0.26
   1  -5 -13    0.31    0.08
   1   5 -13    0.46    0.21
   1  -5 -13    0.39    0.09
  -1  -5  13    0.78    0.26
   1  -5 -13    0.46    0.09
   1  -5 -12    4.01    0.21
   1  -5 -12    4.23    0.22
   1  -5 -12    3.65    0.22
  -1   5  12    5.33    0.57
  -1  -5  12    4.39    0.53
   1   5 -12    4.71    0.59
   1   5 -11    9.14    0.77
  -1   5  11   10.42    0.78
  -1  -5  11    9.25    0.76
  -1  -5  10    3.57    0.45
   1   5 -10    2.96    0.47
  -1   5  10    3.12    0.45
   1   5  -9    0.00    0.13
  -1  -5   9    0.17    0.17
  -1   5   9    0.02    0.13
  -1  -5   8   15.60    0.92
  -1   5   8   17.06    0.98
   1   5  -8   16.78    0.90
   1   5  -7    0.42    0.20
  -1   5   7    0.62    0.21
  -1  -5   7    1.01    0.24
  -1  -5   7    0.62    0.22
  -1  -5   6    1.00    0.23
  -1   5   6    1.00    0.25
   1   5  -6    0.80    0.22
  -1  -5   6    0.96    0.25
  -1  -5   6    0.95    0.22
   1   5  -5    1.27    0.24
  -1  -5   5    1.53    0.29
  -1  -5   5    1.77    0.31
  -1  -5   5    1.76    0.26
  -1  -5   4    0.19    0.15
   1   5  -4    0.32    0.11
  -1  -5   4    0.31    0.13
  -1  -5   4    0.39    0.15
   1   5  -4    0.26    0.14
   1   5  -4    0.16    0.12
   1   5  -3   23.50    0.96
  -1  -5   3   23.25    0.85
  -1   5   3   23.54    0.52
   1   5  -3   23.20    0.83
  -1   5   3   21.98    0.48
   1   5  -3   24.02    0.98
  -1  -5   3   23.96    1.09
  -1  -5   3   23.07    0.95
  -1  -5   2   18.78    0.81
   1   5  -2   17.99    0.69
  -1  -5   2   17.67    0.92
  -1   5   2   18.81    0.55
   1   5  -2   19.55    0.83
   1   5  -2   19.34    0.82
  -1  -5   2   19.46    0.73
  -1  -5   1    7.78    0.62
  -1   5   1    8.28    0.41
   1   5  -1    8.16    0.51
   1   5  -1    7.92    0.51
   1   5  -1    7.80    0.43
  -1  -5   1    7.94    0.51
  -1  -5   1    8.05    0.44
   1   5   0   -0.03    0.14
  -1   5   0    0.01    0.08
   1  -5   0   -0.19    0.17
   1   5   0    0.01    0.06
  -1  -5   0    0.08    0.10
  -1   5   0    0.03    0.09
   1   5   0    0.09    0.07
   1   5   0    0.15    0.09
  -1   5  -1   29.71    0.92
   1   5   1   31.63    0.86
   1   5   1   31.46    1.17
  -1  -5  -1   31.60    0.90
   1   5   1   31.76    0.74
   1  -5   1   30.90    1.24
   1   5   1   30.91    0.86
  -1   5  -1   29.70    1.05
  -1   5  -2   46.96    1.35
  -1   5  -2   46.24    1.21
   1   5   2   45.27    0.83
  -1  -5  -2   47.00    1.02
   1  -5   2   46.02    1.53
   1   5   2   44.95    0.97
   1   5   2   45.96    1.42
   1   5   2   46.84    0.98
   1   5   3   10.51    0.44
   1   5   3    9.07    0.66
  -1   5  -3   10.64    0.66
  -1   5  -3   10.80    0.62
   1  -5   3    9.32    0.70
   1   5   3   10.50    0.38
   1   5   3   11.63    0.47
  -1  -5  -3   11.33    0.47
   1   5   4    9.32    0.39
  -1   5  -4    8.85    0.59
  -1  -5  -4    9.06    0.40
  -1   5  -4    9.78    0.67
   1   5   4    9.13    0.66
   1   5   4    9.06    0.39
   1  -5   4    9.29    0.69
  -1  -5  -4    8.90    0.40
  -1   5  -5   32.93    1.24
   1  -5   5   30.69    1.27
   1   5   5   30.51    1.21
   1   5   5   30.31    0.62
  -1  -5  -5   32.49    0.71
  -1  -5  -5   32.05    0.72
   1   5   5   32.95    0.72
   1  -5   6   29.98    1.27
   1   5   6   31.56    1.24
  -1   5  -6   32.16    1.25
  -1  -5  -6   29.30    0.68
   1   5   6   31.32    0.70
   1   5   6   28.52    0.64
  -1  -5  -6   30.80    0.67
   1  -5   7   12.52    0.83
  -1  -5  -7   12.18    0.42
   1   5   7   12.77    0.81
  -1   5  -7   11.06    0.79
   1   5   7   11.10    0.43
  -1  -5  -7   11.77    0.42
   1   5   8   18.50    0.60
  -1   5  -8   19.67    1.06
  -1  -5  -8   20.93    0.57
   1  -5   8   20.28    1.08
  -1  -5  -8   20.10    0.57
   1   5   8   21.29    1.05
  -1  -5  -9    2.82    0.23
   1  -5   9    2.60    0.41
  -1   5  -9    2.71    0.44
  -1  -5  -9    2.90    0.23
   1   5   9    3.00    0.41
   1   5   9    2.54    0.25
   1   5  10    0.55    0.15
   1  -5  10    0.36    0.22
  -1   5 -10    0.59    0.23
  -1  -5 -10    0.65    0.13
   1   5  10    0.09    0.15
  -1  -5 -10    0.71    0.14
  -1  -5 -11    2.20    0.22
   1  -5  11    1.78    0.36
   1   5  11    1.73    0.23
   1   5  11    1.56    0.30
  -1   5 -11    1.40    0.35
  -1  -5 -11    2.06    0.22
  -1   5 -12   -0.16    0.22
   1   5  12   -0.16    0.19
   1  -5  12   -0.13    0.20
  -1  -5 -12   -0.01    0.08
   1   5  12   -0.10    0.11
   1   5  13    0.86    0.19
   1  -5  13    0.65    0.32
  -1   5 -13    0.58    0.24
  -1  -5 -13    1.09    0.19
   1   5  13    1.08    0.29
   1   5  14   -0.16    0.14
   1  -5  14    0.06    0.20
  -1   5 -14    0.01    0.20
  -1  -5 -14    0.14    0.10
  -1   5 -15    0.17    0.17
   1   5  15   -0.17    0.14
   1  -5  15    0.22    0.29
  -1   5 -16    0.09    0.20
   1  -5  16    0.08    0.18
   1   5  16    0.44    0.25
  -1   5 -17    0.19    0.24
   1   5  17    0.11    0.20
   1  -5  17    0.11    0.21
   1  -5  18    0.72    0.37
   1   5  18    1.32    0.34
  -1   5 -18    1.80    0.48
  -1   5 -19    4.53    0.77
   1   5  19    3.84    0.52
   1  -5  19    3.54    0.61
  -1   5 -20    0.06    0.19
   1  -5  20    0.29    0.28
  -1   5 -21    0.10    0.25
   1  -5  21    0.27    0.20
   1  -5  22    0.10    0.20
  -1   5 -22    0.15    0.28
   1  -5  23    0.27    0.22
  -1   5 -23   -0.10    0.20
  -1   5 -24    0.27    0.37
   1  -5  24    0.42    0.33
  -1   6  23    0.41    0.22
  -1  -6  23    0.09    0.22
   1   6 -23    0.64    0.34
   1   6 -22    0.59    0.36
  -1   6  22   -0.03    0.13
  -1  -6  22    0.42    0.33
   1   6 -21    0.46    0.33
  -1  -6  21    0.92    0.38
  -1   6  21    0.33    0.21
  -1  -6  20   -0.33    0.26
   1   6 -20    0.22    0.28
  -1   6  20   -0.06    0.14
  -1  -6  19   -0.23    0.24
   1   6 -19    0.42    0.25
  -1   6  19    0.27    0.18
  -1  -6  18    1.85    0.47
   1   6 -18    2.44    0.57
  -1   6  18    2.35    0.43
  -1  -6  17    1.88    0.45
  -1   6  17    2.21    0.41
  -1  -6  16    0.02    0.18
   1   6 -16   -0.27    0.23
  -1   6  16   -0.05    0.15
  -1  -6  15    0.10    0.19
  -1   6  15    0.29    0.15
   1   6 -15    0.31    0.21
   1   6 -14    0.36    0.26
  -1  -6  14    0.75    0.29
  -1   6  14    0.50    0.25
   1   6 -13    4.64    0.62
  -1   6  13    4.06    0.59
  -1  -6  13    2.78    0.51
  -1   6  12    1.01    0.32
   1   6 -12    1.49    0.37
  -1  -6  12    0.86    0.24
  -1  -6  11    6.92    0.71
   1   6 -11    7.00    0.73
  -1   6  11    7.84    0.74
   1   6 -10    2.00    0.39
  -1   6  10    2.34    0.41
  -1  -6  10    2.38    0.42
   1   6  -9    0.00    0.16
  -1  -6   9    0.26    0.22
  -1   6   9    0.04    0.17
  -1  -6   8    1.86    0.36
   1   6  -8    1.45    0.32
  -1   6   8    1.43    0.32
  -1   6   7    2.70    0.41
   1   6  -7    2.80    0.39
  -1  -6   7    3.28    0.47
  -1   6   6    0.85    0.22
  -1  -6   6    1.89    0.35
   1   6  -6    1.53    0.28
  -1  -6   6    1.43    0.30
  -1  -6   5    0.27    0.18
  -1  -6   5    0.10    0.15
  -1  -6   5    0.05    0.09
   1   6  -5    0.22    0.14
  -1   6   4    0.50    0.07
   1   6  -4    0.81    0.22
  -1   6   4    0.53    0.07
   1   6  -4    0.47    0.17
  -1  -6   4    0.36    0.16
  -1   6   4    0.49    0.07
  -1  -6   4    0.42    0.21
  -1  -6   4    0.72    0.18
  -1  -6   3    5.34    0.58
   1   6  -3    6.72    0.56
  -1  -6   3    6.82    0.57
  -1   6   3    6.52    0.32
  -1  -6   3    7.10    0.51
   1   6  -3    6.91    0.57
   1   6  -3    6.23    0.47
   1   6  -2   20.36    0.92
  -1  -6   2   19.85    0.90
   1   6  -2   20.77    0.92
  -1   6   2   20.78    0.65
  -1  -6   2   20.07    1.09
  -1  -6   2   21.72    0.84
   1   6  -2   20.14    0.79
   1   6  -1    1.42    0.25
   1   6  -1    1.20    0.20
  -1   6   1    1.14    0.23
  -1  -6   1    1.38    0.23
  -1  -6   1    1.12    0.27
   1   6  -1    1.65    0.25
  -1   6   1    1.42    0.20
   1   6   0   16.77    0.74
   1  -6   0   16.96    1.03
   1   6   0   16.35    0.92
  -1  -6   0   16.42    0.75
  -1   6   0   16.78    0.82
  -1   6   0   16.95    0.70
   1   6   0   16.49    0.64
   1   6   0   16.55    0.73
   1   6   1    0.20    0.17
   1   6   1    0.16    0.09
   1  -6   1   -0.07    0.16
   1   6   1   -0.06    0.07
  -1  -6  -1    0.28    0.11
  -1   6  -1    0.25    0.12
  -1   6  -1    0.14    0.12
   1   6   1    0.04    0.08
   1   6   2    5.63    0.37
   1  -6   2    7.29    0.67
  -1   6  -2    5.58    0.46
   1   6   2    6.53    0.59
   1   6   2    5.52    0.38
   1   6   2    5.83    0.34
  -1   6  -2    5.75    0.51
  -1  -6  -2    6.27    0.41
   1   6   3   21.61    1.09
   1  -6   3   22.26    1.18
   1   6   3   21.47    0.69
  -1   6  -3   22.77    1.04
   1   6   3   22.35    0.64
   1   6   3   21.85    0.69
  -1   6  -3   22.58    0.95
  -1  -6  -3   24.46    0.77
   1   6   4    4.70    0.51
   1  -6   4    4.42    0.52
  -1  -6  -4    4.98    0.32
  -1   6  -4    4.56    0.48
   1   6   4    4.69    0.30
   1   6   4    4.86    0.31
   1   6   4    4.08    0.27
   1   6   5   23.86    1.16
  -1  -6  -5   22.77    0.64
  -1   6  -5   23.66    1.11
   1   6   5   23.14    0.64
   1  -6   5   24.34    1.26
   1   6   6    2.37    0.20
  -1   6  -6    2.54    0.40
   1   6   6    2.93    0.43
  -1  -6  -6    2.41    0.20
   1  -6   6    2.47    0.41
   1   6   6    2.60    0.21
  -1  -6  -7    0.98    0.12
  -1   6  -7    1.41    0.31
   1   6   7    1.24    0.16
   1   6   7    1.20    0.32
   1  -6   7    1.58    0.34
  -1  -6  -7    1.07    0.13
   1  -6   8    0.87    0.32
   1   6   8    0.97    0.15
  -1   6  -8    0.53    0.20
  -1  -6  -8    0.76    0.11
   1   6   8    1.02    0.30
  -1  -6  -8    0.76    0.11
  -1   6  -9    0.61    0.24
  -1  -6  -9    0.52    0.10
   1   6   9    1.25    0.34
  -1  -6  -9    0.66    0.11
   1   6   9    0.69    0.14
   1  -6   9    1.09    0.35
  -1  -6 -10    0.25    0.07
   1   6  10    0.17    0.09
   1  -6  10    0.10    0.21
  -1  -6 -10    0.29    0.07
  -1   6 -10    0.02    0.14
   1   6  10    0.15    0.24
  -1  -6 -11    0.26    0.08
   1  -6  11    0.06    0.21
  -1   6 -11    0.32    0.23
   1   6  11    0.32    0.12
  -1  -6 -11    0.13    0.06
   1   6  11    0.27    0.19
   1   6  12    0.48    0.14
   1   6  12    0.41    0.19
   1  -6  12    0.46    0.25
  -1  -6 -12    0.52    0.11
  -1  -6 -12    0.50    0.10
  -1   6 -12    0.60    0.27
   1  -6  13    1.41    0.38
   1   6  13    1.92    0.36
  -1   6 -13    2.26    0.50
   1   6  13    1.33    0.23
  -1  -6 -13    1.92    0.21
   1  -6  14    0.24    0.19
  -1  -6 -14    0.08    0.07
  -1   6 -14    0.17    0.17
   1   6  14   -0.16    0.21
   1  -6  15    8.56    0.91
  -1   6 -15    7.67    0.87
   1   6  15    7.21    0.70
   1   6  16    0.86    0.29
   1  -6  16    0.35    0.28
  -1   6 -16    0.68    0.34
   1   6  17    1.28    0.31
   1  -6  17    1.22    0.35
  -1   6 -17    1.34    0.41
  -1   6 -18    2.43    0.54
   1  -6  18    1.86    0.49
   1   6  18    2.30    0.45
  -1   6 -19    0.44    0.36
   1  -6  19    0.62    0.38
   1   6  19    0.69    0.27
   1  -6  20    0.15    0.24
  -1   6 -20   -0.02    0.20
   1   6  20    0.10    0.22
   1   6  21    0.38    0.22
   1  -6  21    0.00    0.18
  -1   6 -21   -0.38    0.27
  -1   6 -22    1.50    0.47
   1  -6  22    0.95    0.43
   1  -6  23    0.23    0.27
  -1   6 -23   -0.60    0.33
  -1   7  22    0.62    0.27
   1   7 -22    0.71    0.36
  -1  -7  22    0.10    0.28
   1   7 -21    0.24    0.34
  -1  -7  21   -0.06    0.25
  -1   7  21    0.36    0.23
   1   7 -20    0.24    0.26
  -1  -7  20    0.10    0.25
  -1   7  20   -0.14    0.12
   1   7 -19   -0.01    0.23
  -1   7  19   -0.05    0.17
  -1  -7  19    0.20    0.21
  -1   7  18    3.03    0.53
   1   7 -18    3.37    0.63
  -1  -7  18    2.00    0.50
  -1   7  17   -0.24    0.30
  -1  -7  17    0.09    0.21
   1   7 -17   -0.24    0.22
  -1  -7  16    1.14    0.33
  -1   7  16    1.04    0.30
   1   7 -16    1.20    0.39
  -1  -7  15    0.10    0.16
  -1   7  15    0.13    0.18
   1   7 -15    0.35    0.22
  -1  -7  14    1.83    0.46
   1   7 -14    1.13    0.38
  -1   7  14    1.65    0.43
   1   7 -13    0.77    0.37
  -1  -7  13    1.20    0.43
  -1   7  13    1.01    0.36
  -1   7  12   10.73    0.94
  -1  -7  12    9.60    0.95
   1   7 -12   12.97    1.02
  -1  -7  11   10.60    0.96
   1   7 -11    8.29    0.83
  -1   7  11   11.09    0.94
   1   7 -10    0.10    0.13
  -1   7  10    0.05    0.19
  -1  -7  10    0.10    0.19
  -1  -7   9    0.75    0.28
  -1   7   9    0.72    0.30
   1   7  -9    0.28    0.15
   1   7  -8    2.28    0.38
  -1   7   8    2.06    0.41
  -1  -7   8    2.52    0.44
   1   7  -7    0.35    0.18
  -1   7   7    0.66    0.29
  -1  -7   7    0.98    0.32
  -1   7   6    5.04    0.61
   1   7  -6    4.10    0.49
  -1  -7   6    4.51    0.57
   1   7  -6    4.42    0.52
  -1  -7   5    0.14    0.20
   1   7  -5    0.32    0.17
   1   7  -5    0.07    0.15
  -1   7   4    3.73    0.21
   1   7  -4    4.24    0.44
  -1   7   4    4.18    0.21
  -1  -7   4    4.24    0.55
  -1   7   4    3.79    0.20
   1   7  -4    4.47    0.50
  -1  -7   3    4.95    0.46
  -1  -7   3    4.81    0.50
  -1  -7   3    4.51    0.58
  -1   7   3    4.49    0.29
  -1   7   3    4.39    0.29
   1   7  -3    4.48    0.43
   1   7  -3    4.60    0.48
   1   7  -2    2.42    0.35
   1   7  -2    2.20    0.29
  -1   7   2    2.22    0.33
  -1  -7   2    2.50    0.43
  -1  -7   2    2.44    0.35
  -1   7   2    2.30    0.24
   1   7  -1    2.52    0.35
  -1   7   1    2.77    0.36
  -1   7   1    2.80    0.30
   1   7  -1    2.84    0.32
   1   7  -1    2.87    0.36
  -1  -7   1    2.96    0.37
   1  -7   0    2.04    0.39
  -1   7   0    1.98    0.28
   1   7   0    1.75    0.34
  -1   7   0    2.26    0.33
   1   7   0    1.69    0.26
   1   7   0    1.74    0.27
   1   7   0    2.03    0.25
  -1  -7   0    2.29    0.32
   1   7   1   10.13    0.53
  -1   7  -1   10.73    0.73
  -1  -7  -1   10.09    0.60
  -1   7  -1   10.22    0.63
   1   7   1   11.89    0.86
   1  -7   1    9.29    0.83
   1   7   1   10.02    0.57
   1   7   1    9.90    0.57
   1  -7   2   13.07    0.98
  -1   7  -2   13.32    0.75
  -1   7  -2   13.38    0.84
  -1  -7  -2   13.81    0.66
   1   7   2   12.74    0.62
   1   7   2   11.99    0.59
   1   7   2   12.63    0.88
   1   7   2   12.55    0.56
   1   7   3    0.56    0.22
   1   7   3    0.67    0.13
   1   7   3    0.69    0.14
  -1   7  -3    0.72    0.22
   1  -7   3    0.73    0.24
   1   7   3    0.64    0.13
  -1  -7  -3    0.78    0.16
   1   7   4    9.13    0.45
   1  -7   4    9.94    0.85
   1   7   4    9.42    0.46
  -1   7  -4    9.59    0.75
   1   7   4   10.91    0.85
   1   7   4    8.55    0.43
  -1  -7  -4    9.60    0.48
  -1  -7  -5    4.06    0.30
   1  -7   5    3.71    0.54
   1   7   5    3.57    0.27
   1   7   5    3.94    0.51
   1   7   5    3.69    0.28
  -1   7  -5    4.11    0.51
   1  -7   6    7.19    0.76
   1   7   6    6.85    0.70
  -1   7  -6    6.71    0.68
  -1  -7  -6    6.56    0.34
   1   7   6    6.90    0.34
   1   7   6    6.65    0.38
   1   7   7   18.25    0.59
  -1   7  -7   19.56    1.14
   1  -7   7   18.43    1.20
  -1  -7  -7   16.64    0.48
   1   7   7   19.92    1.16
  -1  -7  -8    0.62    0.08
   1   7   8    0.61    0.11
  -1   7  -8    0.83    0.23
   1  -7   8    1.07    0.32
   1   7   8    1.12    0.34
  -1   7  -9   -0.20    0.18
   1   7   9    0.17    0.21
   1   7   9    0.09    0.06
   1  -7   9    0.31    0.19
   1   7  10    3.93    0.56
   1   7  10    3.09    0.28
  -1   7 -10    4.06    0.58
   1  -7  10    2.91    0.51
  -1   7 -11    0.52    0.25
   1   7  11    0.46    0.18
   1   7  12    2.08    0.40
  -1   7 -12    2.52    0.49
   1  -7  12    2.19    0.50
  -1   7 -13    6.08    0.75
   1  -7  13    4.48    0.67
   1   7  13    5.16    0.63
   1  -7  14    1.82    0.48
   1   7  14    1.99    0.41
  -1   7 -14    1.91    0.47
   1  -7  15    0.08    0.24
   1   7  15    0.59    0.23
  -1   7 -15    0.05    0.20
   1   7  16    1.20    0.32
   1  -7  16    0.72    0.25
  -1   7 -16    1.58    0.43
   1  -7  17    0.50    0.27
   1   7  17    0.52    0.22
  -1   7 -17    0.34    0.25
   1  -7  18    0.04    0.24
  -1   7 -18    0.30    0.22
   1   7  18   -0.05    0.13
   1   7  19    1.59    0.37
  -1   7 -19    1.05    0.38
   1  -7  19    1.07    0.42
   1   7  20    1.00    0.34
   1  -7  20    0.18    0.30
  -1   7 -20    0.52    0.30
   1  -7  21    1.02    0.43
   1   7  21    1.35    0.37
  -1   7 -21    1.22    0.46
   1   7  22    0.30    0.27
  -1   7 -22    0.00    0.23
   1  -7  22    0.29    0.24
   1   8 -20    0.16    0.19
  -1   8  20   -0.26    0.23
  -1  -8  20   -0.55    0.37
   1   8 -19    0.47    0.38
  -1   8  19    0.69    0.27
  -1  -8  19    0.21    0.24
   1   8 -18    0.42    0.27
  -1  -8  18    0.00    0.19
  -1   8  18    0.45    0.27
   1   8 -17    0.10    0.19
  -1   8  17   -0.21    0.25
  -1  -8  17   -0.02    0.22
   1   8 -16    0.91    0.37
  -1   8  16    0.41    0.25
  -1  -8  16    1.05    0.40
  -1   8  15    0.05    0.19
  -1  -8  15    0.35    0.30
   1   8 -15    0.00    0.18
   1   8 -14    0.13    0.23
  -1  -8  14    0.13    0.22
  -1   8  14    0.31    0.21
  -1   8  13   -0.10    0.17
   1   8 -13    0.50    0.25
  -1  -8  13    0.63    0.33
  -1   8  12   10.67    0.99
  -1  -8  12    8.60    0.95
   1   8 -12   10.08    0.98
  -1  -8  11    3.90    0.63
  -1   8  11    4.75    0.67
   1   8 -11    2.81    0.50
  -1  -8  10    0.87    0.28
  -1   8  10    1.81    0.45
   1   8 -10    1.22    0.33
  -1  -8   9    1.38    0.39
   1   8  -9    1.27    0.32
  -1   8   9    1.01    0.34
  -1   8   8    4.95    0.66
  -1  -8   8    3.68    0.58
   1   8  -8    4.78    0.62
   1   8  -8    4.62    0.58
   1   8  -7    4.19    0.53
   1   8  -7    3.84    0.54
  -1   8   7    4.54    0.65
  -1  -8   7    3.88    0.57
   1   8  -6    8.79    0.78
   1   8  -6    8.39    0.71
  -1  -8   6    8.05    0.84
  -1   8   6    8.44    0.86
   1   8  -5    0.76    0.24
  -1  -8   5    1.27    0.34
   1   8  -5    0.91    0.27
  -1   8   5    0.76    0.30
   1   8  -4    8.31    0.65
  -1   8   4    8.18    0.33
  -1   8   4    8.47    0.65
   1   8  -4    8.80    0.74
  -1  -8   4    8.31    0.81
  -1   8   4    7.36    0.31
  -1   8   4    7.91    0.32
  -1   8   3   20.63    0.66
   1   8  -3   23.28    1.15
  -1   8   3   19.96    1.01
   1   8  -3   20.56    0.97
  -1   8   3   21.56    0.68
  -1  -8   3   20.18    1.28
  -1   8   2   10.28    0.54
  -1   8   2   10.81    0.56
  -1   8   2   10.73    0.74
  -1  -8   2   10.64    0.90
   1   8  -2   10.08    0.65
   1   8  -2   10.98    0.75
  -1   8   1   10.93    0.76
   1   8  -1   11.78    0.74
   1   8  -1   11.06    0.66
   1   8  -1   12.16    0.91
  -1   8   1   11.10    0.61
  -1   8   0    0.43    0.19
   1   8   0    0.07    0.09
   1   8   0   -0.01    0.09
   1   8   0    0.04    0.12
   1   8   0   -0.02    0.18
  -1   8   0    0.11    0.08
   1   8   1    2.21    0.29
   1   8   1    2.40    0.28
   1   8   1    2.60    0.32
  -1   8  -1    2.03    0.30
   1  -8   1    1.87    0.42
   1   8   1    2.53    0.44
  -1   8  -1    2.43    0.37
   1   8   2    2.58    0.30
  -1   8  -2    2.98    0.43
   1   8   2    2.68    0.29
   1   8   2    2.28    0.41
   1   8   2    2.82    0.31
   1  -8   2    1.85    0.43
  -1   8  -3    4.68    0.53
   1  -8   3    4.26    0.63
   1   8   3    4.17    0.35
   1   8   3    4.18    0.35
   1   8   3    5.40    0.64
   1   8   3    3.92    0.34
   1  -8   4    7.14    0.79
   1   8   4    9.40    0.84
   1   8   4    8.13    0.46
   1   8   4    8.52    0.47
  -1   8  -4    8.83    0.74
   1   8   4    7.97    0.45
   1   8   5    5.41    0.37
  -1   8  -5    5.75    0.64
   1   8   5    5.90    0.68
   1   8   5    5.57    0.35
   1  -8   5    5.47    0.69
   1  -8   6    7.66    0.82
  -1   8  -6    7.58    0.73
   1   8   6    7.60    0.79
   1   8   6    6.75    0.41
   1   8   6    6.98    0.35
  -1   8  -7    3.00    0.46
   1   8   7    2.76    0.27
   1   8   7    2.70    0.46
   1  -8   7    2.02    0.39
   1   8   8   -0.23    0.24
   1  -8   8    0.06    0.20
  -1   8  -8   -0.11    0.16
  -1   8  -9    0.19    0.19
   1   8   9    0.44    0.29
   1  -8   9    0.81    0.39
  -1   8 -10    0.50    0.21
   1   8  10    0.33    0.24
   1  -8  10    0.53    0.29
   1  -8  11    3.85    0.68
  -1   8 -11    4.26    0.62
   1   8  11    4.39    0.61
   1  -8  12    1.90    0.49
  -1   8 -12    2.02    0.47
   1   8  12    1.13    0.33
  -1   8 -13    1.90    0.45
   1   8  13    1.00    0.29
   1  -8  13    2.25    0.56
   1  -8  14   12.26    1.17
   1   8  14   12.46    1.03
  -1   8 -14   11.18    1.07
  -1   8 -15    2.44    0.54
   1   8  15    1.43    0.38
   1  -8  15    1.64    0.52
   1   8  16    0.06    0.22
  -1   8 -16   -0.04    0.23
   1  -8  16    0.05    0.18
   1  -8  17    0.28    0.25
   1   8  17    0.56    0.25
  -1   8 -17    0.63    0.33
   1   8  18    0.39    0.20
   1  -8  18    0.52    0.38
  -1   8 -18    0.58    0.27
   1  -8  19   -0.31    0.30
   1   8  19   -0.10    0.16
  -1   8 -19    0.31    0.29
   1   8  20    1.10    0.35
   1  -8  20    0.47    0.37
  -1   8 -20    0.91    0.43
  -1  -9  19    0.22    0.32
  -1   9  19    0.20    0.18
   1   9 -19    0.27    0.27
  -1  -9  18    0.20    0.30
   1   9 -18    0.01    0.20
  -1   9  18    0.15    0.20
  -1   9  17   -0.14    0.26
   1   9 -17    0.68    0.32
  -1  -9  17    0.19    0.25
  -1   9  16   -0.39    0.23
  -1  -9  16    0.05    0.23
   1   9 -16   -0.19    0.24
  -1   9  15    0.50    0.29
   1   9 -15    0.64    0.29
  -1  -9  15    0.34    0.25
   1   9 -14    3.64    0.63
  -1  -9  14    2.72    0.59
  -1   9  14    3.65    0.62
  -1  -9  13    0.07    0.23
   1   9 -13   -0.02    0.19
  -1   9  13    0.10    0.18
  -1  -9  12    0.69    0.30
   1   9 -12    1.44    0.40
  -1   9  12    1.56    0.42
  -1  -9  11    3.97    0.69
  -1   9  11    4.21    0.69
   1   9 -11    3.81    0.65
   1   9 -11    4.47    0.66
   1   9 -10    0.15    0.18
  -1  -9  10    0.41    0.26
   1   9 -10    0.14    0.18
  -1   9  10    0.47    0.26
   1   9  -9    0.39    0.23
  -1   9   9    0.60    0.31
   1   9  -9    0.50    0.26
  -1  -9   9    0.41    0.28
   1   9  -8    0.18    0.20
  -1   9   8    0.38    0.26
  -1  -9   8    0.20    0.23
   1   9  -8    0.39    0.20
   1   9  -7   -0.12    0.19
   1   9  -7   -0.39    0.26
  -1   9   7   -0.19    0.24
  -1  -9   7   -0.17    0.25
  -1   9   6    7.13    0.86
   1   9  -6    7.53    0.70
  -1  -9   6    7.01    0.80
   1   9  -6    7.24    0.75
  -1  -9   5   22.02    1.43
  -1   9   5   23.35    1.51
   1   9  -5   23.27    1.17
  -1   9   5   22.29    1.11
   1   9  -5   22.65    1.27
   1   9  -4    2.45    0.40
   1   9  -4    1.94    0.37
  -1  -9   4    1.92    0.42
  -1   9   4    2.66    0.39
   1   9  -3   10.79    0.75
  -1  -9   3   12.62    1.10
   1   9  -3   12.34    0.87
  -1   9   3   10.80    0.78
  -1   9   2   27.87    0.93
   1   9  -2   26.86    1.12
  -1   9   2   26.01    1.21
   1   9  -2   25.09    1.43
   1   9  -2   27.09    1.24
  -1   9   1    9.09    0.73
   1   9  -1    8.82    0.62
   1   9  -1    9.30    0.69
  -1   9   1    9.14    0.60
   1   9  -1   10.72    0.94
   1   9   0    2.22    0.48
   1   9   0    2.23    0.32
  -1   9   0    2.25    0.31
   1   9   0    2.52    0.36
  -1   9   0    2.58    0.41
   1   9   1    2.03    0.28
   1   9   1    2.45    0.49
   1   9   1    1.86    0.30
  -1   9  -1    1.63    0.35
  -1   9  -2    0.94    0.22
   1  -9   2    1.65    0.42
   1   9   2    2.03    0.28
   1   9   2    1.65    0.24
   1   9   2    1.73    0.41
  -1   9  -3    0.15    0.17
   1   9   3   -0.08    0.09
   1   9   3    0.15    0.17
   1  -9   3    0.07    0.19
   1   9   3   -0.08    0.09
  -1   9  -4    0.54    0.18
   1  -9   4    0.94    0.33
   1   9   4    0.69    0.15
   1   9   4    0.87    0.28
   1   9   4    0.77    0.15
   1   9   5    7.20    0.79
   1  -9   5    6.95    0.82
  -1   9  -5    6.45    0.69
   1  -9   6    6.95    0.84
  -1   9  -6    6.64    0.72
   1   9   6    6.91    0.80
   1   9   7   -0.24    0.27
  -1   9  -7   -0.14    0.20
   1  -9   7   -0.16    0.25
  -1   9  -8    2.19    0.42
   1   9   8    2.28    0.49
   1  -9   8    2.14    0.48
  -1   9  -9    1.65    0.41
   1  -9   9    2.52    0.54
   1   9   9    2.18    0.51
  -1   9 -10    0.06    0.14
   1   9  10    0.21    0.25
   1  -9  10   -0.20    0.24
  -1   9 -11   -0.01    0.15
   1  -9  11    0.24    0.20
   1   9  11    0.35    0.22
   1  -9  12    0.62    0.39
   1   9  12    0.28    0.20
  -1   9 -12    0.41    0.26
   1  -9  13    3.83    0.71
   1   9  13    3.78    0.61
  -1   9 -13    3.95    0.68
   1  -9  14    0.49    0.37
  -1   9 -14    0.70    0.34
   1   9  14    0.41    0.25
   1  -9  15    4.12    0.77
   1   9  15    4.85    0.69
  -1   9 -15    4.40    0.76
  -1   9 -16    0.52    0.31
   1  -9  16    0.72    0.39
   1   9  16    0.06    0.19
   1   9  17    0.36    0.27
   1  -9  17   -0.04    0.19
  -1   9 -17    0.07    0.26
   1  -9  18    0.44    0.24
   1   9  18    0.34    0.23
  -1   9 -18    0.04    0.24
   1  10 -16   -0.26    0.29
  -1 -10  16    0.35    0.32
   1  10 -16    0.28    0.21
  -1  10  16   -0.21    0.20
  -1  10  15   -0.07    0.18
   1  10 -15    0.00    0.19
   1  10 -15   -0.19    0.23
  -1 -10  15    0.16    0.22
  -1  10  14    0.30    0.25
  -1 -10  14    0.80    0.41
   1  10 -14    1.24    0.40
   1  10 -14   -0.05    0.28
   1  10 -13    3.86    0.69
   1  10 -13    4.05    0.71
  -1  10  13    4.77    0.77
  -1 -10  13    3.88    0.73
  -1 -10  12    0.11    0.25
   1  10 -12   -0.06    0.21
  -1  10  12    0.26    0.24
   1  10 -12    0.05    0.27
  -1 -10  11    3.96    0.72
   1  10 -11    2.85    0.56
   1  10 -11    3.36    0.58
  -1  10  11    3.31    0.65
  -1 -10  10    1.07    0.46
   1  10 -10    0.49    0.29
   1  10 -10    0.32    0.23
  -1  10  10    1.03    0.38
  -1 -10   9    0.91    0.34
   1  10  -9    0.50    0.28
  -1  10   9    1.39    0.44
   1  10  -9    0.68    0.29
   1  10  -8    0.43    0.25
   1  10  -8    0.24    0.24
  -1 -10   8    0.41    0.25
  -1  10   8    0.01    0.28
   1  10  -7    5.38    0.63
   1  10  -7    5.90    0.71
  -1  10   7    5.80    0.82
  -1 -10   7    5.41    0.79
  -1  10   6    0.03    0.19
   1  10  -6    0.18    0.21
   1  10  -6    0.44    0.22
  -1  10   6    0.33    0.19
  -1 -10   6    0.46    0.29
  -1 -10   5    5.57    0.78
  -1  10   5    6.88    0.87
   1  10  -5    6.89    0.66
   1  10  -5    6.97    0.73
  -1  10   5    5.72    0.59
   1  10  -4    1.14    0.27
   1  10  -4    1.02    0.27
  -1 -10   4    1.50    0.43
  -1  10   4    1.30    0.40
  -1  10   4    1.25    0.30
   1  10  -3    2.36    0.48
   1  10  -3    2.16    0.35
  -1  10   3    2.10    0.38
   1  10  -3    1.93    0.37
   1  10  -2    0.10    0.10
  -1  10   2    0.43    0.20
   1  10  -2    0.40    0.19
   1  10  -2   -0.13    0.23
   1  10  -1    4.74    0.47
   1  10  -1    5.08    0.53
  -1  10   1    5.02    0.56
   1  10  -1    5.12    0.69
   1  10   0    1.40    0.26
   1  10   0    1.81    0.41
  -1  10   0    1.78    0.36
  -1  10  -1    0.06    0.18
  -1  10  -1    0.01    0.12
   1  10   1    0.44    0.26
   1  10   2   -0.13    0.18
  -1  10  -2   -0.25    0.27
   1  10   3   10.85    1.03
   1 -10   3   11.62    1.14
  -1  10  -3   11.01    0.91
   1 -10   4    8.52    0.98
   1  10   4    8.29    0.91
  -1  10  -4    7.00    0.74
   1  10   5    1.89    0.47
  -1  10  -5    1.92    0.43
   1 -10   5    1.92    0.49
  -1  10  -6    0.68    0.31
   1  10   6    0.79    0.31
   1 -10   6    0.86    0.34
   1  10   7    0.77    0.31
  -1  10  -7    0.49    0.31
   1 -10   7    0.54    0.27
  -1  10  -8   -0.01    0.19
   1 -10   8    0.02    0.21
   1  10   8    0.19    0.24
   1  10   9    0.15    0.27
   1 -10   9    0.04    0.25
  -1  10  -9    0.03    0.22
  -1  10 -10    2.27    0.51
   1 -10  10    1.06    0.37
   1  10  10    1.85    0.48
   1  10  11    0.87    0.36
   1 -10  11    1.11    0.41
  -1  10 -11    0.68    0.32
   1  10  12    1.33    0.38
  -1  10 -12    1.39    0.43
   1 -10  12    1.33    0.44
   1  10  13    0.00    0.16
   1 -10  13    0.11    0.28
  -1  10 -13    0.70    0.35
   1 -10  14   -0.26    0.32
   1  10  14    0.01    0.18
  -1  10 -14    0.00    0.24
  -1  10 -15    0.03    0.18
   1 -10  15    0.30    0.37
   1  10  15   -0.02    0.18
  -1  10 -16    0.14    0.21
   1  10  16   -0.28    0.26
   1 -10  16    0.20    0.26
  -1 -11  13    0.15    0.34
   1  11 -13    0.21    0.21
   1  11 -13   -0.29    0.31
  -1 -11  12    0.48    0.36
   1  11 -12    0.02    0.20
  -1  11  12    0.03    0.17
   1  11 -12   -0.22    0.25
   1  11 -11   -0.31    0.22
   1  11 -11    0.22    0.18
  -1  11  11    0.19    0.33
  -1 -11  11    0.10    0.29
  -1 -11  10    1.87    0.51
   1  11 -10    1.92    0.44
  -1  11  10    2.69    0.61
   1  11 -10    1.76    0.47
   1  11  -9    0.52    0.30
   1  11  -9    0.47    0.27
  -1 -11   9    0.68    0.31
  -1  11   9    0.80    0.37
  -1 -11   8    4.05    0.70
   1  11  -8    3.71    0.57
  -1  11   8    4.87    0.78
   1  11  -8    4.49    0.67
  -1 -11   7    0.32    0.29
   1  11  -7   -0.01    0.19
  -1  11   7    0.08    0.24
   1  11  -7    0.30    0.24
   1  11  -6   -0.02    0.16
  -1 -11   6    0.29    0.27
  -1 -11   5    1.17    0.38
  -1  11   5    1.26    0.43
   1  11  -5    1.86    0.40
  -1  11   4    0.48    0.29
   1  11  -4    0.36    0.27
   1  11  -4    0.10    0.13
   1  11  -3    5.50    0.78
  -1  11   3    7.03    0.95
   1  11  -2   -0.09    0.21
   1  11  -1    1.72    0.44
  -1  11   1    2.23    0.39
   1  11   0    0.76    0.27
  -1  11   0    0.69    0.25
   1  11   1    0.62    0.27
  -1  11  -1    0.80    0.29
  -1  11  -2    2.06    0.41
   1  11   2    2.22    0.52
   1  11   3    0.14    0.25
  -1  11  -3    0.05    0.15
   1 -11   4    0.14    0.20
   1  11   4    0.11    0.21
  -1  11  -4    0.40    0.19
  -1  11  -5    0.60    0.26
   1  11   5    0.64    0.31
  -1  11  -6    4.65    0.65
   1  11   6    5.43    0.80
   1 -11   6    4.34    0.77
  -1  11  -7    1.15    0.34
   1 -11   7    1.56    0.47
   1  11   7    1.54    0.45
   1 -11   8    1.83    0.54
   1  11   8    1.43    0.45
  -1  11  -8    0.98    0.38
  -1  11  -9    0.97    0.37
   1  11   9    1.29    0.41
   1 -11   9    1.17    0.44
  -1  11 -10    0.26    0.24
   1  11  10    0.08    0.25
   1 -11  10   -0.11    0.20
   1 -11  11    0.32    0.37
   1  11  11    0.65    0.34
  -1  11 -11    0.03    0.23
  -1  11 -12    1.34    0.44
   1  11  12    0.44    0.27
   1 -11  12    0.87    0.40
   1 -11  13    0.32    0.32
   1  11  13    0.48    0.17
  -1  11 -13    0.50    0.31
   1  12  -9    0.83    0.35
  -1 -12   9    0.36    0.29
  -1  12   9    1.39    0.49
   1  12  -8    0.05    0.16
  -1 -12   8    0.44    0.28
  -1  12   8    0.14    0.32
  -1 -12   7    1.21    0.47
   1  12  -7    0.09    0.16
  -1  12   7    1.42    0.42
  -1  12   6    0.60    0.36
   1  12  -6   -0.47    0.30
   1  12  -5    0.29    0.22
  -1  12   5    0.18    0.34
   1  12  -4    4.09    0.71
  -1  12   4    3.84    0.73
   1  12  -3    1.06    0.37
  -1  12   3    1.30    0.44
   1  12  -2    0.09    0.21
  -1  12   2    0.10    0.18
  -1  12   1   -0.46    0.39
   1  12  -1   -0.09    0.21
   1  12   0    0.92    0.41
   1  12   1   -0.10    0.19
   1  12   2    0.67    0.38
   1  12   3    7.18    0.94
   1  12   4    0.89    0.40
  -1  12  -5    1.06    0.35
   1 -12   5    1.53    0.51
   1  12   5    0.62    0.26
  -1  12  -6    0.46    0.22
   1 -12   6    0.12    0.29
   1  12   6    0.55    0.33
  -1  12  -7    0.39    0.25
   1 -12   7    0.77    0.43
   1  12   7    1.21    0.43
  -1  12  -8   -0.11    0.18
   1 -12   8    0.30    0.32
  -1  12  -9   -0.13    0.20
   1 -12   9    0.18    0.26
   2   0 -26   -0.03    0.34
   2   0 -26    0.33    0.26
   2   0 -25    0.25    0.23
   2   0 -25   -0.01    0.18
   2   0 -25   -0.17    0.25
   2   0 -24    0.03    0.16
   2   0 -24    0.22    0.25
   2   0 -24   -0.04    0.20
   2   0 -23    0.14    0.19
   2   0 -23    0.04    0.19
   2   0 -23    0.35    0.23
   2   0 -22    0.39    0.25
   2   0 -22   -0.04    0.19
   2   0 -22    0.08    0.18
   2   0 -21   -1.16    0.37
   2   0 -21   -0.22    0.18
   2   0 -20    0.58    0.27
   2   0 -20   -0.09    0.20
   2   0 -19   -0.75    0.29
   2   0 -18    0.49    0.23
   2   0 -17    0.04    0.09
   2   0 -17    0.25    0.24
   2   0 -16    1.55    0.26
   2   0 -16    2.68    0.48
   2   0 -15    0.03    0.07
   2   0 -15   -0.02    0.19
   2   0 -14    6.17    0.64
   2   0 -14    5.12    0.42
   2   0 -13    0.06    0.06
   2   0 -13    0.08    0.19
   2   0 -13    0.45    0.25
  -2   0  13    0.02    0.14
   2   0 -12   65.37    1.87
  -2   0  12   60.54    1.73
   2   0 -12   58.31    1.26
   2   0 -12   64.43    1.81
   2   0 -11   -0.21    0.15
  -2   0  11    0.04    0.14
   2   0 -11    0.06    0.07
   2   0 -10   38.95    1.31
   2   0 -10   44.22    1.37
  -2   0  10   43.15    0.75
   2   0 -10   42.72    1.38
  -2   0  10   42.55    1.32
   2   0  -9    0.17    0.13
  -2   0   9    0.06    0.05
  -2   0   9    0.03    0.10
   2   0  -9    0.00    0.09
   2   0  -9   -0.04    0.12
   2   0  -8   22.56    0.89
  -2   0   8   19.73    0.46
   2   0  -8   22.90    0.91
  -2   0   8   21.41    0.88
  -2   0   8   22.74    0.88
  -2   0   7    0.14    0.13
  -2   0   7   -0.03    0.10
   2   0  -7    0.08    0.09
   2   0  -7   -0.16    0.12
  -2   0   7   -0.02    0.06
  -2   0   6  260.25    1.61
   2   0  -6  269.10    2.69
   2   0  -6  254.26    2.65
  -2   0   6  271.10    2.75
  -2   0   6  260.03    2.68
   2   0  -5    0.08    0.09
  -2   0   5   -0.10    0.08
  -2   0   5    0.13    0.08
   2   0  -5    0.00    0.10
  -2   0   5    0.03    0.08
   2   0  -4  281.08    2.52
  -2   0   4  284.93    2.52
  -2   0   4  290.14    2.55
   2   0  -4  293.17    2.51
   2   0  -3    0.08    0.07
   2   0  -3   -0.16    0.12
  -2   0   3   -0.05    0.08
  -2   0   3    0.04    0.08
   2   0  -2   29.82    0.75
  -2   0   2   28.86    0.76
   2   0  -2   28.53    0.74
  -2   0   2   29.82    0.76
  -2   0   1    0.03    0.06
  -2   0   1    0.09    0.08
   2   0  -1    0.10    0.09
   2   0  -1    0.01    0.06
  -2   0   0   76.81    1.19
   2   0   0   77.48    1.20
   2   0   0   77.59    1.20
  -2   0   0   76.00    1.21
   2   0   1    0.08    0.07
  -2   0  -1   -0.03    0.07
   2   0   2   56.03    1.09
  -2   0  -2   55.61    1.09
  -2   0  -3   -0.02    0.09
  -2   0  -3   -0.03    0.09
   2   0   3    0.19    0.11
   2   0   4   20.58    0.68
  -2   0  -4   19.92    0.72
  -2   0  -4   19.50    0.66
  -2   0  -5    0.05    0.08
   2   0   5    0.13    0.09
  -2   0  -5    0.03    0.08
   2   0   6   30.35    0.93
  -2   0  -6   29.68    0.96
  -2   0  -6   30.17    0.91
   2   0   6   28.28    0.55
   2   0   7    0.00    0.03
  -2   0  -7    0.04    0.08
   2   0   7    0.09    0.11
  -2   0  -8    9.74    0.57
   2   0   8   10.25    0.60
  -2   0  -9    0.06    0.14
   2   0   9    0.16    0.13
   2   0  10   58.22    1.58
  -2   0 -10   55.96    1.51
  -2   0 -11    0.27    0.19
  -2   0 -12    0.76    0.20
  -2   0 -13    0.24    0.15
  -2   0 -14   -0.07    0.16
  -2   0 -15   -0.11    0.16
  -2   0 -16    2.06    0.40
  -2   0 -17    0.09    0.15
  -2   0 -18   -0.06    0.18
  -2   0 -19   -0.01    0.15
  -2   0 -20    2.08    0.46
  -2   0 -21   -0.07    0.19
  -2   0 -22    1.84    0.48
  -2   0 -23    0.05    0.27
  -2   0 -24    0.38    0.28
  -2   0 -25    0.05    0.21
   2  -1 -26    0.24    0.28
   2   1 -26    0.18    0.31
   2  -1 -26    0.18    0.23
   2   1 -26   -0.17    0.19
   2   1 -26    0.12    0.21
   2   1 -25    0.54    0.32
   2   1 -25   -0.50    0.30
   2  -1 -25    0.14    0.25
   2   1 -25    0.46    0.28
   2  -1 -25    0.29    0.27
   2  -1 -24    0.20    0.27
   2  -1 -24    0.03    0.19
   2   1 -24    0.40    0.32
   2   1 -24    0.18    0.21
   2   1 -24   -0.11    0.20
   2   1 -23    0.92    0.32
   2   1 -23    0.69    0.34
   2  -1 -23    0.66    0.32
   2  -1 -23    0.45    0.26
   2   1 -22    0.09    0.27
   2  -1 -22    0.04    0.17
   2  -1 -22    0.31    0.24
   2  -1 -21    0.13    0.18
   2  -1 -21    0.44    0.27
   2   1 -21    0.15    0.25
   2  -1 -20    1.56    0.39
   2   1 -20    1.89    0.45
   2  -1 -20    1.30    0.39
   2  -1 -19    0.26    0.25
   2  -1 -19   -0.16    0.19
   2   1 -19    0.18    0.24
   2   1 -18    0.42    0.25
   2  -1 -18    0.21    0.17
   2  -1 -18    0.56    0.22
   2  -1 -17    0.31    0.22
   2  -1 -17    0.34    0.21
   2   1 -17    0.32    0.13
   2   1 -17    0.24    0.21
   2  -1 -16    8.16    0.74
   2   1 -16    7.50    0.77
   2  -1 -16    7.49    0.68
  -2   1  15    0.90    0.18
   2  -1 -15    1.13    0.29
   2   1 -15    0.51    0.29
   2   1 -15    0.83    0.18
   2  -1 -15    0.32    0.18
  -2  -1  14    0.47    0.15
   2   1 -14    0.22    0.20
   2  -1 -14    0.03    0.17
   2   1 -14    0.59    0.14
  -2   1  14    0.51    0.14
   2   1 -13    1.54    0.19
   2  -1 -13    1.70    0.30
  -2   1  13    2.06    0.32
  -2   1  13    2.37    0.24
   2   1 -13    2.16    0.37
  -2  -1  13    1.87    0.34
   2   1 -12    2.90    0.25
   2   1 -12    3.08    0.44
  -2   1  12    3.33    0.28
   2  -1 -12    2.39    0.35
  -2  -1  12    3.18    0.44
   2  -1 -12    2.51    0.36
  -2   1  12    2.59    0.34
   2  -1 -11   49.29    1.41
   2   1 -11   51.99    1.62
   2   1 -11   47.02    1.53
  -2  -1  11   47.24    1.57
  -2   1  11   48.81    1.40
  -2   1  11   48.52    1.04
   2  -1 -11   47.33    1.38
   2   1 -10    2.33    0.37
  -2   1  10    2.66    0.35
  -2  -1  10    2.38    0.37
   2  -1 -10    2.63    0.33
   2  -1 -10    2.33    0.31
   2   1 -10    1.95    0.37
  -2   1  10    1.73    0.22
   2   1 -10    1.56    0.16
  -2   1   9    4.86    0.42
   2  -1  -9    4.81    0.41
  -2  -1   9    4.60    0.48
   2   1  -9    5.01    0.47
   2   1  -9    4.98    0.48
   2   1  -9    4.95    0.24
   2  -1  -9    4.87    0.40
  -2   1   9    5.98    0.36
   2   1  -9    5.38    0.48
   2   1  -8    3.17    0.37
   2  -1  -8    2.42    0.28
   2  -1  -8    2.59    0.28
  -2   1   8    2.90    0.31
  -2  -1   8    2.26    0.31
  -2  -1   8    2.89    0.32
   2   1  -8    3.08    0.36
   2   1  -8    2.15    0.30
  -2   1   8    3.34    0.34
  -2   1   8    2.90    0.26
  -2   1   7    1.30    0.21
   2   1  -7    1.31    0.26
  -2  -1   7    2.01    0.27
   2  -1  -7    1.16    0.19
   2  -1  -7    1.38    0.21
   2   1  -7    1.07    0.24
   2   1  -7    0.87    0.20
  -2   1   7    1.68    0.24
  -2  -1   7    1.25    0.22
  -2   1   7    1.29    0.18
  -2   1   6   30.11    0.87
   2   1  -6   29.94    0.96
  -2  -1   6   32.65    0.95
   2  -1  -6   29.26    0.83
  -2   1   6   30.44    0.84
   2   1  -6   31.25    1.03
   2  -1  -6   31.02    0.84
  -2  -1   6   30.87    1.00
   2   1  -6   30.52    1.02
   2   1  -5   14.09    0.66
   2  -1  -5   13.68    0.53
  -2  -1   5   13.40    0.65
  -2   1   5   14.21    0.55
  -2  -1   5   13.30    0.63
  -2  -1   5   14.41    0.60
  -2   1   5   13.58    0.54
   2   1  -5   12.65    0.58
   2   1  -5   13.14    0.64
   2  -1  -5   13.22    0.52
  -2   1   4    1.82    0.19
   2  -1  -4    1.83    0.20
  -2  -1   4    1.86    0.21
   2  -1  -4    1.99    0.20
  -2  -1   4    1.99    0.24
   2   1  -4    1.82    0.25
  -2   1   4    1.92    0.20
   2   1  -4    1.63    0.22
  -2  -1   4    1.42    0.21
   2   1  -3    2.83    0.26
  -2  -1   3    3.08    0.25
  -2   1   3    3.02    0.24
  -2   1   3    2.83    0.23
   2  -1  -3    3.09    0.23
  -2  -1   3    2.82    0.27
  -2  -1   3    2.95    0.16
   2  -1  -3    3.15    0.24
  -2  -1   3    2.70    0.26
   2   1  -3    2.90    0.27
   2  -1  -2    2.40    0.21
  -2   1   2    2.35    0.20
   2   1  -2    2.15    0.12
  -2   1   2    2.27    0.17
   2  -1  -2    2.38    0.21
  -2  -1   2    2.33    0.24
  -2  -1   2    2.34    0.23
  -2  -1   2    2.49    0.14
  -2   1   2    2.36    0.21
   2   1  -2    2.18    0.23
  -2  -1   2    2.14    0.13
   2   1  -2    2.29    0.23
   2  -1  -1   31.21    0.60
   2   1  -1   32.98    0.83
  -2   1   1   32.39    0.76
  -2  -1   1   33.53    0.54
  -2   1   1   31.15    0.60
  -2  -1   1   32.18    0.81
   2   1  -1   32.27    0.81
  -2   1   1   32.57    0.76
   2  -1  -1   33.76    0.75
  -2  -1   1   32.35    0.83
  -2  -1   0  983.95    4.41
   2  -1   0  980.20    3.41
  -2   1   0  976.62    4.27
  -2  -1   0  952.28    3.19
   2   1   0  964.25    4.39
  -2  -1   0  975.20    4.45
   2  -1   0  982.22    4.24
  -2   1   0  972.15    3.13
   2   1   0 1000.00    4.45
  -2  -1  -1  491.42    3.18
  -2  -1  -1  486.76    3.11
   2  -1   1  493.69    3.16
   2   1   1  484.93    3.16
  -2   1  -1  491.42    3.17
  -2  -1  -1  497.18    2.51
   2   1   1  500.23    3.15
   2  -1   1  504.00    2.48
  -2  -1  -2   47.84    1.02
  -2   1  -2   48.55    1.05
   2  -1   2   49.00    1.06
   2   1   2   48.89    1.00
   2  -1   2   51.11    0.82
  -2  -1  -2   48.27    1.00
  -2  -1  -2   53.03    0.89
  -2  -1  -3    0.69    0.14
  -2  -1  -3    1.29    0.17
   2   1   3    0.57    0.15
  -2  -1  -3    0.57    0.10
  -2   1  -3    0.57    0.15
  -2   1  -3    0.88    0.19
   2   1   4    0.99    0.17
  -2   1  -4    0.83    0.18
   2   1   4    0.96    0.14
  -2  -1  -4    0.96    0.16
  -2  -1  -4    1.01    0.14
  -2   1  -4    1.11    0.19
  -2  -1  -4    0.94    0.16
   2  -1   4    1.32    0.21
   2  -1   5    8.07    0.49
   2   1   5    7.38    0.38
  -2   1  -5    7.75    0.49
  -2  -1  -5    8.59    0.44
   2   1   5    7.48    0.45
  -2  -1  -5    8.04    0.47
  -2  -1  -5    6.78    0.37
  -2  -1  -6    1.70    0.23
  -2  -1  -6    1.45    0.20
  -2   1  -6    1.71    0.25
   2  -1   6    1.72    0.26
  -2  -1  -6    1.51    0.19
   2   1   6    1.67    0.21
  -2  -1  -7    0.94    0.17
  -2  -1  -7    0.56    0.14
   2   1   7    0.64    0.15
   2  -1   7    0.57    0.16
  -2  -1  -7    0.70    0.16
  -2   1  -7    0.49    0.13
   2  -1   8    1.06    0.24
  -2   1  -8    0.85    0.21
  -2  -1  -8    0.87    0.17
  -2  -1  -8    1.34    0.21
   2   1   8    0.91    0.19
  -2  -1  -8    0.83    0.18
   2   1   8    0.96    0.15
  -2   1  -9    0.15    0.10
   2   1   9    0.21    0.13
   2   1   9    0.27    0.11
  -2  -1  -9    0.22    0.12
  -2  -1  -9    0.19    0.14
  -2  -1 -10    3.92    0.39
   2   1  10    3.83    0.31
   2   1  10    4.00    0.40
  -2   1 -10    4.05    0.44
   2   1  11    3.04    0.29
  -2  -1 -11    3.18    0.37
  -2   1 -11    2.94    0.41
   2   1  11    3.19    0.39
  -2  -1 -12    0.37    0.16
  -2   1 -12    0.40    0.12
  -2  -1 -13    1.50    0.29
  -2   1 -13    1.80    0.35
  -2   1 -14    0.04    0.17
  -2  -1 -14   -0.12    0.15
  -2  -1 -15   11.40    0.82
  -2   1 -15   10.83    0.89
  -2  -1 -16    0.74    0.27
  -2   1 -16    0.60    0.25
  -2   1 -17    0.27    0.21
  -2  -1 -17    0.25    0.17
  -2   1 -18    0.92    0.32
  -2  -1 -18    0.85    0.27
  -2   1 -19    1.12    0.36
  -2  -1 -19    1.46    0.40
  -2  -1 -20    1.86    0.42
  -2   1 -20    0.93    0.35
  -2  -1 -21    0.23    0.25
  -2   1 -21    0.02    0.18
  -2  -1 -22    1.64    0.43
  -2   1 -22    1.44    0.48
  -2  -1 -23    0.98    0.39
  -2   1 -23    0.81    0.36
  -2  -1 -24    0.88    0.39
  -2   1 -24    0.92    0.41
  -2  -1 -25    0.76    0.35
  -2   1 -25    0.07    0.20
   2  -2 -26   -0.39    0.29
   2   2 -26   -0.15    0.24
   2   2 -26    0.47    0.29
   2   2 -25    0.21    0.21
   2   2 -25   -0.26    0.27
   2   2 -25   -0.10    0.22
   2  -2 -25   -0.04    0.24
   2   2 -24   -0.05    0.19
   2  -2 -24    0.11    0.17
   2   2 -24   -0.15    0.22
   2  -2 -24   -0.21    0.26
   2  -2 -23    0.38    0.29
   2  -2 -23   -0.03    0.15
   2   2 -23   -0.15    0.24
   2  -2 -22    0.53    0.28
   2   2 -22    1.25    0.45
   2  -2 -22    0.79    0.35
   2  -2 -21    1.32    0.39
   2  -2 -21    2.58    0.54
   2   2 -21    1.91    0.52
   2  -2 -20    0.48    0.25
   2  -2 -20    0.64    0.27
   2   2 -20    0.70    0.33
   2  -2 -19    0.31    0.26
   2  -2 -19    0.13    0.15
   2   2 -19    0.82    0.34
   2  -2 -18    0.17    0.24
   2   2 -18    0.05    0.20
  -2   2  18    0.51    0.19
   2  -2 -18    0.17    0.20
   2  -2 -17   13.74    1.01
   2  -2 -17   13.79    0.94
  -2   2  17   15.90    0.75
   2   2 -17   16.05    1.18
   2  -2 -16    1.62    0.36
   2   2 -16    2.24    0.25
   2   2 -16    2.82    0.54
  -2   2  16    2.60    0.32
   2  -2 -16    3.14    0.49
   2  -2 -15   15.24    0.91
   2  -2 -15   12.47    0.93
  -2   2  15   13.71    0.69
   2   2 -15   13.26    1.04
   2  -2 -14    4.44    0.56
  -2  -2  14    4.29    0.63
   2  -2 -14    4.85    0.50
   2   2 -14    3.88    0.55
   2   2 -14    3.22    0.26
  -2   2  14    4.24    0.38
  -2   2  13    0.84    0.18
   2  -2 -13    0.84    0.21
  -2  -2  13    0.92    0.30
   2   2 -13    0.61    0.11
   2   2 -13    0.75    0.22
   2  -2 -13    0.86    0.22
   2  -2 -12    0.01    0.13
  -2   2  12   -0.23    0.14
   2  -2 -12   -0.05    0.08
  -2  -2  12   -0.42    0.20
  -2   2  12   -0.10    0.13
   2   2 -12   -0.04    0.15
   2   2 -12    0.04    0.04
   2  -2 -12   -0.12    0.12
   2   2 -11    7.29    0.29
   2  -2 -11    9.17    0.67
   2  -2 -11    9.06    0.56
   2   2 -11    9.53    0.72
  -2   2  11    9.25    0.59
  -2  -2  11   10.96    0.80
  -2   2  11    9.27    0.55
   2  -2 -11    8.94    0.57
  -2   2  10    0.09    0.11
  -2   2  10    0.14    0.11
   2   2 -10    0.32    0.22
  -2  -2  10    0.02    0.14
   2   2 -10    0.06    0.04
   2  -2 -10    0.73    0.27
   2   2 -10    0.50    0.27
   2  -2 -10    0.18    0.09
   2  -2 -10   -0.14    0.12
   2  -2  -9   89.89    1.90
   2  -2  -9   86.92    1.54
  -2  -2   9   86.33    2.05
  -2   2   9   89.57    1.71
   2   2  -9   88.00    1.98
  -2   2   9   86.34    1.57
   2  -2  -9   87.00    1.53
   2   2  -9   82.87    2.03
  -2   2   8   31.73    1.06
  -2  -2   8   30.45    1.17
  -2   2   8   30.89    0.97
   2   2  -8   28.73    1.14
   2   2  -8   30.57    1.09
   2   2  -8   30.77    1.20
  -2  -2   8   31.75    1.08
   2  -2  -8   30.03    0.84
   2  -2  -8   33.16    1.12
   2  -2  -8   29.32    0.83
  -2   2   8   28.70    0.86
   2   2  -7    3.66    0.39
  -2  -2   7    3.34    0.39
   2   2  -7    3.42    0.40
  -2   2   7    3.35    0.32
  -2  -2   7    3.17    0.34
   2  -2  -7    4.30    0.31
  -2  -2   7    3.51    0.29
   2   2  -7    3.24    0.40
   2  -2  -7    3.49    0.37
  -2   2   7    3.80    0.30
   2  -2  -7    4.11    0.30
   2  -2  -6    3.86    0.37
  -2  -2   6    3.33    0.36
   2   2  -6    3.66    0.38
   2  -2  -6    3.80    0.27
  -2  -2   6    3.37    0.33
  -2   2   6    3.54    0.26
   2  -2  -6    3.77    0.26
  -2   2   6    3.51    0.27
  -2  -2   6    3.81    0.28
   2   2  -6    2.90    0.36
   2   2  -6    3.61    0.34
   2   2  -5    0.09    0.09
  -2  -2   5    0.19    0.08
  -2  -2   5    0.17    0.15
   2  -2  -5    0.38    0.10
   2  -2  -5    0.33    0.08
  -2   2   5    0.26    0.08
   2   2  -5    0.47    0.16
   2  -2  -5    0.49    0.16
   2   2  -5    0.23    0.12
  -2   2   5    0.17    0.07
  -2  -2   5    0.20    0.08
  -2   2   4    2.57    0.21
   2   2  -4    1.89    0.12
  -2  -2   4    2.69    0.29
   2   2  -4    2.38    0.30
   2   2  -4    2.07    0.28
  -2  -2   4    2.42    0.23
   2  -2  -4    2.33    0.20
   2  -2  -4    2.15    0.20
  -2  -2   4    2.75    0.31
  -2  -2   4    2.09    0.20
   2  -2  -4    2.00    0.26
  -2   2   4    2.37    0.20
   2   2  -4    2.11    0.24
  -2   2   3   26.93    0.65
   2   2  -3   27.27    0.48
   2   2  -3   28.01    0.88
  -2  -2   3   26.59    0.69
   2  -2  -3   27.81    0.65
   2  -2  -3   27.61    0.83
  -2  -2   3   27.14    0.69
   2   2  -3   28.35    0.90
   2   2  -3   26.99    0.64
  -2  -2   3   26.47    0.87
   2   2  -3   25.67    0.70
  -2   2   3   27.26    0.66
  -2  -2   3   27.71    0.90
   2  -2  -2   20.65    0.58
  -2  -2   2   19.59    0.73
  -2  -2   2   18.70    0.53
   2   2  -2   18.88    0.45
  -2  -2   2   19.05    0.58
   2   2  -2   18.49    0.55
  -2   2   2   19.68    0.58
  -2   2   2   20.46    0.66
   2  -2  -2   19.90    0.68
  -2  -2   2   19.00    0.51
  -2  -2   2   19.78    0.72
   2   2  -2   19.91    0.71
  -2   2   2   19.95    0.57
   2   2  -2   19.93    0.71
   2  -2  -1   12.59    0.51
  -2  -2   1   11.67    0.37
  -2  -2   1   11.89    0.43
   2   2  -1   12.18    0.38
  -2   2   1   11.96    0.46
  -2  -2   1   11.03    0.52
  -2  -2   1   11.10    0.51
   2   2  -1   11.72    0.46
   2  -2  -1   11.41    0.46
   2   2  -1   11.82    0.52
   2  -2  -1   12.18    0.51
   2   2  -1   11.51    0.53
  -2   2   1   11.93    0.50
  -2  -2   0    1.38    0.19
   2   2   0    1.84    0.18
   2   2   0    1.32    0.17
  -2  -2   0    1.75    0.19
   2   2   0    1.70    0.21
  -2  -2   0    1.33    0.12
   2  -2   0    1.51    0.18
   2  -2   0    1.17    0.17
  -2   2   0    1.43    0.19
   2  -2   0    1.62    0.20
  -2   2   0    1.40    0.17
  -2  -2   0    1.23    0.18
   2   2   0    1.70    0.18
   2  -2   1  411.62    2.56
  -2  -2  -1  415.41    3.00
   2  -2   1  415.47    3.01
   2   2   1  407.49    2.94
  -2   2  -1  416.14    3.01
  -2  -2  -1  403.68    2.98
  -2  -2  -1  405.21    2.74
  -2   2  -1  408.71    2.80
   2   2   1  412.33    2.98
   2   2   1  394.12    2.48
  -2  -2  -2  461.70    3.15
  -2  -2  -2  462.37    3.08
   2   2   2  453.40    3.16
   2   2   2  465.07    3.17
   2   2   2  468.30    2.85
   2  -2   2  474.53    3.22
  -2   2  -2  462.54    3.38
  -2  -2  -2  456.66    3.16
  -2   2  -2  462.72    3.68
  -2   2  -2  469.75    2.94
   2   2   3    0.33    0.11
  -2   2  -3    1.16    0.13
  -2  -2  -3    0.46    0.14
   2  -2   3    0.93    0.16
  -2  -2  -3    0.58    0.15
  -2   2  -3    0.38    0.17
  -2  -2  -3    0.49    0.07
   2   2   3    0.84    0.17
  -2  -2  -3    0.76    0.16
  -2  -2  -4  102.54    1.55
   2  -2   4  111.44    1.92
  -2   2  -4  109.90    1.92
   2   2   4  103.57    1.48
  -2  -2  -4  106.60    1.61
   2   2   4  107.80    1.59
  -2  -2  -4  108.77    1.07
  -2  -2  -4  103.26    1.61
   2  -2   4  101.67    1.56
   2  -2   5   27.70    0.85
  -2  -2  -5   28.90    0.63
   2   2   5   29.43    0.65
   2   2   5   29.17    0.83
  -2   2  -5   28.68    1.02
  -2  -2  -5   28.91    0.89
   2   2   5   28.74    0.85
  -2  -2  -5   29.00    0.86
   2  -2   5   31.15    1.06
  -2  -2  -6    3.35    0.32
  -2  -2  -6    3.46    0.25
   2   2   6    3.64    0.32
   2  -2   6    3.69    0.39
  -2  -2  -6    3.33    0.30
  -2   2  -6    3.13    0.36
   2   2   6    3.59    0.26
  -2  -2  -7   11.35    0.62
  -2  -2  -7   11.82    0.50
   2   2   7   11.11    0.56
   2  -2   7   11.51    0.72
  -2  -2  -7   11.50    0.59
  -2   2  -7   11.25    0.69
   2   2   7   11.55    0.51
  -2  -2  -8    5.14    0.41
  -2   2  -8    4.73    0.48
  -2  -2  -8    4.94    0.35
   2   2   8    4.74    0.36
   2   2   9    9.43    0.56
  -2   2  -9    8.92    0.66
  -2  -2  -9    9.68    0.54
  -2  -2  -9   10.33    0.60
   2   2   9    9.65    0.54
  -2   2 -10    3.74    0.45
   2   2  10    3.77    0.37
  -2   2 -10    2.91    0.16
  -2  -2 -10    3.40    0.35
  -2  -2 -10    2.95    0.35
   2   2  10    3.11    0.34
   2   2  11    1.18    0.21
  -2  -2 -11    1.36    0.26
   2   2  11    1.59    0.26
  -2   2 -11    1.73    0.34
  -2  -2 -11    1.34    0.24
  -2   2 -11    0.96    0.11
   2   2  12    2.03    0.27
  -2   2 -12    2.24    0.38
  -2   2 -12    1.66    0.16
  -2  -2 -12    2.37    0.32
   2   2  12    2.14    0.33
  -2   2 -13    2.06    0.40
  -2  -2 -13    2.03    0.32
  -2   2 -13    2.06    0.19
   2   2  13    2.13    0.28
  -2   2 -14    1.30    0.16
  -2  -2 -14    0.88    0.23
  -2   2 -14    0.76    0.26
  -2  -2 -15    0.87    0.27
  -2   2 -15    0.58    0.25
  -2   2 -15    0.51    0.13
  -2  -2 -16    0.67    0.25
  -2   2 -16    0.71    0.31
  -2   2 -16    0.38    0.12
  -2   2 -17    1.25    0.37
  -2  -2 -17    1.45    0.34
  -2   2 -17    1.06    0.19
  -2   2 -18    3.51    0.58
  -2   2 -18    2.93    0.31
  -2  -2 -18    3.70    0.52
  -2   2 -19    0.97    0.36
  -2  -2 -19    0.53    0.24
  -2   2 -20    0.30    0.27
  -2  -2 -20    0.26    0.22
  -2   2 -21   -0.02    0.18
  -2  -2 -21    0.07    0.25
  -2  -2 -22    0.15    0.20
  -2   2 -22    0.14    0.21
  -2  -2 -23    0.79    0.35
  -2   2 -23    0.84    0.38
  -2   2 -24   -0.09    0.22
  -2  -2 -24    0.18    0.25
  -2  -2 -25    0.07    0.18
  -2   2 -25    0.24    0.35
   2   3 -25   -0.06    0.27
   2  -3 -25    0.00    0.20
   2   3 -25   -0.20    0.25
   2   3 -24    0.04    0.18
   2  -3 -24    0.03    0.26
   2   3 -23    0.28    0.28
   2  -3 -23    0.15    0.29
   2   3 -22    0.11    0.29
   2  -3 -22    0.37    0.21
   2  -3 -22    0.39    0.27
   2  -3 -21   -0.36    0.22
   2   3 -21   -0.20    0.25
   2  -3 -21   -0.18    0.20
   2  -3 -20   -0.01    0.13
   2  -3 -20   -0.11    0.28
   2   3 -20    0.12    0.23
  -2   3  20    0.27    0.15
   2   3 -19    0.03    0.17
   2  -3 -19    0.38    0.22
  -2   3  19    0.29    0.15
   2  -3 -19    0.05    0.20
   2   3 -18    6.58    0.86
   2  -3 -18    7.49    0.67
   2  -3 -18    9.40    0.89
  -2   3  18    8.45    0.62
   2  -3 -17    0.81    0.26
   2   3 -17    0.80    0.35
   2  -3 -17    0.64    0.30
  -2   3  17    1.23    0.26
   2   3 -16    7.49    0.79
  -2   3  16    7.45    0.56
   2   3 -16    5.77    0.35
   2  -3 -16    8.23    0.80
   2  -3 -16    7.61    0.62
   2  -3 -15    0.98    0.22
  -2   3  15    0.40    0.16
   2  -3 -15    0.81    0.21
   2  -3 -15    0.70    0.30
   2   3 -15    0.67    0.12
   2   3 -15    0.97    0.38
   2   3 -14    1.08    0.13
   2  -3 -14    0.91    0.22
  -2  -3  14    1.47    0.38
   2  -3 -14    0.77    0.21
  -2   3  14    0.36    0.15
   2  -3 -14    1.13    0.28
   2   3 -14    1.58    0.35
  -2  -3  13   -0.13    0.20
   2  -3 -13    0.09    0.11
  -2   3  13   -0.11    0.16
   2  -3 -13   -0.07    0.14
   2  -3 -13    0.16    0.10
   2   3 -13    0.26    0.08
   2   3 -13    0.44    0.24
  -2  -3  12    2.74    0.46
   2  -3 -12    2.84    0.31
  -2  -3  12    3.02    0.40
  -2   3  12    3.93    0.42
   2  -3 -12    3.50    0.48
   2  -3 -12    3.40    0.34
   2   3 -12    3.03    0.50
   2  -3 -11    7.39    0.66
   2  -3 -11    5.96    0.41
  -2  -3  11    5.26    0.59
   2   3 -11    6.37    0.61
  -2   3  11    6.23    0.44
  -2   3  11    6.88    0.54
   2  -3 -11    6.01    0.42
  -2  -3  11    6.41    0.52
   2  -3 -10   10.26    0.50
  -2   3  10    9.74    0.68
  -2  -3  10   10.07    0.78
   2   3 -10    9.85    0.78
  -2   3  10   10.24    0.53
   2  -3 -10    9.92    0.49
   2   3 -10    9.94    0.73
  -2  -3  10    9.86    0.61
   2  -3 -10   10.67    0.76
   2  -3  -9    2.43    0.23
  -2  -3   9    2.50    0.40
   2  -3  -9    2.04    0.36
  -2   3   9    2.26    0.31
  -2   3   9    2.51    0.25
   2   3  -9    1.57    0.31
   2  -3  -9    2.47    0.24
   2   3  -9    2.28    0.37
  -2  -3   9    1.92    0.27
   2  -3  -8    6.50    0.56
  -2   3   8    5.64    0.34
  -2   3   8    5.99    0.49
  -2  -3   8    5.30    0.52
   2  -3  -8    5.77    0.32
   2   3  -8    5.15    0.53
  -2  -3   8    6.34    0.46
   2  -3  -8    5.18    0.30
   2   3  -8    5.71    0.51
   2   3  -7   64.05    1.78
  -2  -3   7   67.55    1.54
  -2  -3   7   65.98    1.76
   2  -3  -7   67.27    1.69
   2   3  -7   64.81    1.56
  -2   3   7   64.21    1.06
  -2  -3   7   62.14    1.39
   2  -3  -7   66.73    1.02
   2  -3  -7   67.36    1.04
  -2   3   6    0.36    0.09
   2  -3  -6    0.40    0.08
   2   3  -6    0.48    0.18
   2   3  -6    0.54    0.16
   2   3  -6    0.55    0.19
  -2   3   6    0.40    0.08
  -2  -3   6    0.44    0.11
   2  -3  -6    0.43    0.17
  -2  -3   6    0.38    0.16
  -2  -3   6    0.15    0.13
   2  -3  -6    0.47    0.09
   2  -3  -5   13.47    0.72
  -2   3   5   11.83    0.41
   2   3  -5   12.55    0.70
   2   3  -5   12.56    0.60
  -2  -3   5   11.80    0.58
   2   3  -5   12.40    0.43
   2   3  -5   13.11    0.56
   2   3  -5   12.83    0.71
   2  -3  -5   12.53    0.41
  -2   3   5   12.18    0.42
  -2  -3   5   11.72    0.67
  -2  -3   5   13.39    0.62
  -2   3   4   13.20    0.64
  -2  -3   4   12.32    0.55
   2   3  -4   13.05    0.56
   2  -3  -4   12.51    0.67
  -2  -3   4   12.87    0.60
   2  -3  -4   13.24    0.43
   2   3  -4   12.63    0.68
  -2   3   4   13.05    0.44
   2   3  -4   13.25    0.46
   2   3  -4   12.82    0.68
  -2   3   4   12.94    0.43
   2   3  -4   13.09    0.57
  -2  -3   4   13.33    0.69
   2  -3  -3    2.42    0.29
  -2   3   3    2.04    0.18
  -2  -3   3    1.80    0.27
  -2  -3   3    2.15    0.21
   2   3  -3    2.17    0.28
   2  -3  -3    2.00    0.17
   2   3  -3    2.32    0.20
  -2   3   3    1.83    0.17
   2   3  -3    2.10    0.23
  -2  -3   3    2.02    0.24
  -2   3   3    2.19    0.26
   2   3  -3    2.08    0.26
   2   3  -3    1.87    0.20
  -2  -3   3    1.65    0.25
  -2   3   3    2.09    0.27
  -2  -3   2   24.76    0.82
  -2  -3   2   25.53    0.89
  -2  -3   2   26.51    0.90
   2   3  -2   24.71    0.80
   2  -3  -2   25.59    0.67
  -2  -3   2   25.54    0.65
   2   3  -2   24.36    0.64
   2  -3  -2   24.68    0.87
   2   3  -2   24.90    0.86
   2   3  -2   24.71    0.86
   2   3  -2   25.60    0.69
  -2   3   2   24.73    0.65
  -2   3   2   26.64    0.84
  -2   3   2   27.24    0.91
  -2   3   1   24.20    0.78
  -2  -3   1   23.55    0.75
  -2  -3   1   26.10    0.85
   2   3  -1   25.70    0.83
   2  -3  -1   23.70    0.86
   2   3  -1   25.65    0.72
   2   3  -1   24.21    0.81
   2   3  -1   24.53    0.55
  -2   3   1   24.38    0.85
  -2  -3   1   26.39    0.88
  -2  -3   1   25.45    0.57
  -2  -3   1   24.43    0.80
   2   3  -1   25.29    0.83
  -2   3   1   25.26    0.69
   2   3   0  122.28    1.81
  -2  -3   0  118.17    1.75
   2   3   0  120.15    1.74
  -2  -3   0  118.31    1.03
  -2  -3   0  118.10    1.75
  -2   3   0  121.96    1.87
   2   3   0  117.69    1.73
   2  -3   0  120.63    1.95
  -2  -3   0  121.66    1.77
  -2   3   0  119.81    1.66
   2   3   0  121.46    1.63
  -2   3   0  117.56    1.59
  -2   3  -1   57.23    1.09
  -2  -3  -1   56.01    1.16
   2   3   1   56.04    1.16
   2   3   1   57.85    1.27
  -2   3  -1   52.92    1.14
  -2  -3  -1   58.35    1.28
  -2  -3  -1   55.19    1.17
   2   3   1   57.03    1.15
  -2   3  -1   58.16    1.28
   2  -3   1   56.26    1.34
   2   3   1   58.79    1.16
  -2  -3  -2    8.27    0.44
  -2  -3  -2    8.72    0.45
  -2   3  -2    9.31    0.42
  -2   3  -2    9.82    0.53
  -2   3  -2    8.13    0.54
   2   3   2    8.35    0.44
   2   3   2    8.68    0.45
   2   3   2    9.50    0.49
  -2  -3  -2    9.86    0.54
   2  -3   2    9.14    0.55
  -2   3  -3   26.27    0.98
   2  -3   3   25.28    0.91
   2   3   3   26.68    0.84
   2   3   3   24.89    0.76
  -2  -3  -3   25.95    0.77
  -2   3  -3   26.34    0.86
  -2  -3  -3   25.50    0.78
  -2   3  -3   25.79    0.67
   2   3   3   24.66    0.76
  -2  -3  -3   26.36    0.91
  -2  -3  -4    8.99    0.55
   2  -3   4    8.28    0.52
  -2   3  -4    7.68    0.47
  -2   3  -4   10.03    0.64
   2   3   4    8.89    0.46
   2   3   4    8.33    0.49
  -2  -3  -4    9.56    0.48
  -2  -3  -4    9.00    0.47
  -2  -3  -5    0.87    0.16
  -2  -3  -5    0.92    0.17
  -2  -3  -5    0.73    0.08
   2   3   5    0.75    0.09
   2   3   5    0.99    0.20
  -2   3  -5    1.07    0.25
   2   3   5    0.95    0.16
   2  -3   5    1.17    0.24
  -2  -3  -5    0.55    0.16
   2  -3   5    0.84    0.20
  -2  -3  -6    2.74    0.28
  -2  -3  -6    2.50    0.17
  -2   3  -6    2.34    0.32
   2   3   6    2.38    0.26
   2   3   6    2.27    0.29
  -2  -3  -6    2.50    0.26
   2   3   6    2.27    0.18
   2  -3   6    2.77    0.33
   2   3   7   16.87    0.75
  -2   3  -7   17.33    0.90
  -2  -3  -7   17.35    0.52
   2  -3   7   17.24    0.81
  -2  -3  -7   17.63    0.71
   2   3   7   17.96    0.56
   2   3   8    0.18    0.13
  -2   3  -8    0.13    0.13
   2   3   8    0.25    0.10
  -2  -3  -8    0.20    0.09
  -2  -3  -8    0.17    0.09
   2  -3   8    0.28    0.16
  -2   3  -9    0.06    0.15
   2  -3   9   -0.12    0.11
  -2  -3  -9    0.08    0.07
  -2  -3  -9    0.24    0.10
   2   3   9    0.03    0.14
   2   3   9    0.03    0.06
  -2  -3 -10    7.67    0.46
   2   3  10    7.20    0.48
   2   3  10    7.15    0.53
  -2  -3 -10    7.36    0.52
  -2   3 -10    7.25    0.67
   2  -3  10    6.39    0.56
   2   3  11    9.18    0.62
  -2  -3 -11    9.14    0.54
  -2  -3 -11    8.65    0.59
  -2   3 -11    8.30    0.73
   2   3  11    8.51    0.55
   2   3  12    8.88    0.59
  -2  -3 -12   10.54    0.62
   2   3  12   10.71    0.69
  -2  -3 -12    9.80    0.64
  -2   3 -12    9.08    0.78
  -2   3 -13    0.24    0.20
  -2  -3 -13    0.28    0.16
  -2  -3 -14    0.28    0.17
  -2   3 -14    0.07    0.18
  -2  -3 -15   13.99    0.84
  -2   3 -15   12.15    0.49
  -2   3 -15   15.58    1.10
  -2   3 -16    1.86    0.44
  -2  -3 -16    1.24    0.32
  -2   3 -16    0.91    0.16
  -2   3 -17    2.73    0.27
  -2  -3 -17    3.26    0.47
  -2   3 -17    3.48    0.58
  -2   3 -18    0.00    0.16
  -2  -3 -18   -0.01    0.14
  -2   3 -19    0.31    0.26
  -2  -3 -19   -0.09    0.12
  -2  -3 -20    6.97    0.76
  -2   3 -20    7.32    0.87
  -2  -3 -21    0.23    0.19
  -2   3 -21    0.17    0.24
  -2  -3 -22    0.26    0.23
  -2   3 -22    0.77    0.36
  -2  -3 -23    0.21    0.21
  -2   3 -23   -0.14    0.19
  -2  -3 -24    0.33    0.27
  -2   3 -24    0.86    0.39
  -2  -3 -25    0.37    0.21
  -2   3 -25    1.23    0.48
   2   4 -25    0.33    0.33
  -2  -4  25    0.18    0.23
   2   4 -25    0.30    0.28
   2   4 -24    0.01    0.26
   2   4 -24    0.20    0.32
   2   4 -23    0.15    0.22
  -2  -4  23    0.45    0.24
  -2   4  22    0.38    0.17
  -2  -4  22    0.16    0.19
  -2   4  21    0.09    0.14
   2   4 -21   -0.17    0.19
  -2  -4  21   -0.04    0.17
  -2   4  20    0.44    0.19
   2   4 -20   -0.04    0.19
   2  -4 -20    0.32    0.27
  -2  -4  20   -0.04    0.15
  -2   4  19    3.54    0.44
   2  -4 -19    2.87    0.56
  -2  -4  19    2.85    0.51
   2   4 -19    3.87    0.65
   2  -4 -19    2.63    0.39
  -2   4  18    1.70    0.32
   2   4 -18    1.98    0.47
  -2  -4  18    1.75    0.40
   2  -4 -18    1.54    0.30
   2  -4 -18    1.50    0.42
  -2  -4  17    0.80    0.31
   2  -4 -17    0.64    0.20
  -2   4  17    0.61    0.17
   2  -4 -17    0.30    0.20
   2   4 -17    0.30    0.20
  -2   4  16    2.35    0.35
   2  -4 -16    2.28    0.44
   2  -4 -16    2.47    0.32
  -2  -4  16    2.91    0.46
   2   4 -16    2.36    0.52
  -2   4  15   -0.33    0.20
   2  -4 -15    0.02    0.10
   2  -4 -15   -0.02    0.09
   2  -4 -15   -0.26    0.29
   2   4 -15    0.15    0.24
  -2  -4  15    0.14    0.18
   2  -4 -14    0.14    0.20
   2   4 -14   -0.01    0.17
   2  -4 -14    0.05    0.09
   2  -4 -14    0.09    0.09
  -2   4  14    0.20    0.16
  -2  -4  14    0.00    0.17
   2  -4 -13    0.34    0.11
  -2   4  13    0.36    0.19
   2  -4 -13   -0.33    0.24
   2  -4 -13    0.36    0.11
  -2  -4  13    0.35    0.25
   2   4 -13    0.45    0.24
  -2  -4  13    0.32    0.15
   2  -4 -12    2.87    0.26
  -2  -4  12    2.92    0.49
  -2   4  12    3.23    0.43
   2   4 -12    2.13    0.43
  -2  -4  12    2.99    0.41
   2  -4 -12    2.39    0.24
   2  -4 -12    3.19    0.49
  -2  -4  11    1.61    0.37
   2  -4 -11    1.35    0.33
   2   4 -11    1.20    0.30
  -2   4  11    1.07    0.25
   2  -4 -11    1.55    0.18
   2  -4 -11    1.67    0.20
  -2  -4  11    1.25    0.29
   2   4 -10    0.06    0.18
   2  -4 -10    0.26    0.07
  -2  -4  10    0.17    0.13
   2  -4 -10    0.33    0.19
   2  -4 -10    0.14    0.06
  -2  -4  10    0.03    0.16
  -2   4  10    0.38    0.17
   2   4 -10    0.00    0.15
   2  -4  -9    2.43    0.39
  -2   4   9    2.52    0.37
   2   4  -9    2.20    0.38
  -2   4   9    2.37    0.20
   2   4  -9    1.99    0.38
  -2  -4   9    2.03    0.40
  -2  -4   9    1.65    0.28
   2  -4  -9    2.48    0.20
   2  -4  -9    2.20    0.18
   2   4  -8    3.88    0.49
  -2  -4   8    3.41    0.39
  -2   4   8    4.00    0.45
   2  -4  -8    3.76    0.22
   2  -4  -8    3.39    0.43
   2   4  -8    3.38    0.40
  -2  -4   8    4.05    0.49
   2  -4  -8    3.96    0.22
  -2   4   8    3.33    0.23
  -2  -4   7    2.63    0.39
  -2  -4   7    3.17    0.38
   2   4  -7    3.29    0.38
   2   4  -7    3.10    0.43
  -2  -4   7    2.94    0.36
   2  -4  -7    3.02    0.19
   2  -4  -7    2.38    0.36
  -2   4   7    2.67    0.19
  -2   4   6   35.20    0.64
  -2  -4   6   36.26    1.20
  -2  -4   6   35.73    1.32
   2  -4  -6   35.41    0.64
  -2   4   6   33.13    0.64
  -2  -4   6   34.63    1.12
   2   4  -6   38.64    1.39
   2   4  -6   35.44    1.07
   2   4  -6   36.54    1.14
   2   4  -5   17.15    0.76
   2   4  -5   17.59    0.90
   2   4  -5   17.74    0.75
  -2   4   5   17.48    0.45
  -2  -4   5   17.13    0.75
   2  -4  -5   17.90    0.47
  -2  -4   5   17.27    0.88
  -2   4   5   16.94    0.45
  -2  -4   5   17.91    0.85
  -2  -4   4    0.20    0.10
  -2   4   4    0.21    0.15
   2   4  -4    0.15    0.10
   2   4  -4    0.07    0.07
   2   4  -4    0.05    0.09
  -2   4   4    0.27    0.08
  -2  -4   4   -0.01    0.11
   2   4  -4    0.11    0.12
   2   4  -4    0.32    0.12
  -2  -4   4    0.19    0.11
  -2   4   4    0.19    0.11
  -2   4   4    0.16    0.05
  -2  -4   3   13.03    0.70
  -2  -4   3   15.14    0.75
  -2   4   3   15.46    0.75
   2   4  -3   14.85    0.72
   2   4  -3   13.80    0.56
   2   4  -3   13.37    0.71
  -2   4   3   13.29    0.46
  -2  -4   3   13.04    0.56
   2   4  -3   13.66    0.60
  -2   4   3   16.51    0.82
   2   4  -3   13.84    0.72
  -2   4   2   27.75    1.05
  -2   4   2   25.29    0.68
  -2  -4   2   25.26    0.94
  -2  -4   2   26.46    0.97
   2   4  -2   26.01    0.70
   2   4  -2   25.75    0.94
  -2  -4   2   26.03    0.98
  -2  -4   2   25.05    0.71
   2   4  -2   26.47    0.95
   2   4  -2   27.08    0.87
   2   4  -2   26.88    0.98
  -2   4   2   26.89    0.97
  -2  -4   1   26.91    0.95
   2   4  -1   27.75    1.00
   2   4  -1   25.68    0.89
   2   4  -1   26.43    0.91
  -2  -4   1   26.24    0.92
   2   4  -1   26.10    0.61
  -2   4   1   27.60    1.05
  -2  -4   1   26.06    0.65
   2  -4  -1   26.55    1.06
  -2   4   1   27.62    0.96
   2   4  -1   27.02    0.89
  -2   4   1   25.92    0.74
   2   4   0   97.82    1.72
   2   4   0   96.87    1.67
   2   4   0   94.78    0.98
  -2  -4   0   94.21    1.69
  -2   4   0   96.45    1.52
   2  -4   0   94.61    1.98
  -2   4   0   98.36    1.76
   2   4   0   97.70    1.67
   2   4   0   97.49    1.89
  -2  -4   0   94.90    1.05
  -2  -4   0   96.68    1.73
  -2   4   0   99.00    1.95
  -2   4  -1    4.00    0.35
  -2  -4  -1    3.84    0.33
  -2  -4  -1    4.41    0.36
   2   4   1    4.59    0.41
   2   4   1    4.21    0.38
  -2   4  -1    4.53    0.41
  -2  -4  -1    4.19    0.41
   2   4   1    3.91    0.32
   2  -4   1    3.40    0.39
   2   4   1    3.92    0.33
   2   4   2    0.47    0.13
   2   4   2    0.53    0.18
  -2   4  -2    0.50    0.13
  -2  -4  -2    0.66    0.14
  -2  -4  -2    0.45    0.15
   2   4   2    0.54    0.16
   2   4   2    0.45    0.12
  -2   4  -2    0.30    0.14
   2  -4   2    0.51    0.20
  -2  -4  -2    0.67    0.16
   2   4   3   20.39    0.83
  -2  -4  -3   20.53    0.72
  -2  -4  -3   21.44    0.74
  -2   4  -3   21.61    0.96
   2   4   3   21.33    0.74
   2  -4   3   20.60    0.94
  -2   4  -3   19.72    0.85
  -2  -4  -3   19.91    0.91
   2   4   3   20.71    0.73
  -2   4  -4   69.00    1.76
  -2  -4  -4   68.75    1.30
   2  -4   4   73.45    1.78
   2   4   4   71.66    1.59
   2   4   4   69.32    1.33
  -2  -4  -4   68.11    1.31
   2  -4   5  109.87    2.22
  -2   4  -5  113.63    2.32
  -2  -4  -5  110.94    1.68
   2   4   5  112.76    2.06
   2   4   5  112.82    1.70
  -2  -4  -5  112.50    1.69
  -2  -4  -6    6.94    0.43
  -2   4  -6    6.53    0.57
   2  -4   6    5.97    0.53
   2   4   6    6.08    0.49
   2   4   6    6.73    0.43
   2   4   6    5.86    0.23
  -2  -4  -6    6.48    0.41
  -2  -4  -7    3.56    0.31
  -2   4  -7    3.21    0.43
   2   4   7    3.79    0.40
  -2  -4  -7    3.79    0.32
   2  -4   7    4.97    0.52
   2   4   7    3.62    0.22
   2   4   7    3.40    0.32
   2  -4   8    6.69    0.59
  -2  -4  -8    5.49    0.41
   2   4   8    5.18    0.30
   2   4   8    5.41    0.49
  -2   4  -8    5.07    0.56
  -2  -4  -8    5.62    0.41
  -2  -4  -9   10.45    0.58
   2  -4   9    9.13    0.70
   2   4   9    9.38    0.64
   2   4   9   10.10    0.47
  -2   4  -9   10.50    0.80
  -2  -4  -9   10.74    0.59
   2   4  10    0.40    0.12
  -2   4 -10    0.49    0.21
  -2  -4 -10    0.54    0.14
   2   4  10    0.48    0.19
   2  -4  10    0.44    0.21
  -2  -4 -10    0.44    0.15
  -2   4 -11    0.73    0.25
   2   4  11    1.15    0.20
   2   4  11    1.15    0.26
  -2  -4 -11    0.90    0.20
  -2  -4 -11    0.93    0.17
   2  -4  11    1.33    0.33
  -2  -4 -12    0.17    0.09
   2  -4  12    0.15    0.17
  -2  -4 -12    0.10    0.09
   2   4  12   -0.09    0.08
  -2   4 -12   -0.11    0.19
  -2   4 -13    2.77    0.47
  -2  -4 -13    2.71    0.34
   2   4  13    2.55    0.32
   2  -4  13    3.33    0.50
   2   4  13    3.62    0.46
  -2  -4 -13    3.15    0.35
   2  -4  14    5.33    0.64
  -2  -4 -14    7.59    0.57
   2   4  14    7.09    0.63
  -2   4 -14    7.23    0.79
  -2   4 -15    3.62    0.60
  -2  -4 -15    3.40    0.41
   2  -4  15    2.76    0.51
  -2  -4 -16   -0.07    0.11
  -2   4 -16   -0.31    0.25
   2  -4  17    0.53    0.29
  -2   4 -17    0.05    0.20
  -2  -4 -17    0.09    0.11
   2  -4  18    0.80    0.34
  -2  -4 -18    0.16    0.16
  -2   4 -18    0.28    0.25
   2  -4  19    0.78    0.33
  -2  -4 -19    0.19    0.18
  -2   4 -19    0.21    0.20
  -2  -4 -20    0.32    0.20
   2  -4  20    0.30    0.25
  -2   4 -20    0.95    0.41
   2  -4  21    0.87    0.38
  -2  -4 -21    0.94    0.30
  -2   4 -21    0.97    0.41
  -2   4 -22    0.20    0.31
   2  -4  22    0.32    0.28
  -2  -4 -22    0.15    0.18
   2  -4  23    0.87    0.39
  -2   4 -23    0.46    0.33
   2  -4  24    0.53    0.31
  -2   4 -24    1.29    0.48
   2   5 -24    0.42    0.27
   2   5 -24    0.04    0.26
  -2  -5  24    0.12    0.20
  -2   5  24    0.69    0.25
   2   5 -23   -0.03    0.20
  -2   5  23    0.05    0.17
   2   5 -23   -0.37    0.30
  -2   5  22    0.35    0.18
   2   5 -22    0.79    0.38
  -2  -5  22    0.43    0.25
   2   5 -21    2.29    0.56
  -2   5  21    1.25    0.30
  -2  -5  21    1.41    0.43
  -2   5  20    0.69    0.25
   2   5 -20    1.68    0.44
  -2  -5  20    0.95    0.36
  -2  -5  19    0.33    0.27
  -2   5  19   -0.06    0.15
  -2  -5  18    0.67    0.27
   2   5 -18    0.66    0.32
  -2   5  18    0.42    0.20
  -2   5  17    1.80    0.36
  -2  -5  17    1.41    0.38
   2   5 -17    1.78    0.47
  -2  -5  16    0.17    0.19
   2  -5 -16    0.30    0.11
  -2   5  16   -0.22    0.17
   2   5 -16    0.43    0.23
  -2  -5  15   -0.16    0.21
  -2   5  15    0.71    0.25
   2   5 -15    0.47    0.28
   2  -5 -15    0.14    0.08
   2  -5 -14    0.86    0.14
   2   5 -14    0.69    0.33
  -2   5  14    1.15    0.32
  -2  -5  14    0.57    0.24
   2  -5 -13    0.47    0.10
  -2  -5  13    0.31    0.21
   2   5 -13    0.41    0.23
  -2  -5  13    0.26    0.14
  -2   5  13    0.63    0.24
   2  -5 -13    0.45    0.09
   2   5 -12    8.12    0.74
  -2  -5  12    6.65    0.72
  -2   5  12    8.12    0.72
   2  -5 -12    7.60    0.32
  -2  -5  12    7.48    0.68
   2  -5 -12    7.36    0.32
   2  -5 -11    0.09    0.05
   2   5 -11    0.43    0.25
  -2  -5  11   -0.23    0.20
  -2  -5  11    0.19    0.18
  -2   5  11    0.08    0.17
   2  -5 -11    0.06    0.04
   2   5 -11   -0.02    0.14
  -2  -5  10    0.46    0.15
   2   5 -10    0.43    0.19
  -2  -5  10    0.38    0.20
   2  -5 -10    0.67    0.08
  -2   5  10    0.85    0.23
   2   5 -10    0.60    0.25
  -2  -5   9    0.58    0.23
  -2  -5   9    0.51    0.19
  -2   5   9    0.56    0.23
   2   5  -9    0.41    0.18
   2   5  -9    0.55    0.19
  -2   5   8    7.00    0.66
   2   5  -8    7.77    0.71
  -2  -5   8    7.38    0.64
   2   5  -8    7.31    0.60
  -2  -5   8    6.65    0.64
  -2  -5   7   19.14    0.99
   2   5  -7   17.02    0.90
   2   5  -7   19.27    1.06
  -2  -5   7   18.03    1.01
  -2  -5   6    3.16    0.41
   2   5  -6    2.82    0.41
  -2  -5   6    3.04    0.42
   2   5  -6    2.93    0.36
  -2  -5   6    2.69    0.34
  -2   5   6    2.46    0.14
   2   5  -5    0.97    0.25
  -2   5   5    0.89    0.10
  -2   5   5    0.91    0.10
  -2  -5   5    1.10    0.25
  -2  -5   5    0.77    0.21
  -2  -5   5    0.80    0.18
   2   5  -5    1.18    0.22
  -2  -5   4   18.08    0.92
   2   5  -4   18.42    0.94
  -2   5   4   18.12    0.50
   2   5  -4   17.08    0.73
  -2  -5   4   18.56    0.79
  -2  -5   4   18.23    0.96
  -2   5   4   18.57    0.51
   2   5  -4   18.00    0.79
   2   5  -3   34.99    1.23
  -2  -5   3   33.50    1.21
   2   5  -3   33.54    0.95
  -2   5   3   33.76    0.76
  -2  -5   3   33.80    1.00
  -2  -5   3   36.26    1.31
   2   5  -3   35.03    1.22
   2   5  -3   35.53    1.12
  -2  -5   2    7.65    0.43
   2   5  -2    7.18    0.41
   2   5  -2    6.79    0.50
  -2   5   2    7.58    0.39
  -2  -5   2    7.38    0.60
   2   5  -2    7.34    0.54
   2   5  -2    7.15    0.54
  -2  -5   2    7.93    0.57
  -2  -5   1    1.98    0.27
   2   5  -1    1.83    0.26
   2  -5  -1    2.30    0.36
  -2   5   1    2.39    0.32
   2   5  -1    2.14    0.28
   2   5  -1    2.23    0.30
   2   5  -1    2.42    0.33
  -2  -5   1    2.02    0.20
  -2   5   1    2.11    0.22
   2   5  -1    2.30    0.21
  -2   5   0    8.45    0.58
  -2  -5   0    8.32    0.36
   2   5   0    8.12    0.33
   2   5   0    8.86    0.58
  -2  -5   0    8.66    0.55
   2  -5   0    8.12    0.66
   2   5   0    8.85    0.54
   2   5   0    8.88    0.54
  -2  -5   0    8.76    0.55
   2   5   1    6.57    0.46
  -2  -5  -1    7.39    0.48
  -2   5  -1    7.26    0.57
   2   5   1    6.91    0.24
  -2  -5  -1    7.43    0.50
   2   5   1    6.81    0.46
   2  -5   1    6.72    0.60
   2   5   1    7.26    0.55
  -2   5  -2    7.11    0.58
   2   5   2    7.51    0.46
  -2  -5  -2    7.65    0.48
  -2  -5  -2    7.72    0.48
   2   5   2    7.37    0.47
   2  -5   2    6.84    0.61
   2   5   2    7.35    0.55
   2   5   3    5.51    0.50
   2   5   3    5.01    0.37
  -2  -5  -3    5.01    0.38
  -2   5  -3    5.54    0.52
   2   5   3    5.18    0.38
   2  -5   3    5.59    0.54
  -2  -5  -3    5.41    0.39
   2   5   4    3.23    0.31
   2   5   4    3.40    0.31
   2  -5   4    2.78    0.42
  -2  -5  -4    3.27    0.31
  -2  -5  -4    3.24    0.31
  -2   5  -4    3.40    0.43
   2   5   4    3.46    0.41
  -2  -5  -5   36.38    0.97
   2   5   5   36.58    1.28
  -2  -5  -5   38.02    1.00
   2   5   5   37.28    1.01
  -2   5  -5   35.96    1.38
   2  -5   5   36.93    1.43
  -2  -5  -6    1.35    0.19
  -2  -5  -6    1.23    0.19
  -2   5  -6    1.25    0.27
   2   5   6    1.25    0.26
   2   5   6    1.40    0.20
   2  -5   6    1.33    0.31
   2   5   7   16.13    0.68
  -2   5  -7   17.24    1.01
   2   5   7   15.97    0.89
  -2  -5  -7   17.13    0.68
   2   5   7   13.64    0.35
  -2  -5  -7   16.08    0.66
   2  -5   7   13.55    0.91
   2   5   8    2.38    0.34
   2   5   8    2.41    0.18
  -2   5  -8    2.66    0.44
  -2  -5  -8    2.64    0.28
   2  -5   8    2.62    0.42
  -2  -5  -8    2.50    0.27
  -2   5  -9    1.74    0.38
  -2  -5  -9    2.03    0.26
   2   5   9    1.66    0.18
  -2  -5  -9    1.90    0.24
   2   5   9    1.44    0.29
   2  -5   9    1.75    0.35
  -2   5 -10    0.24    0.25
   2  -5  10    0.09    0.15
   2   5  10    0.20    0.09
  -2  -5 -10    0.27    0.13
   2   5  10    0.26    0.19
  -2  -5 -10    0.26    0.11
  -2   5 -11    2.88    0.49
   2  -5  11    3.23    0.48
   2   5  11    2.77    0.27
   2   5  11    3.36    0.43
  -2  -5 -11    3.34    0.34
  -2  -5 -11    3.16    0.33
  -2  -5 -12    0.76    0.18
  -2  -5 -12    0.72    0.19
   2   5  12    1.08    0.30
   2  -5  12    0.59    0.23
  -2   5 -12    0.86    0.32
   2   5  12    0.58    0.16
   2   5  13    2.26    0.29
   2   5  13    2.87    0.44
  -2  -5 -13    2.23    0.30
  -2   5 -13    2.50    0.49
   2  -5  13    2.24    0.44
   2  -5  14   13.29    1.02
  -2   5 -14   15.79    1.19
   2   5  14   13.91    0.90
   2   5  14   11.66    0.68
  -2  -5 -14   14.28    0.79
  -2   5 -15    4.64    0.64
   2   5  15    3.51    0.47
   2  -5  15    4.38    0.62
  -2   5 -16   -0.22    0.26
   2   5  16    0.30    0.20
   2  -5  16    0.31    0.29
   2  -5  17    0.96    0.39
   2   5  17    1.64    0.38
  -2   5 -17    1.03    0.37
  -2   5 -18    0.36    0.31
   2  -5  18    0.54    0.32
  -2   5 -19   10.21    1.06
   2  -5  19    5.95    0.82
  -2   5 -20   -0.19    0.22
   2  -5  20    0.61    0.35
   2  -5  21    0.76    0.37
  -2   5 -21    1.05    0.43
  -2   5 -22    0.78    0.34
   2  -5  22    0.40    0.34
   2  -5  23    0.36    0.31
  -2   5 -23    0.37    0.33
  -2   6  23    0.19    0.17
   2   6 -23    0.17    0.30
   2   6 -23   -0.04    0.25
  -2  -6  23    0.13    0.26
   2   6 -22    0.29    0.32
   2   6 -22   -0.24    0.26
  -2   6  22    0.26    0.19
  -2  -6  22   -0.09    0.24
   2   6 -21    0.36    0.31
  -2   6  21   -0.14    0.11
   2   6 -21   -0.06    0.21
  -2  -6  21    0.04    0.18
  -2   6  20    0.86    0.28
   2   6 -20    1.74    0.53
   2   6 -20    1.35    0.50
  -2  -6  20    1.22    0.39
   2   6 -19    0.22    0.19
  -2  -6  19    0.19    0.16
  -2   6  19    0.47    0.19
  -2  -6  18    0.00    0.23
  -2   6  18    0.38    0.19
  -2  -6  17    1.39    0.38
   2   6 -17    1.97    0.50
  -2   6  17    2.06    0.41
  -2   6  16    1.09    0.33
   2   6 -16    0.99    0.38
  -2  -6  16    0.68    0.28
  -2  -6  15   -0.01    0.22
   2   6 -15   -0.17    0.19
  -2   6  15    0.34    0.20
  -2   6  14    1.66    0.39
   2   6 -14    1.28    0.40
   2   6 -14    1.00    0.29
  -2  -6  14    0.85    0.30
  -2   6  13   10.74    0.89
  -2  -6  13    9.29    0.83
   2   6 -13   10.06    0.97
   2   6 -13    8.43    0.81
   2   6 -12    1.43    0.38
  -2  -6  12    1.32    0.34
  -2   6  12    1.47    0.36
   2   6 -12    1.26    0.34
   2   6 -11    0.19    0.24
  -2  -6  11    0.00    0.16
   2   6 -11    0.11    0.24
  -2   6  11   -0.09    0.19
  -2  -6  11    0.17    0.21
  -2   6  10    4.59    0.58
  -2  -6  10    4.33    0.57
   2   6 -10    3.84    0.55
  -2  -6  10    4.98    0.61
   2   6 -10    4.53    0.60
   2   6  -9    7.72    0.79
  -2  -6   9    7.04    0.70
  -2  -6   9    7.23    0.77
  -2   6   9    7.92    0.75
   2   6  -9    7.05    0.69
  -2  -6   8    6.90    0.68
  -2  -6   8    6.60    0.69
   2   6  -8    7.62    0.74
   2   6  -8    7.30    0.65
  -2   6   8    6.91    0.69
  -2  -6   7    1.75    0.34
   2   6  -7    1.20    0.26
  -2  -6   7    0.69    0.22
   2   6  -7    1.04    0.23
   2   6  -6    3.96    0.45
  -2  -6   6    5.69    0.59
  -2  -6   6    5.37    0.57
   2   6  -6    5.31    0.56
  -2   6   5    3.24    0.18
  -2  -6   5    3.48    0.39
   2   6  -5    3.04    0.35
  -2  -6   5    3.43    0.45
  -2  -6   5    3.47    0.46
   2   6  -5    3.65    0.47
  -2   6   5    2.52    0.16
  -2   6   5    2.94    0.16
  -2   6   4    1.39    0.15
   2   6  -4    1.85    0.32
  -2  -6   4    1.12    0.29
   2   6  -4    1.31    0.25
  -2  -6   4    1.52    0.25
  -2  -6   4    1.05    0.26
  -2   6   4    1.28    0.14
   2   6  -4    1.27    0.22
   2   6  -3    1.09    0.25
  -2   6   3    1.26    0.16
  -2  -6   3    1.11    0.28
  -2  -6   3    1.13    0.21
   2   6  -3    0.98    0.18
  -2  -6   3    1.13    0.25
   2   6  -3    1.23    0.25
   2   6  -2   12.15    0.57
  -2  -6   2   13.21    0.78
  -2  -6   2   13.55    0.62
  -2  -6   2   12.63    0.86
  -2   6   2   12.13    0.52
   2   6  -2   13.77    0.78
   2   6  -2   13.79    0.80
  -2  -6   1   16.99    0.85
   2   6  -1   16.72    0.61
   2   6  -1   17.00    0.83
  -2  -6   1   16.96    0.64
   2   6  -1   16.76    0.89
  -2   6   1   16.39    0.66
   2   6  -1   16.51    0.83
   2   6   0    2.53    0.32
  -2  -6   0    2.61    0.33
   2   6   0    2.43    0.21
   2   6   0    2.50    0.31
  -2   6   0    2.48    0.35
   2  -6   0    2.19    0.39
   2   6   0    3.21    0.41
   2   6   1    1.27    0.21
   2   6   1    1.19    0.22
   2   6   1    1.10    0.12
  -2  -6  -1    1.12    0.21
   2   6   1    1.56    0.29
  -2   6  -1    1.06    0.25
   2  -6   1    1.18    0.30
  -2   6  -2    7.19    0.61
   2   6   2    6.59    0.46
   2  -6   2    6.92    0.66
   2   6   2    6.93    0.61
   2   6   2    6.17    0.22
  -2  -6  -2    6.72    0.48
   2   6   2    6.81    0.48
   2   6   3    7.69    0.64
  -2  -6  -3    6.98    0.47
  -2  -6  -3    6.60    0.46
  -2   6  -3    6.61    0.60
   2   6   3    6.40    0.45
   2   6   3    6.90    0.46
   2  -6   3    7.12    0.69
  -2  -6  -4   37.25    1.06
   2   6   4   37.68    1.05
   2  -6   4   36.59    1.55
   2   6   4   38.72    1.42
  -2   6  -4   36.84    1.46
   2   6   4   38.64    1.07
  -2  -6  -4   37.83    1.06
   2   6   5    9.67    0.73
  -2  -6  -5    9.32    0.52
  -2   6  -5   10.10    0.78
   2   6   5    9.78    0.53
   2  -6   5    9.52    0.80
  -2  -6  -5    9.11    0.52
   2   6   6    0.43    0.14
   2  -6   6    0.22    0.17
  -2  -6  -6    0.42    0.13
  -2   6  -6    0.45    0.23
   2   6   6   -0.08    0.18
  -2  -6  -6    0.40    0.12
  -2  -6  -7    0.72    0.15
  -2  -6  -7    0.70    0.15
   2   6   7    0.52    0.14
  -2   6  -7    0.45    0.18
   2   6   7    0.39    0.15
   2  -6   7    0.60    0.22
  -2   6  -8    4.83    0.58
  -2  -6  -8    4.79    0.36
  -2  -6  -8    4.52    0.35
   2   6   8    4.51    0.37
   2   6   8    3.44    0.18
   2  -6   8    4.27    0.57
   2   6   8    4.44    0.52
  -2  -6  -9    3.88    0.33
  -2  -6  -9    4.02    0.34
   2  -6   9    4.21    0.57
   2   6   9    3.27    0.22
  -2   6  -9    4.16    0.57
   2   6   9    2.91    0.43
   2   6  10   20.48    1.11
   2  -6  10   19.06    1.22
   2   6  10   17.52    0.56
  -2   6 -10   20.42    1.26
  -2  -6 -10   21.77    0.78
  -2  -6 -10   19.47    0.75
   2  -6  11    0.18    0.16
  -2  -6 -11    0.10    0.10
   2   6  11   -0.06    0.17
   2   6  11    0.09    0.08
  -2  -6 -11    0.01    0.09
  -2  -6 -12    1.88    0.25
  -2   6 -12    1.56    0.42
   2   6  12    1.09    0.28
   2  -6  12    1.01    0.28
  -2  -6 -12    1.54    0.23
  -2  -6 -13    2.14    0.27
   2   6  13    1.77    0.36
   2  -6  13    1.10    0.33
  -2   6 -13    2.27    0.50
   2   6  14    0.41    0.22
   2  -6  14    0.46    0.32
  -2  -6 -14    0.64    0.18
  -2   6 -14    0.79    0.31
   2   6  15    1.91    0.37
  -2   6 -15    2.35    0.49
   2  -6  15    1.96    0.43
  -2   6 -16    0.00    0.21
   2   6  16    0.21    0.21
   2  -6  16    0.18    0.19
  -2   6 -17    0.95    0.30
   2   6  17    0.20    0.16
   2  -6  17    0.46    0.28
   2  -6  18    0.48    0.17
   2   6  18    0.48    0.25
  -2   6 -18    0.14    0.17
   2   6  19    1.38    0.36
  -2   6 -19    1.13    0.44
   2  -6  19    1.28    0.45
  -2   6 -20    0.45    0.28
   2  -6  20    0.30    0.29
  -2   6 -21    0.11    0.22
   2  -6  21    0.39    0.31
   2  -6  22    0.73    0.39
  -2   6 -22    1.76    0.51
  -2  -7  22    0.69    0.38
  -2   7  22    0.48    0.26
   2   7 -22    1.08    0.46
   2   7 -22    1.16    0.43
  -2  -7  21    0.43    0.28
  -2   7  21   -0.15    0.18
   2   7 -21    0.20    0.25
   2   7 -21    0.04    0.23
  -2   7  20   -0.15    0.17
   2   7 -20    0.78    0.33
   2   7 -20    0.61    0.35
  -2  -7  20   -0.08    0.21
   2   7 -19    0.29    0.38
  -2   7  19    0.34    0.17
   2   7 -19    0.29    0.31
  -2  -7  19   -0.42    0.30
   2   7 -18    0.54    0.22
  -2  -7  18    0.67    0.32
  -2   7  18    1.03    0.32
   2   7 -18    1.05    0.39
   2   7 -17    5.34    0.85
  -2   7  17    5.60    0.71
   2   7 -17    6.02    0.81
  -2  -7  17    3.94    0.67
  -2   7  16    0.87    0.31
   2   7 -16    0.67    0.34
  -2  -7  16    0.45    0.30
   2   7 -16    0.88    0.41
   2   7 -15    0.32    0.30
  -2  -7  15   -0.08    0.20
   2   7 -15    0.15    0.16
  -2   7  14    6.57    0.77
   2   7 -14    6.87    0.87
   2   7 -14    6.78    0.77
  -2  -7  14    5.84    0.76
  -2  -7  13    9.13    0.91
   2   7 -13    8.99    0.86
  -2   7  13   10.54    0.96
   2   7 -13    9.19    0.95
   2   7 -12    5.98    0.75
   2   7 -12    6.02    0.70
  -2   7  12    5.47    0.70
  -2  -7  12    4.95    0.70
   2   7 -11    1.68    0.41
  -2   7  11    1.45    0.38
   2   7 -11    1.32    0.33
  -2  -7  11    1.82    0.39
  -2  -7  10    1.07    0.30
  -2   7  10    1.32    0.35
  -2  -7  10    1.56    0.39
   2   7 -10    0.99    0.30
   2   7 -10    1.47    0.37
   2   7  -9    0.84    0.32
  -2  -7   9    1.14    0.35
  -2   7   9    0.57    0.24
  -2  -7   9    1.09    0.34
   2   7  -9    0.81    0.24
   2   7  -8   -0.12    0.15
  -2   7   8   -0.25    0.23
  -2  -7   8   -0.05    0.16
   2   7  -8    0.06    0.14
  -2  -7   8   -0.34    0.29
   2   7  -7    2.37    0.42
  -2  -7   7    1.99    0.42
  -2  -7   7    1.70    0.36
   2   7  -7    1.87    0.34
  -2  -7   6    7.22    0.74
  -2  -7   6    7.59    0.73
   2   7  -6    7.99    0.73
   2   7  -6    7.09    0.59
  -2   7   5    7.97    0.26
  -2   7   5    7.05    0.25
   2   7  -5    8.46    0.62
  -2  -7   5    8.97    0.81
  -2  -7   5    8.23    0.72
   2   7  -5    9.09    0.75
   2   7  -5    7.72    0.64
  -2  -7   4    4.60    0.52
   2   7  -4    3.63    0.44
  -2   7   4    3.78    0.26
  -2  -7   4    3.48    0.50
  -2   7   4    3.73    0.25
   2   7  -4    4.18    0.53
   2   7  -4    3.56    0.40
  -2  -7   4    4.03    0.42
  -2  -7   3   -0.06    0.19
   2   7  -3    0.06    0.10
   2   7  -3   -0.01    0.14
  -2   7   3    0.15    0.07
  -2  -7   3    0.12    0.15
   2   7  -3    0.12    0.13
  -2  -7   3    0.14    0.09
  -2   7   3    0.13    0.06
   2   7  -2    2.51    0.37
   2   7  -2    2.50    0.28
  -2  -7   2    2.56    0.36
  -2   7   2    2.53    0.25
  -2  -7   2    2.32    0.28
  -2   7   2    2.34    0.25
   2   7  -2    2.89    0.42
  -2   7   1    1.17    0.20
   2   7  -1    0.91    0.21
   2   7  -1    1.49    0.32
  -2  -7   1    1.06    0.25
  -2   7   1    0.93    0.17
  -2   7   1    0.87    0.26
   2   7  -1    0.91    0.16
   2   7   0   -0.04    0.11
   2   7   0    0.24    0.13
   2   7   0    0.34    0.19
  -2   7   0    0.03    0.09
   2  -7   0   -0.05    0.18
  -2  -7   0    0.05    0.10
  -2   7   0    0.16    0.14
   2   7   0    0.02    0.07
   2   7   1    0.02    0.09
   2  -7   1    0.15    0.20
   2   7   1    0.05    0.15
   2   7   1    0.19    0.13
  -2  -7  -1    0.04    0.14
  -2   7  -1   -0.06    0.15
   2   7   1    0.05    0.05
  -2   7  -1   -0.10    0.09
   2   7   2    0.32    0.16
   2  -7   2    0.19    0.16
   2   7   2   -0.04    0.16
   2   7   2    0.39    0.12
  -2  -7  -2    0.45    0.17
  -2   7  -2    0.37    0.20
   2   7   2    0.41    0.08
  -2   7  -3   26.88    1.28
   2   7   3   26.42    0.94
  -2  -7  -3   27.11    0.98
   2   7   3   24.01    0.43
   2   7   3   28.69    1.30
   2   7   3   26.14    0.93
   2  -7   3   27.02    1.44
   2   7   4   10.22    0.57
  -2   7  -4   10.52    0.83
   2   7   4   10.89    0.82
   2  -7   4    9.93    0.88
   2   7   4   11.26    0.60
  -2  -7  -4   11.09    0.61
   2   7   5   20.45    1.13
  -2  -7  -5   18.65    0.75
  -2   7  -5   20.26    1.16
   2   7   5   18.45    0.76
   2  -7   5   20.47    1.27
   2   7   6   11.07    0.85
  -2  -7  -6   11.34    0.57
  -2  -7  -6   10.75    0.57
   2   7   6   11.86    0.60
  -2   7  -6   11.19    0.88
   2  -7   6   11.04    0.94
  -2  -7  -7    0.64    0.14
  -2   7  -7    0.63    0.27
  -2  -7  -7    0.57    0.14
   2   7   7    0.53    0.15
   2   7   7   -0.01    0.21
   2  -7   7    0.53    0.24
   2  -7   8    0.72    0.32
  -2  -7  -8    0.79    0.14
  -2   7  -8    0.69    0.26
  -2  -7  -8    0.78    0.16
   2   7   8    0.27    0.17
   2   7   8    0.63    0.14
  -2  -7  -9   11.52    0.54
   2   7   9   11.25    0.86
  -2   7  -9   11.70    0.97
  -2  -7  -9   11.07    0.53
   2  -7   9   11.40    0.98
  -2   7 -10    2.07    0.41
   2   7  10    1.49    0.34
   2  -7  10    1.49    0.41
  -2  -7 -10    1.79    0.22
  -2  -7 -11    1.52    0.20
   2   7  11    1.23    0.33
   2  -7  11    1.20    0.34
  -2   7 -11    1.46    0.39
   2   7  12    4.68    0.58
  -2   7 -12    5.00    0.69
   2  -7  12    5.25    0.75
   2   7  13    2.90    0.47
  -2   7 -13    2.76    0.53
   2  -7  13    2.34    0.46
   2  -7  14    6.79    0.85
   2   7  14    8.37    0.80
  -2   7 -14    9.54    0.98
  -2   7 -15    2.72    0.56
   2   7  15    2.04    0.40
   2  -7  15    1.28    0.41
   2  -7  16    3.25    0.61
   2   7  16    3.85    0.54
  -2   7 -16    4.51    0.70
   2   7  17    0.23    0.21
   2  -7  17   -0.14    0.25
  -2   7 -17    0.01    0.27
   2   7  18    0.49    0.28
  -2   7 -18    0.22    0.23
   2  -7  18   -0.26    0.29
   2  -7  19    1.15    0.43
   2   7  19    2.36    0.46
  -2   7 -19    1.64    0.51
  -2   7 -20    1.01    0.42
   2  -7  20    0.83    0.35
  -2   7 -21    0.02    0.19
   2  -7  21    0.37    0.35
   2   8 -20    0.20    0.26
  -2   8  20    0.15    0.14
   2   8 -20   -0.03    0.19
  -2  -8  20    0.24    0.22
   2   8 -19    0.63    0.33
  -2  -8  19    0.33    0.28
   2   8 -19    0.05    0.20
   2   8 -18    0.61    0.33
   2   8 -18    0.76    0.37
  -2   8  18    0.45    0.25
  -2  -8  18    0.30    0.33
  -2  -8  17    0.23    0.36
   2   8 -17    0.14    0.18
  -2   8  17    0.57    0.29
   2   8 -17    0.42    0.32
   2   8 -16    0.13    0.22
   2   8 -16    0.63    0.34
  -2  -8  16    0.07    0.18
   2   8 -15    0.11    0.25
  -2  -8  15   -0.16    0.16
  -2   8  15    0.10    0.17
   2   8 -15    0.24    0.26
  -2  -8  14    0.57    0.25
  -2   8  14    0.19    0.26
   2   8 -14    0.00    0.26
   2   8 -14    0.22    0.19
   2   8 -13    1.28    0.36
  -2   8  13    1.19    0.38
   2   8 -13    1.21    0.38
  -2  -8  13    1.19    0.38
  -2   8  12    0.44    0.28
   2   8 -12    0.65    0.26
   2   8 -12    0.76    0.29
  -2  -8  12    0.78    0.31
   2   8 -11    0.83    0.34
  -2  -8  11    0.80    0.29
  -2   8  11    0.99    0.26
   2   8 -11    0.87    0.31
   2   8 -10    1.35    0.41
  -2  -8  10    1.31    0.36
  -2   8  10    1.76    0.45
   2   8 -10    1.16    0.32
  -2   8   9   12.00    1.07
   2   8  -9   12.48    0.93
  -2  -8   9   12.02    1.04
   2   8  -9   13.49    1.07
   2   8  -8    3.72    0.57
   2   8  -8    3.01    0.47
  -2   8   8    3.42    0.59
  -2  -8   8    3.28    0.56
  -2  -8   8    3.94    0.59
  -2  -8   7    0.56    0.27
   2   8  -7    0.48    0.25
  -2  -8   7    0.25    0.17
   2   8  -7    0.60    0.25
   2   8  -6   18.41    1.17
  -2  -8   6   18.37    1.14
   2   8  -6   16.72    0.94
  -2  -8   6   17.70    1.21
  -2  -8   5    6.50    0.69
   2   8  -5    5.95    0.55
   2   8  -5    6.25    0.66
   2   8  -5    5.89    0.61
  -2  -8   5    6.35    0.73
  -2  -8   4    5.30    0.59
   2   8  -4    5.23    0.48
  -2   8   4    4.91    0.30
   2   8  -4    5.32    0.58
  -2   8   4    4.79    0.28
   2   8  -4    4.73    0.54
  -2  -8   4    5.14    0.69
  -2  -8   3   11.79    0.71
  -2  -8   3   12.77    1.01
  -2   8   3   11.73    0.54
   2   8  -3   12.42    0.89
   2   8  -3   12.25    0.69
  -2  -8   3   11.88    0.86
  -2   8   3   10.84    0.49
   2   8  -3   12.73    0.87
   2   8  -2    3.19    0.47
  -2   8   2    4.24    0.53
  -2   8   2    3.68    0.34
  -2  -8   2    3.81    0.48
   2   8  -2    3.37    0.36
   2   8  -2    3.56    0.46
  -2   8   2    3.05    0.29
   2   8  -1    0.67    0.15
  -2   8   1    0.31    0.13
  -2  -8   1    0.75    0.24
  -2   8   1    0.34    0.11
   2   8  -1    0.63    0.25
  -2   8   1    0.72    0.24
   2   8  -1    0.59    0.21
  -2   8   0    6.24    0.64
   2   8   0    5.82    0.63
  -2  -8   0    6.01    0.55
   2   8   0    5.82    0.38
   2   8   0    5.67    0.52
  -2   8   0    5.24    0.46
  -2  -8  -1    3.07    0.40
   2   8   1    3.18    0.26
   2   8   1    3.13    0.48
  -2   8  -1    2.83    0.46
   2   8   1    3.21    0.39
   2  -8   1    2.67    0.50
   2   8   2    0.62    0.18
   2   8   2    0.81    0.20
  -2  -8  -2    0.89    0.22
  -2   8  -2    1.02    0.31
   2   8   2    0.65    0.11
   2  -8   2    0.65    0.29
   2   8   2    1.03    0.31
   2   8   3    1.02    0.21
   2   8   3    1.12    0.12
  -2  -8  -3    1.34    0.25
  -2   8  -3    0.87    0.23
   2   8   3    1.75    0.39
   2  -8   3    1.52    0.40
   2   8   3    1.21    0.22
   2   8   4    2.48    0.45
  -2   8  -4    2.42    0.43
  -2  -8  -4    2.21    0.31
   2   8   4    2.09    0.29
   2  -8   4    2.12    0.48
   2   8   4    1.83    0.27
   2   8   5    7.09    0.71
   2  -8   5    6.99    0.79
  -2  -8  -5    6.43    0.47
   2   8   5    6.62    0.48
  -2   8  -5    6.28    0.67
   2  -8   6   12.15    1.05
  -2  -8  -6   10.24    0.56
   2   8   6   10.44    0.89
   2   8   6   11.01    0.59
  -2   8  -6   10.48    0.91
  -2  -8  -7   14.55    0.64
   2   8   7   15.46    0.68
  -2   8  -7   13.74    1.06
   2   8   7   13.76    1.01
   2  -8   7   14.16    1.15
  -2   8  -8    1.13    0.35
  -2  -8  -8    1.41    0.19
   2   8   8    0.84    0.28
   2  -8   8    1.68    0.47
  -2   8  -9   -0.20    0.16
   2  -8   9   -0.08    0.21
   2   8   9    0.02    0.20
   2  -8  10    0.26    0.26
  -2   8 -10   -0.18    0.24
   2   8  10   -0.10    0.19
  -2   8 -11    2.85    0.52
   2   8  11    2.38    0.47
   2  -8  11    3.32    0.59
   2   8  12    2.29    0.45
  -2   8 -12    3.03    0.56
   2  -8  12    3.52    0.63
  -2   8 -13    2.52    0.54
   2   8  13    1.37    0.38
   2  -8  13    2.07    0.54
  -2   8 -14    1.89    0.47
   2   8  14    1.42    0.36
   2  -8  14    1.23    0.40
  -2   8 -15    2.67    0.62
   2   8  15    1.99    0.45
   2  -8  15    2.48    0.57
  -2   8 -16    0.48    0.28
   2   8  16    0.66    0.32
   2  -8  16    0.41    0.35
  -2   8 -17    0.80    0.42
   2   8  17    0.76    0.31
   2  -8  17    0.45    0.33
  -2   8 -18    0.47    0.34
   2   8  18    0.50    0.27
   2  -8  18    0.10    0.22
   2  -8  19    0.17    0.25
  -2   8 -19   -0.28    0.18
   2   8  19    0.17    0.18
   2   9 -18   -0.54    0.33
  -2   9  18   -0.05    0.22
   2   9 -18    0.23    0.26
  -2  -9  18    0.60    0.37
  -2   9  17    0.20    0.19
   2   9 -17    0.36    0.33
   2   9 -17    0.13    0.17
  -2  -9  17   -0.29    0.33
  -2   9  16    0.03    0.15
  -2  -9  16    0.32    0.27
   2   9 -16    0.76    0.35
   2   9 -16    0.14    0.21
  -2  -9  15   -0.16    0.22
   2   9 -15    0.15    0.17
  -2   9  15   -0.10    0.19
   2   9 -15   -0.14    0.21
  -2   9  14    0.56    0.30
  -2  -9  14   -0.17    0.24
   2   9 -14    0.24    0.25
   2   9 -14    0.35    0.20
  -2   9  13    5.67    0.81
   2   9 -13    4.70    0.78
   2   9 -13    4.77    0.70
  -2  -9  13    4.73    0.75
   2   9 -12    0.22    0.25
   2   9 -12   -0.05    0.17
  -2   9  12    0.43    0.28
  -2  -9  12    0.14    0.24
  -2  -9  11    0.17    0.23
  -2   9  11   -0.19    0.24
   2   9 -11   -0.02    0.21
   2   9 -11   -0.06    0.24
   2   9 -10    2.10    0.49
  -2   9  10    2.77    0.56
   2   9 -10    2.12    0.45
  -2  -9  10    2.21    0.50
   2   9  -9   11.99    0.95
  -2   9   9   13.66    1.22
   2   9  -9   13.05    1.09
  -2  -9   9   10.85    1.06
  -2  -9   8    4.16    0.64
   2   9  -8    3.69    0.60
   2   9  -8    3.95    0.52
  -2   9   8    3.93    0.64
   2   9  -7    0.28    0.19
   2   9  -7    0.69    0.26
   2   9  -7    0.10    0.13
  -2   9   7    0.88    0.35
  -2  -9   7   -0.13    0.32
   2   9  -6    3.46    0.54
   2   9  -6    3.21    0.45
   2   9  -6    3.38    0.52
  -2  -9   6    4.75    0.69
  -2  -9   5   30.84    1.51
   2   9  -5   31.18    1.27
   2   9  -5   31.78    1.53
   2   9  -5   29.34    1.47
  -2  -9   5   32.99    1.77
   2   9  -4    3.68    0.54
  -2   9   4    3.45    0.50
  -2  -9   4    3.70    0.52
   2   9  -4    3.41    0.43
   2   9  -4    2.39    0.45
  -2  -9   4    4.07    0.64
   2   9  -3   -0.02    0.16
  -2  -9   3    0.68    0.23
  -2   9   3    0.57    0.25
   2   9  -3    0.67    0.21
   2   9  -3    1.09    0.32
   2   9  -2    0.12    0.18
   2   9  -2    0.07    0.12
  -2  -9   2    0.27    0.22
   2   9  -2    0.31    0.25
  -2   9   2    0.13    0.13
   2   9  -1    9.89    0.89
  -2   9   1    9.98    0.84
  -2  -9   1   11.56    0.83
   2   9  -1   11.13    0.61
   2   9  -1   11.46    0.81
  -2  -9   0    2.14    0.35
   2   9   0    1.86    0.33
   2   9   0    2.04    0.25
  -2   9   0    2.11    0.39
   2   9   0    2.51    0.46
  -2   9  -1    1.98    0.37
  -2  -9  -1    2.04    0.33
   2   9   1    1.92    0.41
   2   9   1    2.35    0.33
   2   9   2    0.50    0.17
  -2   9  -2    0.34    0.15
  -2  -9  -2    0.47    0.21
   2  -9   2    0.19    0.20
   2   9   2    0.43    0.20
   2  -9   3    3.15    0.57
  -2  -9  -3    3.26    0.39
  -2   9  -3    3.50    0.52
   2   9   3    3.55    0.39
   2   9   3    3.47    0.54
   2   9   4    2.50    0.49
   2  -9   4    2.36    0.48
  -2  -9  -4    2.46    0.32
   2   9   4    2.40    0.31
  -2   9  -4    1.95    0.41
   2   9   5    5.39    0.67
  -2   9  -5    5.58    0.68
   2  -9   5    5.83    0.79
   2  -9   6    0.39    0.27
   2   9   6    0.59    0.29
  -2   9  -6    0.01    0.18
  -2   9  -7    1.97    0.43
   2  -9   7    2.41    0.49
  -2   9  -8    1.59    0.42
   2   9   8    1.68    0.38
   2  -9   8    1.84    0.45
   2   9   9    1.14    0.32
  -2   9  -9    1.19    0.39
   2  -9   9    1.49    0.42
   2   9  10    0.98    0.33
  -2   9 -10    2.02    0.47
   2  -9  10    1.04    0.42
   2   9  11    1.68    0.41
  -2   9 -11    2.00    0.49
   2  -9  11    1.52    0.46
  -2   9 -12    3.87    0.66
   2  -9  12    3.86    0.75
   2   9  12    4.12    0.62
   2  -9  13    0.34    0.33
   2   9  13    0.57    0.26
  -2   9 -13    0.43    0.27
  -2   9 -14    1.74    0.46
   2   9  14    2.31    0.49
   2  -9  14    1.18    0.42
  -2   9 -15    0.40    0.31
   2  -9  15    0.85    0.35
   2   9  15    0.84    0.32
  -2   9 -16    0.72    0.40
   2  -9  16    1.03    0.46
   2   9  16    1.21    0.37
  -2   9 -17   -0.26    0.29
   2   9  17    0.15    0.25
   2  -9  17    0.26    0.39
   2   9  18    0.47    0.25
  -2   9 -18    0.26    0.26
   2  -9  18    0.38    0.38
  -2  10  16    0.37    0.28
   2  10 -16    0.30    0.30
  -2 -10  16    0.04    0.20
   2  10 -16    0.06    0.21
  -2  10  15   -0.23    0.25
  -2 -10  15   -0.37    0.31
   2  10 -15   -0.03    0.20
   2  10 -15    0.20    0.24
  -2  10  14    4.55    0.75
   2  10 -14    3.06    0.62
   2  10 -14    4.29    0.75
  -2 -10  14    3.07    0.68
   2  10 -13    0.09    0.23
  -2 -10  13    0.17    0.29
  -2 -10  12    1.57    0.48
   2  10 -12    0.84    0.33
  -2  10  12    0.93    0.37
   2  10 -12    1.21    0.40
  -2 -10  11    2.74    0.63
   2  10 -11    2.26    0.52
   2  10 -11    2.79    0.52
  -2  10  11    2.46    0.54
  -2 -10  10    0.98    0.35
   2  10 -10    1.69    0.42
  -2  10  10    1.41    0.43
   2  10 -10    1.12    0.33
   2  10  -9    0.88    0.34
  -2  10   9    0.73    0.37
   2  10  -9    0.52    0.23
  -2 -10   9    0.34    0.27
  -2 -10   8    1.15    0.39
   2  10  -8    0.72    0.25
   2  10  -8    1.35    0.33
  -2  10   8    0.80    0.32
   2  10  -8    0.86    0.32
  -2  10   7    6.07    0.84
  -2 -10   7    4.63    0.73
   2  10  -7    5.38    0.72
   2  10  -7    4.82    0.58
   2  10  -7    4.94    0.64
   2  10  -6    1.63    0.34
   2  10  -6    1.54    0.39
  -2  10   6    2.44    0.54
   2  10  -6    1.27    0.33
  -2  10   6    1.83    0.37
  -2 -10   6    2.02    0.51
   2  10  -5    0.23    0.14
   2  10  -5    0.58    0.22
   2  10  -5   -0.05    0.20
  -2  10   5    0.38    0.20
  -2 -10   5    0.76    0.32
  -2  10   4   16.44    1.11
   2  10  -4   16.32    1.17
   2  10  -4   17.33    1.15
   2  10  -3    3.64    0.60
  -2  10   3    3.45    0.51
   2  10  -3    3.58    0.51
   2  10  -2    6.42    0.76
  -2  10   2    5.89    0.66
   2  10  -2    7.24    0.69
  -2  10   1    2.29    0.43
   2  10  -1    2.25    0.47
   2  10  -1    3.15    0.45
   2  10   0    0.10    0.18
  -2  10   0    0.00    0.18
   2  10   0    0.14    0.12
   2  10   1    5.80    0.54
  -2  10  -1    6.29    0.70
   2  10   1    5.40    0.71
   2  10   2    4.69    0.67
  -2  10  -2    4.38    0.61
   2 -10   3    0.35    0.26
  -2  10  -3    0.75    0.33
   2  10   3    0.39    0.25
  -2  10  -4    0.73    0.30
   2 -10   4    0.69    0.34
   2  10   4    0.65    0.31
  -2  10  -5    1.10    0.32
   2  10   5    1.28    0.37
   2 -10   5    0.84    0.38
  -2  10  -6    0.21    0.24
   2 -10   6    0.08    0.32
   2  10   6    0.40    0.28
   2  10   7   -0.10    0.16
   2 -10   7   -0.11    0.20
   2  10   8    0.07    0.20
   2 -10   8   -0.24    0.34
  -2  10  -8    0.07    0.19
  -2  10  -9    0.80    0.30
   2 -10   9    1.04    0.40
   2  10   9    0.94    0.35
  -2  10 -10    0.64    0.33
   2  10  10    0.77    0.29
   2 -10  10    1.58    0.54
  -2  10 -11    1.73    0.46
   2 -10  11    3.23    0.69
   2  10  11    2.50    0.53
   2 -10  12    0.64    0.37
  -2  10 -12    1.04    0.34
   2  10  12    0.82    0.36
   2  10  13    0.15    0.18
   2 -10  13    0.46    0.33
  -2  10 -13    0.46    0.32
  -2  10 -14    0.30    0.28
   2 -10  14    0.87    0.46
   2  10  14    0.51    0.29
   2  10  15    4.12    0.66
  -2  10 -15    3.53    0.74
   2 -10  15    4.05    0.83
  -2 -11  13    0.00    0.21
  -2  11  13   -0.25    0.25
   2  11 -13   -0.08    0.16
   2  11 -13   -0.02    0.22
  -2  11  12    1.50    0.50
   2  11 -12    1.08    0.42
   2  11 -12    1.23    0.40
  -2 -11  12    1.09    0.48
  -2  11  11    2.02    0.56
   2  11 -11    2.09    0.53
  -2 -11  11    1.07    0.46
   2  11 -10    0.15    0.18
  -2 -11  10    0.77    0.39
  -2  11  10    0.62    0.32
  -2 -11   9    0.55    0.28
   2  11  -9    0.30    0.25
   2  11  -9    0.32    0.21
  -2  11   9    1.03    0.42
  -2  11   8    0.26    0.29
   2  11  -8   -0.06    0.21
  -2 -11   8   -0.31    0.29
   2  11  -8   -0.11    0.19
   2  11  -7    1.02    0.32
   2  11  -7    1.23    0.38
  -2 -11   7    1.18    0.43
  -2  11   7    1.21    0.40
   2  11  -6    3.24    0.55
  -2 -11   6    2.88    0.60
  -2  11   6    3.04    0.64
   2  11  -6    3.13    0.57
   2  11  -5    2.25    0.47
  -2  11   5    1.19    0.45
   2  11  -5    1.43    0.42
  -2  11   4    5.13    0.66
   2  11  -4    4.96    0.65
   2  11  -4    4.93    0.71
  -2  11   3    1.86    0.41
   2  11  -3    2.45    0.50
   2  11  -3    2.06    0.41
   2  11  -2    4.97    0.72
  -2  11   2    5.25    0.67
   2  11  -1   -0.06    0.20
  -2  11   1   -0.02    0.15
   2  11   0    2.15    0.50
  -2  11   0    2.82    0.47
  -2  11  -1   -0.13    0.14
   2  11   1   -0.06    0.23
  -2  11  -2    2.23    0.50
   2  11   2    2.83    0.55
  -2  11  -3    0.10    0.17
   2  11   3    0.27    0.21
   2 -11   4    4.48    0.78
   2  11   4    5.03    0.73
  -2  11  -4    4.42    0.67
   2  11   5    1.25    0.40
  -2  11  -5    0.53    0.29
   2 -11   5    1.13    0.42
  -2  11  -6    3.00    0.55
   2 -11   6    4.04    0.75
   2  11   6    2.63    0.59
  -2  11  -7    1.87    0.50
   2  11   7    3.87    0.66
   2 -11   7    2.95    0.64
   2  11   8    0.66    0.30
  -2  11  -8    0.75    0.33
   2 -11   8    0.72    0.32
  -2  11  -9    0.21    0.21
   2 -11   9    0.22    0.36
   2  11   9   -0.62    0.34
  -2  11 -10    0.43    0.24
   2  11  10    0.72    0.27
   2 -11  10    0.13    0.24
   2  11  11   -0.08    0.19
  -2  11 -11   -0.01    0.25
   2 -11  11   -0.38    0.36
   2 -11  12    0.23    0.27
   2  11  12    0.16    0.25
  -2  11 -12    0.37    0.33
  -2 -12   8    0.37    0.35
  -2  12   8   -0.15    0.21
   2  12  -8    0.22    0.25
  -2  12   7    0.54    0.26
   2  12  -7    0.18    0.17
   2  12  -6    0.29    0.20
  -2  12   6    0.31    0.29
  -2  12   5    0.22    0.28
   2  12  -5   -0.08    0.20
  -2  12   4    0.36    0.25
   2  12  -4    0.73    0.31
   2  12  -3    2.59    0.53
   2  12  -2    0.74    0.33
   2  12  -1    1.03    0.39
   2  12   0   -0.18    0.15
   2  12   1    0.33    0.31
   2  12   2    0.37    0.23
  -2  12  -2    0.52    0.24
  -2  12  -3   -0.29    0.26
   2  12   3    0.15    0.17
   2  12   4    0.47    0.29
  -2  12  -4    0.29    0.22
  -2  12  -5   -0.08    0.22
   2  12   5    0.13    0.28
   2 -12   5    0.23    0.20
  -2  12  -6    2.72    0.59
   2  12   6    3.49    0.69
   2 -12   6    2.11    0.58
   2 -12   7    8.76    1.15
   2  12   7   10.64    1.12
  -2  12  -7    8.79    0.99
  -2  12  -8    0.17    0.22
   2  12   8    0.42    0.22
   2 -12   8   -0.11    0.25
   3   0 -25   -0.22    0.22
   3   0 -25    0.02    0.17
   3   0 -24    0.68    0.31
   3   0 -24    0.23    0.23
   3   0 -23    0.29    0.28
   3   0 -23    0.69    0.33
   3   0 -22    0.14    0.20
   3   0 -22   -0.13    0.16
   3   0 -21    0.50    0.29
   3   0 -20    0.10    0.18
   3   0 -19   -0.08    0.17
   3   0 -18   -0.28    0.21
  -3   0  17    0.58    0.23
   3   0 -17    0.07    0.17
   3   0 -16   -0.90    0.29
  -3   0  16    0.06    0.16
   3   0 -15    0.47    0.27
  -3   0  15    1.00    0.28
  -3   0  14   -0.41    0.24
   3   0 -14   -0.28    0.19
  -3   0  13   12.64    0.86
   3   0 -13   10.07    0.81
  -3   0  12    0.17    0.07
  -3   0  12    0.04    0.15
   3   0 -12   -0.03    0.14
  -3   0  11   22.96    0.53
  -3   0  11   24.46    1.10
   3   0 -11   23.16    1.11
  -3   0  10    0.07    0.13
  -3   0  10   -0.05    0.05
   3   0  -9    3.97    0.43
   3   0  -9    4.17    0.44
  -3   0   9    4.01    0.23
  -3   0   9    4.23    0.45
  -3   0   8    0.19    0.12
   3   0  -8    0.07    0.09
  -3   0   8   -0.02    0.10
  -3   0   8   -0.05    0.04
  -3   0   7   21.99    0.93
  -3   0   7   21.89    0.90
  -3   0   7   20.89    0.88
   3   0  -7   17.84    0.86
   3   0  -7   20.64    0.87
  -3   0   6    0.15    0.10
   3   0  -6    0.01    0.07
   3   0  -6    0.04    0.09
  -3   0   6   -0.04    0.10
   3   0  -5    0.16    0.11
  -3   0   5    0.08    0.08
  -3   0   5    0.14    0.11
   3   0  -5    0.06    0.09
  -3   0   4    0.02    0.09
  -3   0   4    0.04    0.07
   3   0  -4   -0.15    0.13
   3   0  -4    0.00    0.08
  -3   0   3   16.05    0.69
   3   0  -3   17.33    0.70
   3   0  -3   15.96    0.67
  -3   0   3   16.23    0.69
  -3   0   2    0.08    0.11
   3   0  -2   -0.03    0.07
  -3   0   2    0.16    0.10
   3   0  -2    0.04    0.10
  -3   0   1   19.69    0.76
   3   0  -1   21.68    0.77
   3   0  -1   21.37    0.77
  -3   0   1   21.73    0.79
   3   0   0    0.07    0.10
   3   0   0    0.02    0.03
  -3   0   0    0.07    0.10
  -3   0   0    0.02    0.08
   3   0   1    5.03    0.40
  -3   0  -1    5.58    0.42
  -3   0  -1    5.19    0.40
  -3   0  -2   -0.06    0.08
   3   0   2    0.10    0.13
   3   0   3  312.11    3.17
  -3   0  -3  307.23    3.19
  -3   0  -4    0.17    0.15
  -3   0  -4    0.04    0.09
   3   0   5   18.86    0.84
  -3   0  -5   20.86    0.88
  -3   0  -5   18.58    0.77
  -3   0  -6   -0.05    0.08
  -3   0  -6    0.23    0.16
   3   0   7   46.50    1.31
  -3   0  -7   44.62    1.37
  -3   0  -7   46.48    1.30
   3   0   8   -0.06    0.06
  -3   0  -8   -0.01    0.10
   3   0   8    0.00    0.10
   3   0   9   41.09    0.74
  -3   0  -9   44.79    1.38
   3   0   9   46.73    1.43
  -3   0 -10    0.09    0.15
  -3   0 -11    0.07    0.11
  -3   0 -12    0.20    0.17
  -3   0 -13    4.70    0.53
  -3   0 -14   -0.14    0.18
  -3   0 -15   -0.07    0.17
  -3   0 -16    0.25    0.22
  -3   0 -17    0.64    0.26
  -3   0 -18    0.31    0.18
  -3   0 -19    5.76    0.71
  -3   0 -20    0.06    0.20
  -3   0 -21    3.81    0.62
  -3   0 -22   -0.28    0.26
  -3   0 -23    0.06    0.22
  -3   0 -24    0.11    0.23
  -3   0 -25   -0.08    0.17
   3  -1 -25    0.26    0.25
   3   1 -25    0.59    0.30
   3   1 -25    0.15    0.18
   3  -1 -25   -0.07    0.15
   3  -1 -24    0.02    0.17
   3  -1 -24    0.06    0.17
   3   1 -24   -0.26    0.24
   3  -1 -23    0.30    0.24
   3  -1 -23    0.18    0.19
   3   1 -23    0.11    0.23
   3  -1 -22    0.34    0.24
   3   1 -22    0.00    0.23
   3   1 -22    0.87    0.43
   3  -1 -22    0.84    0.39
   3  -1 -21    0.44    0.25
   3   1 -21   -0.22    0.23
   3  -1 -21    0.05    0.15
   3   1 -21    0.36    0.28
   3   1 -20    0.17    0.24
   3  -1 -20    0.04    0.15
   3   1 -20    0.09    0.18
   3  -1 -20   -0.17    0.16
   3  -1 -19    0.37    0.22
   3   1 -19    0.27    0.24
   3   1 -19   -0.03    0.21
   3  -1 -19   -0.02    0.13
   3  -1 -18    0.33    0.18
   3  -1 -18   -0.16    0.18
   3   1 -18    0.35    0.22
   3   1 -17    1.06    0.35
   3   1 -17    0.92    0.31
  -3  -1  17    1.06    0.34
   3  -1 -17    1.23    0.33
   3  -1 -16    1.94    0.40
   3   1 -16    2.36    0.46
  -3   1  16    3.12    0.29
   3   1 -16    2.71    0.50
  -3  -1  16    1.99    0.43
  -3   1  16    1.96    0.39
  -3   1  15    0.29    0.12
   3  -1 -15    0.26    0.23
   3   1 -15   -0.07    0.18
   3   1 -15   -0.49    0.25
  -3  -1  15   -0.22    0.22
  -3   1  15    0.15    0.16
  -3   1  14   11.61    0.52
   3   1 -14   10.68    0.88
  -3  -1  14   12.10    0.89
  -3   1  14   10.68    0.82
   3   1 -14   11.25    0.89
   3  -1 -14   10.37    0.80
   3   1 -13   21.43    1.22
   3   1 -13   24.38    1.25
  -3   1  13   23.02    1.10
  -3  -1  13   23.69    1.23
  -3   1  13   24.18    0.75
   3  -1 -13   24.10    1.11
   3   1 -12   18.13    1.04
  -3   1  12   18.20    0.97
   3  -1 -12   17.19    0.93
   3   1 -12   16.30    1.03
  -3   1  12   16.86    0.63
  -3  -1  12   19.11    1.07
  -3   1  11   17.92    0.65
  -3   1  11   18.00    0.91
  -3  -1  11   17.68    0.99
   3   1 -11   18.61    1.03
   3  -1 -11   17.72    0.90
  -3  -1  10    0.04    0.17
   3   1 -10   -0.18    0.17
  -3   1  10   -0.07    0.12
   3  -1 -10    0.19    0.15
  -3   1  10    0.07    0.07
  -3   1   9   14.22    0.58
   3  -1  -9   13.93    0.73
  -3   1   9   14.85    0.75
   3   1  -9   13.90    0.84
  -3  -1   9   14.47    0.84
   3  -1  -9   14.69    0.74
  -3   1   8    6.93    0.53
   3  -1  -8    7.12    0.51
  -3   1   8    6.66    0.50
  -3  -1   8    7.14    0.58
   3  -1  -8    6.55    0.49
   3   1  -8    7.26    0.59
   3  -1  -7   -0.04    0.08
   3   1  -7   -0.02    0.12
  -3   1   7    0.05    0.08
   3  -1  -7    0.19    0.10
  -3  -1   7    0.06    0.12
   3   1  -7    0.15    0.12
  -3   1   7    0.00    0.12
  -3  -1   7    0.02    0.10
  -3  -1   7    0.20    0.13
   3   1  -6    3.74    0.39
  -3  -1   6    4.53    0.42
  -3  -1   6    4.03    0.38
  -3   1   6    4.19    0.37
   3  -1  -6    4.16    0.38
  -3  -1   6    4.85    0.45
   3  -1  -6    4.19    0.37
   3   1  -6    4.31    0.43
  -3   1   6    4.50    0.38
   3  -1  -5    2.94    0.29
  -3  -1   5    2.88    0.30
  -3   1   5    3.04    0.30
  -3  -1   5    2.58    0.31
  -3   1   5    2.82    0.29
   3   1  -5    2.87    0.35
   3  -1  -5    2.79    0.29
   3   1  -5    2.68    0.31
  -3  -1   5    3.05    0.35
   3   1  -4   -0.13    0.13
  -3  -1   4    0.23    0.11
   3  -1  -4    0.18    0.08
  -3   1   4    0.04    0.08
  -3  -1   4    0.22    0.05
   3  -1  -4    0.11    0.07
  -3   1   4    0.37    0.10
   3   1  -4    0.11    0.10
  -3  -1   4    0.17    0.15
   3   1  -3   83.89    1.63
  -3   1   3   80.96    1.48
  -3  -1   3   84.55    1.65
  -3   1   3   80.64    1.04
   3  -1  -3   82.88    1.47
   3   1  -3   81.52    1.59
  -3   1   3   82.76    1.50
  -3  -1   3   81.35    1.60
   3  -1  -3   82.49    1.47
  -3  -1   2   78.94    1.56
  -3  -1   2   82.07    1.61
  -3   1   2   78.66    1.46
   3  -1  -2   80.97    1.46
  -3   1   2   81.14    1.48
   3   1  -2   78.66    1.55
   3  -1  -2   83.36    1.47
  -3   1   2   77.70    0.96
   3   1  -2   81.29    1.56
  -3   1   1   10.52    0.33
  -3   1   1    8.87    0.50
   3  -1  -1   10.16    0.36
   3  -1  -1    9.49    0.51
   3   1  -1   10.38    0.55
  -3   1   1    9.91    0.54
   3   1  -1   10.46    0.55
  -3  -1   1   10.31    0.56
  -3  -1   1    9.57    0.54
   3   1   0   93.01    1.64
   3  -1   0   86.07    1.10
  -3  -1   0   88.49    1.61
   3  -1   0   91.14    1.58
  -3   1   0   91.80    1.62
   3   1   0   90.58    1.63
  -3   1   0   87.77    1.58
  -3  -1   0   91.45    1.66
  -3   1  -1  202.03    2.42
   3  -1   1  190.29    2.38
   3   1   1  191.75    2.39
  -3  -1  -1  197.16    2.44
  -3  -1  -1  188.74    2.37
   3  -1   1  190.43    1.69
   3   1   2  136.44    2.05
  -3   1  -2  140.82    2.09
  -3  -1  -2  143.90    2.12
   3  -1   2  141.13    1.49
   3  -1   2  138.51    2.09
  -3  -1  -2  137.63    2.05
   3   1   3   12.17    0.64
   3  -1   3   11.81    0.63
  -3  -1  -3   12.44    0.64
  -3   1  -3   12.17    0.64
  -3  -1  -3   11.61    0.62
  -3   1  -3   11.63    0.64
  -3  -1  -4    1.90    0.22
   3   1   4    2.29    0.29
  -3   1  -4    1.91    0.27
  -3  -1  -4    2.10    0.28
  -3   1  -4    2.14    0.29
  -3   1  -5    5.95    0.48
   3   1   5    6.43    0.48
  -3   1  -5    6.61    0.51
  -3  -1  -5    6.07    0.48
  -3  -1  -5    5.98    0.40
  -3  -1  -6    6.53    0.44
   3   1   6    6.24    0.49
  -3   1  -6    5.94    0.49
  -3  -1  -6    6.41    0.49
  -3  -1  -6    6.21    0.42
  -3   1  -6    5.99    0.49
   3  -1   7    1.33    0.26
  -3  -1  -7    1.33    0.21
  -3   1  -7    1.27    0.23
  -3  -1  -7    1.20    0.23
   3   1   7    1.52    0.23
   3   1   8    4.38    0.39
  -3   1  -8    4.04    0.44
  -3  -1  -8    3.55    0.35
  -3  -1  -9   24.02    0.93
  -3   1  -9   24.19    1.09
   3   1   9   25.53    0.99
   3   1  10    0.70    0.13
  -3  -1 -10    0.73    0.19
  -3   1 -10    0.86    0.23
   3   1  10    1.00    0.23
   3   1  11    4.70    0.35
  -3  -1 -11    5.26    0.49
  -3   1 -11    5.29    0.55
  -3  -1 -12    8.95    0.67
  -3   1 -12    8.48    0.71
   3   1  12    8.35    0.47
  -3  -1 -13   43.83    1.52
  -3   1 -13   42.54    1.62
  -3   1 -14    0.05    0.16
  -3  -1 -14    0.40    0.22
  -3  -1 -15    3.25    0.46
  -3   1 -15    3.40    0.52
  -3   1 -16    0.25    0.19
  -3  -1 -16    0.20    0.24
  -3  -1 -17    4.12    0.56
  -3   1 -17    3.47    0.53
  -3  -1 -18    1.63    0.38
  -3   1 -18    1.54    0.42
  -3  -1 -19    1.66    0.42
  -3   1 -19    0.87    0.33
  -3   1 -20    2.66    0.52
  -3  -1 -20    1.86    0.42
  -3  -1 -21   -0.25    0.25
  -3   1 -21    0.17    0.17
  -3  -1 -22    0.13    0.25
  -3   1 -22   -0.18    0.29
  -3  -1 -23    0.77    0.39
  -3   1 -23    0.07    0.22
  -3   1 -24    0.49    0.31
  -3  -1 -24    0.00    0.16
  -3  -1 -25    0.37    0.37
  -3   1 -25    0.80    0.38
   3  -2 -25    0.01    0.23
   3   2 -25    0.29    0.27
   3   2 -25   -0.01    0.29
   3   2 -24    0.03    0.20
   3   2 -24    0.28    0.27
   3  -2 -24    0.00    0.21
   3  -2 -23    0.52    0.29
   3   2 -23    0.10    0.26
   3  -2 -23    0.39    0.27
   3   2 -23    0.83    0.40
   3  -2 -22    1.20    0.39
   3   2 -22    1.74    0.51
   3   2 -22    1.47    0.50
   3  -2 -22    2.05    0.48
   3  -2 -21   -0.05    0.14
   3   2 -21    0.15    0.25
   3   2 -21   -0.30    0.25
   3  -2 -21   -0.01    0.18
   3   2 -20    3.08    0.64
   3  -2 -20    3.14    0.57
   3   2 -20    3.25    0.62
   3  -2 -20    2.85    0.52
   3  -2 -19    0.44    0.24
   3   2 -19    0.44    0.32
   3  -2 -19    0.85    0.31
   3   2 -19    1.21    0.44
  -3   2  19    1.14    0.22
   3   2 -18    0.13    0.29
   3  -2 -18    0.02    0.17
   3   2 -18    0.19    0.25
  -3   2  18    0.55    0.18
   3   2 -17   11.04    1.04
   3  -2 -17   11.79    0.87
  -3   2  17   10.90    0.62
   3  -2 -17   13.76    1.02
  -3  -2  17   14.77    1.13
   3   2 -17   10.81    1.05
   3   2 -16   15.79    1.21
   3   2 -16   14.94    1.16
   3  -2 -16   14.88    0.96
  -3   2  16   14.22    0.70
  -3  -2  16   14.23    1.11
   3  -2 -16   15.32    1.03
  -3   2  16   16.81    1.00
   3   2 -15    4.40    0.64
   3   2 -15    4.66    0.65
  -3  -2  15    6.08    0.69
  -3   2  15    5.87    0.60
   3  -2 -15    5.36    0.54
   3  -2 -15    6.72    0.68
  -3   2  15    5.26    0.43
   3   2 -14    0.08    0.17
   3  -2 -14   -0.04    0.15
  -3   2  14    0.29    0.17
   3   2 -14    0.12    0.18
  -3  -2  14    0.17    0.19
  -3   2  14   -0.14    0.17
   3  -2 -13    1.23    0.29
   3   2 -13    0.51    0.19
  -3   2  13    0.98    0.20
   3   2 -13    0.31    0.20
  -3  -2  13    0.64    0.25
  -3   2  13    0.81    0.22
   3  -2 -13    0.62    0.18
  -3   2  12    0.56    0.16
   3  -2 -12    0.78    0.21
   3  -2 -12    0.73    0.20
   3   2 -12    0.69    0.26
  -3   2  12    0.85    0.22
  -3  -2  12    0.83    0.27
   3   2 -12    0.32    0.27
   3  -2 -12    0.83    0.27
   3   2 -11    7.45    0.69
  -3   2  11    6.73    0.54
  -3  -2  11    6.91    0.66
   3   2 -11    7.22    0.64
  -3   2  11    6.77    0.48
   3  -2 -11    7.77    0.65
   3  -2 -11    6.21    0.49
   3  -2 -11    6.76    0.51
   3   2 -10    1.32    0.29
   3   2 -10    0.91    0.28
   3  -2 -10    1.29    0.23
  -3   2  10    1.70    0.28
   3  -2 -10    1.25    0.24
  -3  -2  10    1.08    0.29
  -3   2  10    1.37    0.22
   3   2  -9    0.14    0.13
   3  -2  -9    0.14    0.09
  -3   2   9    0.08    0.09
  -3   2   9    0.24    0.12
   3   2  -9    0.07    0.13
  -3  -2   9    0.09    0.13
   3  -2  -9    0.11    0.11
  -3   2   8    2.08    0.28
   3  -2  -8    1.81    0.24
   3   2  -8    1.88    0.33
  -3   2   8    2.57    0.30
   3   2  -8    1.97    0.32
   3  -2  -8    2.23    0.28
  -3  -2   8    1.67    0.21
  -3  -2   8    2.46    0.37
   3   2  -7    1.02    0.27
   3  -2  -7    1.11    0.19
   3  -2  -7    1.14    0.19
  -3   2   7    1.25    0.20
  -3   2   7    1.18    0.19
  -3  -2   7    0.96    0.23
  -3  -2   7    1.24    0.23
  -3  -2   7    1.39    0.19
  -3   2   6    5.73    0.40
  -3  -2   6    4.67    0.31
  -3  -2   6    5.61    0.50
   3  -2  -6    5.22    0.38
  -3  -2   6    5.53    0.43
  -3  -2   6    6.10    0.52
   3  -2  -6    5.51    0.39
   3   2  -6    5.45    0.52
  -3   2   6    5.84    0.40
  -3   2   5   91.59    1.55
   3   2  -5   95.49    1.92
  -3  -2   5   93.86    1.94
  -3  -2   5   91.46    1.32
   3  -2  -5   93.61    1.55
  -3   2   5   97.30    1.61
  -3  -2   5   93.87    1.66
   3  -2  -5   92.37    1.53
   3   2  -5   97.86    1.97
  -3  -2   5   93.51    1.97
   3  -2  -4   15.87    0.63
  -3   2   4   16.29    0.65
  -3  -2   4   15.49    0.78
   3   2  -4   15.12    0.75
  -3  -2   4   14.20    0.39
   3   2  -4   15.80    0.77
  -3  -2   4   15.47    0.65
   3  -2  -4   15.42    0.63
  -3  -2   4   13.89    0.50
  -3   2   4   16.40    0.65
  -3  -2   4   14.21    0.74
   3   2  -3    7.16    0.50
  -3  -2   3    7.45    0.52
   3   2  -3    6.05    0.28
  -3  -2   3    7.00    0.50
  -3  -2   3    6.91    0.40
   3  -2  -3    6.74    0.42
  -3   2   3    7.17    0.43
   3   2  -3    7.08    0.50
  -3  -2   3    7.17    0.35
  -3   2   3    7.26    0.41
  -3   2   3    7.02    0.43
  -3  -2   3    7.16    0.30
  -3  -2   2   11.56    0.49
  -3  -2   2   11.41    0.63
  -3  -2   2   12.71    0.43
   3  -2  -2   12.25    0.56
  -3  -2   2   11.30    0.61
  -3   2   2   12.52    0.57
  -3   2   2   12.60    0.53
   3   2  -2   12.29    0.64
   3   2  -2   11.97    0.42
  -3   2   2   11.66    0.57
   3   2  -2   11.95    0.63
  -3  -2   1   45.10    1.21
  -3   2   1   46.98    1.13
   3   2  -1   46.90    0.88
  -3  -2   1   48.35    0.90
   3  -2  -1   48.30    1.15
   3   2  -1   48.23    1.24
  -3   2   1   49.90    1.17
   3  -2  -1   47.84    1.04
   3   2  -1   46.95    1.22
  -3   2   1   46.64    0.97
  -3  -2   1   48.92    1.26
   3   2   0   24.17    0.86
   3   2   0   22.49    0.62
  -3  -2   0   23.39    0.87
  -3  -2   0   23.50    0.66
  -3  -2   0   24.94    0.89
   3  -2   0   22.25    0.72
   3  -2   0   22.68    0.70
   3  -2   0   23.38    0.83
  -3   2   0   23.84    0.83
   3   2   0   24.08    0.86
  -3   2   0   22.05    0.66
   3  -2   1   16.32    0.56
   3   2   1   18.74    0.76
  -3  -2  -1   18.07    0.76
  -3   2  -1   16.20    0.56
   3  -2   1   18.19    0.77
  -3   2  -1   18.86    0.76
   3   2   1   18.13    0.76
  -3  -2  -1   17.65    0.60
  -3  -2  -1   18.84    0.77
   3  -2   1   17.25    0.65
   3  -2   2   65.99    1.04
  -3  -2  -2   66.35    1.24
  -3   2  -2   68.49    1.51
   3   2   2   67.04    1.44
   3  -2   2   65.45    1.28
  -3  -2  -2   67.21    1.46
  -3  -2  -2   66.52    1.45
  -3   2  -3   87.29    1.86
  -3  -2  -3   87.32    1.68
  -3  -2  -3   92.19    1.52
  -3   2  -3   90.39    1.77
   3   2   3   87.55    1.67
  -3  -2  -3   90.06    1.72
  -3  -2  -3   89.44    1.22
   3  -2   3   92.39    1.54
   3  -2   3   88.25    1.11
  -3  -2  -4    7.18    0.49
   3  -2   4    8.30    0.48
  -3   2  -4    7.57    0.54
   3   2   4    7.57    0.51
  -3  -2  -4    7.37    0.51
  -3  -2  -4    7.24    0.35
  -3  -2  -4    7.79    0.47
  -3   2  -4    6.65    0.53
  -3   2  -5    4.60    0.46
  -3  -2  -5    3.93    0.35
   3  -2   5    4.24    0.35
  -3   2  -5    3.99    0.40
   3   2   5    4.86    0.42
  -3  -2  -5    4.02    0.38
  -3  -2  -5    4.03    0.39
  -3  -2  -5    3.93    0.28
  -3   2  -6   14.57    0.82
   3   2   6   14.28    0.73
  -3  -2  -6   14.55    0.73
  -3  -2  -6   14.25    0.56
   3  -2   6   13.13    0.64
   3   2   7   12.20    0.56
   3   2   7   11.93    0.69
  -3   2  -7   12.44    0.77
  -3  -2  -7   12.79    0.57
  -3  -2  -7   13.53    0.73
  -3  -2  -8    4.12    0.34
   3   2   8    4.37    0.36
  -3  -2  -8    4.14    0.41
  -3   2  -8    4.47    0.50
   3   2   9    2.22    0.28
  -3   2  -9    1.99    0.35
  -3  -2  -9    2.31    0.26
  -3  -2 -10   16.35    0.77
  -3   2 -10   17.06    0.99
   3   2  10   15.78    0.77
   3   2  11    0.20    0.11
  -3   2 -11    0.21    0.14
   3   2  11    0.46    0.14
  -3  -2 -11    0.24    0.12
  -3  -2 -12    3.15    0.38
  -3   2 -12    3.39    0.47
   3   2  12    3.12    0.34
   3   2  13    0.83    0.20
  -3  -2 -13    0.87    0.24
  -3   2 -13    1.12    0.31
  -3   2 -14    0.20    0.20
   3   2  14    0.24    0.13
  -3  -2 -14    0.38    0.18
  -3   2 -15    0.26    0.21
  -3  -2 -15    0.51    0.21
  -3   2 -16    0.04    0.20
  -3  -2 -16    0.40    0.20
  -3   2 -17    0.52    0.27
  -3  -2 -17    0.55    0.26
  -3  -2 -18    0.64    0.27
  -3   2 -18    0.90    0.34
  -3   2 -19    0.14    0.22
  -3  -2 -19    0.25    0.20
  -3   2 -20    0.81    0.38
  -3  -2 -20    0.61    0.26
  -3   2 -21    0.55    0.31
  -3  -2 -21    1.05    0.35
  -3   2 -22    0.30    0.23
  -3  -2 -22    0.48    0.31
  -3  -2 -23    1.70    0.45
  -3   2 -23    2.10    0.58
  -3   2 -24    0.46    0.34
  -3  -2 -24    0.09    0.27
   3   3 -25    0.03    0.23
   3   3 -25   -0.02    0.26
   3  -3 -25   -0.24    0.26
   3   3 -24   -0.23    0.25
   3   3 -24   -0.60    0.37
   3  -3 -24    0.40    0.29
   3   3 -23    0.01    0.22
   3   3 -23    0.10    0.21
   3  -3 -23    0.40    0.29
   3   3 -22   -0.40    0.29
   3   3 -22   -0.08    0.24
   3  -3 -22   -0.21    0.25
   3  -3 -21    0.30    0.19
   3   3 -21    0.40    0.28
  -3   3  21    0.23    0.14
   3  -3 -21   -0.19    0.21
   3  -3 -20    0.24    0.24
   3  -3 -20    0.35    0.21
   3   3 -20    0.30    0.27
  -3   3  20    0.19    0.14
   3   3 -20    0.22    0.27
   3  -3 -19    1.41    0.35
   3   3 -19    0.89    0.40
   3   3 -19    1.63    0.49
   3  -3 -19    1.53    0.40
  -3   3  19    1.18    0.24
   3  -3 -18    1.37    0.30
   3   3 -18    1.55    0.49
  -3   3  18    1.82    0.29
   3  -3 -18    1.41    0.38
   3   3 -18    1.50    0.43
   3  -3 -17    5.02    0.66
   3  -3 -17    4.25    0.49
  -3   3  17    4.65    0.46
   3   3 -17    4.40    0.71
  -3  -3  17    5.62    0.74
   3   3 -17    5.20    0.74
   3  -3 -16    0.79    0.33
   3   3 -16    0.30    0.32
  -3   3  16    0.10    0.12
   3   3 -16    0.25    0.23
   3  -3 -16    0.29    0.16
   3   3 -15    1.90    0.45
  -3   3  15    2.79    0.39
  -3   3  15    1.63    0.28
   3   3 -15    2.14    0.45
   3  -3 -15    2.17    0.33
   3  -3 -15    2.17    0.41
  -3  -3  15    2.86    0.51
   3   3 -14    3.58    0.60
  -3  -3  14    3.73    0.44
   3   3 -14    3.84    0.57
  -3   3  14    4.05    0.44
   3  -3 -14    4.16    0.56
  -3   3  14    4.81    0.47
  -3  -3  14    4.34    0.62
   3  -3 -14    3.24    0.38
   3  -3 -14    4.22    0.43
  -3   3  13    0.81    0.23
   3  -3 -13    0.47    0.17
   3  -3 -13    0.46    0.16
  -3  -3  13    1.01    0.35
  -3   3  13    0.45    0.18
   3   3 -13    0.59    0.25
   3  -3 -13    0.52    0.20
   3   3 -13    0.64    0.27
  -3  -3  13    1.05    0.24
   3  -3 -12    0.99    0.29
   3   3 -12    0.62    0.25
   3  -3 -12    0.51    0.14
   3  -3 -12    0.54    0.16
   3   3 -12    0.78    0.26
  -3   3  12    0.42    0.12
  -3  -3  12    0.36    0.25
  -3   3  12    0.65    0.20
  -3  -3  12    0.55    0.19
   3  -3 -11    0.24    0.12
   3   3 -11    0.34    0.21
   3  -3 -11    0.26    0.11
   3   3 -11    0.29    0.21
  -3   3  11    0.05    0.11
  -3  -3  11    0.57    0.17
  -3  -3  11    0.39    0.22
  -3   3  11    0.23    0.10
   3  -3 -11    0.27    0.24
   3   3 -10    7.04    0.64
   3  -3 -10    7.28    0.64
   3  -3 -10    7.51    0.48
  -3   3  10    7.33    0.49
  -3  -3  10    7.84    0.71
  -3  -3  10    7.50    0.53
   3  -3 -10    7.28    0.47
  -3   3  10    7.28    0.57
   3   3 -10    6.91    0.68
   3  -3  -9   -0.13    0.10
   3   3  -9   -0.34    0.20
  -3   3   9    0.08    0.10
  -3  -3   9   -0.02    0.15
   3   3  -9    0.17    0.16
   3  -3  -9    0.62    0.27
  -3  -3   9    0.32    0.14
   3  -3  -9    0.14    0.10
  -3   3   8   16.88    0.68
  -3  -3   8   18.96    1.01
   3   3  -8   18.42    0.90
   3  -3  -8   17.39    0.66
   3  -3  -8   18.27    0.69
  -3  -3   8   17.93    0.77
   3   3  -8   19.07    1.02
  -3   3   8   16.92    0.71
   3  -3  -8   19.31    0.98
   3  -3  -7    3.97    0.45
   3  -3  -7    3.38    0.29
  -3   3   7    3.54    0.30
  -3  -3   7    3.53    0.45
   3   3  -7    2.87    0.35
  -3  -3   7    3.76    0.38
   3  -3  -7    3.52    0.30
  -3  -3   7    4.27    0.36
   3   3  -7    3.00    0.42
  -3   3   7    3.55    0.30
  -3   3   6   61.83    1.23
   3   3  -6   65.14    1.75
  -3  -3   6   61.50    1.36
   3   3  -6   63.27    1.48
  -3  -3   6   60.70    1.42
   3  -3  -6   61.34    1.62
   3  -3  -6   63.69    1.23
   3  -3  -6   61.01    1.21
  -3   3   6   62.80    1.26
  -3  -3   6   64.17    1.74
   3   3  -5    0.58    0.13
  -3   3   5    0.73    0.15
   3   3  -5    0.37    0.16
   3   3  -5    0.79    0.10
  -3  -3   5    0.62    0.14
  -3   3   5    0.52    0.12
  -3  -3   5    0.68    0.22
   3   3  -5    0.42    0.14
  -3  -3   5    0.54    0.16
   3  -3  -5    0.85    0.23
   3  -3  -5    0.81    0.14
   3  -3  -4    8.17    0.57
  -3  -3   4    8.16    0.59
   3   3  -4    9.60    0.63
   3   3  -4    8.52    0.33
   3   3  -4    9.29    0.62
  -3   3   4    9.35    0.48
   3  -3  -4    8.62    0.46
  -3  -3   4    9.60    0.64
  -3   3   4    8.92    0.47
  -3   3   4    8.35    0.53
  -3  -3   4    7.81    0.47
   3   3  -4    6.73    0.39
  -3  -3   4    8.98    0.48
   3  -3  -3   16.40    0.78
  -3  -3   3   16.08    0.80
   3   3  -3   16.05    0.48
   3   3  -3   14.31    0.59
  -3  -3   3   14.96    0.59
   3   3  -3   15.95    0.79
   3  -3  -3   17.06    0.66
  -3   3   3   16.20    0.65
  -3   3   3   16.65    0.65
  -3  -3   3   16.11    0.65
  -3  -3   3   14.89    0.56
  -3   3   3   16.71    0.74
   3   3  -3   15.72    0.79
  -3  -3   3   16.40    0.83
  -3   3   2    3.10    0.31
  -3  -3   2    3.42    0.29
  -3   3   2    3.09    0.29
  -3  -3   2    3.43    0.37
   3  -3  -2    3.18    0.34
  -3  -3   2    3.05    0.25
   3  -3  -2    3.30    0.30
  -3   3   2    3.06    0.29
   3   3  -2    3.17    0.35
   3   3  -2    3.08    0.28
  -3  -3   2    3.36    0.36
   3   3  -2    3.43    0.24
   3   3  -2    3.16    0.34
  -3  -3   1    2.65    0.32
   3  -3  -1    2.31    0.28
   3   3  -1    2.72    0.23
   3  -3  -1    2.47    0.30
  -3  -3   1    2.65    0.21
   3   3  -1    2.47    0.26
   3  -3  -1    2.58    0.28
   3   3  -1    2.63    0.32
  -3   3   1    2.70    0.29
   3   3  -1    2.49    0.31
  -3   3   1    2.33    0.27
  -3  -3   1    2.89    0.33
  -3  -3   1    2.68    0.27
   3  -3   0    6.07    0.42
   3   3   0    6.33    0.46
  -3  -3   0    5.77    0.45
   3   3   0    6.60    0.37
  -3  -3   0    5.82    0.28
  -3   3   0    5.74    0.42
   3   3   0    5.62    0.43
  -3  -3   0    6.53    0.42
   3   3   0    5.63    0.39
   3  -3   0    5.85    0.45
  -3   3   0    6.07    0.42
  -3  -3   0    5.96    0.46
  -3  -3  -1    8.83    0.50
   3  -3   1    8.29    0.54
   3   3   1    9.20    0.46
  -3   3  -1    9.36    0.55
  -3  -3  -1    8.69    0.31
  -3  -3  -1    8.96    0.56
   3   3   1    8.40    0.54
   3   3   1    8.08    0.52
  -3  -3  -1    9.10    0.56
  -3   3  -1    8.29    0.50
   3  -3   1    8.60    0.48
   3   3   2   22.39    0.86
  -3  -3  -2   21.72    0.86
   3   3   2   21.61    0.73
  -3   3  -2   22.57    0.88
  -3   3  -2   20.46    0.76
   3   3   2   21.68    0.86
  -3  -3  -2   22.27    0.87
   3  -3   2   21.13    0.85
  -3  -3  -2   21.75    0.81
  -3  -3  -3    6.33    0.47
   3   3   3    7.70    0.46
  -3   3  -3    6.82    0.51
   3  -3   3    7.07    0.50
   3   3   3    6.66    0.47
  -3   3  -3    6.36    0.54
  -3  -3  -3    6.54    0.48
  -3   3  -3    6.91    0.45
  -3  -3  -3    7.28    0.49
  -3  -3  -3    5.91    0.24
  -3  -3  -4    0.30    0.11
  -3  -3  -4    0.32    0.07
   3   3   4    0.31    0.12
   3   3   4    0.64    0.19
  -3   3  -4    0.46    0.16
  -3   3  -4    0.52    0.18
   3  -3   4    0.13    0.10
  -3  -3  -4    0.32    0.14
  -3  -3  -4    0.52    0.14
  -3   3  -5    8.29    0.64
  -3  -3  -5    8.79    0.56
   3  -3   5    7.06    0.52
   3   3   5    7.73    0.49
  -3  -3  -5    8.75    0.33
   3   3   5    8.54    0.56
  -3  -3  -5    8.46    0.56
  -3  -3  -6    0.26    0.13
  -3  -3  -6    0.35    0.14
  -3   3  -6    0.09    0.14
   3   3   6    0.11    0.16
   3   3   6    0.25    0.13
   3  -3   6    0.39    0.20
  -3  -3  -6    0.15    0.07
  -3  -3  -7    5.90    0.48
  -3  -3  -7    5.69    0.32
   3   3   7    5.30    0.46
  -3  -3  -7    5.24    0.46
   3  -3   7    5.19    0.48
  -3   3  -7    4.77    0.50
   3  -3   8    0.24    0.14
  -3   3  -8    0.40    0.20
   3   3   8    0.64    0.13
  -3  -3  -8    0.62    0.12
  -3  -3  -8    0.87    0.21
   3  -3   9    0.39    0.18
  -3  -3  -9    0.45    0.12
  -3   3  -9    0.69    0.26
   3   3   9    0.58    0.14
  -3  -3  -9    0.60    0.19
   3  -3  10    0.48    0.20
  -3   3 -10    0.26    0.16
   3   3  10    0.26    0.10
  -3  -3 -10    0.53    0.14
  -3   3 -11    0.47    0.24
   3   3  11    0.14    0.08
  -3  -3 -11    0.54    0.16
   3  -3  11    0.18    0.19
  -3   3 -12    0.32    0.27
   3   3  12    0.02    0.09
  -3  -3 -12    0.23    0.13
   3   3  13   12.54    0.75
  -3  -3 -13   15.29    0.81
  -3   3 -13   15.09    1.07
  -3   3 -14    0.14    0.17
  -3  -3 -14   -0.01    0.12
  -3   3 -15    0.97    0.36
  -3  -3 -15    0.72    0.23
  -3  -3 -16    3.86    0.48
  -3   3 -16    4.15    0.62
  -3  -3 -17    7.37    0.69
  -3   3 -17    6.53    0.79
  -3   3 -18    1.69    0.49
  -3  -3 -18    1.22    0.32
  -3   3 -19    2.26    0.52
  -3  -3 -19    2.14    0.41
  -3  -3 -20    0.00    0.14
  -3   3 -20   -0.17    0.20
  -3   3 -21    0.93    0.38
  -3  -3 -21    0.36    0.24
  -3  -3 -22    1.43    0.37
  -3   3 -22    1.90    0.53
  -3   3 -23    0.57    0.33
  -3  -3 -23    0.33    0.26
  -3   3 -24    0.84    0.42
  -3  -4  24    0.10    0.25
   3   4 -24   -0.02    0.26
   3   4 -24    0.36    0.34
   3  -4 -24   -0.65    0.34
   3   4 -23   -0.49    0.31
   3  -4 -23   -0.05    0.21
   3   4 -23   -0.13    0.25
  -3  -4  23    0.50    0.24
   3   4 -22    0.02    0.24
   3   4 -22    0.12    0.26
   3  -4 -22   -0.04    0.24
  -3  -4  22    0.23    0.21
  -3   4  22    0.62    0.21
  -3   4  21    0.31    0.17
   3   4 -21    0.90    0.35
   3   4 -21   -0.03    0.29
   3  -4 -21    0.39    0.30
  -3  -4  21    0.44    0.24
   3   4 -20   -0.02    0.23
  -3  -4  20    0.11    0.13
   3   4 -20    0.00    0.26
  -3   4  20    0.32    0.16
   3  -4 -20    0.70    0.32
   3   4 -19    0.46    0.29
   3   4 -19    0.39    0.32
   3  -4 -19    1.26    0.39
  -3   4  19    1.18    0.27
  -3  -4  19    0.51    0.22
   3  -4 -18    1.27    0.37
   3  -4 -18    0.92    0.23
   3   4 -18    0.94    0.41
   3   4 -18    0.73    0.37
  -3   4  18    1.23    0.27
  -3  -4  18    1.09    0.31
   3   4 -17    5.11    0.76
   3  -4 -17    6.47    0.79
  -3   4  17    4.44    0.50
   3   4 -17    6.53    0.81
  -3  -4  17    7.20    0.83
  -3  -4  17    5.01    0.59
   3  -4 -17    6.07    0.53
   3  -4 -16    0.19    0.17
  -3  -4  16    0.26    0.20
  -3   4  16    0.02    0.12
   3   4 -16    0.47    0.26
  -3  -4  16    0.59    0.29
   3  -4 -16    0.44    0.16
   3   4 -16    0.48    0.26
   3  -4 -15    0.24    0.21
   3  -4 -15    0.10    0.10
  -3   4  15    0.38    0.20
   3   4 -15    0.17    0.19
   3   4 -15   -0.20    0.24
  -3  -4  15    0.13    0.13
   3   4 -14    2.04    0.47
  -3  -4  14    2.51    0.39
   3  -4 -14    2.58    0.49
  -3   4  14    2.60    0.39
   3   4 -14    2.02    0.44
  -3  -4  14    3.15    0.54
   3  -4 -14    2.53    0.30
   3  -4 -14    2.13    0.27
   3  -4 -13    6.17    0.71
   3  -4 -13    6.41    0.46
   3   4 -13    7.03    0.80
   3   4 -13    6.92    0.78
  -3  -4  13    7.89    0.81
  -3   4  13    6.85    0.50
   3  -4 -13    6.85    0.47
  -3  -4  13    5.73    0.58
  -3   4  13    6.66    0.62
   3  -4 -12    0.60    0.15
   3  -4 -12    0.58    0.14
   3   4 -12    0.83    0.32
   3  -4 -12    0.73    0.26
   3   4 -12    0.22    0.05
  -3  -4  12    0.45    0.27
  -3   4  12    0.35    0.12
   3   4 -12    0.43    0.23
  -3   4  12    0.20    0.15
  -3  -4  12    0.60    0.23
  -3  -4  11    1.65    0.31
   3  -4 -11    2.17    0.42
   3  -4 -11    1.54    0.21
   3   4 -11    1.15    0.34
  -3   4  11    1.47    0.31
  -3   4  11    1.76    0.24
  -3  -4  11    2.17    0.41
   3   4 -11    1.55    0.36
   3  -4 -11    1.57    0.22
   3  -4 -10    0.21    0.19
   3  -4 -10   -0.01    0.06
   3   4 -10   -0.28    0.21
  -3   4  10   -0.25    0.20
  -3   4  10    0.09    0.08
  -3  -4  10    0.08    0.15
   3   4 -10    0.12    0.13
   3   4 -10   -0.01    0.03
   3  -4 -10   -0.06    0.09
  -3  -4  10    0.05    0.15
   3  -4  -9   27.46    0.80
  -3   4   9   26.79    0.83
  -3  -4   9   30.98    1.40
   3  -4  -9   26.97    1.30
   3   4  -9   28.00    1.19
   3  -4  -9   27.79    0.79
  -3  -4   9   26.90    1.08
   3   4  -9   26.63    1.32
   3   4  -9   22.77    0.53
   3   4  -8    0.84    0.12
   3  -4  -8    1.49    0.33
   3   4  -8    1.03    0.32
  -3   4   8    1.62    0.20
  -3  -4   8    1.18    0.28
  -3  -4   8    1.23    0.34
   3   4  -8    0.96    0.26
  -3   4   8    1.46    0.20
   3  -4  -8    1.45    0.19
   3  -4  -7   -0.14    0.17
   3   4  -7    0.18    0.07
   3   4  -7    0.05    0.18
  -3   4   7    0.15    0.07
  -3   4   7    0.17    0.09
  -3  -4   7    0.28    0.20
   3   4  -7    0.23    0.16
  -3  -4   7    0.09    0.14
   3  -4  -7    0.14    0.08
   3   4  -6    0.56    0.11
  -3  -4   6    0.76    0.21
  -3   4   6    0.43    0.10
   3   4  -6    0.52    0.21
  -3   4   6    0.41    0.10
   3  -4  -6    0.44    0.20
  -3  -4   6    0.49    0.20
   3   4  -6    0.40    0.14
   3  -4  -6    0.48    0.12
  -3  -4   6    0.53    0.16
   3   4  -6    0.79    0.18
   3  -4  -5    8.94    0.67
   3   4  -5    9.24    0.42
  -3   4   5    9.73    0.48
  -3  -4   5    9.18    0.60
  -3  -4   5   10.35    0.73
   3   4  -5    9.49    0.70
   3   4  -5    9.20    0.56
   3   4  -5    7.74    0.50
  -3  -4   5    9.27    0.55
   3  -4  -5    9.86    0.48
  -3   4   5    9.25    0.47
  -3   4   5    9.40    0.65
   3  -4  -4    0.15    0.13
  -3  -4   4    0.26    0.14
   3   4  -4    0.20    0.16
  -3   4   4    0.31    0.11
  -3   4   4    0.16    0.08
  -3  -4   4    0.32    0.14
   3   4  -4    0.15    0.09
   3   4  -4   -0.03    0.07
   3  -4  -4    0.10    0.08
  -3   4   4    0.17    0.09
  -3  -4   4    0.34    0.12
   3   4  -4    0.00    0.07
   3  -4  -3   34.15    1.24
   3   4  -3   34.27    0.88
  -3   4   3   34.14    0.93
  -3  -4   3   33.68    1.22
   3   4  -3   33.12    0.89
  -3  -4   3   32.68    0.89
   3  -4  -3   34.08    0.95
  -3   4   3   33.50    0.93
  -3  -4   3   33.82    1.10
  -3   4   3   35.59    1.23
   3   4  -3   33.56    1.06
   3   4  -3   35.57    1.23
   3   4  -2    0.11    0.11
  -3   4   2    0.08    0.12
  -3  -4   2    0.07    0.10
   3   4  -2    0.24    0.13
  -3  -4   2    0.14    0.15
   3   4  -2    0.02    0.09
  -3  -4   2    0.18    0.10
  -3   4   2    0.23    0.11
   3   4  -2   -0.12    0.15
  -3   4   1   33.28    1.04
  -3  -4   1   31.07    1.13
  -3   4   1   34.21    1.16
   3   4  -1   33.53    1.10
  -3  -4   1   31.59    1.03
  -3  -4   1   30.58    0.71
  -3   4   1   31.38    0.95
   3   4  -1   35.39    0.96
   3   4  -1   31.03    1.09
   3  -4  -1   32.16    1.19
   3   4  -1   31.31    1.10
  -3  -4   1   32.91    1.15
  -3   4   0   57.45    1.31
   3   4   0   54.78    1.42
  -3   4   0   58.49    1.50
  -3  -4   0   56.03    1.46
   3  -4   0   56.50    1.58
   3   4   0   56.81    1.44
  -3  -4   0   55.72    0.84
   3   4   0   57.55    1.27
  -3   4   0   57.53    1.35
   3   4   0   54.48    1.42
  -3  -4   0   56.15    1.42
  -3  -4   0   56.57    1.48
   3   4   1    8.07    0.54
   3   4   1    8.67    0.51
  -3  -4  -1    8.34    0.55
  -3  -4  -1    7.92    0.26
  -3   4  -1    8.51    0.54
  -3  -4  -1    8.14    0.55
   3   4   1    7.67    0.53
   3  -4   1    8.53    0.62
  -3   4  -1    8.78    0.58
   3   4   1    8.09    0.55
  -3   4  -1    8.47    0.49
  -3  -4  -1    8.18    0.56
  -3   4  -2   17.00    0.66
   3   4   2   17.70    0.78
  -3   4  -2   16.32    0.91
  -3   4  -2   16.40    0.77
   3   4   2   16.69    0.72
   3   4   2   16.44    0.76
   3  -4   2   16.29    0.87
  -3   4  -2   16.90    0.80
  -3  -4  -2   16.69    0.78
  -3  -4  -2   16.24    0.76
  -3  -4  -2   17.40    0.84
  -3  -4  -3   14.79    0.72
  -3   4  -3   15.88    0.79
   3   4   3   15.29    0.73
  -3   4  -3   15.58    0.89
   3   4   3   15.36    0.74
  -3  -4  -3   15.48    0.75
   3  -4   3   15.45    0.84
   3   4   3   14.97    0.70
  -3   4  -3   14.88    0.59
  -3   4  -4   13.97    0.55
  -3   4  -4   14.37    0.86
   3  -4   4   13.17    0.80
  -3  -4  -4   13.33    0.69
   3   4   4   13.57    0.69
   3   4   4   13.89    0.70
  -3  -4  -4   13.16    0.69
  -3  -4  -5    1.28    0.23
  -3  -4  -5    1.27    0.24
  -3   4  -5    1.10    0.26
   3   4   5    1.07    0.24
  -3   4  -5    0.83    0.14
   3   4   5    1.61    0.25
   3  -4   5    0.57    0.20
  -3  -4  -6    0.98    0.20
  -3   4  -6    0.62    0.19
  -3   4  -6    1.07    0.14
   3   4   6    1.33    0.27
   3   4   6    1.21    0.23
  -3  -4  -6    1.02    0.21
   3  -4   6    1.28    0.28
  -3   4  -7    1.04    0.13
  -3   4  -7    1.10    0.28
   3  -4   7    1.21    0.27
  -3  -4  -7    1.33    0.23
  -3  -4  -7    1.26    0.12
   3   4   7    1.43    0.27
   3   4   7    1.17    0.21
  -3  -4  -7    1.35    0.24
  -3   4  -8    2.25    0.17
  -3  -4  -8    2.20    0.31
   3   4   8    2.15    0.19
   3   4   8    2.41    0.35
  -3   4  -8    2.54    0.41
   3   4   8    2.34    0.31
  -3  -4  -8    2.45    0.32
  -3  -4  -8    2.29    0.18
   3  -4   8    2.43    0.36
  -3  -4  -9   -0.02    0.13
  -3  -4  -9    0.15    0.12
  -3   4  -9   -0.19    0.21
  -3  -4  -9    0.04    0.05
   3   4   9    0.12    0.06
  -3   4  -9    0.07    0.04
   3  -4   9   -0.03    0.14
  -3   4 -10    0.26    0.05
  -3   4 -10    0.60    0.25
  -3  -4 -10    0.49    0.17
   3   4  10    0.90    0.27
  -3  -4 -10    0.55    0.13
   3   4  10    0.54    0.14
   3  -4  10    0.54    0.24
  -3   4 -11    3.65    0.52
  -3  -4 -11    3.19    0.30
   3   4  11    3.94    0.47
   3   4  11    2.81    0.30
   3  -4  11    2.86    0.45
  -3   4 -12    1.42    0.36
  -3  -4 -12    1.59    0.24
   3   4  12    1.14    0.21
   3  -4  12    1.71    0.39
  -3  -4 -13    2.44    0.32
  -3   4 -13    2.44    0.48
   3  -4  13    2.07    0.41
   3   4  13    1.88    0.29
   3  -4  14    4.85    0.62
  -3  -4 -14    4.65    0.44
   3   4  14    3.37    0.39
  -3   4 -14    4.24    0.61
   3  -4  15    0.82    0.35
  -3  -4 -15    0.42    0.24
  -3   4 -15    0.62    0.33
  -3   4 -16    5.34    0.73
   3  -4  16    6.03    0.73
  -3  -4 -16    5.79    0.55
  -3  -4 -17    6.05    0.58
  -3   4 -17    6.25    0.79
   3  -4  17    6.21    0.74
   3  -4  18    2.48    0.49
  -3  -4 -18    2.56    0.41
  -3   4 -18    3.12    0.59
   3  -4  19    1.31    0.40
  -3  -4 -19    1.12    0.31
  -3   4 -19    1.56    0.45
  -3  -4 -20    3.10    0.49
  -3   4 -20    3.59    0.65
   3  -4  21    0.48    0.35
  -3   4 -21    0.45    0.31
   3  -4  22    1.31    0.42
  -3   4 -22    2.21    0.54
   3  -4  23    0.90    0.39
  -3   4 -23    0.53    0.37
   3   5 -23    0.10    0.20
   3   5 -23    0.02    0.21
  -3   5  23    0.11    0.18
  -3  -5  23    0.18    0.22
   3   5 -22    0.39    0.32
   3   5 -22    0.77    0.35
  -3   5  22    0.40    0.21
  -3  -5  22    0.09    0.22
  -3   5  21    0.41    0.19
   3   5 -21   -0.36    0.28
   3   5 -21    0.61    0.39
  -3  -5  21    0.31    0.27
  -3   5  20    1.05    0.27
   3   5 -20    0.81    0.40
   3   5 -20    1.28    0.45
  -3  -5  20    0.91    0.35
   3  -5 -19   -0.14    0.20
   3   5 -19    0.63    0.36
  -3   5  19    0.31    0.15
   3   5 -19    0.18    0.28
  -3  -5  19    0.42    0.24
   3  -5 -18   -0.16    0.26
   3   5 -18    0.18    0.24
   3   5 -18   -0.33    0.27
  -3  -5  18    0.16    0.15
  -3   5  18   -0.36    0.22
   3   5 -17    0.49    0.29
  -3   5  17    1.54    0.36
   3   5 -17    0.79    0.35
   3  -5 -17    0.93    0.34
  -3  -5  17    0.93    0.32
   3  -5 -16    1.34    0.34
  -3   5  16    2.35    0.40
   3   5 -16    1.70    0.44
  -3  -5  16    1.35    0.41
  -3  -5  16    1.86    0.39
   3   5 -16    1.35    0.43
   3  -5 -15   -0.01    0.06
   3  -5 -15    0.22    0.24
  -3   5  15    0.11    0.16
   3   5 -15   -0.01    0.21
  -3  -5  15    0.15    0.15
   3   5 -15   -0.04    0.16
  -3  -5  15   -0.14    0.16
   3  -5 -14    0.86    0.30
  -3  -5  14    0.66    0.22
   3   5 -14    0.71    0.30
   3  -5 -14    1.12    0.17
  -3  -5  14    0.84    0.28
   3   5 -14    1.18    0.37
  -3   5  14    1.01    0.28
   3  -5 -13   -0.15    0.30
   3   5 -13    0.55    0.31
  -3  -5  13    0.48    0.24
   3   5 -13    0.17    0.22
  -3   5  13    0.41    0.21
   3  -5 -13    0.29    0.10
  -3  -5  13   -0.04    0.17
   3   5 -12   -0.03    0.20
   3   5 -12   -0.07    0.06
   3  -5 -12    0.03    0.05
  -3  -5  12   -0.19    0.18
  -3   5  12    0.00    0.07
   3   5 -12    0.07    0.14
  -3   5  12   -0.06    0.16
   3  -5 -12   -0.37    0.31
  -3  -5  12   -0.25    0.22
   3  -5 -12    0.03    0.07
   3   5 -11   -0.05    0.21
   3  -5 -11    0.14    0.07
   3   5 -11    0.15    0.06
   3  -5 -11   -0.09    0.22
  -3  -5  11    0.06    0.18
  -3   5  11    0.01    0.06
  -3   5  11   -0.14    0.18
   3   5 -11    0.00    0.13
  -3  -5  11   -0.13    0.20
  -3   5  10    0.22    0.16
   3   5 -10   -0.41    0.24
  -3   5  10    0.05    0.08
   3  -5 -10   -0.08    0.21
  -3  -5  10    0.13    0.21
   3   5 -10   -0.05    0.08
   3   5 -10   -0.09    0.17
   3  -5 -10    0.24    0.09
  -3  -5  10    0.20    0.16
   3  -5  -9    4.32    0.58
   3   5  -9    4.05    0.56
  -3   5   9    4.07    0.29
  -3  -5   9    4.12    0.56
   3   5  -9    4.42    0.51
  -3  -5   9    3.96    0.50
   3  -5  -9    4.45    0.29
   3   5  -9    3.69    0.29
  -3   5   8    3.98    0.29
   3   5  -8    3.49    0.30
  -3  -5   8    4.33    0.57
   3   5  -8    3.74    0.45
   3  -5  -8    3.25    0.52
   3  -5  -8    4.35    0.29
  -3  -5   8    3.35    0.45
   3   5  -8    3.83    0.55
  -3   5   8    4.39    0.29
  -3   5   7    2.22    0.21
   3   5  -7    2.57    0.42
  -3   5   7    1.79    0.19
  -3  -5   7    2.03    0.38
   3   5  -7    2.39    0.34
   3  -5  -7    2.03    0.20
  -3  -5   7    2.61    0.38
   3   5  -7    2.11    0.24
   3   5  -6   17.15    1.00
  -3  -5   6   17.02    1.00
  -3  -5   6   17.19    0.83
  -3   5   6   17.44    0.59
   3   5  -6   17.43    0.83
  -3   5   6   17.37    0.59
  -3  -5   6   18.32    0.97
   3   5  -6   17.68    0.69
  -3   5   5    8.75    0.44
   3   5  -5    9.20    0.52
  -3  -5   5    8.35    0.69
   3   5  -5    8.65    0.55
   3   5  -5    8.49    0.69
  -3  -5   5    8.58    0.56
  -3   5   5    8.11    0.42
  -3  -5   5    9.75    0.69
  -3  -5   4    0.20    0.11
  -3   5   4    0.11    0.09
  -3   5   4    0.21    0.10
  -3  -5   4    0.18    0.13
  -3  -5   4    0.13    0.13
   3   5  -4    0.43    0.20
   3   5  -4    0.16    0.11
   3   5  -4    0.25    0.13
   3   5  -3    1.72    0.29
  -3  -5   3    1.55    0.23
   3   5  -3    1.33    0.23
  -3  -5   3    1.67    0.31
   3   5  -3    1.20    0.18
  -3   5   3    1.42    0.21
  -3  -5   3    1.19    0.24
  -3   5   3    1.43    0.20
   3   5  -3    1.17    0.23
  -3  -5   2    4.65    0.48
   3   5  -2    3.24    0.27
   3   5  -2    3.71    0.37
  -3  -5   2    3.91    0.30
  -3   5   2    3.89    0.34
   3   5  -2    3.73    0.43
   3   5  -2    3.27    0.38
   3   5  -1   19.27    0.81
  -3  -5   1   18.37    0.91
  -3   5   1   18.19    0.74
  -3  -5   1   18.27    0.59
   3   5  -1   18.34    0.91
   3   5  -1   17.93    0.88
   3  -5  -1   17.90    0.99
  -3   5   0   12.18    0.68
  -3  -5   0   11.99    0.71
  -3  -5   0   11.31    0.71
   3   5   0   12.00    0.66
   3   5   0   10.96    0.68
  -3   5   0   11.42    0.62
   3   5   0   11.49    0.68
  -3  -5   0   11.34    0.40
   3  -5   0   12.45    0.82
   3   5   0   12.24    0.75
  -3   5  -1   33.79    1.10
   3   5   1   36.44    1.16
  -3  -5  -1   36.38    1.21
  -3   5  -1   35.31    1.13
   3   5   1   36.27    1.19
   3  -5   1   35.31    1.39
  -3  -5  -1   35.78    1.21
   3   5   1   33.72    1.14
  -3   5  -2   13.11    0.67
  -3  -5  -2   12.59    0.70
  -3   5  -2   13.20    0.85
   3  -5   2   12.63    0.85
  -3   5  -2   13.58    0.73
   3   5   2   13.17    0.70
   3   5   2   13.08    0.70
   3   5   2   12.94    0.71
  -3  -5  -2   13.41    0.73
  -3  -5  -3    8.93    0.58
   3   5   3    8.37    0.56
  -3   5  -3    7.78    0.68
   3   5   3    8.67    0.59
   3  -5   3    8.48    0.71
   3   5   3    8.33    0.56
  -3  -5  -3    7.76    0.54
  -3   5  -3    9.05    0.54
  -3  -5  -4   14.45    0.74
  -3   5  -4   16.39    0.99
   3   5   4   16.89    0.84
   3   5   4   14.76    0.74
  -3   5  -4   15.96    0.70
   3  -5   4   15.58    0.96
  -3  -5  -4   15.17    0.76
   3   5   5    0.96    0.23
  -3  -5  -5    0.99    0.21
  -3   5  -5    1.14    0.31
   3  -5   5    1.09    0.29
  -3   5  -5    1.15    0.20
  -3  -5  -5    1.21    0.23
   3   5   5    0.95    0.23
  -3   5  -6    0.37    0.11
  -3  -5  -6    0.77    0.20
  -3  -5  -6    0.46    0.14
   3   5   6    0.36    0.17
  -3   5  -6    0.82    0.29
   3   5   6    0.89    0.22
   3  -5   6    0.48    0.21
  -3   5  -7   10.47    0.51
  -3  -5  -7    9.41    0.61
   3   5   7    9.77    0.69
  -3   5  -7    9.63    0.80
   3   5   7   10.61    0.65
  -3  -5  -7   10.14    0.63
   3  -5   7   10.21    0.81
  -3   5  -8    3.05    0.27
  -3  -5  -8    3.73    0.39
   3   5   8    3.29    0.43
  -3   5  -8    3.86    0.53
   3   5   8    3.34    0.38
  -3  -5  -8    3.34    0.38
   3  -5   8    3.27    0.48
  -3   5  -9    1.31    0.18
   3   5   9    1.93    0.34
  -3  -5  -9    2.06    0.30
  -3   5  -9    2.08    0.42
   3  -5   9    1.41    0.34
  -3  -5  -9    1.60    0.28
  -3  -5 -10    0.04    0.11
  -3   5 -10    0.14    0.20
   3   5  10    0.23    0.19
  -3  -5 -10    0.05    0.10
   3  -5  10    0.42    0.18
   3   5  10    0.20    0.07
   3   5  11    0.46    0.24
  -3  -5 -11    0.49    0.18
  -3   5 -11    0.57    0.29
   3  -5  11    0.19    0.20
   3   5  11    0.34    0.11
  -3  -5 -12   12.79    0.77
   3   5  12   12.46    0.85
  -3   5 -12   12.62    1.03
   3  -5  12   11.98    0.97
   3   5  12   11.11    0.56
   3   5  13    0.52    0.25
  -3  -5 -13    0.40    0.19
  -3   5 -13    0.36    0.25
   3  -5  13    0.04    0.18
   3  -5  14    1.32    0.37
  -3   5 -14    0.88    0.31
   3   5  14    1.49    0.36
  -3  -5 -14    1.45    0.30
  -3   5 -15    0.58    0.32
   3  -5  15    0.68    0.33
  -3   5 -16    4.55    0.70
   3  -5  16    4.00    0.62
  -3   5 -17    3.86    0.69
   3  -5  17    2.42    0.53
  -3   5 -18    4.41    0.73
   3  -5  18    2.87    0.58
  -3   5 -19    1.92    0.53
   3  -5  19    1.40    0.43
  -3   5 -20    0.11    0.22
   3  -5  20    0.21    0.21
  -3   5 -21    0.75    0.39
   3  -5  21    0.33    0.30
  -3   5 -22    0.38    0.28
   3  -5  22    0.05    0.27
   3   6 -22    0.39    0.30
   3   6 -22    0.73    0.41
  -3   6  22    0.46    0.21
  -3  -6  22    0.14    0.26
  -3   6  21    0.00    0.11
   3   6 -21   -0.04    0.27
   3   6 -21    0.27    0.29
  -3  -6  21   -0.15    0.21
   3   6 -20   -0.06    0.34
   3   6 -20    0.37    0.28
  -3   6  20    0.00    0.13
  -3  -6  20   -0.11    0.21
   3   6 -19    0.31    0.30
   3   6 -19    0.35    0.30
  -3   6  19   -0.20    0.19
  -3  -6  19    0.44    0.25
   3   6 -18    1.03    0.41
  -3   6  18    0.14    0.16
   3   6 -18    1.07    0.40
  -3  -6  18    0.46    0.23
  -3   6  17    6.97    0.73
   3   6 -17    6.50    0.88
  -3  -6  17    4.98    0.68
   3   6 -17    7.77    0.96
   3   6 -16    0.53    0.33
   3   6 -16   -0.15    0.23
  -3   6  16    0.56    0.26
  -3  -6  16    0.27    0.24
  -3   6  15    0.64    0.27
   3   6 -15    0.25    0.28
  -3  -6  15    0.42    0.33
   3   6 -15   -0.09    0.15
  -3  -6  15   -0.19    0.23
   3   6 -14    0.28    0.24
  -3  -6  14    0.44    0.26
   3   6 -14    0.13    0.17
  -3   6  14   -0.02    0.14
  -3  -6  14    0.15    0.17
   3   6 -13   -0.15    0.20
  -3  -6  13    0.23    0.18
   3   6 -13    0.23    0.20
  -3   6  13    0.08    0.18
  -3  -6  13   -0.11    0.19
   3   6 -12    2.34    0.52
   3   6 -12    1.64    0.22
  -3  -6  12    2.03    0.45
   3   6 -12    2.06    0.40
  -3   6  12    2.01    0.42
  -3  -6  12    2.43    0.45
   3   6 -11    3.57    0.52
   3   6 -11    2.46    0.51
  -3   6  11    3.38    0.52
  -3  -6  11    3.21    0.56
   3   6 -11    2.60    0.28
  -3  -6  11    3.22    0.49
   3   6 -10    0.06    0.17
  -3   6  10   -0.12    0.26
   3   6 -10    0.13    0.09
  -3  -6  10    0.09    0.17
   3   6 -10   -0.20    0.18
  -3  -6  10    0.22    0.20
   3   6  -9    0.20    0.21
  -3  -6   9    0.28    0.17
  -3  -6   9   -0.15    0.23
   3   6  -9    0.22    0.11
   3   6  -9    0.24    0.18
  -3   6   9    0.15    0.05
  -3  -6   8    0.72    0.23
   3   6  -8    0.71    0.26
  -3   6   8    0.63    0.09
  -3  -6   8    0.59    0.22
   3   6  -8    0.48    0.17
   3   6  -8    0.45    0.15
  -3  -6   7    4.24    0.53
  -3   6   7    4.45    0.26
  -3  -6   7    4.90    0.60
   3   6  -7    4.56    0.48
   3   6  -7    4.28    0.56
  -3   6   7    4.05    0.25
   3   6  -7    4.67    0.41
   3   6  -6    2.23    0.40
  -3   6   6    2.22    0.20
  -3  -6   6    2.45    0.45
   3   6  -6    2.10    0.32
  -3   6   6    2.06    0.19
  -3  -6   6    2.86    0.43
   3   6  -6    2.25    0.31
  -3   6   5   28.84    0.79
  -3  -6   5   27.54    1.30
   3   6  -5   25.99    1.00
  -3  -6   5   26.69    1.05
  -3   6   5   27.14    0.76
  -3  -6   5   29.09    1.32
   3   6  -5   29.63    1.33
   3   6  -5   26.99    1.02
   3   6  -4   20.85    0.91
  -3   6   4   22.39    0.75
  -3  -6   4   21.77    1.14
   3   6  -4   22.22    0.84
  -3   6   4   22.46    0.75
  -3  -6   4   21.40    0.89
  -3  -6   4   22.48    1.16
   3   6  -4   24.28    1.18
  -3  -6   3    0.13    0.12
  -3  -6   3    0.14    0.16
  -3  -6   3    0.06    0.14
   3   6  -3    0.10    0.09
   3   6  -3    0.12    0.18
  -3   6   3   -0.01    0.07
   3   6  -3    0.30    0.16
   3   6  -2    1.51    0.30
  -3  -6   2    1.16    0.19
   3   6  -2    1.11    0.16
  -3   6   2    1.04    0.19
  -3  -6   2    0.86    0.24
   3   6  -2    1.61    0.28
  -3  -6   1    7.11    0.58
   3   6  -1    6.33    0.33
   3   6  -1    6.53    0.53
  -3   6   1    5.98    0.44
   3   6  -1    6.68    0.57
  -3  -6   1    6.72    0.38
   3   6   0    1.31    0.24
  -3  -6   0    1.29    0.15
   3   6   0    1.74    0.29
  -3  -6   0    1.64    0.29
  -3   6   0    1.51    0.24
   3  -6   0    1.25    0.28
   3   6   1    9.03    0.65
  -3   6  -1    7.84    0.70
  -3   6  -1    7.92    0.56
   3   6   1    8.42    0.60
   3  -6   1    8.42    0.76
  -3  -6  -1    8.04    0.60
   3   6   2    9.74    0.67
  -3  -6  -2   10.13    0.66
  -3   6  -2    9.93    0.78
   3   6   2   10.05    0.64
  -3  -6  -2   10.50    0.67
   3  -6   2    8.83    0.78
   3   6   2    9.89    0.64
   3  -6   3    5.80    0.64
   3   6   3    6.07    0.53
  -3  -6  -3    6.78    0.53
   3   6   3    6.58    0.52
   3   6   3    6.31    0.51
  -3   6  -3    5.52    0.61
  -3  -6  -3    6.82    0.53
  -3   6  -4    4.16    0.41
  -3   6  -4    3.53    0.51
  -3  -6  -4    3.48    0.38
   3   6   4    3.64    0.39
  -3  -6  -4    3.80    0.41
   3   6   4    2.98    0.36
   3   6   4    3.59    0.42
   3  -6   4    3.77    0.54
  -3   6  -5    8.78    0.59
  -3  -6  -5    7.92    0.56
   3   6   5    8.55    0.66
  -3  -6  -5    7.39    0.55
   3   6   5    7.85    0.57
   3  -6   5    8.92    0.81
  -3   6  -5    8.69    0.77
  -3  -6  -6   14.01    0.74
  -3   6  -6   12.63    0.68
   3  -6   6   11.48    0.93
   3   6   6   13.90    0.76
   3   6   6   14.08    0.86
  -3  -6  -6   13.22    0.71
  -3   6  -6   13.88    1.00
  -3   6  -7    8.38    0.80
  -3  -6  -7    7.96    0.55
  -3   6  -7    7.27    0.51
   3   6   7    7.16    0.63
  -3  -6  -7    7.47    0.55
   3   6   7    8.11    0.59
   3  -6   7    7.43    0.76
  -3  -6  -8    0.36    0.13
  -3  -6  -8    0.16    0.09
   3   6   8    0.42    0.18
  -3   6  -8    0.12    0.18
   3   6   8    0.05    0.11
   3  -6   8    0.20    0.21
   3  -6   9    2.76    0.50
  -3   6  -9    2.36    0.48
   3   6   9    2.66    0.35
   3   6   9    2.26    0.40
  -3  -6  -9    2.26    0.30
  -3  -6  -9    2.98    0.38
  -3  -6 -10    0.16    0.13
  -3  -6 -10    0.08    0.09
   3  -6  10   -0.12    0.23
  -3   6 -10    0.02    0.24
   3   6  10    0.17    0.21
  -3  -6 -11    0.11    0.12
  -3   6 -11   -0.03    0.20
   3  -6  11    0.02    0.22
  -3  -6 -11    0.24    0.15
   3   6  11    0.08    0.18
  -3  -6 -12    0.03    0.11
  -3   6 -12   -0.15    0.16
   3  -6  12   -0.16    0.20
   3   6  12    0.01    0.15
  -3   6 -13   -0.03    0.20
  -3  -6 -13    0.30    0.16
   3   6  13    0.06    0.18
   3  -6  13   -0.18    0.31
  -3  -6 -14    0.34    0.15
   3   6  14    0.47    0.26
  -3   6 -14    0.43    0.30
   3  -6  14    0.17    0.17
  -3   6 -15   -0.14    0.21
   3   6  15    0.32    0.22
  -3  -6 -15    0.04    0.09
   3  -6  15    0.18    0.19
  -3   6 -16    0.89    0.39
   3  -6  16    0.29    0.21
   3   6  16    1.02    0.31
  -3   6 -17    0.12    0.21
   3  -6  17    0.01    0.23
  -3   6 -18    1.77    0.48
   3  -6  18    1.34    0.45
   3  -6  19    0.81    0.38
  -3   6 -19    1.17    0.42
  -3   6 -20    0.16    0.22
   3  -6  20    0.02    0.19
  -3   6 -21    0.66    0.36
   3  -6  21    0.27    0.32
   3   7 -21    0.26    0.34
  -3   7  21    0.26    0.21
   3   7 -21    0.15    0.19
  -3  -7  21    0.10    0.25
  -3  -7  20   -0.20    0.26
   3   7 -20    0.58    0.33
   3   7 -20   -0.33    0.24
  -3   7  20    0.27    0.20
   3   7 -19    1.05    0.45
  -3   7  19    0.14    0.20
   3   7 -19    0.78    0.32
  -3  -7  19    0.33    0.26
  -3   7  18    0.33    0.24
   3   7 -18    0.08    0.19
  -3  -7  18   -0.10    0.22
   3   7 -18    0.34    0.31
  -3  -7  17    0.33    0.27
   3   7 -17    1.46    0.46
  -3   7  17    0.94    0.34
   3   7 -17    0.98    0.39
   3   7 -16    0.01    0.19
   3   7 -16    0.03    0.17
  -3  -7  16    0.05    0.17
  -3   7  16    0.18    0.21
   3   7 -15    0.90    0.35
   3   7 -15    0.15    0.20
  -3  -7  15    0.27    0.23
  -3   7  15    0.67    0.31
   3   7 -14    0.28    0.28
  -3  -7  14   -0.29    0.22
  -3  -7  14    0.13    0.21
   3   7 -14   -0.20    0.22
  -3   7  14    0.08    0.18
   3   7 -13    0.84    0.29
  -3  -7  13    0.64    0.29
   3   7 -13    0.75    0.30
  -3   7  13    1.08    0.30
  -3  -7  13    1.08    0.31
   3   7 -12    0.47    0.26
   3   7 -12    0.14    0.11
  -3  -7  12    0.28    0.23
   3   7 -12    0.38    0.23
  -3   7  12    0.09    0.17
  -3  -7  12    0.63    0.31
   3   7 -11    3.97    0.64
   3   7 -11    3.23    0.52
  -3  -7  11    3.98    0.65
  -3  -7  11    3.32    0.55
  -3   7  11    2.81    0.51
   3   7 -11    2.86    0.35
   3   7 -10    1.51    0.36
  -3   7  10    0.95    0.30
   3   7 -10    1.27    0.25
  -3  -7  10    1.44    0.40
   3   7 -10    1.37    0.33
  -3  -7  10    0.79    0.28
  -3  -7   9    0.57    0.22
  -3  -7   9    0.43    0.25
   3   7  -9    0.43    0.15
   3   7  -9    0.49    0.22
   3   7  -9    0.55    0.26
  -3  -7   8    1.32    0.37
   3   7  -8    1.53    0.37
  -3  -7   8    1.15    0.34
   3   7  -8    1.15    0.24
   3   7  -8    1.08    0.28
   3   7  -7    0.15    0.20
  -3  -7   7    0.32    0.23
   3   7  -7    0.26    0.18
   3   7  -7    0.26    0.16
  -3  -7   7    0.37    0.24
  -3   7   6    2.99    0.21
  -3  -7   6    3.53    0.52
   3   7  -6    3.24    0.41
   3   7  -6    3.48    0.41
  -3  -7   6    2.89    0.49
  -3   7   6    3.49    0.23
   3   7  -6    4.16    0.55
  -3  -7   5    2.56    0.42
   3   7  -5    2.96    0.47
   3   7  -5    2.47    0.37
  -3   7   5    3.04    0.26
  -3  -7   5    2.79    0.37
  -3  -7   5    3.23    0.49
  -3   7   5    3.03    0.25
   3   7  -5    2.62    0.36
   3   7  -4    0.45    0.25
  -3   7   4    0.17    0.10
  -3  -7   4    0.05    0.09
   3   7  -4    0.12    0.17
   3   7  -4    0.01    0.11
  -3  -7   4    0.11    0.15
  -3   7   4   -0.03    0.07
  -3  -7   4    0.50    0.25
   3   7  -3   18.19    0.95
  -3  -7   3   19.88    1.09
   3   7  -3   18.07    0.73
  -3  -7   3   18.11    0.80
   3   7  -3   19.89    1.09
  -3   7   3   18.34    0.72
   3   7  -2    2.00    0.36
   3   7  -2    2.08    0.23
  -3  -7   2    2.14    0.36
  -3  -7   2    1.90    0.24
  -3   7   2    1.97    0.25
   3   7  -2    2.59    0.37
   3   7  -1    1.29    0.29
  -3  -7   1    0.93    0.25
   3   7  -1    1.04    0.15
  -3   7   1    1.04    0.19
  -3  -7   1    1.04    0.16
   3   7  -1    0.93    0.25
   3   7   0    1.17    0.28
   3   7   0    1.17    0.13
  -3  -7   0    1.33    0.26
   3   7   0    0.84    0.22
  -3   7   0    0.99    0.19
  -3   7   0    1.05    0.28
   3  -7   0    1.15    0.34
  -3   7  -1    5.93    0.62
  -3  -7  -1    6.07    0.55
   3   7   1    7.28    0.59
   3  -7   1    6.18    0.69
   3   7   1    6.92    0.62
   3   7   2    1.53    0.27
   3   7   2    1.51    0.32
  -3  -7  -2    1.90    0.32
  -3   7  -2    1.18    0.28
   3  -7   2    1.81    0.41
  -3  -7  -3    0.69    0.19
   3  -7   3    0.66    0.27
   3   7   3    0.43    0.19
  -3   7  -3    0.68    0.24
   3   7   3    0.49    0.17
   3   7   4   12.00    0.83
   3   7   4   11.68    0.71
  -3  -7  -4   12.47    0.74
  -3  -7  -4   11.73    0.72
   3   7   4   12.43    0.73
   3  -7   4   11.58    0.97
  -3   7  -4   12.63    0.95
  -3  -7  -5    0.31    0.15
  -3  -7  -5    0.26    0.15
  -3   7  -5    0.19    0.18
   3   7   5    0.18    0.12
   3   7   5   -0.12    0.24
   3  -7   5    0.16    0.23
   3   7   6    6.79    0.65
   3   7   6    6.38    0.53
  -3  -7  -6    5.96    0.50
   3  -7   6    6.49    0.76
  -3   7  -6    6.01    0.71
  -3  -7  -6    6.16    0.50
   3   7   7    5.81    0.62
  -3  -7  -7    5.33    0.48
   3  -7   7    5.71    0.72
   3   7   7    5.93    0.51
  -3   7  -7    5.95    0.71
  -3  -7  -7    5.32    0.46
   3   7   8    0.56    0.26
  -3  -7  -8    0.30    0.13
  -3  -7  -8    0.76    0.19
  -3   7  -8    0.84    0.34
   3   7   8    0.40    0.15
   3   7   9    0.23    0.16
  -3  -7  -9    0.08    0.09
  -3   7  -9    0.26    0.18
   3   7   9    0.10    0.12
   3  -7   9   -0.20    0.29
  -3   7 -10    2.53    0.50
  -3  -7 -10    2.09    0.30
   3   7  10    1.82    0.39
   3  -7  10    2.27    0.46
  -3   7 -11   -0.07    0.17
  -3  -7 -11    0.12    0.10
   3   7  11    0.00    0.14
   3  -7  11    0.23    0.20
   3   7  12   -0.10    0.18
  -3   7 -12   -0.29    0.27
  -3  -7 -12    0.04    0.10
   3  -7  12    0.25    0.32
   3   7  13    2.62    0.47
  -3   7 -13    2.87    0.54
   3  -7  13    2.41    0.48
  -3   7 -14    1.26    0.46
   3  -7  14    1.26    0.39
   3   7  14    1.44    0.37
   3   7  15    4.64    0.61
  -3   7 -15    6.80    0.87
   3  -7  15    4.87    0.73
  -3   7 -16   -0.03    0.22
   3   7  16    0.29    0.24
   3  -7  16    0.27    0.28
  -3   7 -17    1.07    0.42
   3   7  17    0.56    0.28
   3  -7  17    0.29    0.31
  -3   7 -18   -0.17    0.23
   3  -7  18   -0.24    0.30
   3  -7  19    0.55    0.31
  -3   7 -19    0.39    0.31
   3  -7  20    0.34    0.28
  -3   7 -20   -0.01    0.20
   3   8 -20    0.04    0.21
   3   8 -20   -0.13    0.21
  -3   8  20    0.11    0.18
  -3  -8  20    0.26    0.27
   3   8 -19   -0.37    0.36
  -3   8  19   -0.54    0.29
   3   8 -19   -0.02    0.22
  -3  -8  19   -0.41    0.26
   3   8 -18   -0.37    0.27
  -3   8  18    0.05    0.17
  -3  -8  18    0.03    0.22
   3   8 -18    0.16    0.21
  -3   8  17    1.08    0.38
   3   8 -17    0.68    0.31
   3   8 -17    1.56    0.48
  -3  -8  17    0.64    0.37
  -3   8  16    1.51    0.41
   3   8 -16    1.82    0.54
   3   8 -16    2.41    0.53
  -3  -8  16    2.48    0.54
   3   8 -15    3.01    0.62
   3   8 -15    2.15    0.51
  -3   8  15    2.37    0.50
  -3  -8  15    2.33    0.52
   3   8 -14    0.04    0.18
  -3   8  14    0.35    0.26
   3   8 -14    0.68    0.30
  -3  -8  14   -0.23    0.22
  -3  -8  13    0.81    0.41
   3   8 -13    1.06    0.42
  -3  -8  13    1.70    0.49
   3   8 -13    1.54    0.44
  -3   8  13    1.27    0.42
  -3  -8  12   15.47    1.25
   3   8 -12   13.42    1.05
  -3   8  12   15.11    1.23
  -3  -8  12   13.11    1.17
   3   8 -12   14.88    1.24
   3   8 -11   13.02    0.81
  -3   8  11   16.89    1.28
   3   8 -11   15.24    1.11
  -3  -8  11   16.54    1.27
  -3  -8  11   15.13    1.21
   3   8 -11   16.41    1.26
   3   8 -10    4.07    0.45
   3   8 -10    3.13    0.48
  -3  -8  10    4.29    0.66
  -3   8  10    3.49    0.60
  -3  -8  10    4.28    0.65
   3   8 -10    4.25    0.67
   3   8  -9    1.66    0.41
  -3   8   9    1.54    0.42
  -3  -8   9    1.52    0.40
   3   8  -9    1.50    0.33
   3   8  -9    1.19    0.26
  -3  -8   9    1.40    0.41
   3   8  -8    0.12    0.22
  -3  -8   8    0.25    0.16
  -3  -8   8    0.26    0.21
   3   8  -8    0.23    0.14
   3   8  -8    0.44    0.20
   3   8  -7    2.65    0.49
  -3  -8   7    2.65    0.48
   3   8  -7    2.56    0.38
   3   8  -7    2.21    0.36
  -3  -8   7    2.61    0.49
   3   8  -6    2.14    0.41
  -3  -8   6    1.60    0.38
   3   8  -6    2.22    0.35
   3   8  -6    2.60    0.38
  -3  -8   6    2.54    0.49
   3   8  -5    0.45    0.21
  -3   8   5    0.04    0.06
  -3  -8   5   -0.02    0.16
   3   8  -5    0.18    0.15
   3   8  -5    0.16    0.13
  -3  -8   5   -0.11    0.20
  -3  -8   4    0.23    0.20
   3   8  -4    0.19    0.17
  -3   8   4    0.52    0.14
   3   8  -4    0.66    0.20
  -3  -8   4    0.42    0.15
   3   8  -4    0.54    0.21
  -3  -8   4    0.75    0.29
   3   8  -3    2.14    0.42
  -3  -8   3    2.15    0.40
   3   8  -3    2.19    0.28
  -3  -8   3    1.90    0.28
   3   8  -3    1.55    0.31
   3   8  -2    9.50    0.76
  -3  -8   2    9.17    0.78
   3   8  -2    8.85    0.49
  -3   8   2    8.36    0.53
   3   8  -2    9.26    0.75
   3   8  -1    2.45    0.43
   3   8  -1    2.23    0.39
   3   8  -1    2.24    0.23
  -3  -8   1    2.53    0.43
  -3   8   1    2.09    0.30
  -3   8   1    2.72    0.45
  -3   8   0    6.17    0.66
  -3  -8   0    5.58    0.58
   3   8   0    5.93    0.31
   3   8   0    6.42    0.63
   3   8   0    6.00    0.58
  -3  -8  -1    3.96    0.46
  -3   8  -1    3.67    0.52
   3   8   1    4.12    0.51
   3  -8   1    4.03    0.64
   3   8   1    3.33    0.43
   3  -8   2    0.34    0.22
   3   8   2    0.42    0.22
  -3  -8  -2    0.21    0.13
  -3   8  -2   -0.08    0.18
   3   8   2    0.22    0.15
   3  -8   3    0.16    0.18
   3   8   3    0.34    0.22
  -3  -8  -3    0.26    0.14
  -3   8  -3    0.37    0.26
   3   8   3    0.14    0.12
  -3  -8  -4    0.10    0.14
  -3   8  -4    0.18    0.18
   3  -8   4    0.43    0.24
   3   8   4    0.12    0.12
   3   8   5   10.90    0.85
  -3  -8  -5   11.18    0.70
  -3   8  -5   11.39    0.96
   3   8   5   11.42    0.72
   3  -8   5   12.06    1.07
   3   8   6    7.71    0.74
   3  -8   6    7.38    0.83
  -3  -8  -6    8.01    0.59
   3   8   6    7.69    0.59
  -3   8  -6    7.82    0.81
  -3  -8  -7    2.44    0.33
  -3   8  -7    1.74    0.40
   3   8   7    2.54    0.34
   3   8   7    1.80    0.38
   3  -8   7    2.61    0.53
  -3  -8  -8    8.25    0.57
   3   8   8    7.85    0.77
   3   8   8    8.47    0.61
   3  -8   8    7.22    0.85
  -3   8  -8    7.95    0.86
   3   8   9    0.73    0.26
  -3   8  -9    0.82    0.34
   3  -8   9    0.67    0.32
   3   8  10   -0.06    0.18
  -3   8 -10   -0.08    0.20
   3  -8  10   -0.08    0.26
  -3   8 -11    0.13    0.22
   3   8  11   -0.19    0.17
   3  -8  11    0.09    0.21
  -3   8 -12    0.05    0.20
   3  -8  12   -0.03    0.23
   3   8  12    0.53    0.29
  -3   8 -13    0.67    0.27
   3  -8  13    0.66    0.31
   3   8  13    0.37    0.17
  -3   8 -14    1.75    0.49
   3   8  14    2.41    0.46
   3  -8  14    2.31    0.55
  -3   8 -15   -0.32    0.24
   3  -8  15    0.09    0.28
   3   8  15   -0.02    0.13
  -3   8 -16    1.31    0.45
   3  -8  16    1.72    0.54
   3   8  16    1.60    0.40
  -3   8 -17    0.51    0.32
   3   8  17    0.73    0.31
   3  -8  17    0.15    0.34
  -3   8 -18    0.46    0.30
   3   8  18    0.89    0.32
   3  -8  18   -0.02    0.28
   3   8  19    0.55    0.28
  -3   8 -19    0.33    0.30
   3  -8  19    0.10    0.21
   3   9 -18    0.20    0.31
  -3   9  18    0.17    0.20
   3   9 -18    0.02    0.22
  -3  -9  18    0.28    0.25
   3   9 -17   -0.11    0.21
  -3   9  17    0.14    0.20
   3   9 -17    0.06    0.23
  -3  -9  17   -0.09    0.19
  -3   9  16    0.57    0.32
   3   9 -16    0.99    0.41
   3   9 -16    0.59    0.30
  -3  -9  16    0.07    0.18
   3   9 -15    0.90    0.39
   3   9 -15    0.68    0.33
  -3  -9  15    0.67    0.30
  -3   9  15    1.02    0.36
   3   9 -14    1.44    0.43
   3   9 -14    0.80    0.38
  -3   9  14    0.97    0.38
  -3  -9  14    0.97    0.34
   3   9 -13    0.71    0.35
  -3  -9  13    0.48    0.31
   3   9 -13    0.46    0.25
  -3   9  13    0.50    0.34
   3   9 -12    4.22    0.73
   3   9 -12    4.16    0.64
  -3  -9  12    3.85    0.68
  -3   9  12    5.14    0.79
  -3  -9  11    0.11    0.20
   3   9 -11    0.27    0.25
  -3  -9  11    0.18    0.18
  -3   9  11   -0.04    0.22
   3   9 -11    0.38    0.21
   3   9 -10    4.37    0.68
   3   9 -10    4.01    0.56
  -3  -9  10    4.35    0.68
  -3   9  10    5.10    0.76
  -3  -9  10    5.68    0.78
   3   9  -9    1.24    0.39
  -3  -9   9    1.31    0.41
  -3   9   9    1.33    0.43
  -3  -9   9    1.67    0.45
   3   9  -9    0.87    0.26
   3   9  -9    1.27    0.37
   3   9  -8    0.10    0.17
  -3  -9   8   -0.12    0.19
   3   9  -8    0.20    0.17
   3   9  -8   -0.08    0.15
  -3  -9   8   -0.05    0.19
   3   9  -7    3.82    0.49
  -3  -9   7    3.94    0.60
  -3  -9   7    4.20    0.63
   3   9  -7    3.75    0.61
   3   9  -7    3.68    0.49
   3   9  -6    3.59    0.58
   3   9  -6    3.34    0.42
  -3  -9   6    3.60    0.55
   3   9  -6    3.31    0.48
  -3  -9   6    3.82    0.61
   3   9  -5    0.31    0.21
  -3  -9   5    0.73    0.27
   3   9  -5    0.44    0.21
   3   9  -5    0.18    0.13
  -3  -9   5    0.32    0.26
   3   9  -4    0.21    0.18
  -3  -9   4    0.47    0.25
   3   9  -4    0.18    0.16
   3   9  -4   -0.05    0.17
   3   9  -3   14.15    0.98
  -3   9   3   14.76    1.07
  -3  -9   3   15.13    1.04
   3   9  -3   14.19    0.71
   3   9  -3   15.55    1.05
   3   9  -2    8.21    0.77
  -3   9   2    8.52    0.81
  -3  -9   2    8.68    0.79
   3   9  -2    8.55    0.77
   3   9  -1    1.34    0.34
  -3  -9   1    0.92    0.27
   3   9  -1    1.39    0.34
  -3   9   1    1.01    0.31
   3   9   0    2.46    0.40
   3   9   0    2.70    0.45
  -3  -9   0    2.28    0.39
  -3   9   0    2.50    0.45
  -3  -9  -1    4.20    0.52
   3   9   1    4.14    0.56
  -3   9  -1    4.14    0.58
   3   9   1    4.03    0.47
   3  -9   1    4.66    0.68
   3   9   2    0.29    0.19
  -3  -9  -2    0.17    0.17
   3   9   2   -0.01    0.10
  -3   9  -2    0.08    0.17
   3   9   3    0.21    0.21
  -3  -9  -3    0.16    0.13
   3   9   3    0.29    0.15
  -3   9  -3    0.24    0.15
   3  -9   3    0.05    0.20
   3   9   4    1.08    0.31
  -3  -9  -4    1.62    0.29
  -3   9  -4    1.42    0.36
   3  -9   4    1.76    0.46
   3   9   4    1.40    0.26
  -3   9  -5    1.40    0.40
  -3  -9  -5    1.83    0.30
   3  -9   5    1.26    0.41
   3   9   5    1.27    0.32
   3   9   5    1.55    0.28
  -3   9  -6    0.21    0.21
   3   9   6    0.56    0.19
  -3   9  -7    1.07    0.38
   3   9   7    1.08    0.29
   3  -9   7    1.65    0.41
   3   9   8    8.66    0.83
   3  -9   8    8.83    0.99
  -3   9  -8    9.91    0.99
   3   9   9    4.06    0.59
  -3   9  -9    3.81    0.65
   3  -9   9    4.20    0.72
   3   9  10    0.46    0.22
  -3   9 -10    0.21    0.18
   3  -9  10    0.46    0.37
   3   9  11    1.26    0.35
  -3   9 -11    0.38    0.25
   3  -9  11    1.37    0.45
   3   9  12    5.53    0.70
  -3   9 -12    5.27    0.80
   3  -9  12    6.51    0.93
  -3   9 -13    0.18    0.19
   3  -9  13    0.19    0.35
   3   9  13    0.06    0.18
  -3   9 -14    0.51    0.31
   3  -9  14    0.14    0.33
   3   9  14    0.26    0.18
   3   9  15    1.55    0.40
  -3   9 -15    1.31    0.47
   3  -9  15    1.27    0.48
  -3   9 -16    0.61    0.35
   3   9  16    0.77    0.32
   3  -9  16    0.36    0.18
   3   9  17    0.46    0.25
  -3   9 -17    0.17    0.26
   3  -9  17    0.16    0.29
   3  10 -15   -0.28    0.23
   3  10 -15    0.19    0.20
  -3 -10  15   -0.12    0.22
  -3  10  15    0.46    0.30
   3  10 -14    0.81    0.36
  -3 -10  14    0.56    0.35
   3  10 -14    1.26    0.42
  -3  10  14    1.19    0.43
   3  10 -13    0.10    0.23
   3  10 -13   -0.19    0.20
  -3  10  13    0.13    0.26
  -3 -10  13    0.27    0.25
   3  10 -12    0.79    0.34
  -3 -10  12    0.62    0.35
   3  10 -12    0.65    0.27
  -3  10  12    0.87    0.41
   3  10 -11    4.08    0.62
   3  10 -11    3.47    0.67
  -3  10  11    3.96    0.72
  -3 -10  11    3.69    0.70
   3  10 -10    1.62    0.44
  -3  10  10    1.57    0.44
   3  10 -10    1.83    0.39
  -3 -10  10    1.92    0.50
  -3 -10   9    1.74    0.47
   3  10  -9    2.12    0.50
  -3  10   9    1.10    0.42
   3  10  -9    1.34    0.33
  -3  10   8    5.75    0.84
  -3 -10   8    5.60    0.74
  -3 -10   8    4.62    0.76
   3  10  -8    5.22    0.75
   3  10  -8    4.18    0.56
   3  10  -7   -0.18    0.23
  -3 -10   7   -0.29    0.27
  -3 -10   7   -0.16    0.16
   3  10  -7    0.09    0.16
   3  10  -6    0.07    0.18
  -3 -10   6   -0.16    0.23
  -3 -10   6   -0.09    0.17
   3  10  -6   -0.28    0.18
   3  10  -5   -0.31    0.27
  -3  10   5    0.30    0.23
  -3 -10   5   -0.05    0.18
   3  10  -5    0.11    0.14
   3  10  -4    1.03    0.32
   3  10  -4    0.97    0.31
  -3 -10   4    0.80    0.30
  -3  10   4    1.07    0.32
   3  10  -3   15.80    1.12
  -3  10   3   14.30    1.11
  -3 -10   3   16.53    1.14
   3  10  -3   15.26    1.09
   3  10  -2    8.25    0.82
  -3 -10   2    9.09    0.82
   3  10  -2    8.95    0.81
  -3  10   2    9.66    0.94
   3  10  -1    0.87    0.30
   3  10  -1    0.70    0.26
  -3 -10   1    0.91    0.29
  -3  10   1    0.73    0.29
   3  10   0    0.85    0.24
  -3 -10   0    0.89    0.27
  -3  10   0    0.53    0.18
   3  10   0    1.08    0.32
   3  10   1    0.99    0.26
   3  10   1    1.19    0.35
  -3 -10  -1    0.98    0.26
  -3  10  -1    1.27    0.37
   3  10   2    2.47    0.48
  -3  10  -2    1.76    0.42
   3 -10   2    1.31    0.41
   3  10   3    2.80    0.50
  -3  10  -3    2.70    0.50
   3 -10   3    2.37    0.55
   3  10   4    2.77    0.49
  -3  10  -4    3.01    0.54
   3 -10   4    3.00    0.60
   3 -10   5   -0.26    0.29
   3  10   5   -0.28    0.23
  -3  10  -5    0.20    0.20
   3 -10   6    0.97    0.35
  -3  10  -6    0.70    0.31
   3  10   6    0.15    0.22
  -3  10  -7    0.26    0.28
   3  10   7    0.05    0.17
   3 -10   7    0.14    0.20
  -3  10  -8    0.55    0.31
   3  10   8    0.27    0.20
   3 -10   8   -0.15    0.35
  -3  10  -9    1.32    0.40
   3  10   9    1.50    0.40
   3 -10   9    1.62    0.50
   3  10  10    0.23    0.25
  -3  10 -10    0.29    0.28
   3 -10  10    0.07    0.24
   3  10  11    0.07    0.15
  -3  10 -11   -0.33    0.30
  -3  10 -12    1.60    0.47
   3  10  12    1.98    0.46
   3 -10  12    1.13    0.38
   3  10  13    0.45    0.26
   3 -10  13    0.14    0.29
  -3  10 -13    0.44    0.31
   3  10  14    5.82    0.76
  -3  10 -14    6.78    0.97
   3 -10  14    5.12    0.91
   3  11 -12    0.72    0.36
  -3  11  12    0.94    0.42
  -3 -11  12    0.99    0.44
  -3 -11  11    0.19    0.26
   3  11 -11    0.29    0.26
  -3  11  11    0.65    0.37
   3  11 -10    0.08    0.16
  -3 -11  10    0.18    0.25
  -3  11  10    0.17    0.21
   3  11  -9    0.08    0.17
  -3 -11   9    0.01    0.29
  -3  11   9   -0.05    0.21
  -3 -11   8    0.07    0.21
  -3  11   8    0.14    0.23
   3  11  -8   -0.25    0.20
   3  11  -7    0.82    0.35
   3  11  -7    0.42    0.25
  -3  11   7    1.02    0.43
  -3  11   7    0.74    0.28
   3  11  -6    2.47    0.53
  -3  11   6    2.19    0.49
   3  11  -6    2.21    0.46
   3  11  -5    0.48    0.25
  -3  11   5    0.46    0.25
   3  11  -5   -0.02    0.19
  -3  11   4    4.39    0.66
   3  11  -4    5.13    0.67
   3  11  -4    4.16    0.61
   3  11  -3    0.28    0.22
  -3 -11   3    0.21    0.21
  -3  11   3    0.00    0.19
   3  11  -3    0.46    0.25
   3  11  -2    0.41    0.25
  -3 -11   2    0.41    0.25
  -3  11   2    0.45    0.25
  -3  11   1    0.36    0.21
   3  11  -1    0.29    0.25
   3  11   0    0.64    0.26
  -3  11   0    0.63    0.29
  -3  11  -1    2.79    0.51
   3  11   1    3.75    0.60
   3  11   2    2.03    0.46
  -3  11  -2    1.57    0.42
   3  11   3    3.30    0.56
  -3  11  -3    2.18    0.50
  -3  11  -4    0.60    0.31
   3  11   4    0.81    0.31
   3 -11   4    1.32    0.51
  -3  11  -5    2.70    0.58
   3 -11   5    2.18    0.56
   3  11   5    1.38    0.37
  -3  11  -6    1.37    0.39
   3  11   6    1.37    0.42
   3 -11   6    2.01    0.56
   3 -11   7    7.01    0.97
   3  11   7    7.48    0.87
  -3  11  -7    6.35    0.86
  -3  11  -8    0.20    0.32
   3 -11   8   -0.21    0.21
   3  11   8    0.26    0.16
  -3  11  -9    1.44    0.41
   3  11   9    1.68    0.43
   3 -11   9    1.23    0.38
  -3  11 -10    0.33    0.28
   3  11  10    0.45    0.26
   3 -11  10    0.88    0.44
  -3  11 -11   -0.23    0.20
   3 -11  11   -0.01    0.21
   3  11  11   -0.33    0.18
   3  12  -7    0.04    0.17
  -3  12   7    0.47    0.33
  -3  12   6    1.46    0.53
   3  12  -5    1.16    0.36
   3  12  -4   -0.19    0.14
   3  12  -3    0.23    0.20
   3  12  -2    0.15    0.18
  -3  12   2    0.02    0.18
   3  12  -1    0.32    0.21
  -3  12   1    0.06    0.19
  -3  12   0    1.13    0.38
   3  12   0    0.56    0.30
   3  12   1    0.91    0.32
  -3  12  -1    0.34    0.24
   3  12   2    1.63    0.43
  -3  12  -2    1.31    0.35
   3  12   3    0.55    0.28
  -3  12  -3    0.91    0.37
  -3  12  -4    0.21    0.21
   3  12   4    0.22    0.21
   3 -12   5    0.88    0.48
  -3  12  -5    0.90    0.37
   3  12   5    0.77    0.32
   3 -12   6    2.76    0.66
  -3  12  -6    3.28    0.64
   3  12   6    2.85    0.55
   4   0 -25    0.47    0.32
   4   0 -25    0.37    0.33
   4   0 -24    0.11    0.22
   4   0 -24    0.49    0.31
   4   0 -23    0.09    0.23
   4   0 -22    1.25    0.43
   4   0 -21   -0.27    0.19
   4   0 -20   -0.11    0.16
   4   0 -19   -0.25    0.20
  -4   0  19   -0.15    0.18
   4   0 -18    0.46    0.25
  -4   0  18   -0.02    0.18
   4   0 -17    0.34    0.27
  -4   0  17   -0.27    0.26
  -4   0  16   17.73    1.21
   4   0 -16   20.62    1.25
   4   0 -15    0.44    0.23
  -4   0  15    0.12    0.25
   4   0 -14    0.84    0.28
  -4   0  14    1.09    0.12
   4   0 -13    0.20    0.23
  -4   0  13    0.32    0.20
  -4   0  13    0.07    0.05
  -4   0  12    2.09    0.17
   4   0 -12    2.72    0.44
  -4   0  12    2.16    0.39
   4   0 -11    0.07    0.14
  -4   0  11    0.13    0.05
  -4   0  11    0.02    0.14
  -4   0  10    0.76    0.11
  -4   0  10    0.91    0.24
   4   0 -10    0.36    0.20
  -4   0   9   -0.04    0.13
   4   0  -9   -0.13    0.15
  -4   0   8   11.24    0.73
   4   0  -8   10.65    0.70
   4   0  -7    0.00    0.13
  -4   0   7   -0.07    0.15
   4   0  -6    2.28    0.32
  -4   0   6    1.76    0.30
   4   0  -5    0.06    0.12
  -4   0   5    0.02    0.10
   4   0  -5    0.09    0.09
  -4   0   5    0.27    0.16
  -4   0   4    0.36    0.15
   4   0  -4    0.42    0.15
   4   0  -4    0.60    0.17
  -4   0   4    0.51    0.17
  -4   0   3   -0.01    0.09
  -4   0   3   -0.05    0.10
   4   0  -3    0.22    0.12
   4   0  -3   -0.07    0.10
  -4   0   2    0.14    0.12
   4   0  -2    0.23    0.11
  -4   0   2    0.09    0.12
   4   0  -2    0.21    0.13
  -4   0   1    0.09    0.12
   4   0  -1   -0.01    0.09
   4   0  -1    0.11    0.13
  -4   0   1    0.00    0.10
  -4   0   0    0.03    0.11
   4   0   0    0.05    0.02
   4   0   0    0.29    0.15
  -4   0   0    0.20    0.10
  -4   0  -1    0.14    0.15
   4   0   1    0.14    0.16
  -4   0  -1    0.17    0.15
   4   0   2   53.26    1.46
  -4   0  -2   54.23    1.50
  -4   0  -2   53.06    1.48
   4   0   3    0.06    0.14
  -4   0  -4    7.97    0.56
   4   0   4    7.24    0.59
   4   0   5    0.03    0.13
  -4   0  -5   -0.11    0.10
   4   0   6   12.32    0.78
  -4   0  -6   12.28    0.72
  -4   0  -7   -0.12    0.14
  -4   0  -8    1.53    0.27
  -4   0  -9   -0.16    0.12
   4   0  10    0.19    0.07
  -4   0 -10    0.29    0.18
  -4   0 -11    0.06    0.15
   4   0  11    0.00    0.05
  -4   0 -12    5.58    0.58
  -4   0 -13    0.07    0.17
  -4   0 -14    3.11    0.47
  -4   0 -15    0.02    0.16
  -4   0 -16    0.07    0.20
  -4   0 -17    0.25    0.25
  -4   0 -18    2.69    0.52
  -4   0 -19    0.41    0.29
  -4   0 -20   16.36    1.23
  -4   0 -21    0.67    0.31
  -4   0 -22    0.21    0.23
  -4   0 -23   -0.01    0.19
  -4   0 -24   -0.11    0.19
   4  -1 -25    0.42    0.29
   4  -1 -25    0.31    0.27
   4   1 -25   -0.15    0.22
   4  -1 -24    0.09    0.23
   4   1 -24   -0.26    0.24
   4  -1 -23    0.61    0.33
   4  -1 -23    0.26    0.24
   4   1 -23   -0.20    0.22
   4  -1 -22    0.45    0.28
   4  -1 -22    0.45    0.28
   4   1 -22   -0.12    0.21
   4  -1 -21    1.02    0.36
   4   1 -21    0.49    0.32
   4  -1 -21    1.09    0.38
   4  -1 -20    0.15    0.14
   4   1 -20    0.36    0.26
  -4  -1  20    0.20    0.18
   4  -1 -20    0.45    0.24
   4  -1 -19    0.14    0.16
   4   1 -19   -0.32    0.23
  -4  -1  19   -0.34    0.26
  -4   1  19   -0.14    0.20
   4  -1 -18    0.21    0.21
   4   1 -18   -0.12    0.19
  -4  -1  18   -0.36    0.28
  -4   1  18   -0.21    0.18
   4   1 -17    1.88    0.45
  -4   1  17    2.25    0.24
  -4  -1  17    1.60    0.38
  -4   1  17    1.35    0.37
   4  -1 -17    2.18    0.45
  -4   1  16    5.72    0.36
  -4  -1  16    4.85    0.64
  -4   1  16    5.23    0.64
   4  -1 -16    5.37    0.64
   4   1 -16    5.67    0.73
  -4  -1  15    3.42    0.54
  -4   1  15    2.83    0.26
   4   1 -15    1.96    0.47
  -4   1  15    2.59    0.45
   4  -1 -15    2.70    0.46
   4  -1 -14   -0.21    0.15
  -4   1  14    0.22    0.18
  -4  -1  14   -0.09    0.17
   4   1 -14    0.02    0.19
  -4   1  14   -0.12    0.08
  -4   1  13    8.92    0.74
  -4  -1  13    9.00    0.80
   4  -1 -13    7.39    0.69
  -4   1  13    8.41    0.46
   4   1 -13    7.68    0.75
  -4   1  12    1.53    0.21
   4   1 -12    1.05    0.29
  -4   1  12    1.53    0.32
  -4  -1  12    1.64    0.34
   4  -1 -12    1.26    0.33
   4  -1 -11    0.05    0.12
   4   1 -11   -0.33    0.19
  -4   1  11    0.09    0.12
  -4  -1  11    0.01    0.13
  -4   1  11    0.16    0.09
   4   1 -10    0.00    0.17
  -4   1  10   -0.12    0.11
  -4   1  10   -0.06    0.11
  -4  -1  10    0.07    0.17
   4  -1 -10   -0.08    0.11
   4  -1  -9    0.10    0.11
   4   1  -9   -0.03    0.13
  -4   1   9    0.19    0.13
  -4  -1   9   -0.02    0.14
   4  -1  -8    0.07    0.13
   4   1  -8   -0.02    0.12
  -4   1   8    0.00    0.11
  -4  -1   8    0.04    0.14
   4  -1  -7    4.59    0.44
  -4   1   7    4.38    0.43
  -4  -1   7    4.33    0.47
   4  -1  -7    4.33    0.43
   4   1  -7    4.09    0.45
  -4   1   7    4.14    0.42
   4  -1  -6    0.25    0.14
   4   1  -6    0.14    0.13
  -4   1   6    0.13    0.10
   4  -1  -6    0.21    0.11
  -4   1   6    0.11    0.12
  -4  -1   6    0.22    0.15
  -4  -1   6    0.19    0.06
   4  -1  -5    4.06    0.40
  -4   1   5    4.06    0.40
  -4  -1   5    4.18    0.44
   4  -1  -5    3.95    0.39
   4   1  -5    3.76    0.42
  -4  -1   5    3.22    0.18
  -4   1   5    4.10    0.41
   4  -1  -4    9.72    0.59
  -4   1   4    9.35    0.60
  -4  -1   4    9.70    0.65
  -4   1   4    9.13    0.37
   4  -1  -4   10.14    0.61
   4   1  -4   10.07    0.65
  -4   1   4   10.05    0.64
   4  -1  -3    2.44    0.30
  -4   1   3    2.47    0.32
   4  -1  -3    2.34    0.31
  -4  -1   3    2.00    0.30
  -4   1   3    2.19    0.31
  -4   1   3    1.88    0.15
   4   1  -3    1.97    0.29
  -4   1   2    6.31    0.25
  -4   1   2    7.35    0.54
   4  -1  -2    6.60    0.50
   4   1  -2    7.26    0.54
   4   1  -2    6.81    0.53
  -4   1   2    7.38    0.53
  -4  -1   2    6.91    0.55
  -4  -1   2    7.08    0.54
   4   1  -1    5.20    0.46
  -4   1   1    5.11    0.44
  -4  -1   1    5.28    0.46
   4  -1  -1    5.14    0.44
   4   1  -1    4.88    0.44
  -4   1   1    5.44    0.47
  -4  -1   1    4.76    0.45
   4  -1  -1    4.43    0.25
  -4  -1   0    0.95    0.21
   4   1   0    1.02    0.21
  -4   1   0    0.80    0.20
   4   1   0    0.97    0.22
   4  -1   0    1.02    0.22
  -4  -1   0    0.86    0.20
   4  -1   0    1.09    0.14
  -4   1   0    1.06    0.22
  -4   1  -1    2.49    0.34
  -4  -1  -1    2.16    0.32
   4  -1   1    2.66    0.35
  -4   1  -1    2.46    0.33
  -4  -1  -1    2.54    0.32
   4  -1   1    2.28    0.20
   4   1   1    2.24    0.30
   4  -1   2    6.94    0.54
   4   1   2    7.44    0.55
  -4   1  -2    6.79    0.54
  -4  -1  -2    6.93    0.54
   4  -1   2    7.06    0.36
  -4  -1  -2    6.54    0.52
  -4  -1  -3    6.18    0.51
   4  -1   3    6.60    0.37
   4  -1   3    7.56    0.56
   4   1   3    6.97    0.55
  -4  -1  -4   11.53    0.71
  -4  -1  -4   11.93    0.63
  -4   1  -4   11.48    0.72
   4  -1   4   10.71    0.71
   4   1   4   11.78    0.72
  -4  -1  -5    0.83    0.18
   4   1   5    1.16    0.23
  -4   1  -5    0.94    0.23
  -4   1  -6    2.38    0.34
   4   1   6    2.16    0.32
  -4  -1  -6    2.36    0.30
  -4  -1  -7    0.92    0.20
  -4   1  -7    1.14    0.27
   4   1   7    1.15    0.25
  -4  -1  -8    5.41    0.48
  -4   1  -8    5.38    0.53
  -4   1  -9   11.18    0.80
  -4  -1  -9   11.02    0.69
  -4  -1 -10    0.06    0.10
  -4   1 -10    0.01    0.20
   4   1  11    4.82    0.36
  -4  -1 -11    5.58    0.53
  -4   1 -11    6.00    0.61
   4   1  12    2.85    0.29
  -4   1 -12    2.96    0.45
  -4  -1 -12    3.52    0.46
  -4  -1 -13    0.06    0.16
  -4   1 -13    0.00    0.16
   4   1  13    0.17    0.11
  -4   1 -14    1.40    0.35
  -4  -1 -14    1.59    0.34
  -4  -1 -15    0.86    0.26
  -4   1 -15    0.77    0.31
  -4   1 -16    0.44    0.29
  -4  -1 -16    0.11    0.19
  -4   1 -17    3.25    0.54
  -4  -1 -17    2.94    0.53
  -4  -1 -18    0.48    0.26
  -4   1 -18    0.27    0.23
  -4  -1 -19    5.96    0.71
  -4   1 -19    5.32    0.73
  -4  -1 -20   -0.06    0.21
  -4   1 -20   -0.26    0.16
  -4  -1 -21    0.42    0.24
  -4   1 -21    0.64    0.31
  -4  -1 -22   -0.11    0.16
  -4   1 -22    0.00    0.17
  -4  -1 -23   -0.42    0.23
  -4   1 -23    0.08    0.18
  -4  -1 -24    1.14    0.44
  -4   1 -24    1.05    0.40
   4  -2 -25   -0.19    0.24
   4   2 -25    0.08    0.26
   4  -2 -24    0.43    0.30
   4   2 -24    0.28    0.36
   4  -2 -23    0.09    0.16
   4   2 -23    0.40    0.33
   4  -2 -23    0.27    0.26
   4   2 -22   -0.05    0.20
   4  -2 -22   -0.42    0.22
   4  -2 -21   -0.01    0.19
   4  -2 -21   -0.08    0.16
   4   2 -21    0.21    0.29
   4  -2 -20    1.17    0.39
   4  -2 -20    0.50    0.28
   4   2 -20    0.94    0.36
  -4  -2  20    1.12    0.39
   4  -2 -19    0.26    0.21
   4  -2 -19   -0.16    0.17
   4   2 -19   -0.11    0.21
  -4   2  19    0.08    0.10
  -4  -2  19    0.10    0.21
   4  -2 -18    1.11    0.34
   4  -2 -18    0.61    0.28
   4   2 -18    0.46    0.29
  -4  -2  18    1.12    0.36
  -4   2  18    0.52    0.25
  -4   2  18    0.77    0.17
   4  -2 -17    1.20    0.35
  -4   2  17    1.78    0.25
  -4  -2  17    2.44    0.50
  -4   2  17    2.00    0.42
   4   2 -17    1.34    0.42
   4  -2 -17    2.29    0.46
   4  -2 -16    3.33    0.53
  -4   2  16    3.02    0.33
   4   2 -16    2.70    0.51
  -4   2  16    3.33    0.49
  -4  -2  16    3.04    0.54
   4  -2 -16    3.73    0.51
   4   2 -15    0.03    0.21
  -4   2  15   -0.25    0.17
  -4   2  15    0.12    0.13
  -4  -2  15   -0.14    0.24
  -4   2  14    6.70    0.49
  -4   2  14    6.51    0.62
  -4  -2  14    7.54    0.78
   4  -2 -14    6.14    0.59
   4   2 -14    5.88    0.70
   4  -2 -13   -0.25    0.15
   4   2 -13   -0.03    0.18
  -4   2  13    0.17    0.13
  -4   2  13   -0.13    0.20
  -4  -2  13    0.18    0.21
   4  -2 -12    0.83    0.22
   4   2 -12    1.16    0.33
  -4   2  12    0.85    0.23
  -4  -2  12    1.00    0.32
  -4   2  12    1.26    0.23
   4  -2 -11    1.98    0.33
   4   2 -11    1.60    0.36
  -4   2  11    2.12    0.35
  -4  -2  11    1.92    0.38
  -4   2  11    1.89    0.27
   4  -2 -10    1.83    0.29
  -4  -2  10    1.80    0.23
  -4   2  10    1.34    0.26
  -4  -2  10    1.69    0.36
   4   2 -10    1.46    0.36
   4  -2  -9    2.36    0.32
   4   2  -9    1.86    0.37
  -4   2   9    2.94    0.37
  -4  -2   9    2.57    0.39
   4  -2  -9    3.18    0.37
  -4  -2   9    2.33    0.26
  -4   2   9    2.97    0.36
   4  -2  -8    0.02    0.09
   4   2  -8   -0.45    0.20
  -4   2   8   -0.06    0.08
   4  -2  -8   -0.09    0.12
  -4   2   8   -0.05    0.10
  -4  -2   8   -0.06    0.18
  -4  -2   8   -0.01    0.08
   4  -2  -7    4.43    0.41
  -4   2   7    4.48    0.43
  -4  -2   7    4.49    0.50
  -4  -2   7    4.83    0.33
   4  -2  -7    4.78    0.42
   4   2  -7    4.18    0.49
  -4   2   7    4.72    0.44
  -4  -2   6    1.56    0.12
   4   2  -6    1.82    0.33
   4  -2  -6    2.18    0.29
  -4   2   6    2.05    0.29
  -4  -2   6    2.12    0.36
  -4  -2   6    2.06    0.21
  -4   2   6    2.41    0.33
   4  -2  -6    2.02    0.28
   4   2  -5    0.03    0.12
   4  -2  -5    0.12    0.09
  -4   2   5    0.30    0.14
  -4  -2   5    0.00    0.14
  -4  -2   5    0.20    0.12
  -4  -2   5    0.10    0.05
  -4   2   5    0.07    0.09
  -4   2   5   -0.01    0.07
  -4  -2   5    0.09    0.06
   4  -2  -5    0.10    0.08
  -4  -2   4   22.53    1.02
  -4   2   4   23.47    0.93
  -4  -2   4   23.78    0.57
  -4  -2   4   22.43    0.86
   4  -2  -4   23.37    0.91
  -4  -2   4   23.34    0.60
  -4   2   4   24.17    0.93
   4   2  -4   21.37    0.99
  -4   2   4   23.00    0.75
  -4   2   3   -0.02    0.10
   4   2  -3   -0.01    0.10
  -4   2   3    0.04    0.10
   4  -2  -3    0.01    0.09
  -4   2   3    0.00    0.06
  -4  -2   3    0.08    0.15
  -4  -2   3    0.08    0.06
   4   2  -3    0.03    0.04
  -4  -2   2    2.44    0.21
  -4  -2   2    2.14    0.32
  -4   2   2    1.78    0.27
   4  -2  -2    2.59    0.32
  -4   2   2    2.50    0.31
  -4   2   2    2.74    0.25
   4   2  -2    2.07    0.16
   4   2  -2    2.62    0.34
   4   2  -1    0.59    0.10
  -4  -2   1    0.76    0.14
  -4   2   1    1.00    0.22
   4  -2  -1    0.70    0.18
   4  -2  -1    0.55    0.14
  -4   2   1    0.73    0.20
  -4  -2   1    1.05    0.22
  -4   2   1    0.57    0.11
   4   2  -1    1.03    0.21
  -4   2   0    5.40    0.46
  -4  -2   0    5.30    0.47
  -4   2   0    5.29    0.32
  -4  -2   0    5.14    0.34
   4  -2   0    5.44    0.46
  -4   2   0    4.97    0.46
   4   2   0    5.32    0.47
   4   2   0    4.91    0.29
   4  -2   0    5.20    0.37
  -4  -2  -1   13.47    0.58
  -4  -2  -1   13.12    0.75
   4  -2   1   13.02    0.73
  -4   2  -1   13.07    0.72
   4   2   1   15.90    0.81
   4  -2   1   12.68    0.60
  -4  -2  -2   18.64    0.90
  -4  -2  -2   19.20    0.72
   4  -2   2   19.73    0.92
   4   2   2   17.95    0.87
   4  -2   2   18.28    0.71
  -4  -2  -3   11.19    0.58
   4  -2   3   10.25    0.69
   4   2   3   10.53    0.67
  -4  -2  -3    9.99    0.66
   4  -2   3   11.38    0.58
   4  -2   4   47.87    0.85
  -4  -2  -4   47.80    1.12
  -4  -2  -4   48.65    1.45
  -4   2  -4   48.37    1.54
   4  -2   4   49.73    1.24
   4   2   4   46.60    1.42
  -4  -2  -5    1.82    0.29
   4  -2   5    1.72    0.15
  -4  -2  -5    1.70    0.22
  -4   2  -5    1.27    0.29
   4   2   5    2.17    0.35
   4  -2   5    2.36    0.29
  -4   2  -6   33.26    1.32
  -4  -2  -6   32.73    1.23
   4  -2   6   33.36    1.07
   4   2   6   32.82    1.24
  -4  -2  -6   31.99    0.96
   4   2   7   12.00    0.79
  -4  -2  -7   11.30    0.60
   4  -2   7   12.37    0.68
  -4   2  -7   12.03    0.84
  -4   2  -8    3.34    0.46
   4   2   8    3.58    0.44
  -4  -2  -8    3.54    0.35
  -4  -2  -9    6.69    0.49
  -4   2  -9    7.32    0.67
  -4  -2 -10    1.77    0.28
  -4   2 -10    1.42    0.33
   4   2  10    1.83    0.30
  -4  -2 -11    0.73    0.21
  -4   2 -11    0.54    0.27
   4   2  11    0.97    0.24
   4   2  12    0.40    0.14
  -4   2 -12    1.00    0.35
  -4  -2 -12    0.75    0.22
   4   2  13    0.36    0.14
  -4   2 -13    0.86    0.30
  -4  -2 -13    0.78    0.23
   4   2  14    0.11    0.12
  -4   2 -14   -0.15    0.18
  -4  -2 -14    0.04    0.14
  -4   2 -15    0.80    0.30
  -4  -2 -15    1.32    0.31
  -4   2 -16    0.51    0.29
  -4  -2 -16    0.56    0.24
  -4   2 -17    0.80    0.34
  -4  -2 -17    0.50    0.20
  -4  -2 -18    4.46    0.59
  -4   2 -18    4.22    0.67
  -4  -2 -19    2.64    0.47
  -4   2 -19    2.80    0.56
  -4  -2 -20    0.24    0.20
  -4   2 -20    0.48    0.33
  -4  -2 -21    1.34    0.37
  -4   2 -21    0.46    0.30
  -4   2 -22   -0.14    0.22
  -4  -2 -22    0.27    0.28
  -4  -2 -23    0.45    0.31
  -4   2 -23    0.08    0.22
  -4  -3  24    0.66    0.29
   4   3 -24    0.67    0.42
   4  -3 -24    0.13    0.33
   4  -3 -23    0.20    0.25
   4   3 -23    0.15    0.29
  -4  -3  23    0.35    0.25
   4  -3 -22    0.19    0.24
   4   3 -22    0.57    0.39
  -4  -3  22    0.56    0.26
  -4  -3  21   -0.02    0.16
   4  -3 -21    0.28    0.29
   4   3 -21    0.43    0.32
   4   3 -21    0.08    0.20
  -4  -3  20    1.68    0.37
   4   3 -20    1.61    0.50
   4   3 -20    1.40    0.45
  -4  -3  20    2.27    0.51
  -4   3  20    1.20    0.25
   4  -3 -20    1.26    0.33
   4  -3 -20    1.13    0.44
  -4  -3  19    0.47    0.21
   4  -3 -19    0.38    0.32
   4  -3 -19    0.36    0.17
   4   3 -19    0.27    0.29
  -4   3  19   -0.06    0.09
   4   3 -19    0.13    0.18
  -4  -3  19   -0.25    0.23
  -4  -3  18    0.76    0.24
   4  -3 -18    0.56    0.31
   4   3 -18    0.33    0.34
   4  -3 -18    0.18    0.16
   4   3 -18    0.71    0.33
  -4  -3  18    0.95    0.41
  -4   3  18    0.52    0.23
  -4   3  18    0.40    0.15
  -4  -3  17    0.71    0.26
   4  -3 -17    0.59    0.28
   4  -3 -17    0.28    0.17
   4   3 -17    0.21    0.22
   4   3 -17    0.32    0.22
  -4  -3  17    0.46    0.28
  -4   3  17    0.57    0.22
  -4   3  17    0.10    0.12
   4  -3 -16    2.10    0.45
   4  -3 -16    1.75    0.34
  -4   3  16    1.80    0.30
   4   3 -16    1.70    0.44
   4   3 -16    1.65    0.46
  -4  -3  16    2.38    0.50
  -4   3  16    2.07    0.38
  -4  -3  16    2.09    0.36
   4  -3 -15    0.18    0.14
  -4   3  15    0.04    0.13
   4   3 -15   -0.20    0.19
   4   3 -15   -0.25    0.24
  -4  -3  15   -0.10    0.25
  -4   3  15   -0.06    0.14
   4  -3 -15    0.46    0.25
  -4  -3  15    0.07    0.13
   4   3 -14    0.87    0.30
   4  -3 -14    0.77    0.24
   4   3 -14    0.66    0.28
  -4   3  14    0.92    0.25
  -4  -3  14    1.31    0.37
   4  -3 -14    1.24    0.36
  -4   3  14    1.03    0.22
  -4  -3  14    1.25    0.26
   4  -3 -13    0.26    0.14
   4  -3 -13    0.71    0.29
   4   3 -13    0.00    0.16
   4   3 -13    0.51    0.25
  -4   3  13    0.02    0.11
  -4  -3  13    0.17    0.17
  -4  -3  13    0.40    0.17
  -4   3  13    0.08    0.11
   4  -3 -12    1.11    0.23
  -4   3  12    0.96    0.22
   4   3 -12    0.75    0.28
  -4  -3  12    0.96    0.22
  -4  -3  12    0.94    0.29
  -4   3  12    1.23    0.26
   4  -3 -12    1.54    0.36
   4   3 -11    1.96    0.42
   4  -3 -11    1.92    0.28
   4  -3 -11    2.92    0.47
  -4   3  11    2.15    0.34
  -4   3  11    1.96    0.29
  -4  -3  11    1.90    0.40
   4  -3 -11    2.36    0.32
  -4  -3  11    1.97    0.31
  -4   3  10   17.76    0.88
   4  -3 -10   16.54    1.00
   4  -3 -10   17.13    0.81
  -4   3  10   18.49    0.86
  -4  -3  10   18.04    1.12
  -4  -3  10   16.41    0.78
   4  -3 -10   18.35    0.83
   4   3 -10   18.44    1.14
   4  -3  -9   24.24    1.16
   4  -3  -9   24.14    0.94
  -4   3   9   23.44    0.96
  -4  -3   9   22.08    1.19
  -4  -3   9   25.40    0.95
   4  -3  -9   24.45    0.93
   4   3  -9   23.32    1.23
  -4   3   9   23.80    0.97
   4  -3  -8   15.19    0.90
   4  -3  -8   12.62    0.67
  -4   3   8   12.99    0.69
  -4  -3   8   13.03    0.89
   4   3  -8   13.79    0.92
   4  -3  -8   13.24    0.68
  -4  -3   8   14.27    0.69
  -4   3   8   11.83    0.66
   4  -3  -7    2.27    0.39
   4  -3  -7    2.01    0.29
   4   3  -7    1.63    0.35
  -4   3   7    1.73    0.27
  -4  -3   7    2.43    0.40
  -4   3   7    1.94    0.28
  -4  -3   7    1.43    0.24
   4  -3  -7    1.83    0.28
   4  -3  -6   27.44    1.13
  -4   3   6   27.22    0.98
  -4  -3   6   27.58    1.23
  -4   3   6   26.78    1.03
  -4  -3   6   27.16    1.00
   4  -3  -6   27.68    0.97
  -4   3   6   29.26    1.02
   4   3  -6   27.55    1.22
  -4  -3   6   27.43    0.90
  -4   3   5    2.30    0.29
   4  -3  -5    2.20    0.35
   4   3  -5    2.05    0.35
  -4  -3   5    2.52    0.31
  -4  -3   5    2.38    0.38
   4  -3  -5    2.27    0.28
  -4   3   5    2.35    0.30
  -4   3   5    2.16    0.29
  -4  -3   5    1.86    0.23
  -4  -3   5    2.16    0.20
  -4   3   4    1.03    0.20
   4  -3  -4    1.33    0.25
  -4   3   4    0.61    0.16
   4  -3  -4    1.02    0.19
  -4  -3   4    0.67    0.21
  -4  -3   4    1.05    0.17
  -4  -3   4    1.12    0.20
   4   3  -4    1.12    0.25
  -4  -3   4    0.89    0.15
  -4   3   4    0.83    0.17
   4   3  -4    0.86    0.14
  -4  -3   3    1.70    0.21
   4  -3  -3    1.90    0.29
  -4   3   3    1.59    0.25
  -4  -3   3    1.70    0.23
  -4  -3   3    1.67    0.30
   4   3  -3    1.67    0.19
   4  -3  -3    1.75    0.25
   4   3  -3    2.00    0.32
  -4   3   3    1.62    0.24
  -4   3   3    1.53    0.24
   4  -3  -2   21.24    0.89
   4   3  -2   19.63    0.67
  -4   3   2   20.36    0.87
  -4  -3   2   21.73    1.00
  -4  -3   2   20.88    0.73
  -4   3   2   20.85    0.81
   4  -3  -2   22.04    0.90
  -4   3   2   21.24    0.89
   4   3  -2   20.63    0.97
  -4  -3   2   21.36    0.73
   4  -3  -1   25.82    0.95
  -4   3   1   25.88    0.99
  -4  -3   1   25.15    1.07
  -4  -3   1   24.71    0.77
  -4  -3   1   25.94    0.83
   4  -3  -1   26.05    1.02
  -4   3   1   27.30    1.03
   4   3  -1   23.93    1.04
   4  -3  -1   26.05    0.96
   4   3  -1   24.74    0.80
  -4   3   1   25.91    0.89
   4  -3   0    2.66    0.31
  -4  -3   0    2.86    0.30
  -4  -3   0    2.87    0.37
   4  -3   0    2.99    0.36
  -4   3   0    2.95    0.35
   4   3   0    2.09    0.24
   4  -3   0    2.35    0.30
   4   3   0    2.65    0.34
  -4   3   0    1.69    0.23
   4  -3   1   34.48    1.02
  -4  -3  -1   34.12    1.03
  -4  -3  -1   35.74    1.25
   4  -3   1   37.03    1.27
  -4   3  -1   36.26    1.21
   4   3   1   34.08    1.21
   4  -3   1   34.77    1.13
  -4   3  -1   35.25    1.00
   4  -3   2  201.04    2.34
  -4  -3  -2  201.63    2.98
  -4  -3  -2  204.03    2.62
   4   3   2  205.38    2.96
  -4   3  -2  209.35    2.39
   4  -3   2  204.60    2.81
   4  -3   3   16.89    0.65
   4  -3   3   19.90    0.89
  -4   3  -3   17.77    0.98
  -4  -3  -3   16.70    0.88
   4   3   3   16.07    0.84
  -4  -3  -4    2.77    0.39
  -4   3  -4    3.07    0.46
  -4  -3  -4    2.55    0.23
   4   3   4    2.49    0.35
   4  -3   4    2.01    0.30
  -4   3  -5   75.28    2.06
  -4  -3  -5   75.72    1.86
   4   3   5   76.20    1.85
  -4  -3  -5   75.18    1.22
   4  -3   5   73.06    1.74
  -4  -3  -6    0.15    0.11
  -4   3  -6    0.17    0.19
   4  -3   6    0.11    0.13
   4   3   6    0.27    0.18
  -4  -3  -6   -0.03    0.11
  -4  -3  -7   14.09    0.83
   4  -3   7   13.12    0.78
   4   3   7   13.49    0.83
  -4  -3  -7   14.10    0.57
  -4   3  -7   13.07    0.91
  -4  -3  -8    2.25    0.35
  -4   3  -8    2.20    0.40
  -4  -3  -8    2.90    0.28
   4   3   8    2.94    0.40
   4  -3   8    2.59    0.36
  -4  -3  -9    0.09    0.10
  -4   3  -9   -0.28    0.22
   4  -3   9    0.10    0.14
  -4   3 -10    2.60    0.44
  -4  -3 -10    2.65    0.31
   4  -3  10    1.78    0.34
  -4   3 -11    1.60    0.39
  -4  -3 -11    1.61    0.25
   4  -3  11    1.67    0.36
   4   3  11    1.60    0.26
   4  -3  12    0.55    0.22
  -4   3 -12    0.37    0.27
   4   3  12   -0.16    0.14
  -4  -3 -12    0.29    0.14
  -4   3 -13    0.98    0.33
   4  -3  13    1.30    0.33
  -4  -3 -13    1.06    0.25
  -4  -3 -14    9.15    0.68
  -4   3 -14    8.52    0.86
  -4   3 -15    0.90    0.34
  -4  -3 -15    0.92    0.21
  -4  -3 -16    0.32    0.22
  -4   3 -16    0.08    0.24
  -4   3 -17   -0.05    0.18
  -4  -3 -17   -0.07    0.11
  -4   3 -18    0.28    0.30
  -4  -3 -18    0.59    0.27
  -4  -3 -19    2.24    0.41
  -4   3 -19    3.48    0.64
  -4  -3 -20    0.12    0.14
  -4   3 -20    0.50    0.31
  -4   3 -21   -0.06    0.19
  -4   3 -22    0.28    0.31
  -4   3 -23    0.02    0.19
   4  -4 -23    0.27    0.26
   4   4 -23    0.76    0.38
   4   4 -23    0.20    0.24
  -4  -4  23    0.44    0.27
   4   4 -22    0.21    0.22
   4  -4 -22   -0.38    0.28
   4   4 -22    0.02    0.26
  -4  -4  22    0.53    0.30
   4   4 -21   -0.38    0.28
   4   4 -21   -0.40    0.29
   4  -4 -21   -0.28    0.25
  -4  -4  21    0.14    0.21
   4  -4 -20    0.64    0.33
   4   4 -20    1.27    0.50
  -4   4  20    0.28    0.18
   4   4 -20    0.90    0.41
  -4  -4  20    0.62    0.28
  -4   4  19    0.68    0.21
   4   4 -19    0.82    0.38
   4  -4 -19    0.60    0.33
  -4  -4  19    0.67    0.34
  -4  -4  19    0.75    0.29
   4  -4 -18    0.10    0.18
   4  -4 -18    0.06    0.11
   4   4 -18    0.13    0.29
   4   4 -18   -0.05    0.18
  -4  -4  18    0.30    0.24
  -4   4  18   -0.31    0.17
  -4  -4  18    0.21    0.17
   4  -4 -17    2.88    0.56
   4   4 -17    3.29    0.65
   4   4 -17    2.40    0.53
  -4  -4  17    3.35    0.63
  -4   4  17    3.91    0.47
   4  -4 -17    3.21    0.41
  -4  -4  17    2.47    0.43
   4  -4 -16    0.08    0.12
   4  -4 -16    0.21    0.24
  -4  -4  16   -0.13    0.17
  -4   4  16    0.09    0.15
   4   4 -16   -0.04    0.18
   4   4 -16    0.16    0.20
  -4  -4  16   -0.15    0.18
  -4   4  16    0.07    0.14
   4  -4 -15    0.19    0.13
   4  -4 -15    0.26    0.23
   4   4 -15    0.07    0.20
  -4   4  15    0.47    0.24
   4   4 -15    0.57    0.31
  -4  -4  15   -0.17    0.18
  -4   4  15    0.15    0.13
  -4  -4  15    0.11    0.15
   4  -4 -14    0.07    0.10
   4  -4 -14    0.09    0.21
  -4  -4  14   -0.11    0.16
   4   4 -14    0.49    0.28
   4   4 -14    0.24    0.21
  -4   4  14    0.15    0.14
  -4  -4  14   -0.17    0.21
  -4   4  14    0.11    0.19
   4  -4 -13    0.18    0.23
   4   4 -13    0.32    0.25
   4  -4 -13    0.12    0.08
   4   4 -13    0.34    0.25
  -4   4  13    0.30    0.15
  -4  -4  13   -0.02    0.22
  -4   4  13    0.16    0.13
  -4  -4  13    0.03    0.13
   4  -4 -13    0.13    0.13
   4  -4 -12    0.22    0.22
   4  -4 -12   -0.01    0.07
   4   4 -12    0.30    0.22
   4  -4 -12    0.21    0.11
   4   4 -12    0.09    0.17
  -4   4  12    0.05    0.11
  -4   4  12   -0.17    0.20
  -4  -4  12    0.10    0.11
  -4  -4  12    0.23    0.18
   4  -4 -11    0.74    0.18
   4  -4 -11    0.96    0.31
   4  -4 -11    0.96    0.20
   4   4 -11    0.94    0.34
  -4  -4  11    0.68    0.18
  -4   4  11    0.87    0.25
   4   4 -11    0.51    0.23
  -4   4  11    0.95    0.21
  -4  -4  11    0.88    0.31
   4  -4 -10    0.65    0.21
   4  -4 -10    0.72    0.17
   4   4 -10    1.13    0.33
  -4   4  10    0.49    0.16
  -4  -4  10    0.32    0.13
  -4   4  10    0.55    0.15
   4   4 -10    0.51    0.19
  -4  -4  10    0.61    0.30
   4  -4 -10    0.59    0.16
   4  -4  -9    3.37    0.48
   4  -4  -9    3.57    0.35
   4   4  -9    3.20    0.49
  -4   4   9    3.25    0.34
   4   4  -9    3.38    0.44
  -4  -4   9    3.52    0.52
   4  -4  -9    3.84    0.36
  -4  -4   9    3.62    0.42
  -4   4   9    3.16    0.34
   4  -4  -8    4.08    0.53
  -4   4   8    4.51    0.40
  -4  -4   8    3.71    0.51
   4  -4  -8    3.80    0.36
  -4  -4   8    3.74    0.42
   4   4  -8    4.31    0.57
  -4   4   8    3.97    0.37
   4   4  -7    2.03    0.37
   4  -4  -7    2.14    0.38
  -4   4   7    2.10    0.27
  -4  -4   7    2.17    0.38
   4  -4  -7    2.03    0.27
  -4   4   7    1.97    0.27
  -4  -4   7    1.90    0.29
   4  -4  -6   18.27    1.01
  -4  -4   6   16.22    0.99
  -4   4   6   16.72    0.75
   4  -4  -6   17.92    0.76
  -4  -4   6   17.76    0.84
  -4   4   6   17.53    0.77
   4   4  -6   17.68    1.03
  -4   4   5   12.77    0.67
  -4  -4   5   13.57    0.88
   4   4  -5   13.74    0.47
   4  -4  -5   13.45    0.85
  -4  -4   5   13.30    0.67
   4  -4  -5   13.05    0.67
  -4   4   5   12.75    0.66
  -4   4   5   14.00    0.81
  -4  -4   5   14.22    0.73
   4   4  -5   12.81    0.85
   4   4  -5   13.96    0.64
   4  -4  -4    6.70    0.59
  -4   4   4    6.24    0.47
  -4  -4   4    5.96    0.58
   4   4  -4    7.43    0.37
  -4  -4   4    6.57    0.45
   4  -4  -4    7.71    0.52
  -4   4   4    6.20    0.47
  -4  -4   4    6.24    0.46
   4   4  -4    6.31    0.60
  -4   4   4    6.85    0.55
   4   4  -4    6.09    0.44
   4   4  -3    0.08    0.08
   4   4  -3    0.02    0.13
  -4  -4   3    0.13    0.13
  -4  -4   3    0.11    0.11
   4  -4  -3   -0.07    0.08
  -4  -4   3    0.10    0.09
  -4   4   3    0.08    0.11
  -4   4   3    0.00    0.09
   4   4  -3   -0.19    0.14
  -4   4   3    0.03    0.10
   4  -4  -2    0.48    0.16
   4   4  -2    0.50    0.14
  -4  -4   2    0.55    0.21
  -4  -4   2    0.30    0.12
   4  -4  -2    0.44    0.17
  -4  -4   2    0.36    0.11
   4   4  -2    0.35    0.18
  -4   4   2    0.42    0.15
  -4   4   2    0.35    0.12
  -4   4   2    0.57    0.18
   4   4  -2    0.02    0.10
   4  -4  -1   19.29    0.90
  -4  -4   1   19.94    0.98
   4   4  -1   19.55    0.71
  -4  -4   1   18.59    0.62
  -4   4   1   20.14    0.89
   4  -4  -1   17.85    0.90
   4   4  -1   18.67    0.94
   4   4  -1   18.19    0.81
  -4   4   1   18.76    0.87
  -4  -4   1   19.06    0.83
   4  -4   0   10.72    0.68
  -4  -4   0   11.31    0.74
  -4  -4   0   10.80    0.43
  -4   4   0   11.48    0.69
   4   4   0   11.48    0.73
   4  -4   0   10.33    0.70
   4   4   0   10.94    0.64
  -4   4   0   11.07    0.66
   4   4   0   11.81    0.57
  -4  -4   0   11.04    0.65
  -4  -4  -1   10.02    0.68
  -4  -4  -1    9.38    0.37
   4   4   1   11.31    0.58
   4   4   1    9.64    0.66
  -4   4  -1   10.42    0.62
   4   4   1   10.44    0.63
   4  -4   1   11.15    0.73
  -4  -4  -2    6.74    0.28
   4   4   2    8.35    0.52
  -4  -4  -2    7.03    0.57
   4   4   2    7.22    0.56
   4  -4   2    7.31    0.59
  -4   4  -3   25.71    1.23
  -4  -4  -3   23.49    0.49
   4   4   3   26.02    1.08
  -4  -4  -3   23.66    0.52
   4  -4   3   25.57    1.13
   4   4   3   26.56    0.95
  -4  -4  -3   24.93    1.08
  -4  -4  -4    1.18    0.28
  -4  -4  -4    0.87    0.09
   4   4   4    1.70    0.32
  -4   4  -4    1.05    0.31
   4   4   4    1.12    0.24
   4  -4   4    1.42    0.31
  -4  -4  -5   36.16    1.30
   4   4   5   37.03    1.19
  -4  -4  -5   35.26    0.60
   4   4   5   36.29    1.30
  -4   4  -5   36.09    1.51
   4  -4   5   35.01    1.36
  -4  -4  -6    4.80    0.50
  -4  -4  -6    4.62    0.24
   4   4   6    5.53    0.53
   4  -4   6    3.96    0.47
  -4   4  -6    4.76    0.57
  -4  -4  -7    1.95    0.32
  -4  -4  -7    2.09    0.17
  -4   4  -7    2.03    0.41
   4   4   7    2.14    0.34
   4  -4   7    1.51    0.33
  -4  -4  -8    0.30    0.17
  -4   4  -8    0.12    0.23
   4   4   8    0.01    0.15
  -4  -4  -8    0.16    0.07
   4  -4   8    0.15    0.17
  -4  -4  -9    1.93    0.35
  -4  -4  -9    1.95    0.21
  -4   4  -9    1.73    0.36
   4   4   9    1.66    0.31
   4  -4   9    2.03    0.39
  -4  -4 -10    1.89    0.34
   4  -4  10    1.95    0.39
  -4  -4 -10    2.03    0.22
  -4   4 -10    2.33    0.46
  -4  -4 -11    3.31    0.46
  -4   4 -11    3.71    0.59
  -4  -4 -11    3.54    0.32
   4  -4  11    3.44    0.50
  -4  -4 -12    3.62    0.48
   4   4  12    2.84    0.32
  -4   4 -12    3.80    0.61
  -4  -4 -12    4.11    0.38
   4  -4  12    3.18    0.49
  -4   4 -13   -0.12    0.18
  -4  -4 -13    0.32    0.17
   4  -4  13    0.72    0.30
  -4  -4 -14   37.52    1.25
  -4   4 -14   36.52    1.84
   4  -4  14   32.76    1.56
  -4  -4 -15   11.81    0.74
  -4   4 -15   12.66    1.10
   4  -4  15    9.91    0.89
  -4  -4 -16    5.52    0.54
  -4   4 -16    4.76    0.71
   4  -4  16    4.42    0.64
  -4  -4 -17    0.56    0.21
  -4   4 -17    0.38    0.29
   4  -4  17    0.08    0.22
  -4   4 -18    2.13    0.54
   4  -4  18    1.20    0.40
  -4   4 -19    4.14    0.71
   4  -4  19    2.89    0.55
  -4   4 -20    0.84    0.38
   4  -4  20    0.54    0.30
   4  -4  21    0.87    0.39
  -4   4 -21    0.64    0.41
  -4   4 -22    0.18    0.28
   4  -4  22    0.43    0.28
   4  -5 -23   -0.51    0.33
   4   5 -23    0.42    0.31
   4   5 -23    0.50    0.37
  -4  -5  23   -0.03    0.26
   4  -5 -22    0.09    0.24
   4   5 -22   -0.03    0.25
   4   5 -22    0.33    0.30
  -4  -5  22   -0.09    0.14
   4  -5 -21   -0.57    0.32
  -4   5  21    0.19    0.14
   4   5 -21    0.07    0.22
   4   5 -21    0.24    0.27
  -4  -5  21    0.09    0.16
   4   5 -20    0.14    0.24
  -4   5  20    0.10    0.13
   4  -5 -20    0.49    0.25
   4   5 -20   -0.16    0.19
  -4  -5  20    0.54    0.26
   4  -5 -19   -0.14    0.23
   4   5 -19    0.32    0.30
   4   5 -19    0.49    0.32
  -4  -5  19    0.90    0.33
  -4   5  19    0.39    0.22
  -4  -5  19    0.10    0.17
   4   5 -18    0.13    0.27
  -4   5  18    0.07    0.13
   4   5 -18   -0.07    0.19
  -4  -5  18   -0.40    0.29
   4  -5 -18   -0.43    0.30
  -4  -5  18    0.08    0.14
   4  -5 -17    0.16    0.23
  -4   5  17    0.21    0.16
   4   5 -17    0.25    0.26
   4   5 -17   -0.01    0.21
  -4  -5  17    0.02    0.20
  -4  -5  17    0.37    0.20
   4  -5 -16    2.06    0.49
   4   5 -16    1.64    0.48
   4   5 -16    1.62    0.47
  -4   5  16    1.52    0.37
  -4  -5  16    2.39    0.53
  -4  -5  16    1.34    0.33
   4  -5 -15    4.39    0.67
  -4  -5  15    2.64    0.46
   4   5 -15    4.07    0.69
   4   5 -15    3.36    0.60
  -4  -5  15    4.49    0.68
  -4   5  15    5.04    0.60
   4  -5 -14   -0.16    0.18
   4   5 -14    0.07    0.17
   4   5 -14   -0.03    0.16
  -4  -5  14   -0.13    0.20
  -4   5  14   -0.01    0.11
  -4   5  14    0.20    0.20
   4  -5 -14    0.16    0.10
  -4  -5  14    0.19    0.19
   4  -5 -13    1.41    0.39
   4   5 -13    1.86    0.45
   4   5 -13    1.45    0.37
  -4   5  13    1.69    0.26
  -4  -5  13    1.52    0.43
  -4   5  13    2.14    0.41
   4  -5 -13    2.08    0.26
  -4  -5  13    1.25    0.31
   4   5 -12    1.69    0.43
  -4   5  12    2.33    0.30
   4  -5 -12    2.44    0.49
   4   5 -12    1.90    0.40
  -4   5  12    2.05    0.39
  -4  -5  12    1.89    0.42
   4  -5 -12    2.08    0.26
  -4  -5  12    1.96    0.37
   4  -5 -11    0.48    0.30
   4   5 -11    0.85    0.32
  -4   5  11    0.47    0.13
   4   5 -11    0.46    0.23
  -4  -5  11    0.50    0.25
  -4  -5  11    0.64    0.25
   4  -5 -11    0.48    0.14
  -4   5  10    4.11    0.37
   4  -5 -10    4.38    0.61
  -4   5  10    4.31    0.37
   4   5 -10    3.05    0.16
  -4  -5  10    5.29    0.66
   4   5 -10    4.27    0.52
   4  -5 -10    5.04    0.39
   4   5 -10    4.64    0.63
  -4  -5  10    4.81    0.56
   4  -5  -9    3.04    0.50
   4   5  -9    2.53    0.49
  -4   5   9    2.18    0.27
   4   5  -9    2.03    0.16
   4   5  -9    2.35    0.39
  -4  -5   9    1.97    0.41
   4  -5  -9    2.39    0.28
  -4  -5   9    2.93    0.43
  -4   5   9    1.99    0.26
   4  -5  -8   13.38    0.98
  -4   5   8   13.38    0.64
   4   5  -8   11.60    0.42
   4   5  -8   13.98    1.01
  -4  -5   8   15.65    1.07
   4   5  -8   13.67    0.83
   4  -5  -8   14.86    0.68
  -4  -5   8   13.69    0.87
  -4   5   8   12.29    0.62
   4   5  -7    3.66    0.52
  -4   5   7    3.53    0.34
   4   5  -7    2.56    0.22
   4   5  -7    3.06    0.40
  -4  -5   7    2.94    0.48
   4  -5  -7    3.66    0.35
   4  -5  -7    2.79    0.50
  -4   5   7    3.38    0.33
  -4  -5   7    2.67    0.38
   4  -5  -6   18.02    1.11
  -4   5   6   19.28    0.79
   4   5  -6   17.81    0.61
  -4  -5   6   18.74    1.12
  -4   5   6   18.80    0.79
   4  -5  -6   19.86    0.80
  -4  -5   6   18.66    0.97
   4   5  -6   18.55    1.10
   4  -5  -5    0.21    0.21
  -4   5   5    0.09    0.09
   4   5  -5    0.18    0.10
   4   5  -5    0.28    0.20
  -4  -5   5    0.36    0.19
  -4  -5   5   -0.13    0.14
   4  -5  -5    0.08    0.10
  -4   5   5    0.03    0.08
  -4  -5   5    0.16    0.10
   4   5  -5    0.28    0.14
   4  -5  -4    0.82    0.26
   4   5  -4    0.65    0.24
  -4   5   4    0.83    0.18
  -4  -5   4    0.80    0.18
   4   5  -4    1.00    0.17
  -4  -5   4    0.99    0.28
   4   5  -4    0.53    0.16
  -4  -5   4    0.90    0.22
  -4   5   4    0.73    0.17
   4   5  -3    0.18    0.16
  -4   5   3    0.18    0.13
  -4   5   3    0.16    0.12
  -4  -5   3    0.26    0.19
   4   5  -3    0.22    0.11
  -4  -5   3    0.29    0.12
   4   5  -3    0.13    0.10
   4   5  -2    3.27    0.32
  -4  -5   2    2.70    0.40
   4   5  -2    3.13    0.41
  -4  -5   2    3.44    0.29
  -4   5   2    3.36    0.36
   4   5  -2    3.03    0.38
  -4  -5   1    9.12    0.70
   4   5  -1    8.69    0.53
  -4  -5   1    8.74    0.42
  -4   5   1    8.38    0.58
   4   5  -1    8.89    0.67
   4  -5  -1    8.58    0.72
   4   5  -1    8.24    0.61
  -4  -5   0    3.40    0.42
   4   5   0    3.11    0.33
  -4  -5   0    3.39    0.24
   4  -5   0    2.49    0.41
   4   5   0    3.33    0.42
   4   5   0    2.89    0.38
  -4  -5  -1    0.30    0.07
  -4  -5  -1    0.26    0.16
   4   5   1    0.18    0.14
   4  -5   1    0.39    0.15
   4   5   1    0.45    0.15
  -4  -5  -2   11.54    0.74
  -4   5  -2   10.18    0.82
   4   5   2   12.01    0.67
   4   5   2   11.84    0.75
   4  -5   2   11.43    0.82
  -4  -5  -3    6.26    0.55
   4   5   3    6.28    0.50
   4  -5   3    6.47    0.63
  -4   5  -3    6.06    0.63
   4   5   3    6.29    0.55
  -4   5  -4   11.19    0.86
  -4  -5  -4   12.07    0.76
   4   5   4   13.11    0.74
   4   5   4   12.46    0.78
   4  -5   4   12.09    0.88
  -4   5  -5   40.05    1.66
   4   5   5   38.51    1.29
   4   5   5   38.32    1.37
   4  -5   5   38.34    1.54
  -4  -5  -5   37.03    1.35
   4   5   6   12.47    0.76
   4   5   6   11.96    0.77
  -4  -5  -6   11.83    0.77
   4  -5   6   10.24    0.84
  -4   5  -6   11.21    0.91
  -4  -5  -7    0.80    0.25
   4  -5   7    0.67    0.30
  -4   5  -7    0.66    0.26
   4   5   7    0.91    0.26
   4   5   7    0.37    0.18
  -4  -5  -8    0.27    0.17
   4   5   8    0.39    0.24
  -4   5  -8   -0.40    0.28
   4   5   8    0.23    0.15
   4  -5   8   -0.31    0.27
  -4  -5  -9    6.67    0.60
   4   5   9    6.44    0.61
   4   5   9    6.19    0.59
  -4   5  -9    6.01    0.71
   4  -5   9    6.34    0.67
  -4  -5 -10    1.09    0.13
   4  -5  10    0.88    0.27
   4  -5  11   12.33    0.98
  -4  -5 -11   12.09    0.48
  -4  -5 -11   12.73    0.84
  -4   5 -11   12.26    1.06
  -4  -5 -12   16.05    0.97
  -4  -5 -12   14.31    0.58
  -4   5 -12   15.07    1.17
   4  -5  12   14.75    1.10
  -4  -5 -13    0.03    0.14
  -4   5 -13    0.27    0.30
  -4  -5 -13    0.01    0.08
   4  -5  13   -0.10    0.22
  -4   5 -14    2.75    0.56
  -4  -5 -14    3.94    0.51
   4  -5  14    3.39    0.55
  -4  -5 -15    9.16    0.78
  -4   5 -15    9.95    1.05
   4  -5  15    8.13    0.86
  -4   5 -16    4.71    0.74
  -4  -5 -16    4.34    0.56
   4  -5  16    3.91    0.62
  -4   5 -17    0.22    0.26
   4  -5  17    0.30    0.32
  -4   5 -18    0.96    0.40
   4  -5  18    1.02    0.37
  -4   5 -19    0.30    0.31
   4  -5  19    0.57    0.28
   4  -5  20   -0.10    0.20
  -4   5 -20   -0.10    0.26
  -4   5 -21    0.37    0.30
   4  -5  21   -0.01    0.20
  -4   6  22    0.45    0.24
   4   6 -22   -0.23    0.28
   4   6 -22    0.31    0.37
  -4  -6  22   -0.27    0.28
  -4  -6  21   -0.42    0.29
  -4   6  21    0.04    0.13
   4   6 -21    0.14    0.21
   4   6 -20    0.08    0.27
  -4  -6  20    0.52    0.25
   4   6 -20    0.26    0.36
  -4   6  20    0.32    0.20
   4   6 -19    0.94    0.43
  -4   6  19    0.50    0.23
   4   6 -19    0.37    0.29
  -4  -6  19    0.27    0.16
   4   6 -18    1.86    0.52
  -4   6  18    1.61    0.37
   4   6 -18    1.57    0.50
  -4  -6  18    1.06    0.36
  -4  -6  18    0.65    0.30
  -4   6  17    0.19    0.18
   4   6 -17   -0.01    0.17
   4   6 -17   -0.17    0.21
  -4  -6  17   -0.07    0.23
  -4  -6  17   -0.15    0.24
   4   6 -16    1.41    0.43
   4   6 -16    0.71    0.34
  -4  -6  16    1.29    0.43
  -4   6  16    1.40    0.36
  -4  -6  16    1.27    0.38
  -4   6  15    1.98    0.45
   4   6 -15    1.49    0.49
   4   6 -15    2.05    0.49
  -4  -6  15    2.78    0.57
  -4  -6  15    1.50    0.40
   4   6 -14    2.08    0.52
   4   6 -14    2.46    0.50
  -4  -6  14    3.21    0.61
  -4   6  14    2.29    0.46
  -4  -6  14    1.78    0.39
   4   6 -13    1.14    0.43
   4   6 -13    0.97    0.30
  -4  -6  13    1.15    0.37
  -4   6  13    0.95    0.30
  -4  -6  13    1.45    0.36
   4   6 -12    3.24    0.59
  -4   6  12    3.42    0.54
   4   6 -12    1.98    0.41
  -4  -6  12    3.49    0.62
  -4  -6  12    1.99    0.41
   4   6 -11    3.12    0.55
  -4   6  11    4.20    0.33
  -4  -6  11    4.87    0.67
   4   6 -11    4.14    0.58
   4  -6 -11    3.41    0.29
  -4  -6  11    4.01    0.57
   4   6 -10    1.25    0.39
  -4   6  10    1.49    0.21
   4   6 -10    1.16    0.29
  -4  -6  10    1.66    0.42
   4   6 -10    1.02    0.15
   4  -6 -10    1.59    0.21
  -4  -6  10    1.68    0.39
   4   6  -9    0.26    0.26
  -4   6   9    0.00    0.07
  -4   6   9    0.00    0.07
  -4  -6   9    0.22    0.14
   4   6  -9    0.34    0.17
  -4  -6   9    0.19    0.21
   4   6  -9   -0.10    0.09
   4  -6  -9    0.03    0.08
   4   6  -8    7.93    0.45
  -4   6   8    9.16    0.50
  -4  -6   8    9.17    0.86
   4   6  -8    8.13    0.69
   4   6  -8   10.02    0.89
  -4  -6   8    9.56    0.80
  -4   6   8    8.11    0.47
   4   6  -7    1.75    0.42
  -4   6   7    1.45    0.22
   4   6  -7    1.44    0.31
  -4  -6   7    1.80    0.43
  -4   6   7    1.39    0.21
   4   6  -7    1.04    0.20
  -4  -6   7    1.53    0.35
   4   6  -6   10.50    0.57
  -4  -6   6   12.23    0.94
   4   6  -6   10.90    0.68
  -4   6   6   12.03    0.61
  -4   6   6   10.64    0.57
  -4  -6   6   11.42    0.84
   4   6  -6   12.59    0.95
  -4   6   5    2.76    0.30
  -4  -6   5    2.71    0.44
  -4  -6   5    2.49    0.34
   4   6  -5    2.28    0.28
  -4   6   5    2.94    0.32
  -4  -6   5    3.65    0.46
   4   6  -5    2.75    0.44
  -4   6   4    8.17    0.55
  -4  -6   4    8.46    0.75
  -4  -6   4    8.00    0.55
   4   6  -4    7.95    0.53
  -4   6   4    8.04    0.54
   4   6  -4    8.33    0.74
   4   6  -3    3.76    0.48
  -4   6   3    4.12    0.40
   4   6  -3    3.33    0.36
  -4  -6   3    3.46    0.49
  -4  -6   3    3.49    0.34
  -4   6   3    3.55    0.37
   4   6  -2    0.09    0.16
  -4  -6   2    0.13    0.08
   4   6  -2    0.09    0.11
  -4  -6   2    0.04    0.13
  -4   6   2    0.14    0.11
   4   6  -1    1.44    0.25
   4   6  -1    1.79    0.33
  -4  -6   1    2.09    0.37
  -4  -6   1    1.90    0.21
  -4   6   1    1.42    0.25
   4   6   0    0.01    0.12
   4   6   0    0.08    0.11
  -4  -6   0    0.14    0.05
  -4  -6   0   -0.09    0.15
   4  -6   0    0.08    0.19
   4   6   1    1.47    0.27
  -4  -6  -1    1.51    0.32
  -4   6  -1    1.56    0.36
   4   6   1    1.27    0.27
   4  -6   1    1.82    0.38
   4  -6   2    0.42    0.22
  -4   6  -2    1.22    0.30
  -4  -6  -2    1.01    0.24
   4   6   2    0.93    0.23
   4   6   2    0.88    0.22
   4  -6   3   -0.14    0.25
  -4  -6  -3    0.29    0.12
   4   6   3    0.37    0.15
  -4   6  -3    0.18    0.19
   4   6   3    0.49    0.17
  -4   6  -4    0.26    0.15
  -4  -6  -4    0.04    0.12
  -4   6  -4   -0.14    0.24
   4   6   4    0.11    0.14
   4   6   4    0.33    0.17
   4  -6   4    0.03    0.15
  -4   6  -5    6.14    0.71
  -4   6  -5    6.34    0.47
  -4  -6  -5    7.03    0.60
   4   6   5    7.33    0.62
   4   6   5    7.11    0.62
   4  -6   5    7.25    0.76
  -4  -6  -6   12.52    0.80
  -4   6  -6   11.08    0.59
   4   6   6   12.30    0.79
   4   6   6   12.76    0.81
   4  -6   6   12.08    0.96
  -4   6  -6   11.13    0.94
  -4   6  -7    3.24    0.31
  -4  -6  -7    3.43    0.43
   4   6   7    3.41    0.43
  -4   6  -7    3.41    0.56
   4   6   7    3.69    0.46
   4  -6   7    2.76    0.46
  -4   6  -8    1.72    0.22
  -4  -6  -8    2.09    0.35
  -4   6  -8    1.35    0.34
   4   6   8    1.61    0.33
   4   6   8    1.97    0.34
   4  -6   8    2.41    0.49
  -4  -6  -9    0.01    0.17
  -4   6  -9    0.23    0.17
   4   6   9    0.33    0.20
   4   6   9   -0.03    0.12
   4  -6   9    0.22    0.22
  -4  -6 -10    1.45    0.30
  -4   6 -10    1.00    0.37
   4   6  10    1.28    0.30
   4  -6  10    0.61    0.16
   4   6  11    0.37    0.24
  -4  -6 -11    0.10    0.12
  -4   6 -11    0.07    0.17
  -4  -6 -12    0.05    0.13
  -4   6 -12    0.57    0.28
   4   6  12    0.38    0.25
   4  -6  12   -0.20    0.25
  -4  -6 -13    1.38    0.31
  -4   6 -13    1.74    0.46
   4  -6  13    1.06    0.28
  -4  -6 -14    2.25    0.39
  -4   6 -14    2.11    0.49
   4  -6  14    1.57    0.41
  -4  -6 -15    4.25    0.53
  -4   6 -15    4.00    0.70
   4  -6  15    2.98    0.54
  -4   6 -16   -0.03    0.30
   4  -6  16    0.55    0.23
  -4   6 -17    0.10    0.23
   4  -6  17    0.46    0.26
  -4   6 -18    0.09    0.22
   4  -6  18   -0.16    0.18
  -4   6 -19    0.90    0.40
   4  -6  19    0.43    0.31
  -4   6 -20    3.56    0.72
   4  -6  20    2.85    0.64
   4   7 -20    0.35    0.31
   4   7 -20    0.25    0.30
  -4   7  20   -0.03    0.14
  -4  -7  20   -0.13    0.19
   4   7 -19    0.01    0.21
  -4   7  19    0.20    0.17
   4   7 -19    0.28    0.23
  -4  -7  19   -0.01    0.15
  -4   7  18    0.40    0.26
   4   7 -18    0.19    0.30
   4   7 -18    0.19    0.22
  -4  -7  18   -0.01    0.18
  -4   7  17    0.27    0.24
   4   7 -17    0.16    0.18
   4   7 -17    0.17    0.26
  -4  -7  17    0.11    0.24
  -4  -7  17    0.31    0.31
   4   7 -16    2.60    0.63
   4   7 -16    2.19    0.51
  -4  -7  16    2.98    0.63
  -4  -7  16    2.63    0.52
  -4   7  16    2.96    0.54
   4   7 -15    1.79    0.54
   4   7 -15    1.97    0.49
  -4  -7  15    2.67    0.58
  -4   7  15    1.49    0.40
  -4  -7  15    1.67    0.40
   4   7 -14    0.89    0.33
   4   7 -14    1.01    0.35
  -4  -7  14    1.94    0.49
  -4   7  14    1.46    0.40
  -4  -7  14    1.87    0.43
  -4  -7  13   -0.21    0.21
   4   7 -13    0.08    0.25
   4   7 -13   -0.09    0.18
  -4  -7  13    0.14    0.24
  -4   7  13   -0.19    0.21
   4   7 -12    0.41    0.38
  -4   7  12    0.27    0.23
   4   7 -12    0.17    0.16
  -4  -7  12    0.39    0.28
  -4  -7  12    0.08    0.17
   4   7 -11    3.73    0.63
  -4   7  11    3.63    0.58
   4   7 -11    2.96    0.46
  -4  -7  11    3.71    0.61
  -4  -7  11    3.34    0.54
   4   7 -10   -0.36    0.29
   4   7 -10   -0.07    0.13
  -4  -7  10    0.25    0.21
  -4  -7  10    0.06    0.21
   4   7  -9    2.71    0.54
   4   7  -9    2.93    0.31
   4   7  -9    2.68    0.43
  -4  -7   9    2.10    0.45
  -4  -7   9    3.06    0.54
   4   7  -8    0.07    0.18
   4   7  -8    0.11    0.09
  -4   7   8    0.01    0.06
   4   7  -8    0.18    0.14
  -4  -7   8   -0.19    0.21
  -4  -7   8   -0.01    0.17
   4   7  -7    0.74    0.29
  -4   7   7    0.36    0.11
   4   7  -7    0.63    0.17
   4   7  -7    0.51    0.19
  -4  -7   7    0.34    0.23
  -4  -7   7    0.26    0.14
  -4   7   6    0.13    0.10
   4   7  -6   -0.17    0.22
  -4  -7   6    0.02    0.14
   4   7  -6   -0.05    0.10
   4   7  -6    0.15    0.12
  -4  -7   6   -0.10    0.17
  -4   7   5    0.07    0.07
   4   7  -5   -0.10    0.19
  -4   7   5    0.17    0.09
  -4  -7   5    0.20    0.12
   4   7  -5    0.12    0.11
  -4  -7   5    0.26    0.21
   4   7  -5   -0.04    0.12
  -4  -7   5    0.16    0.19
   4   7  -4    0.64    0.22
  -4   7   4    1.31    0.24
  -4  -7   4    1.05    0.22
  -4  -7   4    0.70    0.25
   4   7  -4    0.57    0.18
  -4   7   4    0.98    0.20
  -4   7   3   13.49    0.73
   4   7  -3   10.97    0.70
  -4  -7   3   12.31    0.92
   4   7  -3   12.35    0.94
  -4   7   3   11.81    0.68
  -4  -7   3   12.86    0.66
   4   7  -2    0.04    0.16
  -4  -7   2   -0.02    0.08
  -4  -7   2    0.38    0.21
   4   7  -2   -0.11    0.14
  -4   7   2    0.02    0.09
   4   7  -1   -0.10    0.15
  -4  -7   1    0.18    0.19
  -4  -7   1    0.37    0.10
   4   7  -1    0.03    0.14
   4   7   0   16.01    0.88
  -4  -7   0   17.79    1.03
   4   7   0   17.08    0.99
   4  -7   0   16.98    1.20
  -4   7   0   17.31    1.14
   4  -7   1    2.53    0.46
   4   7   1    3.18    0.41
  -4  -7  -1    2.65    0.42
   4   7   1    3.07    0.43
  -4   7  -1    3.19    0.51
   4   7   2    0.40    0.16
  -4  -7  -2    0.87    0.24
  -4   7  -2    0.58    0.25
   4  -7   2    0.38    0.19
   4   7   2    0.38    0.21
   4   7   3    0.39    0.15
  -4  -7  -3    0.15    0.16
  -4   7  -3    0.16    0.22
   4  -7   3    0.34    0.23
   4   7   3    0.37    0.20
   4   7   4    0.29    0.15
  -4  -7  -4    0.64    0.20
  -4   7  -4    0.47    0.25
   4   7   4    0.43    0.15
   4  -7   4    0.62    0.26
   4   7   5    0.70    0.22
  -4  -7  -5    0.71    0.24
   4   7   5    0.58    0.19
  -4   7  -5    0.83    0.32
   4  -7   5    0.22    0.17
  -4  -7  -6    9.52    0.71
   4   7   6   11.51    0.82
   4   7   6    9.95    0.75
   4  -7   6   10.60    0.98
  -4   7  -6    9.70    0.93
  -4   7  -7    9.83    0.96
  -4  -7  -7    9.39    0.70
   4   7   7    8.32    0.73
   4   7   7   10.63    0.76
   4  -7   7    9.70    0.95
   4   7   8    0.25    0.22
  -4  -7  -8    0.21    0.16
  -4   7  -8   -0.05    0.21
   4   7   8    0.38    0.17
   4  -7   8    0.27    0.24
   4   7   9    0.53    0.25
  -4  -7  -9    0.50    0.20
  -4   7  -9    0.47    0.27
   4   7   9    0.30    0.14
   4  -7   9    0.22    0.19
  -4  -7 -10    0.20    0.11
  -4   7 -10    0.03    0.19
   4   7  10    0.04    0.15
   4   7  10   -0.01    0.15
   4  -7  10    0.40    0.30
  -4  -7 -11    0.57    0.19
  -4   7 -11    0.67    0.29
   4  -7  11   -0.12    0.25
   4   7  11    0.42    0.24
  -4  -7 -12    0.05    0.12
  -4   7 -12   -0.01    0.18
   4   7  12   -0.04    0.13
   4  -7  12   -0.23    0.27
   4   7  13   -0.11    0.14
  -4   7 -13    0.03    0.23
   4  -7  13    0.08    0.19
  -4   7 -14    0.43    0.29
   4   7  14    0.40    0.27
   4  -7  14   -0.23    0.31
  -4   7 -15    0.24    0.28
   4  -7  15    0.22    0.25
  -4   7 -16    0.83    0.37
   4  -7  16    0.32    0.26
  -4   7 -17    0.00    0.28
   4  -7  17   -0.38    0.26
  -4   7 -18    0.06    0.26
   4  -7  18    0.02    0.26
  -4   7 -19    0.32    0.31
   4  -7  19    0.11    0.19
   4   8 -19    0.16    0.26
  -4   8  19    1.27    0.40
   4   8 -19    0.58    0.36
  -4  -8  19    0.18    0.28
  -4   8  18    1.07    0.37
   4   8 -18    1.17    0.44
   4   8 -18    0.81    0.35
  -4  -8  18    1.18    0.40
  -4   8  17    1.61    0.43
   4   8 -17    0.40    0.35
   4   8 -17    1.46    0.47
  -4  -8  17    0.69    0.30
   4   8 -16    0.16    0.28
   4   8 -16    1.19    0.41
  -4  -8  16    0.74    0.36
  -4  -8  16    1.54    0.44
  -4   8  16    0.80    0.36
   4   8 -15   -0.20    0.25
   4   8 -15    0.10    0.19
  -4  -8  15    0.18    0.24
  -4   8  15    0.05    0.17
  -4  -8  15   -0.17    0.20
   4   8 -14    0.87    0.40
   4   8 -14    0.87    0.31
  -4  -8  14    1.01    0.41
  -4   8  14    0.56    0.28
  -4  -8  14    0.10    0.22
   4   8 -13    8.21    0.85
  -4  -8  13    9.94    1.06
  -4  -8  13    8.27    0.96
  -4   8  13    8.45    0.94
   4   8 -13    9.79    1.08
   4   8 -12    1.06    0.43
  -4   8  12    0.83    0.33
   4   8 -12    0.79    0.35
  -4  -8  12    0.73    0.36
  -4  -8  12    0.70    0.39
   4   8 -11    0.10    0.18
  -4   8  11    0.35    0.20
   4   8 -11    0.50    0.21
  -4  -8  11    0.48    0.31
  -4  -8  11   -0.05    0.21
   4   8 -10    2.76    0.56
   4   8 -10    2.57    0.44
  -4  -8  10    2.73    0.53
  -4  -8  10    3.14    0.55
   4   8  -9    0.73    0.32
   4   8  -9    0.37    0.18
  -4  -8   9    1.22    0.38
  -4  -8   9    0.98    0.33
   4   8  -8    0.67    0.29
   4   8  -8    0.33    0.14
  -4  -8   8    0.36    0.28
   4   8  -8    0.69    0.22
  -4  -8   8    0.43    0.25
   4   8  -7    3.02    0.38
   4   8  -7    3.76    0.59
   4   8  -7    2.82    0.41
  -4  -8   7    3.56    0.58
  -4  -8   7    4.54    0.64
   4   8  -6    0.07    0.15
   4   8  -6    0.46    0.17
   4   8  -6    0.15    0.11
  -4  -8   6    0.11    0.14
  -4  -8   6    0.26    0.17
   4   8  -5    0.59    0.22
   4   8  -5    1.25    0.26
   4   8  -5    0.90    0.20
  -4  -8   5    0.76    0.26
   4   8  -4    1.16    0.33
  -4   8   4    1.06    0.22
   4   8  -4    1.21    0.24
   4   8  -4    0.84    0.19
  -4  -8   4    1.10    0.29
   4   8  -3    0.16    0.21
  -4   8   3    0.12    0.10
  -4  -8   3    0.04    0.15
   4   8  -2    0.17    0.19
  -4  -8   2    0.19    0.15
   4   8  -1    1.54    0.34
  -4  -8   1    1.87    0.39
   4   8  -1    1.32    0.29
  -4   8   1    1.58    0.37
   4   8   0    3.36    0.46
  -4  -8   0    4.43    0.54
   4   8   0    3.68    0.49
  -4   8   0    3.50    0.57
  -4   8  -1   17.08    1.20
   4   8   1   17.06    1.00
  -4  -8  -1   17.92    1.06
   4   8   1   17.02    1.01
   4  -8   1   16.74    1.26
  -4  -8  -2    2.47    0.39
  -4   8  -2    2.70    0.49
   4  -8   2    3.03    0.55
   4   8   2    2.76    0.42
   4   8   2    2.95    0.42
  -4  -8  -3    0.05    0.14
  -4   8  -3    0.11    0.20
   4  -8   3   -0.09    0.25
   4   8   3   -0.11    0.15
   4   8   3    0.10    0.13
   4   8   4    0.26    0.17
  -4  -8  -4    0.55    0.20
  -4   8  -4    0.71    0.30
   4  -8   4    0.47    0.26
   4   8   4    0.34    0.16
   4   8   5   -0.26    0.21
   4  -8   5   -0.20    0.23
   4   8   5    0.07    0.11
  -4  -8  -5    0.20    0.19
  -4   8  -5   -0.13    0.22
   4   8   6    1.49    0.33
  -4  -8  -6    1.84    0.34
  -4   8  -6    1.91    0.44
   4   8   6    1.71    0.32
   4  -8   6    2.22    0.47
  -4  -8  -7    2.82    0.41
  -4   8  -7    2.82    0.54
   4   8   7    2.86    0.47
   4   8   7    2.63    0.41
   4  -8   7    2.50    0.53
  -4  -8  -8    0.37    0.17
  -4   8  -8    0.02    0.28
   4   8   8    0.21    0.18
   4   8   8    0.31    0.15
   4  -8   8    0.07    0.20
  -4  -8  -9    1.11    0.27
  -4   8  -9    0.66    0.29
   4   8   9    0.64    0.27
   4  -8   9    1.17    0.40
   4   8  10    2.85    0.48
  -4   8 -10    2.85    0.59
   4  -8  10    3.12    0.61
   4   8  11    0.32    0.24
  -4   8 -11   -0.03    0.23
   4  -8  11    0.39    0.28
  -4   8 -12    1.91    0.48
   4   8  12    2.36    0.46
   4  -8  12    2.41    0.58
  -4   8 -13    4.71    0.76
   4   8  13    4.79    0.65
   4  -8  13    3.93    0.70
  -4   8 -14    1.40    0.49
   4   8  14    1.96    0.45
   4  -8  14    1.61    0.49
  -4   8 -15   -0.22    0.24
   4   8  15    0.35    0.25
   4  -8  15   -0.05    0.19
  -4   8 -16    0.11    0.23
   4   8  16    0.34    0.28
   4  -8  16   -0.06    0.20
  -4   8 -17    0.88    0.40
   4  -8  17    1.68    0.55
  -4   9  17    0.22    0.23
   4   9 -17    0.33    0.35
   4   9 -17   -0.24    0.23
  -4  -9  17    0.31    0.28
   4   9 -16    0.53    0.32
   4   9 -16   -0.19    0.21
  -4  -9  16    0.12    0.20
  -4   9  16   -0.26    0.23
   4   9 -15   -0.13    0.19
   4   9 -15   -0.05    0.23
  -4   9  15    0.10    0.24
  -4  -9  15   -0.12    0.26
   4   9 -14    0.45    0.29
   4   9 -14    0.11    0.24
  -4  -9  14    0.70    0.39
  -4   9  14   -0.06    0.24
  -4  -9  14    0.40    0.23
   4   9 -13    0.17    0.22
   4   9 -13    0.31    0.22
  -4  -9  13    0.19    0.23
  -4   9  13    0.31    0.27
  -4  -9  13    0.30    0.33
   4   9 -12    0.06    0.20
   4   9 -12    0.13    0.21
  -4   9  12    0.18    0.31
  -4  -9  12    0.17    0.27
  -4  -9  12    0.38    0.32
   4   9 -11   -0.51    0.29
  -4   9  11   -0.28    0.24
   4   9 -11   -0.02    0.14
  -4  -9  11    0.01    0.18
  -4  -9  11    0.22    0.22
   4   9 -10    0.64    0.30
  -4   9  10   -0.27    0.35
   4   9 -10    0.66    0.25
  -4  -9  10    0.85    0.39
  -4  -9  10    0.33    0.20
  -4  -9   9    0.26    0.21
   4   9  -9    0.49    0.21
  -4  -9   9    0.37    0.27
  -4  -9   8    9.66    0.99
   4   9  -8    9.17    0.75
  -4  -9   8    9.47    1.00
   4   9  -8    9.48    0.99
   4   9  -7    0.74    0.34
   4   9  -7    0.11    0.10
  -4  -9   7    0.53    0.29
  -4  -9   7   -0.19    0.24
   4   9  -6    0.04    0.12
  -4  -9   6   -0.11    0.18
   4   9  -6    0.30    0.19
   4   9  -5    0.98    0.35
   4   9  -5    1.55    0.31
  -4  -9   5    0.87    0.29
   4   9  -4    2.34    0.45
   4   9  -4    2.70    0.41
  -4  -9   4    2.95    0.50
   4   9  -3    1.19    0.35
   4   9  -3    1.01    0.25
  -4  -9   3    1.02    0.31
   4   9  -2    0.51    0.22
   4   9  -2    0.11    0.14
  -4  -9   2    0.25    0.15
   4   9  -1    2.29    0.42
  -4  -9   1    1.92    0.37
   4   9  -1    1.99    0.37
  -4   9   1    2.47    0.48
   4   9   0    6.73    0.67
  -4   9   0    7.17    0.81
  -4  -9   0    7.40    0.73
   4   9   0    7.48    0.72
  -4   9  -1    6.53    0.79
   4   9   1    6.30    0.66
  -4  -9  -1    6.52    0.67
   4   9   1    6.11    0.64
   4  -9   1    6.98    0.86
  -4  -9  -2    0.01    0.11
  -4   9  -2    0.26    0.23
   4   9   2    0.38    0.19
   4  -9   2    0.09    0.24
   4   9   2    0.20    0.19
   4  -9   3    0.06    0.20
  -4  -9  -3    0.06    0.14
  -4   9  -3   -0.04    0.18
   4   9   3    0.00    0.16
   4   9   3    0.12    0.12
   4  -9   4   -0.16    0.18
  -4  -9  -4    0.23    0.18
  -4   9  -4    0.21    0.25
   4   9   4    0.10    0.13
   4   9   4   -0.28    0.23
   4   9   5    1.69    0.34
  -4  -9  -5    2.87    0.42
  -4   9  -5    2.00    0.48
   4   9   5    2.79    0.40
   4  -9   5    2.48    0.54
   4   9   6    1.02    0.30
  -4   9  -6    1.42    0.42
   4  -9   6    1.33    0.40
   4   9   7    1.91    0.38
  -4   9  -7    1.45    0.40
  -4   9  -8    2.71    0.57
   4   9   8    1.95    0.41
   4  -9   8    1.66    0.45
  -4   9  -9    1.25    0.40
   4   9   9    0.94    0.30
   4  -9   9    1.39    0.47
  -4   9 -10    0.55    0.32
   4  -9  10    0.95    0.38
   4   9  10    0.76    0.32
   4   9  11    0.05    0.21
  -4   9 -11    0.14    0.22
   4  -9  11    0.20    0.22
   4   9  12    0.45    0.28
  -4   9 -12    0.84    0.32
   4  -9  12    0.65    0.38
  -4   9 -13    0.16    0.24
   4   9  13    0.78    0.29
   4  -9  13    0.26    0.28
   4   9  14    0.89    0.33
  -4   9 -14    0.98    0.43
   4  -9  14    0.91    0.46
  -4   9 -15    0.57    0.32
   4   9  15    0.78    0.28
   4  -9  15    1.23    0.45
   4  10 -14    0.09    0.22
  -4  10  14   -0.09    0.26
  -4 -10  14    0.44    0.31
   4  10 -13    0.32    0.29
  -4  10  13    0.02    0.20
  -4 -10  13   -0.21    0.23
   4  10 -12    1.98    0.54
  -4  10  12    1.73    0.56
  -4 -10  12    1.38    0.45
  -4 -10  12    2.13    0.57
   4  10 -11    2.25    0.59
  -4  10  11    2.12    0.55
  -4 -10  11    2.28    0.58
  -4 -10  11    1.32    0.50
   4  10 -10    0.11    0.17
  -4 -10  10    0.05    0.22
  -4  10  10   -0.29    0.30
  -4 -10  10   -0.10    0.19
   4  10  -9   -0.13    0.26
  -4 -10   9    0.22    0.28
  -4 -10   9   -0.02    0.20
   4  10  -8    0.08    0.23
  -4 -10   8    0.05    0.18
  -4 -10   8    0.11    0.21
   4  10  -7    0.41    0.24
  -4 -10   7    0.53    0.30
   4  10  -6    0.35    0.29
   4  10  -6    0.13    0.15
  -4 -10   6    0.33    0.25
   4  10  -5    1.99    0.45
   4  10  -5    2.21    0.41
  -4 -10   5    1.92    0.45
   4  10  -4    0.05    0.16
   4  10  -4    0.40    0.19
  -4 -10   4    0.63    0.28
  -4  10   4    0.23    0.23
   4  10  -3    0.43    0.25
  -4  10   3   -0.11    0.23
   4  10  -3    0.20    0.17
  -4 -10   3    0.41    0.18
  -4 -10   2    4.78    0.64
   4  10  -2    4.15    0.55
  -4  10   2    4.22    0.64
   4  10  -2    5.02    0.63
   4  10  -1    2.10    0.41
   4  10  -1    1.74    0.37
  -4 -10   1    2.31    0.42
  -4  10   1    2.61    0.53
  -4 -10   0    0.27    0.21
   4  10   0   -0.47    0.24
  -4  10   0    0.01    0.22
   4  10   0    0.10    0.13
  -4 -10  -1    0.13    0.21
  -4  10  -1   -0.11    0.21
   4  10   1   -0.35    0.25
   4  10   1    0.19    0.20
  -4 -10  -2    2.52    0.43
  -4  10  -2    2.14    0.52
   4  10   2    2.62    0.45
   4 -10   2    2.38    0.56
   4  10   3    5.76    0.68
   4 -10   3    6.21    0.90
  -4  10  -3    7.15    0.85
  -4  10  -4    0.90    0.32
   4 -10   4    0.67    0.33
   4  10   4    0.73    0.25
   4  10   5    4.47    0.61
  -4  10  -5    4.13    0.66
   4 -10   5    3.99    0.71
   4  10   6    0.58    0.26
   4 -10   6    1.41    0.47
  -4  10  -6    0.58    0.33
   4  10   7    1.14    0.32
  -4  10  -7    0.61    0.30
   4 -10   7    1.03    0.42
   4 -10   8    0.28    0.24
   4  10   8    0.06    0.19
  -4  10  -8    0.31    0.27
   4 -10   9    1.48    0.51
  -4  10  -9    1.04    0.42
   4  10   9    1.28    0.36
  -4  10 -10    0.26    0.27
   4  10  10    0.04    0.19
   4 -10  10    0.07    0.27
  -4  10 -11   -0.18    0.29
   4  10  11    0.27    0.17
   4 -10  11    0.54    0.31
   4  10  12    0.59    0.28
  -4  10 -12    0.09    0.27
   4 -10  12   -0.22    0.27
  -4  10 -13    1.37    0.52
   4  10  13    1.77    0.44
   4 -10  13    1.65    0.55
  -4  11  10    0.25    0.26
  -4 -11  10   -0.17    0.22
   4  11  -9    0.03    0.18
  -4  11   9   -0.45    0.36
  -4 -11   9    0.37    0.28
  -4 -11   9   -0.08    0.20
   4  11  -8    0.01    0.15
  -4 -11   8    0.11    0.15
   4  11  -7    0.39    0.27
  -4 -11   7    0.38    0.25
   4  11  -6    1.11    0.36
  -4 -11   6    0.91    0.34
  -4  11   6    0.79    0.30
   4  11  -5    1.65    0.42
  -4 -11   5    1.98    0.48
  -4  11   5    1.25    0.39
   4  11  -4    0.15    0.15
   4  11  -4    0.46    0.22
  -4 -11   4    0.13    0.20
  -4  11   4   -0.11    0.22
   4  11  -3    0.69    0.28
   4  11  -3    0.44    0.22
  -4 -11   3    0.29    0.21
  -4  11   3    0.64    0.33
   4  11  -2   -0.01    0.16
  -4  11   2    0.16    0.24
   4  11  -1    1.07    0.31
  -4  11   1    1.29    0.40
   4  11   0    0.12    0.16
  -4  11   0    0.53    0.31
  -4  11  -1   -0.04    0.19
   4  11   1   -0.16    0.20
  -4  11  -2   -0.14    0.21
   4  11   2   -0.07    0.17
  -4  11  -3    0.29    0.29
   4  11   3    0.23    0.19
  -4  11  -4    3.41    0.63
   4 -11   4    3.74    0.73
   4  11   4    2.81    0.52
   4 -11   5    1.85    0.52
  -4  11  -5    1.55    0.47
   4  11   5    1.03    0.32
   4  11   6    0.85    0.29
  -4  11  -6    1.39    0.46
   4 -11   6    0.68    0.34
   4  11   7    0.28    0.18
  -4  11  -7    0.58    0.36
   4 -11   7    0.08    0.27
   4  11   8    0.14    0.16
  -4  11  -8    0.46    0.34
   4 -11   8    0.82    0.43
  -4  11  -9    0.59    0.36
   4  11   9    0.12    0.15
   4 -11   9    0.39    0.34
   4  12  -3    0.88    0.29
  -4  12   3    1.24    0.34
   4  12  -2   -0.04    0.18
  -4  12   2    0.16    0.21
   4  12  -1    0.10    0.16
  -4  12   1    0.44    0.27
  -4  12   0    0.64    0.32
   4  12   0    0.25    0.15
  -4  12  -1    3.29    0.65
   4  12   1    2.50    0.48
  -4  12  -2   -0.19    0.24
   4  12   2    0.24    0.21
   5   0 -24    0.40    0.28
   5   0 -23    0.18    0.27
   5   0 -22    0.04    0.20
  -5   0  22   -0.13    0.18
   5   0 -21   -0.08    0.22
  -5   0  21    0.24    0.21
   5   0 -20    0.12    0.20
  -5   0  20    0.16    0.21
   5   0 -19    0.36    0.18
  -5   0  19    0.25    0.22
   5   0 -18   -0.17    0.19
  -5   0  18    0.07    0.19
   5   0 -17   -0.30    0.22
  -5   0  17    0.09    0.17
   5   0 -16    0.12    0.21
  -5   0  16    0.54    0.30
  -5   0  15    4.64    0.65
   5   0 -15    5.62    0.71
   5   0 -14   -0.02    0.15
  -5   0  14   -0.16    0.20
  -5   0  14   -0.03    0.03
  -5   0  13   15.31    0.44
  -5   0  13   17.70    1.11
   5   0 -13   18.56    1.12
   5   0 -12   -0.06    0.15
  -5   0  12    0.06    0.17
  -5   0  12   -0.04    0.04
  -5   0  11   10.37    0.82
   5   0 -11    9.94    0.80
  -5   0  11    9.28    0.41
   5   0 -10   -0.05    0.14
  -5   0  10   -0.09    0.15
   5   0  -9    0.22    0.19
  -5   0   9    0.16    0.16
   5   0  -8   -0.05    0.14
  -5   0   8   -0.34    0.18
   5   0  -7    2.41    0.40
  -5   0   7    2.17    0.37
  -5   0   6   -0.17    0.17
   5   0  -6    0.00    0.16
  -5   0   5   12.80    0.81
   5   0  -5   10.29    0.72
  -5   0   4   -0.05    0.13
   5   0  -4   -0.02    0.15
  -5   0   3   19.76    0.98
   5   0  -3   20.50    0.98
  -5   0   2    0.25    0.19
   5   0  -2    0.12    0.14
  -5   0   1   21.66    1.04
   5   0  -1   24.95    1.08
  -5   0   0   -0.18    0.17
   5   0   0   -0.27    0.22
   5   0   0    0.02    0.03
  -5   0  -1    3.79    0.44
   5   0   1    3.90    0.43
   5   0   1    4.04    0.23
  -5   0  -2    0.09    0.15
   5   0   2   -0.06    0.13
   5   0   3   11.59    0.77
  -5   0  -3   11.21    0.77
  -5   0  -4    0.00    0.13
   5   0   4    0.09    0.17
  -5   0  -4    0.16    0.12
   5   0   5    2.46    0.39
  -5   0  -5    2.36    0.36
  -5   0  -6   -0.10    0.12
   5   0   6   -0.06    0.15
  -5   0  -7   63.46    1.80
  -5   0  -8    0.40    0.20
  -5   0  -9    5.27    0.57
  -5   0 -10    0.31    0.21
   5   0  11    0.17    0.07
  -5   0 -11    0.24    0.16
   5   0  12    0.04    0.04
  -5   0 -12   -0.01    0.15
  -5   0 -13    8.56    0.77
  -5   0 -14    0.04    0.17
  -5   0 -15    0.06    0.18
  -5   0 -16    0.29    0.21
  -5   0 -17    5.57    0.70
  -5   0 -18    0.21    0.20
  -5   0 -19   -0.13    0.19
  -5   0 -20    0.12    0.22
  -5   0 -21    0.26    0.27
  -5   0 -22    0.11    0.20
   5  -1 -24    0.16    0.28
   5  -1 -24    0.08    0.18
   5   1 -24    0.37    0.31
   5  -1 -23    0.36    0.26
   5  -1 -23    0.01    0.16
   5   1 -23    0.16    0.26
   5  -1 -22    0.33    0.26
   5  -1 -22    0.16    0.20
   5   1 -22    0.18    0.25
  -5  -1  22   -0.08    0.22
   5  -1 -21    2.42    0.53
   5   1 -21    2.20    0.58
  -5  -1  21    2.77    0.58
  -5   1  21    2.12    0.47
   5  -1 -20    0.03    0.16
  -5  -1  20    0.00    0.21
  -5   1  20    0.36    0.27
   5   1 -20    0.11    0.27
   5  -1 -19    0.00    0.15
   5   1 -19    0.13    0.16
  -5  -1  19   -0.05    0.16
  -5   1  19    0.20    0.19
   5  -1 -18    0.25    0.18
   5   1 -18    0.10    0.23
  -5  -1  18   -0.40    0.28
  -5   1  18    0.07    0.19
   5   1 -17    6.23    0.77
  -5   1  17    5.74    0.70
  -5  -1  17    6.56    0.78
   5  -1 -17    4.61    0.63
  -5   1  16    6.98    0.40
  -5   1  16    7.47    0.78
  -5  -1  16    8.82    0.91
   5  -1 -16    8.23    0.81
   5   1 -16    7.40    0.86
  -5   1  15   12.91    0.56
  -5   1  15   14.26    1.05
  -5  -1  15   14.73    1.14
   5  -1 -15   15.76    1.06
   5   1 -15   13.03    1.10
   5   1 -14    0.77    0.28
   5  -1 -14    0.95    0.30
  -5   1  14    0.81    0.16
  -5   1  14    1.13    0.29
  -5  -1  14    0.86    0.23
   5  -1 -13    2.70    0.44
   5   1 -13    2.43    0.48
  -5   1  13    2.07    0.25
  -5   1  13    2.90    0.46
  -5  -1  13    2.35    0.45
  -5   1  12   12.47    0.89
  -5  -1  12   13.12    0.98
   5  -1 -12   12.05    0.86
   5   1 -12   12.33    0.95
  -5   1  12   11.84    0.59
   5  -1 -11    0.30    0.20
   5   1 -11    0.43    0.25
  -5   1  11    0.13    0.14
  -5  -1  11    0.12    0.15
   5  -1 -10    0.05    0.12
  -5   1  10    0.40    0.21
  -5  -1  10    0.13    0.15
   5   1 -10    0.06    0.13
   5  -1  -9    0.08    0.11
  -5   1   9   -0.10    0.14
  -5  -1   9    0.01    0.14
   5   1  -9   -0.10    0.16
  -5   1   8    3.62    0.45
  -5  -1   8    3.39    0.47
   5  -1  -8    4.14    0.48
   5   1  -8    3.51    0.50
  -5  -1   8    3.07    0.23
   5   1  -7    2.49    0.40
  -5  -1   7    1.84    0.16
  -5   1   7    2.46    0.39
  -5  -1   7    2.80    0.43
   5  -1  -7    1.89    0.33
   5   1  -6    0.21    0.19
  -5   1   6   -0.03    0.16
  -5  -1   6   -0.02    0.13
  -5   1   6    0.29    0.08
  -5  -1   6    0.22    0.05
   5  -1  -6    0.12    0.12
  -5   1   5    9.44    0.69
  -5  -1   5    9.90    0.74
   5  -1  -5    8.99    0.67
   5   1  -5    9.41    0.71
  -5   1   5    7.35    0.33
  -5  -1   4   16.55    0.93
  -5   1   4   17.58    0.92
   5  -1  -4   17.74    0.90
   5   1  -4   16.39    0.92
  -5   1   4   14.17    0.40
  -5   1   3   -0.03    0.12
  -5  -1   3    0.14    0.14
   5   1  -3    0.27    0.19
   5  -1  -3    0.12    0.17
  -5   1   3    0.00    0.02
  -5   1   2   27.40    1.14
   5  -1  -2   27.84    1.12
   5   1  -2   27.71    1.16
  -5  -1   2   27.07    1.19
  -5   1   1   23.46    1.07
  -5  -1   1   24.86    1.12
   5  -1  -1   25.21    1.08
   5   1  -1   26.10    1.13
   5  -1  -1   20.78    0.54
  -5   1   0    4.65    0.49
  -5  -1   0    4.89    0.52
   5  -1   0    4.51    0.47
   5   1   0    5.31    0.52
   5  -1   0    3.77    0.26
  -5  -1  -1    3.89    0.46
  -5   1  -1    3.96    0.46
   5  -1   1    4.54    0.48
   5   1   1    4.05    0.47
   5  -1   1    4.01    0.29
  -5   1  -2   19.26    1.00
  -5  -1  -2   18.29    1.00
   5  -1   2   16.92    0.61
   5  -1   2   18.07    0.97
   5   1   2   18.90    0.97
  -5  -1  -3    7.32    0.63
   5  -1   3    6.35    0.60
   5   1   3    7.61    0.64
   5  -1   3    6.72    0.41
  -5  -1  -4   15.86    0.93
  -5  -1  -4   16.33    0.82
  -5   1  -4   16.93    0.94
   5  -1   4   16.88    0.96
   5   1   4   15.50    0.93
   5  -1   4   16.23    0.65
  -5  -1  -5   12.89    0.85
  -5  -1  -5   12.37    0.74
  -5   1  -5   12.56    0.83
   5  -1   5   12.29    0.86
   5   1   5   12.86    0.86
  -5  -1  -6    0.04    0.15
  -5  -1  -6    0.17    0.12
  -5   1  -6    0.26    0.17
   5   1   6   -0.05    0.13
  -5  -1  -7    1.19    0.25
  -5   1  -7    1.51    0.32
   5   1   7    1.36    0.32
  -5  -1  -8    2.13    0.35
  -5   1  -8    3.06    0.45
  -5  -1  -9    1.52    0.28
  -5   1  -9    2.22    0.41
  -5  -1 -10    2.69    0.40
  -5   1 -10    2.02    0.40
  -5  -1 -11    4.11    0.48
  -5   1 -11    5.23    0.61
   5   1  12    1.02    0.17
  -5  -1 -12    1.48    0.32
  -5   1 -12    1.22    0.33
  -5  -1 -13    0.02    0.16
  -5   1 -13    0.40    0.21
  -5  -1 -14    1.33    0.31
  -5   1 -14    2.03    0.43
  -5  -1 -15    3.07    0.49
  -5   1 -15    2.69    0.52
  -5   1 -16    0.43    0.25
  -5  -1 -16    0.24    0.18
  -5   1 -17    1.39    0.38
  -5  -1 -17    0.65    0.27
  -5   1 -18    0.87    0.35
  -5  -1 -18    1.18    0.39
  -5  -1 -19   -0.14    0.14
  -5   1 -19    0.17    0.21
  -5  -1 -20    3.50    0.60
  -5   1 -20    2.76    0.57
  -5   1 -21    1.58    0.45
  -5  -1 -21    1.14    0.35
  -5  -1 -22    0.50    0.32
  -5   1 -22    0.64    0.31
   5  -2 -24    0.17    0.26
   5   2 -24    0.42    0.24
   5  -2 -23    0.37    0.38
   5   2 -23    1.10    0.46
   5  -2 -22    0.50    0.37
   5  -2 -22    1.02    0.36
   5   2 -22    1.25    0.48
  -5  -2  22    0.46    0.30
   5  -2 -21    0.94    0.38
   5  -2 -21    0.11    0.21
   5   2 -21    0.27    0.30
  -5  -2  21    0.56    0.30
  -5   2  21    0.67    0.30
   5  -2 -20    0.46    0.29
   5  -2 -20    0.08    0.16
   5   2 -20   -0.12    0.20
  -5  -2  20    0.23    0.24
  -5   2  20   -0.03    0.14
   5  -2 -19    0.13    0.13
   5  -2 -19    0.60    0.30
   5   2 -19    0.00    0.17
  -5  -2  19   -0.12    0.18
  -5   2  19    0.55    0.26
   5  -2 -18    0.50    0.34
   5  -2 -18   -0.23    0.17
   5   2 -18    0.06    0.20
  -5  -2  18    0.17    0.22
  -5   2  18    0.19    0.21
   5  -2 -17    2.74    0.52
  -5   2  17    2.45    0.30
   5   2 -17    2.48    0.54
  -5   2  17    1.89    0.40
  -5  -2  17    2.86    0.57
   5  -2 -17    2.76    0.45
   5  -2 -16    0.13    0.16
   5   2 -16    0.07    0.19
  -5   2  16    0.07    0.09
  -5   2  16   -0.32    0.20
  -5  -2  16    0.12    0.21
  -5   2  15    1.07    0.22
   5   2 -15    1.64    0.41
   5  -2 -15    0.83    0.28
  -5   2  15    0.94    0.27
  -5  -2  15    0.86    0.35
   5  -2 -14   -0.21    0.16
   5   2 -14   -0.31    0.22
  -5   2  14   -0.46    0.26
  -5  -2  14   -0.78    0.30
  -5   2  14    0.04    0.11
   5  -2 -13    2.18    0.38
  -5   2  13    1.64    0.33
  -5  -2  13    2.06    0.43
  -5   2  13    1.84    0.28
   5   2 -13    2.09    0.46
  -5  -2  13    1.62    0.28
   5  -2 -12   -0.03    0.13
   5   2 -12    0.34    0.25
  -5   2  12    0.26    0.18
  -5   2  12   -0.12    0.13
  -5  -2  12    0.39    0.23
  -5  -2  12    0.25    0.14
   5  -2 -11    1.87    0.34
   5   2 -11    1.35    0.34
  -5   2  11    1.36    0.30
  -5  -2  11    1.22    0.33
  -5  -2  11    1.11    0.20
   5   2 -10    0.28    0.21
  -5   2  10    0.13    0.12
  -5  -2  10    0.04    0.16
   5  -2 -10    0.12    0.16
  -5  -2  10    0.03    0.10
   5   2  -9    0.18    0.16
  -5   2   9    0.26    0.19
  -5  -2   9    0.14    0.16
  -5  -2   9    0.24    0.10
   5  -2  -9    0.19    0.15
  -5   2   8    7.05    0.60
  -5  -2   8    7.70    0.72
   5  -2  -8    7.84    0.62
   5   2  -8    7.28    0.72
  -5  -2   8    6.39    0.39
  -5  -2   7    8.47    0.31
  -5   2   7    8.43    0.65
  -5  -2   7    9.60    0.79
   5  -2  -7    9.65    0.67
  -5  -2   7    9.62    0.45
   5   2  -7    8.28    0.72
  -5   2   7    8.84    0.52
  -5   2   6   11.07    0.74
  -5  -2   6   11.09    0.39
  -5  -2   6   11.73    0.85
  -5   2   6   10.74    0.55
   5  -2  -6   12.08    0.75
   5   2  -6   10.57    0.81
  -5  -2   6   10.45    0.42
  -5   2   5    6.81    0.59
  -5  -2   5    7.04    0.66
  -5  -2   5    6.56    0.33
   5  -2  -5    7.31    0.58
   5   2  -5    6.43    0.61
  -5   2   5    6.26    0.40
  -5   2   4    5.17    0.51
  -5  -2   4    5.19    0.54
  -5  -2   4    5.08    0.31
   5  -2  -4    4.68    0.46
   5   2  -4    4.90    0.53
  -5   2   4    4.30    0.31
  -5   2   3    1.93    0.32
  -5  -2   3    2.39    0.23
  -5  -2   3    1.70    0.31
   5  -2  -3    2.23    0.33
  -5   2   3    2.08    0.21
   5   2  -3    1.92    0.34
  -5   2   2   14.73    0.85
  -5  -2   2   15.02    0.91
  -5  -2   2   15.98    0.60
   5  -2  -2   14.06    0.81
   5   2  -2   15.81    0.91
  -5   2   2   15.18    0.54
  -5  -2   1    2.12    0.36
  -5  -2   1    2.58    0.26
   5   2  -1    1.86    0.30
  -5   2   1    2.05    0.33
   5  -2  -1    2.04    0.32
   5  -2  -1    2.52    0.26
   5   2  -1    2.08    0.17
  -5   2   1    2.48    0.21
  -5   2   0    0.04    0.12
  -5  -2   0    0.34    0.21
  -5  -2   0    0.36    0.14
   5   2   0    0.08    0.05
   5  -2   0    0.04    0.13
   5  -2   0    0.02    0.10
   5   2   0    0.44    0.21
  -5   2  -1   45.52    1.53
  -5  -2  -1   47.12    1.58
   5  -2   1   48.76    1.56
   5   2   1   46.54    1.54
   5  -2   1   48.24    1.19
  -5  -2  -2   17.26    0.97
   5  -2   2   17.45    0.74
   5  -2   2   17.71    0.97
   5   2   2   18.43    0.98
  -5  -2  -3    0.37    0.21
   5  -2   3    0.66    0.23
   5   2   3    0.12    0.18
   5  -2   3    0.29    0.12
  -5  -2  -4    0.24    0.16
   5   2   4    0.06    0.16
  -5  -2  -4    0.05    0.10
  -5   2  -4    0.32    0.19
   5  -2   4    0.03    0.11
  -5  -2  -5    5.63    0.46
  -5  -2  -5    5.75    0.58
  -5   2  -5    5.91    0.59
   5   2   5    6.32    0.62
   5  -2   5    5.40    0.46
   5  -2   6    8.18    0.34
  -5   2  -6   11.09    0.84
  -5  -2  -6    9.46    0.75
   5   2   6    9.48    0.75
   5  -2   6    9.68    0.61
  -5  -2  -6    9.85    0.61
   5  -2   7    0.02    0.03
  -5  -2  -7    0.18    0.13
  -5  -2  -7    0.00    0.18
  -5   2  -7    0.03    0.16
   5   2   7   -0.08    0.14
   5  -2   7    0.05    0.11
  -5  -2  -8    1.32    0.29
  -5  -2  -8    1.51    0.27
  -5   2  -8    1.56    0.34
   5   2   8    0.98    0.28
   5  -2   8    1.44    0.28
  -5   2  -9    2.52    0.44
  -5  -2  -9    2.75    0.36
   5  -2   9    3.21    0.40
  -5  -2 -10   -0.09    0.11
  -5   2 -10   -0.14    0.25
  -5  -2 -11    0.11    0.15
  -5   2 -11   -0.01    0.17
  -5  -2 -12    2.09    0.36
  -5   2 -12    2.13    0.44
  -5  -2 -13    0.95    0.27
  -5   2 -13    0.61    0.31
  -5   2 -14    0.52    0.28
  -5  -2 -14    0.66    0.24
  -5   2 -15    0.04    0.27
  -5  -2 -15    0.07    0.16
  -5  -2 -16    5.13    0.59
  -5   2 -16    4.66    0.68
  -5   2 -17    0.84    0.36
  -5  -2 -17    0.85    0.30
  -5   2 -18    1.67    0.47
  -5  -2 -18    0.70    0.30
  -5   2 -19    1.73    0.48
  -5  -2 -19    1.71    0.40
  -5  -2 -20    1.68    0.40
  -5   2 -20    2.26    0.55
  -5  -2 -21    0.82    0.31
  -5   2 -21    0.96    0.43
  -5   2 -22   -0.17    0.18
   5  -3 -23    0.14    0.23
   5   3 -23    0.20    0.31
  -5  -3  23    0.34    0.21
   5  -3 -22   -0.05    0.19
   5   3 -22    0.15    0.26
  -5  -3  22   -0.02    0.19
  -5  -3  22    0.74    0.28
   5  -3 -21    0.39    0.27
   5   3 -21    0.06    0.22
  -5  -3  21    0.03    0.24
  -5  -3  21    0.11    0.16
   5  -3 -20    1.25    0.41
   5  -3 -20    1.80    0.39
   5   3 -20    1.44    0.51
  -5  -3  20    1.48    0.46
  -5   3  20    1.54    0.38
  -5  -3  20    0.84    0.30
   5  -3 -19    0.09    0.22
   5   3 -19    0.62    0.34
   5  -3 -19    0.51    0.23
  -5  -3  19   -0.19    0.18
  -5   3  19    0.37    0.21
  -5  -3  19    0.32    0.20
   5  -3 -18    0.29    0.19
   5  -3 -18    0.19    0.23
   5   3 -18    0.52    0.38
  -5  -3  18    0.45    0.28
  -5   3  18    0.25    0.23
  -5   3  18    0.16    0.10
  -5  -3  18    0.70    0.25
   5  -3 -17    0.63    0.24
   5  -3 -17    0.90    0.31
   5   3 -17    1.12    0.39
  -5   3  17    1.14    0.24
  -5   3  17    1.52    0.34
  -5  -3  17    1.43    0.42
  -5  -3  17    0.94    0.26
   5  -3 -16    1.21    0.38
  -5   3  16    0.93    0.24
   5   3 -16    0.93    0.36
   5  -3 -16    0.88    0.26
  -5   3  16    0.74    0.23
  -5  -3  16    0.99    0.36
  -5  -3  16    0.82    0.30
   5  -3 -15    1.20    0.29
   5  -3 -15    0.96    0.34
   5   3 -15    1.20    0.40
  -5   3  15    1.37    0.34
  -5  -3  15    1.34    0.40
  -5  -3  15    1.31    0.29
  -5   3  15    1.12    0.25
   5  -3 -14    0.17    0.14
   5  -3 -14    0.63    0.28
   5   3 -14    0.02    0.20
  -5   3  14    0.09    0.15
  -5  -3  14    0.49    0.29
  -5   3  14    0.16    0.12
  -5  -3  14    0.31    0.15
   5  -3 -13    0.47    0.16
   5  -3 -13    0.76    0.30
  -5   3  13   -0.10    0.13
  -5  -3  13    0.34    0.24
  -5   3  13    0.02    0.10
   5   3 -13    0.17    0.23
  -5  -3  13    0.02    0.12
   5  -3 -12    2.05    0.44
   5   3 -12    2.38    0.48
  -5   3  12    2.03    0.33
  -5   3  12    1.70    0.31
  -5  -3  12    1.36    0.26
  -5  -3  12    1.74    0.40
   5  -3 -12    1.84    0.32
  -5  -3  11    0.42    0.15
   5  -3 -11    0.78    0.31
   5   3 -11    1.03    0.35
  -5   3  11    0.52    0.20
  -5  -3  11    0.71    0.31
   5  -3 -11    1.03    0.26
   5  -3 -10    0.56    0.24
   5   3 -10   -0.14    0.23
   5  -3 -10   -0.05    0.11
  -5   3  10    0.19    0.14
  -5  -3  10    0.35    0.21
  -5  -3  10   -0.03    0.14
   5  -3  -9    0.06    0.16
   5   3  -9    0.14    0.16
  -5   3   9   -0.03    0.11
  -5  -3   9    0.27    0.19
   5  -3  -9    0.40    0.18
  -5  -3   9    0.06    0.09
   5   3  -8    0.95    0.31
  -5  -3   8    0.82    0.17
  -5   3   8    0.86    0.23
  -5  -3   8    1.21    0.30
  -5   3   8    0.90    0.21
   5  -3  -8    0.98    0.23
   5  -3  -8    1.08    0.30
   5  -3  -7    4.27    0.50
   5   3  -7    2.62    0.46
  -5   3   7    2.96    0.38
  -5  -3   7    3.96    0.35
  -5  -3   7    3.86    0.53
   5  -3  -7    3.61    0.40
  -5   3   7    3.47    0.38
   5   3  -6    1.07    0.29
  -5  -3   6    1.37    0.20
  -5   3   6    1.15    0.26
  -5  -3   6    1.12    0.32
   5  -3  -6    1.45    0.33
   5  -3  -6    1.41    0.28
  -5   3   6    0.84    0.19
  -5  -3   6    1.03    0.15
  -5  -3   5    4.10    0.31
   5  -3  -5    4.71    0.49
  -5   3   5    4.30    0.47
  -5  -3   5    3.84    0.50
   5  -3  -5    4.57    0.46
   5   3  -5    4.30    0.52
  -5   3   5    3.83    0.38
   5   3  -4    0.40    0.25
   5  -3  -4    0.47    0.22
  -5  -3   4    0.40    0.13
  -5   3   4    0.20    0.16
  -5  -3   4    0.37    0.20
  -5  -3   4    0.18    0.14
  -5   3   4   -0.03    0.08
   5  -3  -4    0.39    0.17
   5   3  -3    2.54    0.39
   5  -3  -3    3.45    0.41
  -5  -3   3    2.76    0.28
  -5  -3   3    2.53    0.31
  -5  -3   3    2.93    0.42
   5  -3  -3    2.69    0.37
  -5   3   3    3.18    0.33
   5   3  -3    2.25    0.20
  -5   3   3    3.10    0.40
   5  -3  -2    3.92    0.44
  -5   3   2    3.38    0.41
  -5  -3   2    3.24    0.30
  -5  -3   2    3.30    0.35
  -5  -3   2    3.15    0.42
   5  -3  -2    3.06    0.39
   5   3  -2    2.71    0.24
  -5   3   2    2.89    0.30
   5   3  -2    2.83    0.41
   5  -3  -1   21.42    0.92
  -5   3   1   20.54    1.00
  -5  -3   1   20.37    0.79
  -5  -3   1   19.24    1.03
   5  -3  -1   20.26    1.00
   5   3  -1   20.03    1.04
   5  -3  -1   20.34    0.85
   5   3  -1   19.00    0.67
  -5   3   1   20.92    0.78
   5  -3   0   10.18    0.62
  -5   3   0   11.09    0.75
  -5  -3   0   11.73    0.83
  -5  -3   0   10.49    0.59
   5   3   0    9.21    0.49
   5  -3   0   11.17    0.76
   5   3   0   11.33    0.78
   5  -3   0    9.89    0.62
  -5   3   0    9.93    0.53
   5  -3   1    2.75    0.35
  -5  -3  -1    3.71    0.50
   5  -3   1    4.14    0.51
   5   3   1    3.77    0.48
   5   3   1    2.62    0.30
   5  -3   1    2.40    0.35
   5  -3   2  117.10    1.91
  -5  -3  -2  124.26    2.64
   5  -3   2  121.38    2.24
   5   3   2  121.56    2.53
   5  -3   3   76.47    1.49
  -5  -3  -3   79.96    2.10
   5   3   3   76.25    2.05
   5  -3   3   80.94    1.84
   5  -3   4   13.22    0.58
  -5  -3  -4   12.80    0.61
   5  -3   4   13.55    0.78
  -5  -3  -4   12.93    0.86
  -5   3  -4   13.36    0.97
   5   3   4   12.95    0.86
  -5  -3  -5    2.59    0.41
  -5  -3  -5    2.17    0.25
  -5   3  -5    2.55    0.43
   5   3   5    2.53    0.41
   5  -3   5    2.96    0.38
  -5   3  -6   19.23    1.17
  -5  -3  -6   19.81    1.09
   5   3   6   20.22    1.09
   5  -3   6   20.09    0.98
  -5  -3  -6   19.71    0.77
  -5  -3  -7    1.24    0.29
  -5  -3  -7    1.32    0.23
  -5   3  -7    0.97    0.32
   5   3   7    0.86    0.24
   5  -3   7    1.15    0.24
  -5  -3  -8    4.67    0.54
   5   3   8    3.67    0.50
  -5  -3  -8    4.22    0.39
   5  -3   8    4.32    0.50
  -5   3  -8    4.26    0.57
  -5  -3  -9    4.63    0.55
   5   3   9    4.36    0.54
  -5  -3  -9    5.86    0.46
   5  -3   9    4.59    0.51
  -5   3  -9    4.57    0.62
  -5  -3 -10    1.49    0.25
  -5  -3 -10    1.29    0.32
  -5   3 -10    1.76    0.39
   5  -3  10    1.46    0.30
  -5  -3 -11    1.12    0.23
  -5  -3 -11    0.62    0.25
  -5   3 -11    1.34    0.39
   5  -3  11    0.79    0.22
  -5   3 -12    0.00    0.19
  -5  -3 -12    0.11    0.11
   5  -3  12    0.13    0.17
  -5   3 -13    2.53    0.51
  -5  -3 -13    2.58    0.37
   5  -3  13    2.01    0.41
   5  -3  14    2.58    0.45
  -5   3 -14    2.55    0.53
  -5  -3 -14    2.95    0.41
   5  -3  15    0.87    0.31
  -5   3 -15    0.23    0.25
  -5  -3 -15    0.55    0.22
  -5  -3 -16    8.40    0.71
  -5   3 -16    8.22    0.92
   5  -3  16    8.28    0.83
  -5  -3 -17    8.22    0.74
  -5   3 -17    8.68    0.96
   5  -3  17    8.79    0.85
  -5   3 -18   13.75    1.23
   5  -3  18   11.77    1.01
  -5   3 -19    0.53    0.33
  -5   3 -20    0.27    0.20
  -5   3 -21   -0.05    0.28
   5  -3  22    0.21    0.21
  -5   3 -22    0.15    0.35
   5   4 -22    0.03    0.20
   5  -4 -22    0.17    0.25
  -5  -4  22   -0.08    0.19
   5  -4 -21    0.35    0.29
   5   4 -21    0.33    0.29
  -5  -4  21    0.52    0.33
  -5  -4  21    0.08    0.20
   5  -4 -20    0.60    0.34
   5   4 -20    0.07    0.27
  -5  -4  20    0.01    0.24
  -5  -4  20    0.27    0.20
   5  -4 -19    1.30    0.46
   5   4 -19    1.20    0.50
  -5  -4  19    1.58    0.48
  -5  -4  19    0.94    0.31
   5   4 -18    0.12    0.23
  -5   4  18    0.24    0.15
   5  -4 -18    0.51    0.30
  -5  -4  18   -0.03    0.22
  -5  -4  18    0.00    0.14
   5  -4 -17   -0.10    0.11
   5  -4 -17    0.25    0.28
  -5   4  17   -0.21    0.16
   5   4 -17    0.51    0.35
  -5  -4  17    0.49    0.29
  -5   4  17   -0.13    0.15
  -5  -4  17    0.03    0.13
   5   4 -16    2.00    0.48
  -5   4  16    1.85    0.36
  -5  -4  16    2.47    0.55
   5  -4 -16    2.08    0.47
  -5   4  16    2.24    0.38
  -5  -4  16    1.22    0.30
   5  -4 -16    1.92    0.35
   5  -4 -15    0.34    0.17
   5   4 -15    0.15    0.24
  -5   4  15    0.37    0.19
  -5  -4  15    0.59    0.29
  -5   4  15    0.43    0.22
  -5  -4  15    0.41    0.16
   5  -4 -15    0.50    0.20
   5  -4 -14    0.05    0.17
   5   4 -14   -0.22    0.21
  -5   4  14    0.05    0.12
  -5  -4  14    0.03    0.19
  -5   4  14   -0.03    0.15
  -5  -4  14   -0.03    0.12
   5  -4 -14    0.30    0.15
   5  -4 -13   -0.30    0.22
   5   4 -13    0.10    0.22
   5  -4 -13    0.21    0.15
  -5   4  13    0.06    0.10
  -5   4  13    0.08    0.15
  -5  -4  13    0.07    0.19
  -5  -4  13   -0.08    0.15
   5  -4 -12    0.46    0.27
   5   4 -12    1.06    0.32
  -5   4  12    0.26    0.13
  -5  -4  12    0.74    0.31
   5  -4 -12    0.56    0.20
  -5  -4  12    0.64    0.20
   5  -4 -11    3.14    0.54
   5   4 -11    3.61    0.60
  -5  -4  11    2.55    0.39
  -5   4  11    3.29    0.41
  -5  -4  11    3.62    0.59
   5  -4 -11    3.38    0.40
   5   4 -10    0.01    0.17
  -5   4  10   -0.14    0.12
  -5  -4  10   -0.01    0.20
   5  -4 -10    0.21    0.23
   5  -4 -10    0.16    0.12
  -5  -4  10    0.22    0.16
   5  -4  -9    3.35    0.50
   5   4  -9    3.06    0.52
  -5   4   9    3.64    0.43
  -5  -4   9    3.37    0.53
   5  -4  -9    3.24    0.38
  -5  -4   9    3.56    0.42
   5  -4  -8    0.43    0.28
   5   4  -8    0.24    0.27
  -5   4   8    0.26    0.17
  -5  -4   8   -0.24    0.17
   5  -4  -8    0.25    0.17
  -5  -4   8    0.09    0.10
   5  -4  -7   17.79    1.08
  -5   4   7   19.52    0.94
  -5  -4   7   21.00    1.23
   5  -4  -7   18.62    0.90
  -5  -4   7   18.22    0.86
   5   4  -7   19.16    1.16
   5  -4  -6    4.68    0.56
  -5  -4   6    4.00    0.39
  -5   4   6    4.49    0.46
  -5  -4   6    4.60    0.57
   5  -4  -6    4.05    0.43
   5   4  -6    4.92    0.60
  -5   4   6    4.50    0.47
   5   4  -5    0.73    0.24
   5  -4  -5    0.92    0.28
  -5   4   5    0.54    0.19
  -5  -4   5    0.64    0.25
  -5  -4   5    0.64    0.13
   5  -4  -5    0.80    0.21
  -5   4   5    0.79    0.20
   5   4  -5    1.07    0.20
   5   4  -4    0.70    0.24
   5  -4  -4    0.34    0.16
  -5   4   4    0.47    0.16
  -5  -4   4    0.66    0.25
  -5  -4   4    0.49    0.13
  -5  -4   4    0.59    0.16
   5  -4  -4    0.72    0.23
  -5   4   4    0.49    0.18
   5   4  -4    0.43    0.12
   5   4  -3    1.99    0.35
   5  -4  -3    2.23    0.36
  -5   4   3    1.48    0.28
  -5  -4   3    1.63    0.34
  -5  -4   3    1.74    0.25
   5  -4  -3    1.79    0.30
  -5   4   3    1.69    0.29
   5   4  -3    1.59    0.23
  -5  -4   3    2.07    0.27
   5  -4  -2    0.78    0.22
  -5   4   2    1.00    0.27
  -5  -4   2    1.04    0.27
  -5  -4   2    1.18    0.20
   5  -4  -2    0.91    0.25
   5   4  -2    0.85    0.18
  -5   4   2    0.93    0.22
  -5  -4   2    1.11    0.22
   5   4  -2    0.67    0.25
   5  -4  -1    1.00    0.25
  -5  -4   1    1.44    0.25
  -5   4   1    1.07    0.26
  -5  -4   1    1.20    0.27
  -5  -4   1    1.24    0.18
   5  -4  -1    1.32    0.27
   5  -4  -1    0.97    0.26
   5   4  -1    1.06    0.21
  -5   4   1    0.69    0.17
   5   4  -1    1.17    0.28
   5  -4   0    0.15    0.12
  -5  -4   0    0.22    0.13
  -5  -4   0    0.04    0.07
   5  -4   0    0.07    0.14
   5   4   0    0.20    0.11
   5   4   0    0.04    0.15
  -5   4   0    0.32    0.14
   5  -4   1    2.64    0.34
  -5  -4  -1    2.56    0.40
  -5  -4  -1    2.76    0.25
   5  -4   1    2.20    0.35
   5   4   1    2.21    0.29
   5   4   1    2.15    0.35
   5  -4   2    5.45    0.46
  -5  -4  -2    6.32    0.60
   5   4   2    5.55    0.58
   5   4   2    5.44    0.47
   5  -4   2    5.66    0.54
  -5  -4  -3    3.29    0.45
   5   4   3    3.59    0.46
   5  -4   3    4.00    0.48
  -5   4  -3    2.44    0.43
  -5  -4  -4    0.54    0.24
  -5  -4  -4    0.44    0.10
  -5   4  -4    0.52    0.23
   5   4   4    0.54    0.22
   5  -4   4    0.60    0.20
  -5  -4  -5    0.30    0.18
  -5  -4  -5    0.01    0.06
  -5   4  -5   -0.10    0.17
   5   4   5    0.12    0.16
   5  -4   5    0.08    0.20
  -5  -4  -6    2.96    0.46
   5   4   6    3.63    0.49
  -5   4  -6    3.10    0.52
  -5  -4  -6    3.53    0.27
   5  -4   6    2.92    0.42
  -5  -4  -7    9.90    0.78
  -5   4  -7    8.54    0.82
   5  -4   7    8.81    0.73
  -5  -4  -7    8.57    0.43
   5   4   7    9.06    0.76
  -5  -4  -8    7.59    0.70
  -5  -4  -8    7.66    0.43
   5   4   8    6.89    0.66
   5  -4   8    7.53    0.72
  -5   4  -8    7.23    0.79
  -5  -4  -9   20.61    1.15
  -5  -4  -9   20.58    0.74
   5   4   9   21.11    1.18
   5  -4   9   19.45    1.15
  -5   4  -9   20.34    1.33
  -5  -4 -10    2.62    0.46
   5  -4  10    2.68    0.48
  -5  -4 -10    2.75    0.29
  -5   4 -10    2.44    0.47
  -5  -4 -11   14.23    0.99
  -5  -4 -11   14.09    0.68
   5  -4  11   13.10    0.99
  -5   4 -11   14.17    1.12
  -5  -4 -12    0.25    0.24
  -5   4 -12   -0.02    0.19
  -5  -4 -12    0.08    0.12
   5  -4  12    0.55    0.29
  -5  -4 -13   32.09    1.53
  -5  -4 -13   34.22    1.17
  -5   4 -13   30.55    1.74
   5  -4  13   30.14    1.52
  -5  -4 -14    0.70    0.28
  -5   4 -14    0.32    0.27
  -5  -4 -14    0.44    0.17
   5  -4  14    0.24    0.26
  -5   4 -15    0.16    0.25
   5  -4  15    0.17    0.24
  -5   4 -16    0.86    0.40
   5  -4  16    0.83    0.32
  -5   4 -17    1.68    0.47
   5  -4  17    2.04    0.46
   5  -4  18    0.19    0.27
  -5   4 -18    0.02    0.22
  -5   4 -19    0.52    0.26
   5  -4  19    0.21    0.24
  -5   4 -20    0.34    0.30
   5  -4  20    0.33    0.27
  -5   4 -21   -0.14    0.24
   5  -4  21    0.26    0.25
   5   5 -22   -0.32    0.28
  -5  -5  22    0.08    0.19
   5  -5 -21    0.20    0.22
   5   5 -21   -0.37    0.28
  -5  -5  21   -0.49    0.30
  -5  -5  21    0.32    0.27
   5  -5 -20    0.60    0.39
   5   5 -20    0.25    0.24
  -5  -5  20    0.45    0.31
  -5  -5  20    0.34    0.24
   5  -5 -19   -0.03    0.24
   5   5 -19    0.01    0.33
  -5   5  19    0.08    0.11
  -5  -5  19    0.68    0.38
  -5  -5  19   -0.35    0.26
   5  -5 -18    0.36    0.31
  -5   5  18   -0.09    0.14
   5   5 -18    0.01    0.20
  -5  -5  18    0.09    0.21
  -5  -5  18    0.23    0.25
  -5   5  17    0.12    0.15
   5  -5 -17    0.15    0.25
   5   5 -17    0.39    0.29
  -5  -5  17    0.45    0.27
  -5  -5  17    0.00    0.15
   5  -5 -16    0.62    0.35
   5   5 -16    0.61    0.38
  -5  -5  16    0.08    0.25
  -5   5  16   -0.04    0.18
  -5  -5  16   -0.23    0.20
   5   5 -15    1.83    0.51
  -5  -5  15    1.21    0.33
   5  -5 -15    1.57    0.50
  -5  -5  15    1.85    0.46
  -5   5  15    1.41    0.36
   5  -5 -14    0.77    0.34
   5   5 -14    0.41    0.28
  -5   5  14    0.41    0.19
  -5  -5  14    0.61    0.28
  -5   5  14    0.42    0.22
  -5  -5  14    0.64    0.27
   5  -5 -14    0.80    0.21
   5  -5 -13    2.15    0.49
   5   5 -13    2.27    0.51
   5  -5 -13    1.65    0.27
  -5   5  13    1.76    0.37
  -5   5  13    1.74    0.31
  -5  -5  13    1.83    0.46
  -5  -5  13    1.79    0.36
   5  -5 -12    2.39    0.50
   5   5 -12    1.41    0.45
  -5   5  12    1.65    0.29
  -5  -5  12    2.28    0.50
   5  -5 -12    2.04    0.29
  -5  -5  12    1.98    0.37
   5  -5 -11   -0.35    0.21
   5   5 -11    0.44    0.29
  -5   5  11    0.24    0.15
  -5  -5  11   -0.02    0.21
   5  -5 -11    0.16    0.13
  -5  -5  11    0.29    0.21
   5  -5 -10   -0.01    0.17
   5   5 -10    0.22    0.22
  -5   5  10    0.03    0.09
  -5   5  10    0.05    0.10
   5  -5 -10    0.02    0.12
  -5  -5  10    0.20    0.15
   5  -5  -9    0.25    0.21
   5   5  -9    0.52    0.25
  -5   5   9    0.40    0.16
  -5   5   9    0.76    0.21
  -5  -5   9    0.55    0.24
   5  -5  -9    0.62    0.17
  -5  -5   9    0.47    0.18
   5  -5  -8    1.85    0.40
   5   5  -8    1.17    0.35
  -5   5   8    0.96    0.22
  -5   5   8    1.30    0.25
  -5  -5   8    1.03    0.34
   5  -5  -8    1.62    0.29
  -5  -5   8    2.12    0.35
   5  -5  -7    3.28    0.51
   5   5  -7    3.15    0.51
  -5   5   7    3.29    0.38
  -5  -5   7    2.87    0.51
   5  -5  -7    3.65    0.41
  -5  -5   7    2.98    0.40
  -5   5   7    2.59    0.35
   5  -5  -6    1.12    0.31
   5   5  -6    0.84    0.31
  -5   5   6    1.18    0.25
  -5  -5   6    1.08    0.32
   5  -5  -6    1.14    0.23
  -5  -5   6    0.89    0.22
   5   5  -6    0.63    0.18
   5   5  -5    3.52    0.51
  -5   5   5    3.06    0.38
  -5  -5   5    3.13    0.49
   5  -5  -5    2.98    0.38
   5  -5  -5    3.96    0.54
   5   5  -5    2.27    0.29
   5  -5  -4    5.85    0.63
  -5   5   4    5.86    0.54
  -5  -5   4    6.16    0.66
  -5  -5   4    5.79    0.46
   5  -5  -4    5.90    0.55
   5   5  -4    6.49    0.67
   5   5  -4    4.78    0.43
   5   5  -3    1.07    0.31
   5  -5  -3    0.97    0.26
  -5   5   3    1.43    0.28
  -5  -5   3    1.23    0.31
  -5  -5   3    1.23    0.24
  -5  -5   3    1.01    0.19
   5   5  -3    0.59    0.17
   5   5  -2    2.99    0.44
   5  -5  -2    3.06    0.44
  -5   5   2    3.32    0.41
  -5  -5   2    3.16    0.47
  -5  -5   2    3.18    0.30
   5   5  -2    2.80    0.36
  -5   5   1    3.88    0.47
  -5  -5   1    4.09    0.52
   5   5  -1    3.33    0.40
  -5  -5   1    3.77    0.31
   5   5  -1    4.50    0.54
   5  -5  -1    3.65    0.49
  -5  -5   0    3.77    0.49
  -5  -5   0    3.42    0.26
   5  -5   0    2.87    0.45
   5   5   0    3.05    0.38
   5   5   0    3.24    0.46
  -5  -5  -1    0.28    0.19
  -5  -5  -1    0.19    0.08
   5  -5   1    0.39    0.17
   5   5   1    0.27    0.14
  -5  -5  -2   -0.01    0.17
  -5  -5  -2    0.14    0.07
   5  -5   2   -0.11    0.17
   5   5   2    0.19    0.18
  -5  -5  -3   28.73    1.31
  -5   5  -3   27.69    1.47
   5  -5   3   29.62    1.38
  -5  -5  -3   27.59    0.52
   5   5   3   29.40    1.33
  -5  -5  -3   24.80    0.53
  -5  -5  -4    1.92    0.35
  -5   5  -4    1.74    0.41
   5   5   4    1.83    0.37
   5  -5   4    2.27    0.39
  -5   5  -5   13.96    1.07
  -5  -5  -5   14.44    0.94
   5   5   5   13.63    0.90
   5  -5   5   14.13    1.01
  -5  -5  -6    2.23    0.40
  -5   5  -6    2.16    0.45
   5   5   6    1.99    0.39
   5  -5   6    1.83    0.37
  -5  -5  -7    0.15    0.18
  -5   5  -7    0.19    0.22
   5   5   7    0.15    0.15
   5  -5   7    0.29    0.26
  -5  -5  -8   21.99    1.18
   5   5   8   22.47    1.20
   5  -5   8   20.82    1.25
  -5   5  -8   21.05    1.34
  -5  -5  -9    5.12    0.58
  -5   5  -9    4.64    0.65
   5   5   9    5.96    0.64
   5  -5   9    4.94    0.64
  -5  -5 -10   -0.25    0.25
  -5   5 -10   -0.23    0.25
   5   5  10   -0.19    0.23
   5  -5  10    0.02    0.18
  -5  -5 -11    4.38    0.55
  -5   5 -11    3.44    0.58
   5  -5  11    3.43    0.54
  -5  -5 -12    0.67    0.28
  -5   5 -12    0.59    0.34
   5  -5  12   -0.01    0.18
  -5  -5 -13    1.28    0.33
  -5   5 -13    0.97    0.37
   5  -5  13    0.48    0.27
  -5  -5 -14   -0.04    0.17
  -5   5 -14   -0.04    0.26
   5  -5  14   -0.31    0.29
  -5  -5 -15    1.52    0.38
  -5   5 -15    1.72    0.48
   5  -5  15    1.86    0.47
  -5  -5 -16    0.25    0.20
  -5   5 -16    0.32    0.30
   5  -5  16    0.33    0.29
  -5   5 -17    1.42    0.48
  -5  -5 -17    0.80    0.28
   5  -5  17    1.56    0.44
  -5   5 -18   -0.02    0.26
  -5  -5 -18    0.03    0.14
   5  -5  18   -0.10    0.21
  -5   5 -19   -0.13    0.19
   5  -5  19    0.44    0.30
  -5   5 -20   -0.19    0.24
   5  -5  20    0.14    0.24
   5   6 -21    0.90    0.43
   5  -6 -21    0.57    0.41
  -5  -6  21    0.27    0.24
   5  -6 -20    0.35    0.30
   5   6 -20    0.59    0.38
  -5   6  20   -0.27    0.18
  -5  -6  20    0.76    0.40
  -5  -6  20    0.00    0.19
   5  -6 -19    0.08    0.29
   5   6 -19    0.31    0.32
  -5   6  19   -0.10    0.15
  -5  -6  19    0.22    0.26
  -5  -6  19   -0.14    0.16
  -5   6  18    0.16    0.18
   5   6 -18    0.34    0.30
  -5  -6  18    0.26    0.26
   5  -6 -18   -0.07    0.30
  -5  -6  18    0.21    0.26
   5  -6 -17    0.75    0.37
   5   6 -17    1.11    0.44
  -5  -6  17    0.46    0.26
  -5  -6  17    1.13    0.38
  -5   6  17    0.96    0.32
   5  -6 -16    1.08    0.41
   5   6 -16    0.88    0.41
  -5  -6  16    1.05    0.44
  -5   6  16    1.06    0.32
  -5  -6  16    0.66    0.30
   5  -6 -15    0.90    0.40
   5   6 -15    0.75    0.37
  -5  -6  15    0.47    0.30
  -5   6  15    1.80    0.42
  -5  -6  15    1.03    0.33
   5  -6 -14    0.54    0.32
   5   6 -14    0.27    0.24
  -5  -6  14    0.11    0.25
  -5   6  14    0.04    0.18
  -5  -6  14    0.36    0.21
   5  -6 -13    0.06    0.23
   5   6 -13   -0.05    0.22
  -5   6  13   -0.20    0.26
  -5  -6  13    0.18    0.18
  -5  -6  13    0.19    0.17
   5  -6 -12    1.84    0.48
   5   6 -12    2.56    0.54
  -5  -6  12    1.12    0.35
  -5  -6  12    1.73    0.40
   5  -6 -11   -0.02    0.19
   5   6 -11    0.05    0.16
  -5  -6  11   -0.13    0.22
   5  -6 -11    0.27    0.11
  -5  -6  11    0.06    0.14
   5  -6 -10    0.06    0.23
   5   6 -10    0.12    0.16
  -5   6  10    0.54    0.17
  -5  -6  10    0.24    0.22
   5  -6 -10    0.55    0.17
  -5  -6  10    0.17    0.18
   5  -6  -9    1.33    0.38
   5   6  -9    1.55    0.42
  -5   6   9    1.61    0.26
  -5  -6   9    1.52    0.39
   5  -6  -9    1.75    0.27
  -5  -6   9    1.90    0.38
   5  -6  -8    0.57    0.27
   5   6  -8    0.62    0.27
  -5   6   8    0.50    0.16
  -5  -6   8    0.22    0.26
   5  -6  -8    0.93    0.20
  -5  -6   8    0.80    0.25
   5  -6  -7    3.06    0.51
   5   6  -7    2.43    0.47
  -5   6   7    2.62    0.34
   5   6  -7    2.82    0.26
  -5  -6   7    2.37    0.47
   5  -6  -7    3.17    0.37
  -5  -6   7    3.31    0.47
  -5   6   7    2.32    0.32
  -5   6   6    0.07    0.12
   5   6  -6   -0.03    0.18
   5   6  -6    0.25    0.13
  -5   6   6    0.01    0.11
  -5  -6   6    0.17    0.23
  -5  -6   6   -0.18    0.16
   5   6  -5    1.63    0.39
  -5   6   5    1.59    0.27
   5   6  -5    1.96    0.25
  -5  -6   5    1.32    0.32
   5   6  -4    0.60    0.27
  -5   6   4    0.44    0.16
  -5  -6   4    0.52    0.25
   5   6  -4    0.72    0.18
  -5  -6   4    0.43    0.15
  -5   6   3    4.06    0.46
   5   6  -3    4.27    0.38
  -5  -6   3    3.25    0.51
  -5  -6   3    3.60    0.35
   5   6  -3    3.76    0.53
  -5   6   2   14.25    0.85
  -5  -6   2   16.25    1.07
   5   6  -2   15.30    0.75
  -5  -6   2   14.72    0.64
   5   6  -2   14.77    1.00
   5   6  -1    3.85    0.41
  -5  -6   1    2.58    0.43
  -5  -6   1    3.23    0.28
   5   6  -1    2.82    0.46
   5   6   0    4.31    0.44
  -5  -6   0    3.04    0.49
  -5  -6   0    3.22    0.25
   5   6   0    4.11    0.53
   5  -6   0    3.24    0.51
  -5  -6  -1   16.62    1.06
   5   6   1   15.10    0.81
  -5  -6  -1   12.73    0.39
   5   6   1   15.95    0.99
   5  -6   1   14.84    1.05
   5   6   2    3.17    0.40
  -5  -6  -2    3.23    0.46
  -5   6  -2    2.28    0.46
   5  -6   2    2.78    0.46
   5   6   2    3.26    0.45
  -5   6  -3    4.68    0.63
  -5  -6  -3    4.22    0.52
   5   6   3    4.81    0.51
   5   6   3    4.54    0.54
   5  -6   3    4.83    0.61
   5   6   4    2.30    0.36
  -5  -6  -4    1.34    0.31
  -5   6  -4    1.28    0.35
   5   6   4    1.27    0.30
   5  -6   4    1.85    0.40
  -5  -6  -5    0.77    0.26
  -5   6  -5    0.50    0.21
   5   6   5    1.10    0.30
   5   6   5    1.63    0.34
   5  -6   5    1.04    0.34
  -5  -6  -6   28.78    1.34
   5   6   6   28.75    1.25
   5   6   6   30.40    1.37
   5  -6   6   29.07    1.56
  -5   6  -6   28.56    1.57
   5  -6   7   15.27    1.14
  -5  -6  -7   15.91    1.02
   5   6   7   15.26    0.99
  -5   6  -7   15.05    1.17
  -5  -6  -8    2.39    0.42
  -5   6  -8    1.40    0.39
   5   6   8    2.25    0.41
   5  -6   8    2.18    0.44
  -5  -6  -9    1.00    0.27
  -5   6  -9    1.12    0.37
   5   6   9    0.87    0.24
   5  -6   9    1.38    0.38
  -5  -6 -10    0.83    0.24
  -5   6 -10    0.49    0.31
   5   6  10    0.59    0.24
   5  -6  10    1.01    0.34
  -5  -6 -11    5.82    0.63
  -5   6 -11    6.35    0.83
   5  -6  11    4.38    0.66
  -5  -6 -12    3.46    0.51
  -5   6 -12    2.59    0.54
   5  -6  12    2.10    0.44
  -5  -6 -13    4.88    0.61
  -5   6 -13    5.30    0.80
   5  -6  13    4.39    0.68
  -5  -6 -14    1.57    0.36
  -5   6 -14    1.58    0.48
   5  -6  14    1.84    0.49
  -5  -6 -15    0.07    0.14
  -5   6 -15    0.10    0.24
   5  -6  15    0.06    0.20
  -5   6 -16    3.13    0.66
   5  -6  16    2.17    0.52
  -5   6 -17    4.68    0.80
   5  -6  17    3.41    0.66
  -5   6 -18    1.64    0.51
   5  -6  18    1.48    0.51
  -5   6 -19    2.03    0.56
   5  -6  19    1.03    0.43
  -5   7  19    0.20    0.17
   5   7 -19    0.31    0.32
   5   7 -19   -0.32    0.31
  -5  -7  19    0.53    0.33
  -5  -7  19   -0.02    0.21
  -5   7  18    1.04    0.36
   5   7 -18    1.97    0.61
   5   7 -18    0.63    0.32
  -5  -7  18    1.77    0.54
  -5  -7  18    1.28    0.39
   5   7 -17    1.24    0.51
   5   7 -17    1.73    0.50
  -5  -7  17    2.19    0.59
  -5  -7  17    1.91    0.46
  -5   7  17    1.37    0.38
   5   7 -16   -0.13    0.29
   5   7 -16   -0.23    0.27
  -5  -7  16    0.41    0.32
  -5   7  16    0.17    0.22
  -5  -7  16    0.25    0.23
   5   7 -15    0.14    0.20
   5   7 -15    0.42    0.29
  -5  -7  15    0.76    0.31
  -5   7  15    0.49    0.26
  -5  -7  15    0.16    0.20
   5   7 -14    0.28    0.22
   5   7 -14    0.22    0.18
  -5  -7  14    1.02    0.40
  -5   7  14    0.50    0.24
  -5  -7  14    0.40    0.25
   5   7 -13    0.37    0.22
   5   7 -13   -0.14    0.24
  -5   7  13    0.06    0.21
  -5  -7  13    0.52    0.26
   5   7 -12    0.50    0.32
  -5  -7  12    0.21    0.18
  -5  -7  12    0.82    0.31
   5   7 -11   -0.09    0.20
  -5  -7  11    0.24    0.21
  -5  -7  11   -0.04    0.20
   5   7 -10    2.86    0.56
  -5  -7  10    1.95    0.46
  -5  -7  10    3.01    0.50
   5   7  -9    3.75    0.63
  -5  -7   9    3.51    0.61
  -5  -7   9    3.12    0.50
   5   7  -8   -0.04    0.16
  -5  -7   8   -0.07    0.21
  -5  -7   8    0.01    0.17
   5   7  -7    3.22    0.56
  -5   7   7    3.35    0.37
   5   7  -7    2.97    0.31
  -5  -7   7    2.77    0.52
  -5  -7   7    3.76    0.53
   5   7  -6    0.38    0.23
  -5  -7   6    0.15    0.20
   5   7  -6    0.50    0.15
  -5   7   5    4.10    0.44
   5   7  -5    3.69    0.37
  -5  -7   5    3.33    0.52
   5   7  -5    3.59    0.58
   5   7  -4    0.41    0.26
  -5   7   4    0.06    0.10
  -5  -7   4   -0.02    0.17
   5   7  -4    0.12    0.12
   5   7  -3    0.50    0.25
  -5   7   3    0.51    0.20
  -5  -7   3    0.32    0.26
   5   7  -3    0.59    0.21
  -5   7   2   12.72    0.82
  -5  -7   2   11.77    0.95
   5   7  -2   11.67    0.71
   5   7  -2   12.22    0.93
   5   7  -1    3.00    0.40
  -5  -7   1    3.57    0.53
   5   7  -1    3.59    0.52
   5   7   0    0.41    0.17
  -5  -7   0    0.30    0.26
   5  -7   0    0.27    0.18
   5   7   0    0.22    0.22
  -5  -7  -1    4.12    0.53
   5   7   1    3.50    0.44
   5  -7   1    3.86    0.61
  -5   7  -1    4.05    0.62
   5   7   1    3.27    0.47
   5   7   2    2.56    0.37
  -5  -7  -2    2.74    0.46
  -5   7  -2    1.88    0.41
   5  -7   2    2.36    0.46
   5   7   2    2.28    0.41
  -5  -7  -3    2.32    0.40
   5   7   3    2.00    0.34
  -5   7  -3    1.81    0.44
   5  -7   3    1.60    0.37
   5   7   3    1.75    0.35
  -5  -7  -4    2.13    0.38
   5   7   4    2.45    0.38
  -5   7  -4    1.89    0.43
   5   7   4    2.33    0.39
   5  -7   4    1.24    0.35
  -5  -7  -5    0.64    0.20
  -5   7  -5    0.78    0.31
   5   7   5    0.75    0.24
   5  -7   5    0.77    0.27
   5   7   5    0.96    0.28
   5   7   6    1.17    0.32
  -5  -7  -6    0.63    0.24
  -5   7  -6    0.88    0.34
   5   7   6    0.83    0.25
   5  -7   6    1.55    0.46
  -5  -7  -7   18.73    1.11
   5   7   7   16.68    1.01
   5   7   7   19.29    1.14
   5  -7   7   17.43    1.31
  -5   7  -7   18.20    1.34
  -5  -7  -8   -0.15    0.15
  -5   7  -8    0.01    0.17
   5   7   8    0.11    0.13
   5  -7   8    0.23    0.23
  -5  -7  -9    2.15    0.39
   5   7   9    2.66    0.46
  -5   7  -9    2.39    0.51
   5   7   9    2.13    0.40
   5  -7   9    1.99    0.48
  -5  -7 -10    0.17    0.20
  -5   7 -10    0.16    0.24
   5   7  10    0.00    0.19
   5   7  10    0.18    0.20
   5  -7  10    0.20    0.22
  -5  -7 -11    0.08    0.19
  -5   7 -11    0.19    0.22
   5  -7  11    0.39    0.32
  -5  -7 -12    0.64    0.21
  -5   7 -12    0.81    0.38
   5  -7  12    0.87    0.34
  -5   7 -13    1.38    0.44
   5  -7  13    0.41    0.28
  -5   7 -14    0.59    0.36
   5  -7  14    0.20    0.19
  -5   7 -15    0.25    0.31
   5  -7  15   -0.39    0.33
  -5   7 -16   -0.12    0.24
   5  -7  16    0.01    0.25
  -5   7 -17    0.78    0.42
   5  -7  17   -0.34    0.29
  -5   7 -18    1.50    0.52
   5  -7  18    1.59    0.50
   5   8 -17   -0.27    0.22
   5   8 -17    0.14    0.24
  -5  -8  17   -0.29    0.21
  -5  -8  17   -0.20    0.23
  -5   8  17    0.20    0.24
   5   8 -16    0.24    0.27
   5   8 -16   -0.17    0.20
  -5  -8  16   -0.02    0.18
  -5   8  16    0.31    0.25
  -5  -8  16   -0.30    0.27
   5   8 -15    0.42    0.33
   5   8 -15   -0.16    0.18
  -5  -8  15    0.25    0.27
  -5   8  15    0.34    0.23
  -5  -8  15   -0.03    0.18
   5   8 -14    0.08    0.23
   5   8 -14    0.03    0.18
  -5  -8  14    0.33    0.28
  -5   8  14   -0.19    0.22
  -5  -8  14   -0.02    0.20
   5   8 -13    0.10    0.23
   5   8 -13    0.23    0.21
  -5   8  13   -0.08    0.22
  -5  -8  13    0.43    0.33
  -5  -8  13    0.35    0.18
   5   8 -12    0.54    0.29
  -5   8  12   -0.12    0.19
   5   8 -12    0.31    0.20
  -5  -8  12   -0.29    0.25
  -5  -8  12   -0.01    0.15
   5   8 -11    1.78    0.50
  -5  -8  11    1.28    0.39
  -5  -8  11    1.75    0.43
   5   8 -10    0.20    0.26
  -5  -8  10   -0.12    0.27
  -5  -8  10   -0.40    0.24
   5   8  -9    2.65    0.56
  -5  -8   9    2.03    0.48
  -5  -8   9    2.21    0.50
   5   8  -8    1.35    0.40
  -5  -8   8    1.33    0.39
  -5  -8   8    1.24    0.40
   5   8  -7    2.41    0.52
  -5  -8   7    2.11    0.47
   5   8  -6    0.38    0.19
   5   8  -6    0.28    0.14
  -5  -8   6    0.02    0.16
   5   8  -5   -0.08    0.16
   5   8  -5    0.14    0.10
  -5  -8   5    0.18    0.14
   5   8  -4    1.68    0.44
  -5   8   4    1.76    0.31
   5   8  -4    1.68    0.30
  -5  -8   4    2.23    0.47
  -5   8   3   13.14    0.81
   5   8  -3   11.03    0.73
  -5  -8   3   12.98    1.04
   5   8  -3   13.39    1.04
  -5   8   2   11.36    0.77
   5   8  -2   10.78    0.74
  -5  -8   2   11.56    0.97
   5   8  -2   10.42    0.89
  -5  -8   1    0.48    0.28
   5   8  -1    0.44    0.23
   5   8  -1    0.91    0.29
  -5   8   0    9.99    0.97
   5   8   0    8.37    0.67
  -5  -8   0    8.30    0.79
   5   8   0    9.66    0.84
  -5  -8  -1   -0.11    0.18
   5   8   1   -0.03    0.13
  -5   8  -1   -0.11    0.18
   5  -8   1    0.07    0.21
   5   8   1    0.14    0.18
  -5  -8  -2    0.65    0.23
  -5   8  -2    0.87    0.35
   5   8   2    0.79    0.26
   5  -8   2    0.92    0.34
   5   8   2    0.83    0.29
  -5  -8  -3    0.50    0.22
  -5   8  -3    0.51    0.26
   5  -8   3   -0.30    0.24
   5   8   3    0.25    0.14
   5   8   3    0.18    0.18
   5   8   4    0.25    0.18
   5   8   4    0.11    0.15
  -5  -8  -4    0.21    0.16
  -5   8  -4    0.11    0.17
   5  -8   4    0.04    0.23
   5   8   5    1.53    0.34
   5   8   5    1.73    0.36
  -5  -8  -5    2.46    0.45
  -5   8  -5    1.27    0.41
   5  -8   5    1.94    0.46
  -5  -8  -6    0.63    0.27
   5   8   6    0.50    0.24
  -5   8  -6    0.30    0.22
   5   8   6    0.58    0.25
   5  -8   6    0.22    0.19
  -5  -8  -7    0.73    0.26
  -5   8  -7    0.88    0.31
   5   8   7    0.66    0.26
   5   8   7    0.61    0.21
   5  -8   7    0.75    0.30
   5   8   8    0.60    0.26
  -5  -8  -8    0.76    0.27
  -5   8  -8    0.42    0.29
   5   8   8    0.88    0.26
   5  -8   8    0.60    0.36
   5  -8   9    0.15    0.21
  -5  -8  -9    0.35    0.18
  -5   8  -9    0.59    0.29
   5   8   9    0.92    0.31
   5   8   9    0.45    0.18
   5   8  10    0.34    0.24
  -5   8 -10   -0.12    0.25
   5  -8  10    0.53    0.33
   5   8  11    0.30    0.23
  -5   8 -11    0.00    0.21
   5  -8  11    0.15    0.26
   5   8  12    1.12    0.35
  -5   8 -12    0.15    0.31
   5  -8  12    0.52    0.38
  -5   8 -13    1.00    0.40
   5  -8  13    1.24    0.38
  -5   8 -14    0.63    0.36
   5  -8  14    0.82    0.35
  -5   8 -15    0.53    0.33
   5  -8  15    0.08    0.27
  -5   8 -16    0.72    0.34
   5  -8  16    0.33    0.33
   5   9 -15    0.44    0.31
   5   9 -15    0.40    0.27
  -5  -9  15    0.80    0.37
  -5   9  15   -0.01    0.19
  -5  -9  15    0.26    0.24
   5   9 -14    0.52    0.32
   5   9 -14    0.12    0.17
  -5  -9  14    0.58    0.37
  -5   9  14    0.13    0.27
  -5  -9  14   -0.02    0.22
   5   9 -13    1.47    0.48
   5   9 -13    1.07    0.33
  -5   9  13    0.69    0.37
  -5  -9  13    1.39    0.47
  -5  -9  13    1.19    0.42
  -5   9  12    1.09    0.41
  -5  -9  12    1.64    0.47
   5   9 -12    0.99    0.40
  -5  -9  12    0.80    0.34
   5   9 -11    3.42    0.68
  -5  -9  11    4.43    0.75
  -5  -9  11    3.30    0.64
   5   9 -10    2.10    0.53
  -5  -9  10    1.36    0.42
  -5  -9  10    1.64    0.43
   5   9  -9    1.12    0.41
  -5  -9   9    0.48    0.29
  -5  -9   9    0.55    0.27
   5   9  -8   -0.14    0.20
  -5  -9   8   -0.12    0.19
   5   9  -7    1.92    0.52
  -5  -9   7    2.29    0.50
   5   9  -6    0.17    0.22
  -5  -9   6    0.06    0.17
   5   9  -5    0.19    0.12
   5   9  -5    0.13    0.17
  -5  -9   5    0.25    0.22
   5   9  -4    0.28    0.20
   5   9  -4    0.20    0.15
  -5  -9   4   -0.17    0.21
   5   9  -3    3.89    0.48
  -5  -9   3    4.45    0.66
   5   9  -3    3.91    0.62
   5   9  -2    8.60    0.71
  -5   9   2    8.90    0.98
  -5  -9   2   10.02    0.94
   5   9  -2    9.12    0.90
  -5   9   1    6.02    0.79
   5   9  -1    4.51    0.52
  -5  -9   1    6.62    0.76
   5   9  -1    4.96    0.65
   5   9   0    0.17    0.13
  -5  -9   0    0.58    0.24
  -5   9   0    0.56    0.33
   5   9   0    0.70    0.30
   5   9   1    1.32    0.31
  -5  -9  -1    1.61    0.38
  -5   9  -1    2.08    0.48
   5   9   1    1.33    0.34
  -5  -9  -2    1.03    0.32
   5   9   2    0.96    0.28
  -5   9  -2    0.32    0.24
   5  -9   2    0.52    0.29
   5   9   2    0.56    0.23
  -5  -9  -3    2.35    0.43
  -5   9  -3    2.67    0.52
   5   9   3    1.98    0.38
   5  -9   3    2.45    0.58
   5   9   3    2.46    0.43
  -5  -9  -4   -0.08    0.13
  -5   9  -4    0.14    0.24
   5   9   4    0.28    0.14
   5   9   4   -0.23    0.19
   5  -9   4   -0.01    0.23
  -5  -9  -5    0.65    0.25
  -5   9  -5    0.12    0.18
   5   9   5    0.54    0.21
   5  -9   5    0.37    0.31
   5   9   5    0.45    0.20
   5  -9   6    0.42    0.31
   5   9   6    0.80    0.26
  -5  -9  -6    0.57    0.22
  -5   9  -6    0.54    0.30
   5   9   7    0.06    0.15
  -5   9  -7   -0.13    0.23
   5  -9   7   -0.24    0.28
  -5   9  -8    0.19    0.25
   5   9   8    0.29    0.21
  -5   9  -9    1.24    0.44
   5   9   9    1.15    0.33
   5  -9   9    1.69    0.49
   5   9  10    0.81    0.28
  -5   9 -10    0.55    0.35
   5  -9  10    0.71    0.35
  -5   9 -11    0.34    0.35
   5   9  11    0.79    0.31
   5  -9  11    0.87    0.40
   5   9  12    0.95    0.33
  -5   9 -12    1.11    0.45
   5  -9  12   -0.10    0.25
  -5   9 -13    0.01    0.22
   5   9  13    0.60    0.29
   5  -9  13    0.18    0.22
  -5   9 -14   -0.05    0.24
   5  -9  14    0.33    0.38
   5  10 -12    0.56    0.32
  -5  10  12    1.49    0.51
  -5 -10  12    0.73    0.33
  -5 -10  12    0.76    0.35
   5  10 -11    0.22    0.27
  -5  10  11    0.63    0.35
  -5 -10  11    0.30    0.29
  -5 -10  11   -0.04    0.23
   5  10 -10    4.66    0.80
  -5 -10  10    3.72    0.70
  -5 -10  10    3.92    0.73
   5  10  -9    1.13    0.41
  -5 -10   9    1.00    0.36
   5  10  -8    0.44    0.29
  -5 -10   8    0.51    0.33
   5  10  -7    0.58    0.28
  -5 -10   7    0.57    0.29
   5  10  -6    0.70    0.34
  -5 -10   6    0.51    0.33
   5  10  -5    0.03    0.15
  -5 -10   5    0.02    0.17
   5  10  -4   -0.18    0.23
  -5 -10   4   -0.07    0.25
   5  10  -4    0.11    0.15
   5  10  -3    0.22    0.13
   5  10  -3    0.06    0.22
  -5 -10   3    0.08    0.17
  -5  10   3    0.15    0.25
   5  10  -2    0.10    0.19
   5  10  -2   -0.07    0.15
  -5 -10   2    0.27    0.15
  -5  10   2   -0.01    0.19
   5  10  -1    0.29    0.15
  -5 -10   1    0.65    0.33
  -5  10   1    0.18    0.26
   5  10  -1    0.44    0.25
   5  10   0   -0.07    0.15
   5  10   0    0.23    0.19
  -5 -10   0    0.38    0.22
  -5  10   0    0.07    0.17
   5  10   1   -0.18    0.15
  -5 -10  -1   -0.09    0.19
  -5  10  -1   -0.23    0.23
   5  10   1    0.14    0.14
   5  10   2    2.11    0.41
  -5 -10  -2    3.14    0.51
  -5  10  -2    3.43    0.64
   5  10   2    2.72    0.46
   5  10   3    0.90    0.28
  -5  10  -3    1.38    0.46
   5 -10   3    1.61    0.51
  -5  10  -4    0.01    0.21
   5  10   4    0.02    0.13
   5 -10   4   -0.42    0.29
  -5  10  -5    1.07    0.39
   5  10   5    0.76    0.27
   5 -10   5    0.43    0.32
  -5  10  -6    0.38    0.31
   5 -10   6    0.28    0.29
   5  10   6    0.32    0.24
   5  10   7    0.12    0.18
  -5  10  -7    0.28    0.24
   5 -10   7    0.12    0.25
   5  10   8    2.39    0.46
  -5  10  -8    2.61    0.61
   5 -10   8    2.12    0.60
  -5  10  -9    1.38    0.44
   5  10   9    1.77    0.41
   5 -10   9    2.21    0.61
  -5  10 -10    2.69    0.61
   5  10  10    3.40    0.56
   5 -10  10    2.88    0.68
   5  10  11    0.66    0.28
  -5  10 -11    0.44    0.31
   5 -10  11    0.31    0.34
   5  11  -8    0.74    0.36
  -5 -11   8    0.38    0.21
   5  11  -7    1.41    0.45
  -5 -11   7    1.29    0.41
   5  11  -6    1.33    0.42
  -5 -11   6    1.47    0.43
   5  11  -5    2.94    0.60
  -5 -11   5    2.19    0.49
  -5  11   5    2.15    0.53
   5  11  -4   -0.08    0.22
  -5 -11   4    0.09    0.16
  -5  11   4    0.07    0.19
   5  11  -3   -0.19    0.20
  -5 -11   3    0.08    0.21
  -5  11   3    0.19    0.28
  -5 -11   2    1.66    0.43
  -5  11   2    2.24    0.53
   5  11  -2    1.43    0.34
   5  11  -1    0.17    0.13
  -5  11   1    0.57    0.30
   5  11   0    0.32    0.20
  -5  11   0    0.62    0.31
   5  11   1   -0.08    0.14
  -5  11  -1   -0.06    0.22
   5  11   2   -0.10    0.17
  -5  11  -2    0.45    0.32
   5  11   3    3.60    0.55
  -5  11  -3    5.15    0.82
  -5  11  -4    0.07    0.24
   5  11   4    0.27    0.21
   5 -11   4    0.37    0.32
  -5  11  -5    0.10    0.22
   5  11   5    0.00    0.13
   5 -11   5   -0.03    0.24
  -5  11  -6   -0.06    0.27
   5  11   6    0.16    0.15
   5 -11   6    0.38    0.33
   6   0 -23    0.50    0.30
  -6   0  23    0.19    0.20
   6   0 -22    0.46    0.32
  -6   0  22    0.33    0.32
   6   0 -21    0.03    0.18
  -6   0  21    0.08    0.31
   6   0 -20    0.40    0.30
  -6   0  20    0.17    0.23
   6   0 -19    0.31    0.32
  -6   0  19   -0.04    0.19
   6   0 -18   -0.10    0.21
  -6   0  18    0.25    0.25
   6   0 -17   -0.44    0.25
  -6   0  17   -0.04    0.17
   6   0 -16    0.70    0.31
  -6   0  16    1.27    0.39
   6   0 -15    0.97    0.38
  -6   0  15    1.72    0.45
   6   0 -14   -0.19    0.19
  -6   0  14    0.38    0.25
   6   0 -13   -0.20    0.16
  -6   0  13    0.05    0.15
  -6   0  12   13.20    1.01
   6   0 -12   13.72    1.03
  -6   0  12   11.02    0.46
   6   0 -11   -0.24    0.20
  -6   0  11    0.03    0.20
  -6   0  10    6.26    0.69
   6   0 -10    6.32    0.69
   6   0  -9    0.10    0.16
  -6   0   9   -0.17    0.20
  -6   0   8    0.31    0.18
   6   0  -8    0.17    0.18
  -6   0   7   -0.55    0.24
   6   0  -7   -0.03    0.18
  -6   0   6    1.43    0.32
   6   0  -6    1.22    0.30
  -6   0   5    0.10    0.14
   6   0  -5   -0.13    0.16
  -6   0   4    8.84    0.75
   6   0  -4    9.23    0.76
  -6   0   3    0.18    0.17
   6   0  -3   -0.05    0.16
  -6   0   2    0.54    0.21
   6   0  -2    0.34    0.13
  -6   0   1    0.06    0.16
   6   0  -1   -0.01    0.14
  -6   0   0    6.56    0.64
   6   0   0    6.21    0.62
  -6   0  -1   -0.03    0.16
   6   0   1    0.23    0.21
   6   0   1   -0.03    0.05
  -6   0  -2    5.59    0.62
   6   0   2    5.80    0.60
   6   0   2    5.42    0.31
  -6   0  -3   -0.09    0.14
   6   0   3    0.25    0.11
   6   0   3    0.07    0.13
  -6   0  -4    5.44    0.62
   6   0   4    5.07    0.59
  -6   0  -5    0.39    0.25
   6   0   5   -0.25    0.22
  -6   0  -5   -0.09    0.16
  -6   0  -6    2.69    0.47
   6   0   6    2.96    0.47
  -6   0  -6    3.04    0.45
  -6   0  -7    0.10    0.14
   6   0   7    0.07    0.14
  -6   0  -8   15.59    0.99
  -6   0  -9    0.32    0.21
  -6   0 -10    4.48    0.56
  -6   0 -11   -0.12    0.15
  -6   0 -12    0.25    0.19
  -6   0 -13   -0.01    0.14
  -6   0 -14   15.23    1.10
  -6   0 -15    0.05    0.15
  -6   0 -16    2.69    0.52
  -6   0 -17   -0.13    0.16
  -6   0 -18    1.18    0.36
  -6   0 -19    0.36    0.22
  -6   0 -20    1.78    0.48
  -6   0 -21   -0.31    0.30
   6  -1 -23    0.53    0.33
   6  -1 -23    0.10    0.26
   6   1 -23   -0.31    0.26
  -6  -1  23    0.30    0.25
  -6   1  23   -0.02    0.20
   6  -1 -22    0.07    0.17
   6   1 -22    0.04    0.21
  -6  -1  22   -0.10    0.19
  -6   1  22    0.49    0.29
   6  -1 -21    0.19    0.20
   6   1 -21    0.01    0.17
  -6   1  21   -0.05    0.16
   6  -1 -20    0.52    0.29
   6   1 -20   -0.20    0.22
  -6  -1  20    0.24    0.21
  -6   1  20   -0.07    0.16
   6  -1 -19    0.22    0.21
   6   1 -19   -0.29    0.23
  -6   1  19   -0.08    0.22
  -6  -1  19   -0.01    0.20
   6   1 -18    0.02    0.20
  -6   1  18   -0.26    0.20
  -6  -1  18   -0.52    0.28
   6  -1 -18    0.19    0.18
   6  -1 -17    0.29    0.23
   6   1 -17   -0.01    0.17
  -6   1  17    0.57    0.30
  -6  -1  17    0.19    0.22
   6  -1 -16    2.56    0.48
   6   1 -16    2.46    0.51
  -6   1  16    3.04    0.52
  -6  -1  16    2.65    0.55
   6  -1 -15    2.37    0.46
   6   1 -15    2.19    0.50
  -6   1  15    2.58    0.49
  -6  -1  15    2.76    0.53
   6  -1 -14    1.44    0.34
   6   1 -14    1.75    0.44
  -6   1  14    1.25    0.33
  -6  -1  14    1.75    0.43
  -6   1  14    0.96    0.18
   6  -1 -13    0.69    0.27
   6   1 -13    1.01    0.31
  -6   1  13    1.12    0.34
  -6  -1  13    1.03    0.35
  -6   1  13    1.16    0.20
   6  -1 -12    0.45    0.24
   6   1 -12    0.94    0.36
  -6   1  12    0.83    0.28
  -6  -1  12    1.28    0.36
   6  -1 -11    2.75    0.46
   6   1 -11    3.30    0.52
  -6   1  11    3.09    0.49
  -6  -1  11    2.90    0.50
  -6  -1  11    3.22    0.28
   6   1 -10    0.01    0.18
  -6   1  10    0.40    0.24
  -6  -1  10    0.33    0.21
  -6  -1  10    0.12    0.08
   6  -1 -10   -0.04    0.17
   6   1  -9    1.78    0.40
  -6   1   9    1.86    0.40
  -6  -1   9    1.98    0.40
  -6  -1   9    1.02    0.14
   6  -1  -9    1.92    0.39
   6   1  -8   -0.03    0.18
  -6   1   8   -0.07    0.18
  -6  -1   8   -0.06    0.15
  -6   1   8    0.00    0.05
  -6  -1   8    0.07    0.05
   6  -1  -8    0.19    0.16
   6   1  -7    0.21    0.23
  -6   1   7    0.37    0.20
  -6  -1   7    0.57    0.25
  -6   1   7    0.18    0.06
   6  -1  -7    0.41    0.20
  -6   1   6   -0.02    0.17
  -6  -1   6   -0.04    0.18
   6  -1  -6    0.01    0.17
  -6   1   6    0.06    0.04
   6   1  -6   -0.11    0.17
  -6   1   5   15.31    0.97
  -6  -1   5   15.74    1.02
   6  -1  -5   17.08    0.99
   6   1  -5   17.04    1.03
  -6   1   4   21.12    1.13
  -6  -1   4   18.81    1.13
   6  -1  -4   22.52    1.14
   6   1  -4   21.54    1.15
  -6   1   3    1.98    0.37
  -6  -1   3    2.21    0.37
   6  -1  -3    2.19    0.37
   6   1  -3    2.24    0.38
  -6   1   2    1.37    0.33
  -6  -1   2    1.34    0.32
   6  -1  -2    2.24    0.38
   6   1  -2    1.43    0.30
  -6   1   1    1.67    0.33
  -6  -1   1    1.69    0.35
   6  -1  -1    1.68    0.34
   6   1  -1    1.96    0.37
  -6   1   0    1.42    0.33
  -6  -1   0    2.19    0.41
   6  -1   0    2.15    0.38
   6  -1   0    1.33    0.16
   6   1   0    1.82    0.36
  -6   1  -1    0.23    0.19
  -6  -1  -1   -0.08    0.18
   6  -1   1   -0.09    0.17
   6   1   1   -0.04    0.13
   6  -1   1    0.03    0.07
  -6   1  -2    3.05    0.46
  -6  -1  -2    3.52    0.49
   6  -1   2    3.13    0.46
   6   1   2    3.43    0.48
   6  -1   2    3.16    0.28
  -6   1  -3    4.69    0.57
  -6  -1  -3    5.45    0.62
   6  -1   3    5.46    0.61
   6   1   3    5.77    0.63
   6  -1   3    4.54    0.36
  -6   1  -4   -0.04    0.15
  -6  -1  -4    0.20    0.22
   6  -1   4    0.37    0.22
   6   1   4    0.12    0.20
   6  -1   4    0.23    0.14
  -6  -1  -5    2.33    0.42
   6  -1   5    2.80    0.46
   6   1   5    3.11    0.48
  -6  -1  -5    2.17    0.36
  -6   1  -5    2.61    0.41
   6  -1   5    2.80    0.32
  -6  -1  -6    0.63    0.25
   6  -1   6    0.70    0.32
  -6  -1  -6    0.44    0.20
   6   1   6    0.30    0.22
  -6   1  -6    0.86    0.25
   6  -1   6    0.67    0.19
  -6   1  -7   12.37    0.94
  -6  -1  -7   12.81    0.96
   6   1   7   14.10    1.00
  -6  -1  -7   12.17    0.81
  -6  -1  -8    2.50    0.48
  -6  -1  -8    2.58    0.40
  -6   1  -8    2.29    0.47
   6   1   8    2.34    0.47
  -6  -1  -9    0.00    0.13
  -6   1  -9   -0.14    0.16
  -6  -1 -10    0.40    0.22
  -6   1 -10   -0.09    0.22
  -6  -1 -11    0.34    0.23
  -6   1 -11    0.14    0.17
  -6  -1 -12    0.18    0.18
  -6   1 -12    0.00    0.15
  -6  -1 -13    0.37    0.21
  -6   1 -13    0.80    0.30
  -6  -1 -14    4.76    0.59
  -6   1 -14    4.82    0.68
  -6  -1 -15    0.42    0.21
  -6   1 -15    0.44    0.26
  -6  -1 -16    0.88    0.29
  -6   1 -16    0.73    0.31
  -6   1 -17    0.77    0.33
  -6  -1 -17    0.93    0.33
  -6   1 -18    2.07    0.50
  -6  -1 -18    2.63    0.51
  -6   1 -19    0.34    0.25
  -6  -1 -19    0.01    0.15
  -6  -1 -20    4.96    0.70
  -6   1 -20    5.26    0.79
  -6  -1 -21    2.91    0.56
  -6   1 -21    2.47    0.55
   6  -2 -22    0.33    0.28
   6   2 -22   -0.27    0.26
  -6  -2  22    0.17    0.20
   6  -2 -21    0.17    0.20
   6  -2 -21    0.53    0.32
   6   2 -21    0.52    0.30
  -6  -2  21    0.81    0.40
  -6   2  21    0.25    0.24
   6  -2 -20   -0.04    0.14
   6  -2 -20    0.33    0.29
   6   2 -20   -0.45    0.29
  -6  -2  20    0.49    0.25
  -6   2  20   -0.22    0.24
   6  -2 -19    0.13    0.18
   6  -2 -19    0.75    0.36
   6   2 -19   -0.11    0.24
  -6   2  19    0.38    0.20
  -6  -2  19    0.39    0.27
   6  -2 -18    0.27    0.21
   6   2 -18    0.13    0.19
  -6   2  18    0.41    0.25
  -6  -2  18    0.28    0.22
  -6  -2  18    0.32    0.18
   6  -2 -17    0.72    0.31
   6   2 -17    0.46    0.31
  -6   2  17    0.97    0.32
  -6  -2  17    0.59    0.34
  -6  -2  17    0.78    0.23
   6  -2 -16    0.64    0.29
   6   2 -16    0.28    0.25
  -6   2  16    0.73    0.25
  -6  -2  16    0.40    0.28
  -6  -2  16    0.43    0.17
   6  -2 -15    0.26    0.19
   6   2 -15    0.11    0.29
  -6   2  15    0.21    0.20
  -6  -2  15    0.24    0.25
  -6   2  15    0.03    0.08
  -6  -2  15    0.22    0.14
   6   2 -14    0.15    0.22
   6  -2 -14    0.26    0.21
  -6   2  14    0.19    0.18
  -6  -2  14   -0.12    0.20
  -6   2  14    0.12    0.12
  -6  -2  14    0.22    0.15
   6  -2 -13    1.85    0.38
   6   2 -13    2.44    0.52
  -6   2  13    2.18    0.31
  -6   2  13    2.35    0.43
  -6  -2  13    2.49    0.49
  -6  -2  13    2.80    0.33
   6   2 -12    0.15    0.19
  -6   2  12    0.12    0.17
  -6  -2  12    0.11    0.20
  -6  -2  12    0.07    0.09
   6   2 -11   -0.03    0.22
  -6   2  11   -0.28    0.18
  -6  -2  11   -0.02    0.17
  -6  -2  11   -0.23    0.12
   6  -2 -11   -0.03    0.12
   6   2 -10    0.15    0.22
  -6   2  10    0.08    0.16
  -6  -2  10   -0.09    0.17
  -6  -2  10    0.05    0.08
   6  -2 -10    0.05    0.13
  -6  -2   9    0.43    0.07
   6   2  -9    0.89    0.33
  -6   2   9    0.90    0.26
  -6  -2   9    0.93    0.30
  -6   2   9    0.63    0.17
  -6  -2   9    0.72    0.15
   6  -2  -9    0.68    0.26
   6   2  -8    0.16    0.20
  -6   2   8   -0.08    0.17
  -6  -2   8    0.30    0.23
  -6  -2   8    0.04    0.03
  -6   2   8    0.13    0.08
  -6  -2   8   -0.03    0.06
   6  -2  -8    0.23    0.16
   6   2  -7    0.36    0.16
  -6  -2   7    0.16    0.06
  -6   2   7    0.39    0.21
  -6  -2   7    0.12    0.22
  -6   2   7    0.26    0.10
   6  -2  -7    0.28    0.16
   6   2  -6    0.12    0.19
  -6   2   6    0.09    0.16
  -6  -2   6    0.08    0.20
  -6   2   6    0.15    0.08
  -6  -2   6    0.20    0.08
   6  -2  -6    0.26    0.16
  -6   2   5    0.18    0.16
  -6  -2   5    0.21    0.22
   6  -2  -5    0.01    0.12
  -6   2   5   -0.09    0.08
   6   2  -5    0.18    0.20
  -6  -2   5    0.19    0.08
  -6   2   4    0.67    0.23
  -6  -2   4    0.79    0.15
  -6  -2   4    0.51    0.23
   6  -2  -4    0.58    0.19
   6   2  -4    0.59    0.21
  -6   2   4    0.67    0.12
  -6   2   3   -0.07    0.14
  -6  -2   3   -0.04    0.16
  -6  -2   3    0.07    0.08
   6  -2  -3    0.18    0.16
  -6   2   3    0.15    0.08
  -6  -2   2    0.33    0.13
  -6   2   2    0.32    0.17
  -6  -2   2    0.21    0.18
   6  -2  -2    0.35    0.23
   6   2  -2    0.38    0.23
  -6   2   1   27.21    1.28
  -6  -2   1   27.12    1.34
   6  -2  -1   28.76    1.31
   6   2  -1   30.44    1.37
  -6   2   0    0.28    0.19
  -6  -2   0    0.15    0.20
   6  -2   0    0.59    0.26
   6  -2   0    0.20    0.11
   6   2   0    0.13    0.19
   6   2   0    0.07    0.05
  -6   2  -1    0.22    0.18
  -6  -2  -1    0.20    0.18
   6  -2   1    0.64    0.16
   6  -2   1    0.61    0.25
   6   2   1    0.57    0.23
  -6   2  -2    1.64    0.37
  -6  -2  -2    1.58    0.36
   6  -2   2    0.90    0.29
   6   2   2    1.48    0.32
   6  -2   2    1.49    0.25
  -6   2  -3    0.81    0.29
  -6  -2  -3    0.63    0.29
   6   2   3    0.38    0.19
   6  -2   3    1.30    0.33
   6  -2   3    0.79    0.19
  -6  -2  -4    3.55    0.50
  -6  -2  -4    3.67    0.41
   6  -2   4    2.75    0.47
   6   2   4    3.41    0.50
   6  -2   4    3.18    0.35
  -6   2  -4    3.24    0.49
  -6  -2  -5    1.07    0.30
  -6  -2  -5    1.02    0.25
   6   2   5    1.32    0.36
  -6   2  -5    1.38    0.34
   6  -2   5    1.10    0.26
  -6  -2  -6   11.87    0.75
  -6  -2  -6   13.10    0.96
  -6   2  -6   10.89    0.88
   6   2   6   11.12    0.91
   6  -2   6   11.74    0.73
   6  -2   7    0.41    0.10
  -6  -2  -7    0.61    0.27
  -6  -2  -7    0.25    0.14
  -6   2  -7    0.29    0.22
   6   2   7    0.31    0.17
   6  -2   7    0.71    0.22
   6  -2   8    0.86    0.10
  -6  -2  -8    1.30    0.34
  -6  -2  -8    1.53    0.28
  -6   2  -8    1.63    0.40
   6   2   8    1.39    0.37
   6  -2   8    1.84    0.33
  -6  -2  -9    0.16    0.22
  -6  -2  -9    0.10    0.11
  -6   2  -9    0.16    0.18
   6   2   9   -0.03    0.21
   6  -2   9    0.40    0.20
  -6  -2 -10    0.47    0.25
  -6  -2 -10    0.85    0.23
  -6   2 -10    0.83    0.29
   6  -2  10    0.76    0.24
   6  -2  11   -0.04    0.14
  -6  -2 -11    0.11    0.12
  -6   2 -11    0.26    0.18
  -6   2 -12    2.22    0.48
  -6  -2 -12    3.14    0.44
  -6   2 -13    2.54    0.52
  -6  -2 -13    3.55    0.47
  -6  -2 -14    0.68    0.25
  -6   2 -14    0.23    0.21
  -6  -2 -15    0.20    0.15
  -6   2 -15    0.07    0.18
  -6   2 -16    2.14    0.47
  -6  -2 -16    2.37    0.45
  -6   2 -17    0.55    0.33
  -6  -2 -17    0.50    0.23
  -6   2 -18    1.73    0.49
  -6  -2 -18    0.69    0.28
  -6   2 -19    0.77    0.35
  -6   2 -20    0.07    0.24
  -6   2 -21    0.61    0.34
   6  -3 -22   -0.42    0.29
   6   3 -22    0.50    0.42
  -6  -3  22    0.51    0.29
   6  -3 -21    0.56    0.29
   6   3 -21    0.44    0.32
  -6  -3  21    0.15    0.26
   6  -3 -20    0.38    0.31
   6   3 -20   -0.49    0.30
  -6  -3  20   -0.17    0.25
   6  -3 -19    0.41    0.22
   6  -3 -19    0.42    0.31
   6   3 -19    0.74    0.40
  -6   3  19    0.22    0.21
  -6  -3  19    0.83    0.38
   6  -3 -18    0.14    0.12
   6  -3 -18    0.69    0.38
   6   3 -18   -0.04    0.19
  -6   3  18    0.15    0.16
  -6  -3  18    0.23    0.23
   6  -3 -17    0.41    0.25
   6  -3 -17    0.19    0.18
   6   3 -17    0.55    0.33
  -6   3  17    0.54    0.23
  -6  -3  17    0.06    0.21
  -6  -3  17    0.28    0.20
   6  -3 -16   -0.36    0.26
   6   3 -16    0.14    0.25
  -6   3  16   -0.10    0.15
  -6  -3  16    0.06    0.20
  -6   3  16    0.44    0.17
  -6  -3  16   -0.20    0.16
   6  -3 -16    0.13    0.18
   6  -3 -15   -0.06    0.22
   6   3 -15    0.01    0.19
  -6   3  15   -0.10    0.20
  -6  -3  15    0.12    0.21
  -6   3  15    0.12    0.12
  -6  -3  15    0.06    0.12
   6  -3 -15    0.02    0.13
   6  -3 -14    0.10    0.26
   6   3 -14    0.09    0.21
  -6   3  14   -0.40    0.22
  -6  -3  14    0.18    0.22
  -6   3  14    0.03    0.10
  -6  -3  14   -0.24    0.16
   6  -3 -14   -0.01    0.12
   6  -3 -13    2.57    0.50
   6   3 -13    1.83    0.45
  -6   3  13    2.21    0.40
  -6  -3  13    2.32    0.52
  -6  -3  13    1.44    0.27
   6  -3 -13    1.74    0.36
   6  -3 -12    0.15    0.23
   6   3 -12    0.18    0.24
  -6  -3  12   -0.14    0.14
  -6   3  12    0.23    0.20
  -6  -3  12   -0.05    0.20
   6  -3 -12    0.22    0.20
   6   3 -11    0.60    0.29
   6  -3 -11    1.21    0.34
  -6   3  11    1.01    0.29
  -6  -3  11    0.67    0.31
   6  -3 -11    1.20    0.30
  -6  -3  11    1.06    0.24
   6   3 -10    0.05    0.21
  -6   3  10    0.07    0.19
  -6  -3  10   -0.05    0.17
  -6   3  10    0.02    0.11
   6  -3 -10   -0.04    0.13
  -6  -3  10    0.16    0.11
   6   3  -9    0.11    0.24
  -6   3   9    0.04    0.12
  -6  -3   9    0.41    0.27
  -6   3   9   -0.06    0.12
   6  -3  -9   -0.23    0.15
  -6  -3   9   -0.05    0.08
   6   3  -8    2.58    0.47
  -6   3   8    2.29    0.39
  -6  -3   8    1.44    0.36
  -6  -3   8    1.41    0.15
  -6  -3   8    1.98    0.24
   6  -3  -8    2.10    0.37
  -6   3   8    2.02    0.30
   6   3  -7    0.90    0.35
  -6   3   7    1.50    0.32
  -6  -3   7    1.78    0.41
   6  -3  -7    1.62    0.32
  -6   3   7    1.44    0.25
  -6  -3   7    1.47    0.18
   6   3  -6    1.41    0.34
  -6  -3   6    1.36    0.18
  -6   3   6    1.51    0.33
  -6  -3   6    1.34    0.39
   6  -3  -6    1.57    0.30
  -6   3   6    1.33    0.23
   6   3  -5    1.55    0.37
  -6   3   5    1.58    0.33
  -6  -3   5    1.15    0.18
  -6  -3   5    1.82    0.41
   6  -3  -5    1.32    0.28
  -6   3   5    1.19    0.22
  -6   3   4    0.50    0.21
  -6  -3   4    0.19    0.17
  -6  -3   4    0.28    0.09
   6  -3  -4    0.77    0.24
  -6   3   4    0.33    0.09
   6   3  -4    0.71    0.30
  -6   3   3   10.07    0.77
  -6  -3   3    9.23    0.54
  -6  -3   3   10.02    0.87
   6  -3  -3    9.91    0.76
   6   3  -3   10.91    0.85
  -6   3   3    8.89    0.52
   6   3  -2    0.92    0.12
  -6   3   2    1.27    0.31
  -6  -3   2    2.09    0.40
  -6  -3   2    1.35    0.22
   6  -3  -2    1.86    0.37
   6   3  -2    1.42    0.33
  -6   3   2    1.39    0.20
   6  -3  -1    0.63    0.20
  -6   3   1    0.56    0.23
  -6  -3   1    0.18    0.23
   6  -3  -1    0.12    0.15
   6   3  -1    0.24    0.20
   6   3  -1    0.30    0.09
  -6   3   1    0.53    0.15
   6  -3   0    9.25    0.63
  -6   3   0    9.15    0.77
  -6  -3   0    8.70    0.78
   6  -3   0    9.44    0.79
   6   3   0    9.82    0.81
   6  -3   0    8.86    0.61
   6   3   0    8.44    0.45
   6  -3   1    2.42    0.34
  -6   3  -1    2.52    0.42
  -6  -3  -1    2.51    0.44
   6  -3   1    2.17    0.40
   6   3   1    1.97    0.24
   6   3   1    2.63    0.45
   6  -3   1    2.41    0.33
   6  -3   2   10.91    0.63
  -6   3  -2   13.01    0.91
  -6  -3  -2   12.08    0.91
   6  -3   2   13.44    0.95
   6   3   2   12.29    0.89
   6  -3   2   11.09    0.72
   6  -3   3    0.32    0.13
  -6  -3  -3    0.48    0.22
   6   3   3    0.26    0.21
   6  -3   3    0.44    0.18
   6  -3   4    0.30    0.13
  -6  -3  -4    0.52    0.23
   6   3   4    0.34    0.21
  -6  -3  -4    0.30    0.14
  -6   3  -4    0.05    0.20
   6  -3   4    0.43    0.18
   6  -3   5    0.56    0.15
  -6  -3  -5    0.30    0.16
  -6  -3  -5    0.50    0.16
   6   3   5    0.54    0.22
  -6   3  -5    0.32    0.22
   6  -3   5    0.08    0.14
   6  -3   6    2.14    0.22
  -6  -3  -6    2.48    0.44
  -6   3  -6    2.61    0.47
   6   3   6    2.59    0.42
  -6  -3  -6    2.38    0.33
   6  -3   6    2.33    0.35
  -6  -3  -7    0.16    0.20
  -6  -3  -7    0.08    0.13
  -6   3  -7   -0.10    0.24
   6   3   7   -0.23    0.24
   6  -3   7    0.05    0.14
  -6  -3  -8    0.13    0.18
  -6  -3  -8    0.10    0.10
   6   3   8    0.19    0.18
   6  -3   8    0.05    0.14
  -6  -3  -9    0.06    0.15
  -6  -3  -9    0.49    0.17
  -6   3  -9    0.47    0.27
   6   3   9    0.39    0.22
   6  -3   9    0.44    0.17
  -6  -3 -10    5.88    0.69
  -6  -3 -10    5.20    0.48
   6  -3  10    6.20    0.65
  -6   3 -10    5.69    0.73
  -6  -3 -11   -0.06    0.10
  -6  -3 -11   -0.05    0.16
  -6   3 -11   -0.14    0.24
   6  -3  11    0.18    0.16
  -6  -3 -12    0.13    0.12
  -6  -3 -12    0.12    0.15
  -6   3 -12    0.05    0.20
   6  -3  12    0.03    0.14
  -6  -3 -13    0.87    0.30
  -6   3 -13    0.86    0.35
   6  -3  13    1.26    0.36
  -6  -3 -13    0.78    0.20
  -6  -3 -14    5.39    0.71
  -6   3 -14    4.42    0.67
  -6  -3 -14    4.27    0.51
   6  -3  14    4.93    0.64
  -6   3 -15    6.42    0.83
   6  -3  15    4.79    0.64
  -6   3 -16    1.89    0.47
   6  -3  16    1.76    0.40
  -6   3 -17    2.49    0.58
   6  -3  17    2.26    0.50
  -6   3 -18    0.31    0.28
   6  -3  18    0.90    0.34
  -6   3 -19    2.12    0.53
   6  -3  19    1.78    0.44
  -6   3 -20    0.39    0.32
   6  -3  20    1.11    0.39
   6  -4 -21    0.33    0.30
   6   4 -21    0.08    0.21
  -6  -4  21    0.03    0.28
   6  -4 -20    0.93    0.39
   6   4 -20    0.53    0.35
  -6  -4  20    0.83    0.38
   6  -4 -19    0.85    0.40
   6   4 -19    0.42    0.36
  -6  -4  19    0.12    0.22
   6  -4 -18    0.99    0.39
   6   4 -18    0.79    0.41
  -6  -4  18    1.00    0.35
   6  -4 -17   -0.48    0.30
   6   4 -17   -0.44    0.31
  -6  -4  17   -0.09    0.23
   6  -4 -16    0.12    0.27
   6   4 -16    0.11    0.24
  -6   4  16    0.42    0.20
  -6  -4  16    0.62    0.31
  -6   4  16    0.33    0.18
  -6  -4  16    0.07    0.12
   6  -4 -16    0.32    0.16
   6  -4 -15    0.96    0.35
   6   4 -15    1.40    0.47
  -6   4  15    1.33    0.31
  -6  -4  15    1.45    0.44
  -6   4  15    1.01    0.27
   6  -4 -15    1.27    0.30
  -6  -4  15    1.33    0.32
   6  -4 -14    0.54    0.30
   6   4 -14    0.11    0.23
  -6   4  14    0.08    0.13
  -6   4  14   -0.07    0.12
  -6  -4  14   -0.19    0.27
   6  -4 -14   -0.02    0.10
  -6  -4  14    0.37    0.19
   6  -4 -13    1.71    0.45
   6   4 -13    1.88    0.52
  -6   4  13    2.44    0.40
  -6  -4  13    2.11    0.49
   6  -4 -13    2.11    0.37
  -6  -4  13    1.47    0.30
   6  -4 -12    0.30    0.30
   6   4 -12    0.28    0.23
  -6   4  12    0.02    0.16
  -6  -4  12    0.12    0.17
   6  -4 -12    0.13    0.16
  -6  -4  12    0.18    0.14
   6  -4 -11    2.79    0.52
   6   4 -11    3.13    0.56
  -6   4  11    2.38    0.42
  -6  -4  11    3.40    0.59
   6  -4 -11    2.61    0.39
  -6  -4  11    2.16    0.35
   6  -4 -10    0.72    0.30
   6   4 -10    0.02    0.15
  -6   4  10    0.05    0.15
  -6  -4  10   -0.20    0.23
   6  -4 -10    0.51    0.25
  -6  -4  10    0.04    0.09
   6  -4  -9    1.59    0.41
   6   4  -9    0.96    0.36
  -6   4   9    0.95    0.26
  -6  -4   9    1.05    0.33
   6  -4  -9    0.95    0.23
  -6  -4   9    1.03    0.21
   6  -4  -8    4.65    0.59
   6   4  -8    3.57    0.58
  -6   4   8    4.48    0.52
  -6  -4   8    4.05    0.61
   6  -4  -8    4.10    0.47
  -6  -4   8    4.74    0.42
   6   4  -7    2.15    0.48
   6  -4  -7    1.79    0.42
  -6   4   7    1.72    0.34
  -6  -4   7    1.90    0.46
   6  -4  -7    2.23    0.36
   6   4  -6    0.17    0.15
   6  -4  -6    0.20    0.21
  -6   4   6    0.10    0.13
  -6  -4   6    0.06    0.19
  -6  -4   6   -0.13    0.09
   6  -4  -6    0.20    0.16
  -6   4   6    0.01    0.12
   6   4  -5    0.87    0.33
   6  -4  -5    1.54    0.33
  -6   4   5    1.32    0.30
  -6  -4   5    1.32    0.35
  -6  -4   5    1.36    0.22
   6  -4  -5    1.34    0.30
  -6   4   5    1.11    0.25
   6  -4  -4    0.29    0.20
  -6   4   4    0.20    0.17
  -6  -4   4    0.18    0.19
   6  -4  -4    0.62    0.22
  -6  -4   4    0.24    0.12
  -6   4   4    0.22    0.09
   6   4  -4    0.31    0.10
   6   4  -4    0.29    0.18
  -6  -4   3    0.10    0.07
   6  -4  -3    0.09    0.14
  -6   4   3   -0.01    0.18
  -6  -4   3   -0.30    0.24
   6  -4  -3   -0.03    0.20
  -6   4   3   -0.16    0.14
   6   4  -3    0.14    0.08
   6   4  -3    0.07    0.18
   6  -4  -2   -0.04    0.14
  -6   4   2    0.02    0.10
  -6   4   2    0.11    0.13
  -6  -4   2   -0.03    0.17
  -6  -4   2    0.13    0.13
   6  -4  -2   -0.03    0.17
   6   4  -2   -0.14    0.10
   6   4  -2   -0.12    0.16
   6  -4  -1    1.16    0.29
  -6   4   1    0.60    0.25
  -6  -4   1    0.90    0.28
  -6  -4   1    1.08    0.21
   6  -4  -1    0.87    0.27
   6   4  -1    0.46    0.14
   6   4  -1    1.05    0.30
  -6   4   1    0.73    0.18
   6  -4   0    5.49    0.53
   6   4   0    4.91    0.42
  -6   4   0    5.35    0.59
  -6  -4   0    4.80    0.60
  -6  -4   0    4.98    0.41
   6  -4   0    5.70    0.62
   6   4   0    5.88    0.65
   6  -4   0    4.62    0.50
   6  -4   1    1.11    0.23
  -6   4  -1    1.10    0.31
  -6  -4  -1    1.07    0.33
   6  -4   1    1.20    0.29
   6   4   1    0.91    0.20
   6   4   1    1.28    0.32
   6  -4   2    2.60    0.35
  -6  -4  -2    1.75    0.37
   6   4   2    1.52    0.34
   6   4   2    1.61    0.26
   6  -4   2    1.94    0.34
   6  -4   3    0.21    0.14
  -6  -4  -3    0.71    0.29
   6   4   3    0.17    0.21
   6  -4   3    0.50    0.20
  -6  -4  -4    4.66    0.38
  -6  -4  -4    5.04    0.60
   6   4   4    4.93    0.59
   6  -4   4    4.88    0.56
  -6   4  -4    4.83    0.61
  -6  -4  -5    0.97    0.31
  -6  -4  -5    0.96    0.19
  -6   4  -5    0.89    0.37
   6   4   5    1.30    0.36
   6  -4   5    1.43    0.34
  -6   4  -6   29.26    1.55
  -6  -4  -6   29.35    1.45
   6   4   6   28.90    1.44
  -6  -4  -6   28.01    0.91
   6  -4   6   30.55    1.39
  -6   4  -7   12.92    1.04
  -6  -4  -7   14.09    1.02
   6   4   7   12.99    0.98
  -6  -4  -7   14.82    0.67
   6  -4   7   12.94    0.93
  -6  -4  -8    4.60    0.59
  -6   4  -8    4.13    0.61
   6   4   8    4.52    0.60
  -6  -4  -8    4.76    0.39
   6  -4   8    3.92    0.54
  -6  -4  -9    0.39    0.15
  -6  -4  -9    0.28    0.23
  -6   4  -9    0.51    0.26
   6   4   9    0.21    0.18
   6  -4   9    0.85    0.29
  -6  -4 -10   23.55    1.37
  -6  -4 -10   24.05    0.92
   6   4  10   24.07    1.40
   6  -4  10   23.40    1.32
  -6   4 -10   23.18    1.49
  -6  -4 -11    0.59    0.26
  -6   4 -11    0.28    0.20
   6  -4  11    0.62    0.26
  -6  -4 -12    0.24    0.20
  -6   4 -12   -0.09    0.27
   6  -4  12   -0.09    0.18
  -6  -4 -13    5.35    0.70
  -6   4 -13    4.80    0.73
   6  -4  13    4.79    0.67
  -6  -4 -14    0.34    0.21
  -6   4 -14    0.10    0.19
   6  -4  14   -0.13    0.16
  -6  -4 -15    3.61    0.58
  -6   4 -15    4.02    0.70
   6  -4  15    2.81    0.55
  -6  -4 -16    0.65    0.28
  -6   4 -16    0.98    0.39
   6  -4  16    0.83    0.33
  -6  -4 -17    0.79    0.33
  -6   4 -17    0.84    0.42
   6  -4  17    0.53    0.30
  -6   4 -18    0.24    0.21
  -6  -4 -18   -0.31    0.25
   6  -4  18    0.47    0.29
  -6   4 -19    0.25    0.23
  -6  -4 -19   -0.10    0.25
   6  -4  19    0.27    0.27
   6  -5 -20   -0.19    0.24
   6   5 -20    0.45    0.38
  -6  -5  20    0.23    0.27
   6  -5 -19    0.52    0.34
   6   5 -19    0.67    0.34
  -6  -5  19    0.38    0.29
   6  -5 -18   -0.07    0.24
   6   5 -18   -0.05    0.21
  -6  -5  18    0.44    0.34
   6  -5 -17    0.73    0.33
   6   5 -17    0.31    0.28
  -6  -5  17    0.91    0.40
  -6   5  17    0.11    0.13
   6  -5 -16    0.83    0.37
   6   5 -16    0.78    0.38
  -6  -5  16    0.73    0.35
  -6   5  16    1.06    0.31
   6  -5 -15    0.38    0.28
   6   5 -15    0.10    0.27
  -6  -5  15   -0.01    0.20
  -6   5  15   -0.10    0.17
   6  -5 -14    1.35    0.45
   6   5 -14    1.15    0.45
  -6   5  14    0.58    0.27
  -6  -5  14    1.64    0.45
  -6  -5  14    0.81    0.31
   6  -5 -13    0.41    0.22
   6   5 -13    0.48    0.27
  -6   5  13    0.17    0.16
  -6  -5  13   -0.25    0.22
   6  -5 -13    0.36    0.13
  -6  -5  13    0.07    0.13
   6  -5 -12    3.38    0.60
   6   5 -12    2.68    0.56
  -6   5  12    3.06    0.43
  -6  -5  12    3.26    0.59
   6  -5 -12    2.86    0.39
  -6  -5  12    2.76    0.44
   6  -5 -11    0.99    0.38
   6   5 -11    0.99    0.39
  -6   5  11    0.95    0.25
  -6  -5  11    0.78    0.35
   6  -5 -11    0.68    0.21
  -6  -5  11    0.90    0.25
   6  -5 -10    0.42    0.28
   6   5 -10    0.70    0.30
  -6   5  10    0.42    0.19
  -6  -5  10    0.27    0.26
   6  -5 -10    0.37    0.18
  -6  -5  10    0.48    0.18
   6  -5  -9   -0.25    0.21
   6   5  -9   -0.19    0.21
  -6   5   9   -0.06    0.14
  -6  -5   9    0.28    0.24
   6  -5  -9    0.29    0.18
  -6  -5   9   -0.13    0.18
   6  -5  -8    0.20    0.23
   6   5  -8    0.37    0.23
  -6   5   8    0.29    0.14
  -6  -5   8    0.23    0.18
   6  -5  -8    0.27    0.16
  -6  -5   8    0.18    0.11
   6  -5  -7    4.17    0.60
   6   5  -7    4.07    0.61
  -6   5   7    4.11    0.50
  -6  -5   7    4.64    0.65
   6  -5  -7    3.94    0.48
   6   5  -6    0.17    0.19
   6  -5  -6    0.17    0.23
  -6   5   6    0.08    0.12
  -6  -5   6    0.27    0.24
   6  -5  -6    0.12    0.14
   6   5  -5    0.11    0.16
   6  -5  -5    0.11    0.19
  -6   5   5   -0.12    0.17
  -6  -5   5    0.05    0.18
   6  -5  -5   -0.02    0.14
   6   5  -5   -0.07    0.11
   6  -5  -4    4.89    0.62
  -6   5   4    4.14    0.50
  -6  -5   4    4.12    0.59
   6  -5  -4    4.57    0.53
   6   5  -4    4.03    0.57
   6   5  -4    3.28    0.34
  -6  -5   4    3.72    0.41
   6  -5  -3    2.09    0.39
  -6   5   3    1.87    0.36
  -6  -5   3    1.59    0.37
   6  -5  -3    1.93    0.35
  -6  -5   3    1.72    0.27
   6   5  -3    1.06    0.21
   6   5  -3    1.84    0.39
   6  -5  -2    0.20    0.14
  -6   5   2    0.16    0.15
  -6  -5   2   -0.06    0.17
  -6  -5   2    0.23    0.11
   6   5  -2   -0.08    0.13
   6   5  -2    0.05    0.15
   6  -5  -1    2.69    0.41
  -6   5   1    2.59    0.42
  -6  -5   1    3.02    0.49
  -6  -5   1    2.55    0.30
   6   5  -1    1.57    0.27
   6   5  -1    3.30    0.51
   6  -5   0    8.84    0.71
  -6   5   0    8.29    0.74
  -6  -5   0    9.11    0.84
  -6  -5   0    8.47    0.49
   6   5   0    8.30    0.76
   6  -5   0    8.18    0.72
   6   5   0    8.03    0.60
  -6  -5  -1    4.53    0.58
  -6  -5  -1    4.25    0.33
   6   5   1    4.44    0.58
   6  -5   1    3.72    0.52
   6   5   1    3.40    0.41
  -6  -5  -2    6.52    0.69
  -6  -5  -2    6.60    0.38
   6   5   2    7.07    0.70
   6  -5   2    6.54    0.69
  -6  -5  -3    0.01    0.22
  -6  -5  -3    0.09    0.06
  -6   5  -3    0.18    0.18
   6   5   3   -0.03    0.20
   6  -5   3   -0.09    0.23
  -6  -5  -4    9.54    0.85
  -6   5  -4    8.90    0.88
   6   5   4    9.57    0.82
   6  -5   4    8.83    0.83
  -6  -5  -4    8.53    0.41
  -6   5  -5   30.06    1.61
  -6  -5  -5   28.14    1.46
   6   5   5   27.71    1.40
  -6  -5  -5   26.83    0.68
   6  -5   5   30.57    1.49
  -6   5  -6   25.68    1.51
  -6  -5  -6   26.35    1.40
   6   5   6   23.87    1.37
   6  -5   6   25.58    1.41
  -6  -5  -7    1.36    0.37
  -6   5  -7    1.67    0.46
   6   5   7    1.56    0.39
   6  -5   7    1.83    0.45
  -6  -5  -8   31.46    1.54
   6   5   8   30.64    1.53
   6  -5   8   28.27    1.51
  -6   5  -8   29.23    1.66
  -6  -5  -9   10.68    0.94
   6   5   9    9.40    0.89
   6  -5   9    9.95    0.93
  -6   5  -9   10.68    1.03
  -6  -5 -10    1.90    0.40
  -6   5 -10    1.20    0.38
   6   5  10    1.71    0.36
   6  -5  10    1.56    0.44
  -6  -5 -11    0.61    0.26
  -6   5 -11   -0.12    0.27
   6  -5  11    0.20    0.18
  -6  -5 -12    0.76    0.27
  -6   5 -12    0.77    0.31
   6  -5  12    0.99    0.29
  -6  -5 -13    4.00    0.61
  -6   5 -13    4.54    0.71
   6  -5  13    3.65    0.62
  -6  -5 -14    5.76    0.72
  -6   5 -14    5.94    0.86
   6  -5  14    4.08    0.64
  -6  -5 -15    0.44    0.26
  -6   5 -15    0.82    0.39
   6  -5  15    0.78    0.31
  -6  -5 -16    1.91    0.46
  -6   5 -16    1.99    0.56
   6  -5  16    2.78    0.55
  -6  -5 -17    0.03    0.24
  -6   5 -17    0.38    0.34
   6  -5  17   -0.40    0.20
  -6   5 -18    0.70    0.38
  -6  -5 -18   -0.05    0.17
   6  -5  18    0.27    0.27
  -6   5 -19    0.06    0.21
   6  -5  19    0.18    0.22
   6  -6 -19    0.46    0.30
   6   6 -19    0.23    0.31
  -6  -6  19    0.25    0.31
   6  -6 -18   -0.08    0.24
   6   6 -18   -0.34    0.32
  -6  -6  18   -0.21    0.22
  -6   6  18   -0.20    0.24
   6  -6 -17    0.36    0.29
   6   6 -17    0.19    0.30
  -6  -6  17    0.22    0.21
  -6   6  17   -0.04    0.18
   6  -6 -16    1.28    0.43
   6   6 -16    1.62    0.56
  -6  -6  16    2.08    0.60
  -6   6  16    1.80    0.43
   6  -6 -15   -0.06    0.21
   6   6 -15    0.78    0.35
  -6  -6  15    0.32    0.20
  -6   6  15    0.19    0.25
   6  -6 -14    0.20    0.20
   6   6 -14   -0.17    0.23
  -6   6  14   -0.13    0.22
  -6  -6  14    0.03    0.29
   6  -6 -13   -0.11    0.22
   6   6 -13    0.04    0.27
  -6  -6  13    0.36    0.23
  -6  -6  13    0.18    0.17
   6  -6 -12    2.69    0.58
   6   6 -12    2.00    0.50
  -6  -6  12    2.97    0.58
  -6  -6  12    2.20    0.41
   6  -6 -11    0.95    0.29
   6   6 -11    1.13    0.44
  -6  -6  11    1.51    0.42
  -6  -6  11    0.97    0.30
   6  -6 -10    0.04    0.26
   6   6 -10    0.40    0.29
  -6   6  10    0.10    0.11
  -6  -6  10    0.03    0.17
   6  -6 -10    0.14    0.09
  -6  -6  10    0.40    0.21
   6  -6  -9    0.79    0.36
   6   6  -9    0.75    0.31
  -6   6   9    0.01    0.12
  -6  -6   9    0.25    0.24
   6  -6  -9    0.54    0.21
  -6  -6   9    0.26    0.16
   6  -6  -8    1.14    0.34
   6   6  -8    1.19    0.39
  -6   6   8    1.04    0.26
  -6  -6   8    0.88    0.32
   6  -6  -8    1.07    0.26
  -6  -6   8    0.61    0.21
   6  -6  -7    0.32    0.24
   6   6  -7   -0.10    0.18
  -6   6   7    0.38    0.19
  -6  -6   7    0.08    0.19
   6  -6  -7    0.14    0.11
   6  -6  -6    0.37    0.26
   6   6  -6    0.40    0.25
  -6   6   6    0.66    0.26
  -6  -6   6    0.57    0.26
   6  -6  -6    0.38    0.18
   6  -6  -5   -0.10    0.15
   6   6  -5    0.43    0.26
  -6   6   5   -0.10    0.15
  -6  -6   5    0.08    0.18
   6   6  -4    0.33    0.22
   6  -6  -4    0.30    0.16
  -6   6   4    0.77    0.24
  -6  -6   4    0.55    0.24
  -6   6   3    0.87    0.24
  -6  -6   3    0.96    0.33
   6   6  -3    1.35    0.35
  -6   6   2    3.06    0.47
  -6  -6   2    3.64    0.57
   6   6  -2    2.77    0.50
  -6   6   1    0.06    0.17
  -6  -6   1    0.09    0.16
   6   6  -1    0.09    0.17
  -6   6   0    5.96    0.63
  -6  -6   0    7.83    0.78
   6   6   0    6.55    0.70
   6  -6   0    6.61    0.71
  -6  -6  -1   -0.06    0.17
   6  -6   1    0.30    0.18
   6   6   1    0.27    0.22
  -6  -6  -2    6.45    0.69
  -6   6  -2    6.54    0.78
   6   6   2    5.69    0.66
   6  -6   2    6.97    0.75
  -6  -6  -3   16.56    1.12
  -6   6  -3   16.40    1.21
   6   6   3   17.14    1.11
   6  -6   3   16.17    1.16
  -6  -6  -4    1.37    0.33
  -6   6  -4    1.99    0.43
   6   6   4    1.74    0.40
   6  -6   4    0.86    0.30
  -6  -6  -5    1.77    0.38
  -6   6  -5    2.37    0.49
   6   6   5    2.07    0.43
   6  -6   5    1.68    0.39
  -6  -6  -6    0.39    0.18
  -6   6  -6    0.35    0.27
   6   6   6   -0.11    0.22
   6  -6   6    0.83    0.35
  -6  -6  -7    6.52    0.71
   6   6   7    7.39    0.76
   6  -6   7    6.40    0.77
  -6   6  -7    6.18    0.83
  -6  -6  -8    1.46    0.35
  -6   6  -8    1.89    0.48
   6   6   8    1.21    0.31
   6  -6   8    1.43    0.36
  -6  -6  -9    0.50    0.25
  -6   6  -9    0.12    0.24
   6   6   9    0.35    0.23
   6  -6   9    0.75    0.32
  -6  -6 -10    0.53    0.27
  -6   6 -10    0.23    0.22
   6   6  10    0.20    0.15
   6  -6  10    0.79    0.30
  -6  -6 -11    0.89    0.36
  -6   6 -11    1.26    0.44
   6   6  11    1.20    0.35
   6  -6  11    1.12    0.42
  -6  -6 -12   15.08    1.14
  -6   6 -12   16.20    1.38
   6  -6  12   14.59    1.24
  -6  -6 -13    0.72    0.29
  -6   6 -13    0.39    0.26
   6  -6  13    0.66    0.33
  -6  -6 -14   -0.07    0.17
  -6   6 -14   -0.03    0.20
   6  -6  14    0.02    0.22
  -6  -6 -15   -0.22    0.20
  -6   6 -15   -0.13    0.24
   6  -6  15    0.27    0.30
  -6   6 -16    0.80    0.43
   6  -6  16    0.97    0.38
  -6   6 -17    0.36    0.31
   6  -6  17   -0.40    0.26
   6   7 -18   -0.31    0.31
  -6  -7  18    0.34    0.38
  -6   7  18    0.12    0.16
   6   7 -17    1.08    0.45
  -6  -7  17    0.88    0.41
  -6   7  17    0.74    0.34
   6   7 -16    0.73    0.38
  -6  -7  16    0.31    0.26
  -6   7  16   -0.12    0.19
   6   7 -15   -0.02    0.18
  -6  -7  15    0.39    0.34
  -6   7  15   -0.09    0.16
   6   7 -14    0.11    0.27
  -6   7  14    0.16    0.20
  -6  -7  14    0.37    0.34
   6   7 -13    1.11    0.44
  -6  -7  13    2.16    0.55
   6   7 -12    0.37    0.34
  -6  -7  12    0.01    0.19
   6   7 -11   -0.05    0.18
  -6  -7  11    0.17    0.28
  -6  -7  11   -0.12    0.18
   6   7 -10    1.49    0.47
  -6  -7  10    1.68    0.47
  -6  -7  10    1.61    0.40
   6   7  -9    0.06    0.22
  -6  -7   9    0.19    0.23
  -6  -7   9    0.08    0.13
   6   7  -8    2.66    0.57
  -6  -7   8    2.88    0.54
   6   7  -7    0.06    0.16
  -6  -7   7   -0.11    0.22
   6   7  -6    0.55    0.28
  -6   7   6    0.88    0.25
  -6  -7   6    0.32    0.23
  -6   7   5    0.43    0.19
  -6  -7   5    0.13    0.17
   6   7  -4    4.23    0.61
  -6   7   4    4.19    0.51
  -6  -7   4    4.72    0.66
  -6   7   3    0.06    0.11
  -6  -7   3   -0.18    0.17
   6   7  -3    0.32    0.24
  -6   7   2    4.84    0.56
  -6  -7   2    4.94    0.66
   6   7  -2    4.50    0.63
  -6   7   1   -0.06    0.12
  -6  -7   1   -0.08    0.20
   6   7  -1    0.30    0.20
  -6  -7   0   -0.07    0.17
   6   7   0    0.53    0.27
  -6  -7  -1    2.29    0.45
   6  -7   1    1.61    0.39
  -6   7  -1    1.81    0.43
   6   7   1    1.49    0.36
  -6  -7  -2   -0.10    0.23
   6   7   2    0.19    0.18
  -6   7  -2   -0.10    0.18
   6  -7   2   -0.08    0.18
  -6  -7  -3    1.77    0.41
  -6   7  -3    2.17    0.49
   6   7   3    1.75    0.37
   6  -7   3    1.94    0.47
  -6  -7  -4    0.02    0.20
  -6   7  -4    0.34    0.29
   6   7   4    0.14    0.17
   6  -7   4    0.31    0.22
  -6   7  -5    4.95    0.73
  -6  -7  -5    4.32    0.60
   6   7   5    4.79    0.62
   6  -7   5    5.07    0.72
  -6  -7  -6    0.53    0.26
  -6   7  -6    0.42    0.29
   6   7   6    0.54    0.23
  -6  -7  -7    0.11    0.14
  -6   7  -7    0.21    0.20
   6   7   7    0.42    0.20
   6  -7   7    0.42    0.24
  -6  -7  -8    0.45    0.23
  -6   7  -8    0.95    0.42
   6   7   8    0.07    0.14
   6  -7   8    0.74    0.36
  -6  -7  -9    0.15    0.15
  -6   7  -9    0.22    0.18
   6   7   9    0.23    0.17
   6  -7   9    0.15    0.19
  -6  -7 -10    0.13    0.19
  -6   7 -10    0.00    0.30
   6   7  10    0.29    0.19
   6  -7  10    0.27    0.25
  -6  -7 -11   -0.06    0.13
  -6   7 -11   -0.01    0.19
   6   7  11   -0.10    0.18
   6  -7  11    0.20    0.23
  -6  -7 -12    0.00    0.13
  -6   7 -12    0.03    0.26
   6  -7  12    0.46    0.32
  -6   7 -13    0.23    0.27
   6  -7  13    0.42    0.30
  -6   7 -14   -0.06    0.20
   6  -7  14    0.36    0.26
  -6   7 -15    1.70    0.55
   6  -7  15    1.22    0.45
  -6   7 -16    0.36    0.30
   6  -7  16    0.05    0.29
   6   8 -16    1.02    0.43
  -6  -8  16    0.99    0.43
  -6   8  16    0.09    0.22
   6   8 -15    0.15    0.27
  -6  -8  15    0.52    0.36
  -6   8  15   -0.10    0.18
   6   8 -14    0.24    0.26
  -6   8  14   -0.49    0.29
  -6  -8  14    0.12    0.27
   6   8 -13    0.22    0.28
  -6   8  13   -0.07    0.22
   6   8 -12    0.58    0.33
  -6  -8  12    0.64    0.36
   6   8 -11   -0.22    0.18
  -6  -8  11    0.28    0.24
   6   8 -10    1.30    0.42
  -6  -8  10    1.20    0.40
   6   8  -9    0.05    0.21
  -6  -8   9    0.08    0.19
   6   8  -8    1.92    0.46
  -6  -8   8    1.48    0.43
   6   8  -7    0.14    0.16
  -6  -8   7    0.52    0.30
   6   8  -6    1.85    0.50
  -6  -8   6    2.45    0.55
   6   8  -5    2.68    0.53
  -6  -8   5    2.79    0.55
   6   8  -4    0.33    0.23
   6   8  -4    0.19    0.14
  -6   8   3    3.04    0.45
   6   8  -3    3.58    0.41
  -6  -8   3    3.89    0.63
   6   8  -3    3.16    0.57
  -6   8   2    4.32    0.54
  -6  -8   2    4.39    0.64
   6   8  -2    4.39    0.46
   6   8  -2    4.46    0.64
  -6   8   1    1.93    0.40
  -6  -8   1    1.94    0.44
   6   8  -1    2.04    0.34
   6   8  -1    2.32    0.45
  -6  -8   0    3.66    0.60
   6   8   0    3.34    0.44
  -6   8   0    2.99    0.59
   6   8   0    3.65    0.57
  -6   8  -1    6.01    0.81
  -6  -8  -1    6.70    0.77
   6  -8   1    6.51    0.82
   6   8   1    6.59    0.62
   6   8   1    6.21    0.72
   6   8   2    0.65    0.25
  -6  -8  -2    0.32    0.21
  -6   8  -2    0.38    0.30
   6  -8   2    1.03    0.36
   6   8   2    0.59    0.23
   6   8   3    0.66    0.23
  -6  -8  -3    0.34    0.23
  -6   8  -3    0.26    0.19
   6  -8   3    0.41    0.31
   6   8   3    0.33    0.23
  -6  -8  -4    0.54    0.23
  -6   8  -4    0.59    0.30
   6   8   4    1.07    0.29
   6   8   4    0.36    0.24
   6  -8   4    0.92    0.37
  -6  -8  -5    1.03    0.33
  -6   8  -5    0.90    0.38
   6   8   5    1.29    0.32
   6   8   5    0.84    0.28
   6  -8   5    0.67    0.25
  -6  -8  -6    0.04    0.14
  -6   8  -6    0.12    0.24
   6   8   6    0.19    0.18
   6  -8   6    0.05    0.19
  -6  -8  -7   -0.09    0.19
  -6   8  -7    0.32    0.32
   6   8   7   -0.01    0.20
   6  -8   7   -0.04    0.26
  -6  -8  -8    0.42    0.24
  -6   8  -8    0.88    0.40
   6   8   8    0.52    0.23
   6  -8   8    0.57    0.39
  -6  -8  -9    2.84    0.48
  -6   8  -9    2.49    0.60
   6   8   9    2.86    0.50
   6  -8   9    2.54    0.60
  -6   8 -10    1.31    0.45
   6  -8  10    1.13    0.42
  -6   8 -11    0.38    0.34
   6  -8  11    0.57    0.32
  -6   8 -12    0.72    0.39
   6  -8  12    0.33    0.25
  -6   8 -13    0.57    0.40
   6  -8  13    0.57    0.36
  -6   8 -14    0.42    0.23
   6  -8  14    0.17    0.28
   6   9 -13   -0.06    0.23
  -6   9  13   -0.32    0.25
  -6  -9  13   -0.09    0.19
   6   9 -12    2.49    0.59
  -6  -9  12    1.67    0.55
   6   9 -11   -0.29    0.27
  -6  -9  11    0.17    0.26
   6   9 -10    1.58    0.47
  -6  -9  10    1.34    0.44
   6   9  -9   -0.11    0.24
  -6  -9   9   -0.10    0.25
   6   9  -8    2.01    0.53
  -6  -9   8    1.70    0.48
   6   9  -7    0.05    0.23
  -6  -9   7    0.17    0.21
   6   9  -6   -0.22    0.24
  -6  -9   6    0.13    0.19
   6   9  -5   -0.10    0.19
  -6  -9   5   -0.07    0.19
   6   9  -4    0.20    0.19
  -6  -9   4    0.13    0.17
  -6  -9   3    0.17    0.17
   6   9  -3    0.17    0.14
   6   9  -3    0.25    0.19
  -6  -9   2    0.31    0.21
   6   9  -2    0.70    0.22
   6   9  -2    0.46    0.25
  -6  -9   1    0.27    0.21
   6   9  -1    0.67    0.23
  -6   9   1    0.26    0.25
   6   9  -1    0.15    0.22
  -6   9   0    5.20    0.78
  -6  -9   0    5.97    0.74
   6   9   0    4.96    0.56
   6   9   0    4.73    0.66
  -6  -9  -1    4.72    0.67
   6   9   1    4.12    0.52
   6   9   1    4.81    0.66
  -6   9  -1    4.41    0.75
  -6   9  -2   12.16    1.16
  -6  -9  -2   11.19    1.01
   6   9   2   10.64    0.84
   6   9   2   11.61    1.01
   6  -9   2   10.98    1.15
   6   9   3    1.24    0.31
  -6  -9  -3    1.44    0.39
  -6   9  -3    0.85    0.34
   6  -9   3    1.28    0.45
   6   9   3    0.86    0.30
  -6  -9  -4    0.31    0.26
  -6   9  -4    0.68    0.34
   6   9   4    0.78    0.29
   6   9   4    0.48    0.25
   6  -9   4    1.10    0.41
  -6  -9  -5    4.10    0.60
   6   9   5    4.39    0.57
  -6   9  -5    4.01    0.69
   6   9   5    3.83    0.57
   6  -9   5    4.59    0.76
  -6  -9  -6    0.11    0.24
  -6   9  -6    0.42    0.22
   6   9   6    0.45    0.23
   6  -9   6   -0.12    0.26
   6   9   7    0.28    0.24
  -6   9  -7    0.19    0.27
   6  -9   7    0.44    0.31
   6   9   8    0.98    0.32
  -6   9  -8    0.91    0.37
   6  -9   8    0.35    0.25
  -6   9  -9    0.23    0.25
   6  -9   9    0.20    0.30
  -6   9 -10    0.33    0.36
   6  -9  10    0.13    0.26
  -6   9 -11    1.94    0.54
   6  -9  11    0.80    0.34
   6  10  -9    0.83    0.40
  -6 -10   9    1.45    0.47
   6  10  -8    0.27    0.31
  -6 -10   8   -0.01    0.21
   6  10  -7    0.51    0.31
  -6 -10   7    1.17    0.40
   6  10  -6    1.87    0.49
  -6 -10   6    2.36    0.55
   6  10  -5    0.39    0.28
  -6 -10   5    0.37    0.23
   6  10  -4    0.03    0.21
  -6 -10   4    0.53    0.26
  -6 -10   3    0.06    0.18
  -6  10   3   -0.34    0.22
   6  10  -3   -0.04    0.15
  -6 -10   2    0.29    0.19
   6  10  -2    0.09    0.14
   6  10  -1   -0.05    0.13
  -6 -10   1    0.09    0.21
  -6  10   1    0.09    0.21
   6  10  -1   -0.28    0.25
   6  10   0    0.15    0.13
  -6 -10   0    0.45    0.24
  -6  10   0    0.14    0.30
   6  10   0   -0.08    0.18
  -6 -10  -1   -0.15    0.20
   6  10   1    0.00    0.12
  -6  10  -1    0.06    0.18
   6  10   1    0.03    0.16
  -6 -10  -2    0.66    0.31
  -6  10  -2    0.20    0.25
   6  10   2    0.45    0.24
   6  10   2    0.07    0.17
  -6  10  -3    1.24    0.45
   6 -10   3    1.57    0.45
   6  10   3    1.08    0.30
   6  10   4    0.22    0.17
  -6  10  -4    0.10    0.28
   6 -10   4   -0.04    0.19
   6  10   5    0.14    0.14
  -6  10  -5    0.19    0.21
  -6  10  -6    1.38    0.47
   6  10   6    1.49    0.36
   6 -10   6    1.57    0.48
  -6  10  -7   -0.12    0.32
   6 -10   7   -0.24    0.25
   6  10   7    0.52    0.26
  -6  10  -8   -0.02    0.26
   6  10   8    0.60    0.31
   6 -10   8    0.07    0.26
   7   0 -21    0.18    0.22
  -7   0  21    0.35    0.27
   7   0 -20   -0.37    0.25
  -7   0  20   -0.07    0.29
   7   0 -19   -0.01    0.16
  -7   0  19    0.23    0.26
   7   0 -18    0.01    0.15
  -7   0  18    0.08    0.17
   7   0 -17    0.08    0.23
  -7   0  17    0.48    0.30
   7   0 -16    0.06    0.18
  -7   0  16   -0.22    0.29
  -7   0  15    9.36    0.98
   7   0 -15    9.97    0.97
   7   0 -14    0.14    0.26
  -7   0  14    0.00    0.19
   7   0 -13    1.58    0.42
  -7   0  13    2.03    0.46
   7   0 -12   -0.09    0.17
  -7   0  12   -0.20    0.22
  -7   0  11    1.92    0.44
   7   0 -11    0.69    0.31
  -7   0  10    0.12    0.20
   7   0 -10    0.13    0.20
  -7   0   9    0.66    0.26
   7   0  -9    0.54    0.26
  -7   0   8   -0.01    0.17
   7   0  -8    0.16    0.15
  -7   0   7    0.32    0.21
   7   0  -7    0.18    0.21
  -7   0   6   -0.17    0.19
   7   0  -6    0.08    0.23
  -7   0   5    3.97    0.56
   7   0  -5    4.64    0.60
  -7   0   4    0.28    0.23
   7   0  -4   -0.03    0.20
  -7   0   3    0.13    0.19
   7   0  -3   -0.06    0.16
  -7   0   2   -0.07    0.17
   7   0  -2    0.19    0.17
  -7   0   1    3.85    0.57
   7   0  -1    4.79    0.59
  -7   0   0   -0.01    0.16
   7   0   0    0.13    0.16
  -7   0  -1   12.71    0.99
   7   0   1   13.14    1.00
  -7   0  -2    0.03    0.17
   7   0   2    0.06    0.16
   7   0   2   -0.04    0.07
  -7   0  -3    0.19    0.24
   7   0   3    0.03    0.15
   7   0   3    0.22    0.10
  -7   0  -4    0.23    0.23
   7   0   4   -0.14    0.16
   7   0   4   -0.04    0.08
  -7   0  -5    2.84    0.48
   7   0   5    3.39    0.54
  -7   0  -5    3.16    0.50
   7   0   5    2.85    0.30
  -7   0  -6   -0.07    0.17
   7   0   6   -0.10    0.18
  -7   0  -6   -0.09    0.16
  -7   0  -7    0.98    0.36
  -7   0  -7    0.35    0.18
   7   0   7    0.39    0.21
  -7   0  -8    0.32    0.17
  -7   0  -8    0.07    0.15
  -7   0  -9    0.40    0.21
  -7   0 -10   -0.10    0.20
  -7   0 -11    0.28    0.18
  -7   0 -12    0.08    0.19
  -7   0 -13    7.66    0.81
  -7   0 -14    0.03    0.21
  -7   0 -15    0.39    0.23
  -7   0 -16    0.41    0.30
  -7   0 -17    1.14    0.41
  -7   0 -18    0.09    0.19
  -7   0 -19    0.28    0.28
   7  -1 -21    0.03    0.18
   7   1 -21   -0.13    0.21
  -7   1  21   -0.03    0.19
  -7  -1  21    0.33    0.31
   7  -1 -20   -0.29    0.22
   7   1 -20    0.03    0.19
  -7   1  20   -0.13    0.25
  -7  -1  20   -0.52    0.31
   7  -1 -19    0.23    0.21
   7   1 -19    0.13    0.23
  -7   1  19   -0.02    0.19
  -7  -1  19   -0.11    0.26
   7  -1 -18    0.23    0.23
   7   1 -18    0.42    0.27
  -7   1  18    0.03    0.19
  -7  -1  18   -0.16    0.23
   7  -1 -17    0.12    0.14
   7   1 -17    0.01    0.21
  -7   1  17   -0.12    0.18
  -7  -1  17   -0.12    0.19
   7  -1 -16    0.39    0.25
   7   1 -16    0.07    0.23
  -7   1  16   -0.31    0.23
  -7  -1  16    0.25    0.22
  -7   1  15    5.80    0.76
  -7  -1  15    5.98    0.81
   7  -1 -15    4.92    0.68
   7   1 -15    4.68    0.73
   7  -1 -14    3.50    0.55
  -7  -1  14    4.22    0.70
  -7   1  14    4.14    0.62
   7   1 -14    4.37    0.66
   7   1 -13    1.34    0.43
  -7   1  13    0.86    0.32
  -7  -1  13    1.70    0.45
   7  -1 -13    1.16    0.33
   7   1 -12    0.27    0.22
  -7   1  12    0.04    0.17
  -7  -1  12    0.73    0.33
   7  -1 -12    0.32    0.22
   7   1 -11    0.16    0.22
  -7   1  11    0.55    0.25
  -7  -1  11    0.30    0.23
   7  -1 -11    0.55    0.29
   7   1 -10    1.74    0.43
  -7   1  10    1.27    0.35
  -7  -1  10    2.24    0.46
   7  -1 -10    1.62    0.39
  -7   1   9    0.03    0.16
  -7  -1   9    0.31    0.25
   7  -1  -9   -0.05    0.17
   7   1  -9    0.23    0.18
  -7   1   8    0.59    0.27
  -7  -1   8    0.55    0.30
   7  -1  -8    0.84    0.28
   7   1  -8    0.71    0.33
  -7   1   7    8.30    0.83
  -7  -1   7    9.49    0.91
   7  -1  -7   10.36    0.86
   7   1  -7    9.56    0.89
  -7   1   6    0.34    0.23
  -7  -1   6   -0.02    0.15
   7  -1  -6    0.43    0.24
   7   1  -6   -0.07    0.15
  -7   1   5    1.73    0.41
  -7  -1   5    2.13    0.44
   7  -1  -5    1.95    0.41
   7   1  -5    2.51    0.46
  -7   1   4    1.96    0.41
  -7  -1   4    1.31    0.36
   7  -1  -4    1.19    0.32
   7   1  -4    1.39    0.36
  -7   1   3    1.32    0.36
  -7  -1   3    1.88    0.41
   7  -1  -3    1.45    0.37
   7   1  -3    1.32    0.37
  -7   1   2    0.02    0.17
  -7  -1   2    0.02    0.17
   7  -1  -2    0.54    0.22
   7   1  -2    0.16    0.22
  -7   1   1    7.51    0.74
  -7  -1   1    7.77    0.78
   7  -1  -1    6.77    0.69
   7   1  -1    7.27    0.73
  -7   1   0    1.31    0.36
  -7  -1   0    1.05    0.32
   7  -1   0    1.22    0.32
   7   1   0    1.45    0.34
  -7   1  -1    0.49    0.27
  -7  -1  -1    0.48    0.24
   7  -1   1    0.98    0.29
   7   1   1    0.13    0.18
   7  -1   1    0.65    0.12
   7   1   1    0.40    0.06
  -7   1  -2    1.23    0.35
  -7  -1  -2    1.09    0.33
   7  -1   2    1.64    0.39
   7   1   2    1.50    0.37
   7   1   2    0.92    0.13
   7  -1   2    1.01    0.18
  -7   1  -3    1.63    0.38
  -7  -1  -3    2.53    0.48
   7  -1   3    2.73    0.47
   7   1   3    2.33    0.45
   7  -1   3    2.10    0.26
  -7   1  -4    1.30    0.35
  -7  -1  -4    1.33    0.35
   7  -1   4    1.47    0.36
   7   1   4    1.44    0.40
   7  -1   4    1.34    0.23
  -7   1  -5    0.20    0.25
  -7  -1  -5    0.11    0.21
   7  -1   5    0.23    0.22
   7   1   5    0.05    0.19
  -7  -1  -5    0.08    0.12
  -7   1  -5    0.18    0.23
   7  -1   5    0.03    0.09
  -7  -1  -6    7.24    0.68
  -7   1  -6    7.30    0.78
  -7  -1  -6    8.40    0.83
  -7   1  -6    7.73    0.78
   7  -1   6    7.11    0.78
   7   1   6    6.91    0.76
   7  -1   6    6.74    0.52
  -7  -1  -7    1.49    0.40
  -7  -1  -7    1.86    0.37
  -7   1  -7    1.56    0.37
   7   1   7    1.28    0.40
   7  -1   7    2.49    0.34
  -7  -1  -8   15.06    1.13
   7   1   8   13.86    1.10
   7  -1   8   13.54    0.79
  -7  -1  -8   14.75    0.99
  -7   1  -8   14.00    1.05
  -7  -1  -9    2.83    0.54
  -7  -1  -9    2.98    0.47
  -7   1  -9    3.87    0.58
   7  -1   9    3.03    0.42
  -7  -1 -10    0.07    0.20
  -7  -1 -10    0.03    0.17
  -7   1 -10    0.03    0.20
  -7  -1 -11    0.64    0.27
  -7   1 -11    0.87    0.29
  -7  -1 -12    0.31    0.20
  -7   1 -12    0.00    0.18
  -7  -1 -13    0.72    0.25
  -7   1 -13    1.72    0.44
  -7  -1 -14    0.72    0.27
  -7   1 -14    0.56    0.30
  -7  -1 -15    0.79    0.26
  -7   1 -15    1.18    0.38
  -7  -1 -16    0.07    0.14
  -7   1 -16   -0.01    0.22
  -7  -1 -17    2.48    0.50
  -7   1 -17    3.53    0.60
  -7   1 -18    3.94    0.67
  -7  -1 -18    4.17    0.64
  -7   1 -19    1.84    0.50
   7  -2 -21   -0.09    0.16
   7  -2 -21    0.71    0.39
   7   2 -21    0.44    0.37
  -7  -2  21    0.47    0.38
  -7   2  21    0.51    0.32
   7  -2 -20   -0.21    0.19
   7   2 -20    0.26    0.32
  -7   2  20   -0.16    0.22
  -7  -2  20    0.22    0.24
   7  -2 -19   -0.03    0.15
   7   2 -19    0.24    0.26
  -7   2  19   -0.20    0.20
  -7  -2  19    0.32    0.30
   7  -2 -18    0.49    0.28
   7   2 -18   -0.02    0.18
  -7   2  18    0.13    0.18
  -7  -2  18    0.43    0.26
   7  -2 -17    0.48    0.27
   7   2 -17    0.52    0.32
  -7   2  17    0.38    0.25
  -7  -2  17    0.19    0.25
   7   2 -16    0.50    0.38
  -7   2  16    0.16    0.21
  -7  -2  16   -0.02    0.17
   7  -2 -16    0.27    0.21
   7   2 -15    0.21    0.28
  -7   2  15    0.63    0.28
  -7  -2  15    1.08    0.37
   7  -2 -15    0.44    0.20
   7   2 -14    0.46    0.31
  -7   2  14    0.70    0.29
  -7  -2  14    1.11    0.39
   7  -2 -14    1.27    0.34
   7   2 -13    1.34    0.38
  -7   2  13    0.83    0.32
  -7  -2  13    1.50    0.45
   7  -2 -13    1.20    0.33
   7   2 -12    0.60    0.33
  -7   2  12    0.53    0.26
   7  -2 -12    0.60    0.23
   7   2 -11    0.15    0.19
  -7   2  11    0.39    0.24
  -7  -2  11    0.41    0.26
   7  -2 -11    0.13    0.13
   7   2 -10    0.44    0.32
  -7   2  10   -0.26    0.18
  -7  -2  10    0.18    0.22
   7  -2 -10    0.31    0.15
   7   2  -9    0.00    0.20
  -7   2   9   -0.17    0.14
  -7  -2   9    0.02    0.19
   7  -2  -9    0.36    0.23
  -7   2   8    0.15    0.18
  -7  -2   8    0.32    0.22
   7  -2  -8    0.36    0.23
   7   2  -8    0.01    0.17
  -7   2   7    0.42    0.21
   7  -2  -7    0.12    0.14
  -7   2   6    0.56    0.27
  -7  -2   6    0.19    0.18
  -7  -2   6    0.23    0.09
   7  -2  -6    0.23    0.21
   7   2  -6    0.43    0.26
  -7  -2   5    0.35    0.13
  -7   2   5    0.07    0.14
  -7  -2   5    0.17    0.20
   7  -2  -5    0.14    0.15
   7   2  -5    0.16    0.19
  -7   2   4    2.80    0.47
  -7  -2   4    2.92    0.53
   7  -2  -4    2.70    0.44
   7   2  -4    2.63    0.48
  -7   2   3    5.34    0.64
  -7  -2   3    6.31    0.71
   7  -2  -3    5.86    0.64
   7   2  -3    5.87    0.68
  -7   2   2    0.26    0.16
  -7  -2   2    0.22    0.17
   7  -2  -2    0.64    0.25
   7   2  -2    0.67    0.28
  -7   2   1    0.20    0.16
  -7  -2   1    0.23    0.23
   7  -2  -1    0.60    0.27
   7   2  -1    0.60    0.27
  -7   2   0   11.55    0.91
  -7  -2   0   11.63    0.96
   7  -2   0   11.70    0.92
   7   2   0   10.44    0.89
   7  -2   0   10.13    0.53
  -7   2  -1    0.95    0.32
  -7  -2  -1    0.73    0.28
   7  -2   1    0.43    0.25
   7   2   1    0.85    0.26
   7   2   1    0.42    0.09
   7  -2   1    0.79    0.19
  -7   2  -2    1.90    0.39
  -7  -2  -2    2.81    0.48
   7  -2   2    2.57    0.47
   7   2   2    2.63    0.44
   7  -2   2    2.03    0.28
  -7   2  -3    1.58    0.37
  -7  -2  -3    1.65    0.38
   7  -2   3    1.59    0.38
   7   2   3    1.33    0.33
   7  -2   3    1.21    0.22
  -7   2  -4    0.00    0.21
  -7  -2  -4    0.02    0.22
   7  -2   4    0.04    0.18
   7   2   4   -0.01    0.18
  -7  -2  -4    0.29    0.19
  -7   2  -4   -0.02    0.18
   7  -2   4    0.02    0.10
  -7   2  -5    9.51    0.89
  -7  -2  -5    7.73    0.81
  -7  -2  -5    8.43    0.68
  -7   2  -5    9.41    0.87
   7   2   5    9.49    0.89
   7  -2   5    7.98    0.61
  -7  -2  -6    0.44    0.22
  -7  -2  -6    0.60    0.22
   7   2   6    0.44    0.25
  -7   2  -6    0.55    0.25
   7  -2   6    0.60    0.20
  -7  -2  -7    2.07    0.47
  -7  -2  -7    1.67    0.32
  -7   2  -7    1.19    0.34
   7   2   7    2.05    0.42
   7  -2   7    1.75    0.31
  -7  -2  -8    1.78    0.43
  -7  -2  -8    1.61    0.34
  -7   2  -8    1.57    0.40
   7   2   8    1.94    0.42
   7  -2   8    1.16    0.27
  -7  -2  -9    5.99    0.74
   7   2   9    5.92    0.74
  -7  -2  -9    6.61    0.62
   7  -2   9    5.68    0.57
  -7   2  -9    5.83    0.74
  -7  -2 -10    0.32    0.23
  -7  -2 -10    0.28    0.17
  -7   2 -10    0.08    0.19
   7  -2  10    0.38    0.20
  -7  -2 -11    0.25    0.28
  -7  -2 -11   -0.08    0.11
  -7   2 -11    0.36    0.20
   7  -2  11    0.18    0.22
  -7  -2 -12    0.14    0.21
  -7  -2 -12    0.06    0.12
  -7   2 -12    0.03    0.20
   7  -2  12    0.25    0.22
  -7  -2 -13    0.35    0.28
  -7  -2 -13    1.22    0.29
  -7   2 -13    0.74    0.28
   7  -2  13    0.87    0.31
   7  -2  14    0.58    0.30
  -7  -2 -14    0.43    0.21
  -7   2 -14    0.11    0.30
  -7  -2 -15    9.00    0.81
  -7   2 -15    8.67    0.98
   7  -2  15    7.93    0.79
   7  -2  16    2.13    0.47
  -7   2 -16    1.38    0.44
   7  -2  17    0.83    0.31
  -7   2 -17    0.37    0.30
  -7   2 -18    5.74    0.83
   7  -2  18    4.37    0.63
   7  -2  19    0.90    0.37
  -7   2 -19    0.78    0.38
   7  -3 -20    0.25    0.34
   7   3 -20    0.39    0.34
  -7  -3  20    0.59    0.32
   7  -3 -19    0.09    0.28
   7   3 -19    0.49    0.34
  -7  -3  19    0.14    0.23
   7  -3 -18    0.79    0.36
   7   3 -18    1.01    0.43
  -7   3  18    0.83    0.30
  -7  -3  18    0.83    0.42
   7  -3 -18    0.40    0.25
   7   3 -17   -0.16    0.21
  -7   3  17    0.14    0.16
  -7  -3  17   -0.07    0.22
   7  -3 -17    0.06    0.16
   7  -3 -16    0.19    0.24
   7   3 -16    0.26    0.24
  -7   3  16    0.00    0.16
  -7  -3  16    0.17    0.24
   7  -3 -16    0.13    0.19
   7   3 -15    0.42    0.31
   7  -3 -15   -0.07    0.18
  -7   3  15    0.04    0.16
  -7  -3  15    0.42    0.30
   7  -3 -15    0.36    0.21
   7   3 -14   -0.39    0.25
  -7   3  14   -0.13    0.23
  -7  -3  14   -0.04    0.23
   7  -3 -14    0.15    0.18
   7   3 -13    1.57    0.47
   7  -3 -13    1.97    0.49
  -7   3  13    1.50    0.38
  -7  -3  13    1.19    0.39
   7  -3 -13    1.44    0.37
   7   3 -12    0.50    0.37
  -7   3  12    0.49    0.24
  -7  -3  12    0.96    0.37
   7  -3 -12    0.69    0.26
  -7   3  11    5.46    0.68
  -7  -3  11    5.31    0.73
   7  -3 -11    5.31    0.62
   7   3 -11    5.00    0.70
   7   3 -10    0.99    0.37
  -7   3  10    0.50    0.24
  -7  -3  10    0.94    0.36
   7  -3 -10    1.02    0.29
   7   3  -9    1.80    0.48
  -7   3   9    1.55    0.37
  -7  -3   9    2.03    0.47
   7  -3  -9    1.97    0.40
   7   3  -8    0.28    0.25
  -7   3   8    0.15    0.17
  -7  -3   8    0.37    0.28
   7  -3  -8    0.17    0.20
  -7   3   7    5.55    0.66
  -7  -3   7    6.97    0.80
   7  -3  -7    6.31    0.66
   7   3  -7    7.08    0.79
  -7   3   6    0.38    0.27
  -7  -3   6    0.94    0.32
   7  -3  -6    0.62    0.22
   7   3  -6    0.01    0.20
  -7   3   5    1.40    0.39
  -7  -3   5    1.28    0.32
  -7  -3   5    0.96    0.18
   7  -3  -5    0.99    0.28
   7   3  -5    1.87    0.43
  -7   3   4    0.44    0.24
  -7  -3   4   -0.22    0.25
   7  -3  -4   -0.13    0.20
  -7  -3   4    0.15    0.11
   7   3  -4    0.43    0.24
  -7   3   3    1.14    0.31
  -7  -3   3    0.76    0.30
   7  -3  -3    0.43    0.22
   7   3  -3    0.93    0.32
  -7   3   2    1.94    0.39
  -7  -3   2    2.36    0.45
   7  -3  -2    2.30    0.42
   7   3  -2    2.36    0.46
  -7   3   1    2.03    0.43
  -7  -3   1    2.44    0.48
   7  -3  -1    2.85    0.47
   7   3  -1    2.82    0.48
  -7   3   0    0.55    0.26
  -7  -3   0    0.31    0.25
   7  -3   0    0.41    0.27
   7  -3   0    0.10    0.10
   7   3   0    0.18    0.06
   7  -3   1   13.59    0.79
  -7   3  -1   13.75    1.03
  -7  -3  -1   14.77    1.07
   7  -3   1   16.25    1.09
   7   3   1   13.74    1.02
   7  -3   1   14.23    0.78
   7  -3   2    5.58    0.49
  -7   3  -2    5.35    0.68
  -7  -3  -2    5.66    0.69
   7  -3   2    6.04    0.69
   7   3   2    6.91    0.74
   7  -3   2    5.69    0.52
   7  -3   3    0.13    0.11
  -7   3  -3    0.14    0.21
  -7  -3  -3   -0.34    0.26
   7  -3   3    0.33    0.26
   7   3   3    0.23    0.17
   7  -3   3   -0.03    0.13
   7  -3   4    0.02    0.11
  -7  -3  -4    0.39    0.21
   7   3   4    0.68    0.31
  -7  -3  -4    0.35    0.17
  -7   3  -4    0.29    0.21
   7  -3   4   -0.04    0.15
   7  -3   5    1.43    0.23
  -7  -3  -5    1.76    0.39
  -7  -3  -5    1.27    0.26
   7   3   5    1.46    0.38
  -7   3  -5    0.76    0.28
   7  -3   5    0.61    0.13
   7  -3   6    0.52    0.14
  -7  -3  -6    0.53    0.21
  -7  -3  -6    0.67    0.21
  -7   3  -6    0.17    0.25
   7   3   6    0.64    0.26
   7  -3   6    0.42    0.17
  -7  -3  -7    3.12    0.53
  -7   3  -7    2.46    0.49
   7   3   7    2.81    0.51
  -7  -3  -7    2.61    0.37
   7  -3   7    2.16    0.37
  -7  -3  -8    4.72    0.64
   7   3   8    4.16    0.60
  -7  -3  -8    4.71    0.49
   7  -3   8    4.14    0.52
  -7   3  -8    4.76    0.70
  -7  -3  -9   -0.06    0.20
  -7  -3  -9    0.11    0.15
  -7   3  -9    0.18    0.16
   7   3   9   -0.26    0.26
   7  -3   9    0.12    0.18
  -7  -3 -10    0.35    0.22
  -7  -3 -10    0.20    0.14
  -7   3 -10   -0.17    0.25
   7   3  10   -0.13    0.19
   7  -3  10    0.21    0.21
  -7  -3 -11    1.22    0.37
  -7  -3 -11    1.02    0.24
  -7   3 -11    0.79    0.29
   7  -3  11    1.00    0.33
  -7  -3 -12    0.18    0.21
  -7   3 -12    0.22    0.18
   7  -3  12    0.53    0.23
  -7  -3 -13    0.50    0.27
  -7   3 -13    0.27    0.27
   7  -3  13    0.60    0.28
  -7  -3 -14    4.60    0.71
  -7   3 -14    4.68    0.76
   7  -3  14    3.72    0.59
  -7  -3 -15    0.60    0.30
  -7   3 -15    0.59    0.35
   7  -3  15    0.38    0.23
  -7  -3 -16    1.51    0.43
  -7   3 -16    1.30    0.45
   7  -3  16    0.98    0.33
  -7  -3 -17    1.76    0.46
  -7   3 -17    2.03    0.55
   7  -3  17    1.52    0.42
  -7  -3 -18    0.07    0.24
  -7   3 -18    0.39    0.24
   7  -3  18    0.51    0.25
   7  -4 -19    0.66    0.35
   7   4 -19    0.52    0.39
  -7  -4  19    1.45    0.49
   7  -4 -18    0.39    0.27
   7   4 -18    0.74    0.38
  -7  -4  18    0.98    0.44
   7  -4 -17    0.14    0.25
   7   4 -17    0.02    0.22
  -7  -4  17    0.47    0.34
   7  -4 -16    0.20    0.24
   7   4 -16    0.00    0.18
  -7  -4  16    0.08    0.20
   7  -4 -15    1.23    0.44
   7   4 -15    0.57    0.33
  -7   4  15    0.42    0.21
  -7  -4  15    0.83    0.39
   7  -4 -15    1.13    0.31
   7  -4 -14    1.51    0.44
   7   4 -14    1.51    0.49
  -7   4  14    1.48    0.37
  -7  -4  14    1.45    0.44
   7  -4 -14    0.99    0.31
   7  -4 -13    0.53    0.33
   7   4 -13    0.13    0.20
  -7   4  13    0.34    0.21
  -7  -4  13    0.80    0.35
   7  -4 -13    0.46    0.22
   7   4 -12    0.72    0.32
   7  -4 -12    0.64    0.39
  -7   4  12    0.59    0.22
  -7  -4  12    0.68    0.27
   7  -4 -12    0.65    0.26
   7   4 -11    0.25    0.25
   7  -4 -11    0.67    0.31
  -7   4  11    0.19    0.17
  -7  -4  11   -0.14    0.20
   7  -4 -11    0.66    0.24
   7   4 -10    1.59    0.45
   7  -4 -10    1.77    0.44
  -7   4  10    1.33    0.35
  -7  -4  10    1.52    0.43
   7  -4 -10    1.64    0.36
   7   4  -9    0.08    0.15
   7  -4  -9    0.41    0.25
  -7   4   9    0.03    0.15
  -7  -4   9    0.10    0.21
   7  -4  -9   -0.01    0.14
   7   4  -8   -0.08    0.22
   7  -4  -8    0.46    0.27
  -7   4   8    0.09    0.15
  -7  -4   8   -0.25    0.25
   7  -4  -8    0.03    0.13
   7   4  -7    0.57    0.29
   7  -4  -7    0.38    0.22
  -7   4   7    0.75    0.25
  -7  -4   7    0.17    0.25
   7  -4  -7    0.33    0.19
   7  -4  -6    0.22    0.19
  -7   4   6    0.31    0.18
  -7  -4   6    0.30    0.26
   7  -4  -6    0.05    0.15
   7   4  -6   -0.23    0.20
   7  -4  -5    0.31    0.21
  -7   4   5   -0.13    0.21
  -7  -4   5    0.03    0.16
   7  -4  -5   -0.07    0.17
   7   4  -5   -0.12    0.20
   7  -4  -4    0.97    0.31
  -7   4   4    1.24    0.32
  -7  -4   4    1.50    0.38
   7  -4  -4    1.21    0.33
   7   4  -4    1.32    0.38
   7  -4  -3    0.28    0.21
  -7   4   3    0.88    0.30
  -7  -4   3    0.21    0.20
   7  -4  -3    0.38    0.21
   7   4  -3    0.61    0.30
   7  -4  -2   10.96    0.82
  -7   4   2   10.03    0.88
  -7  -4   2   11.48    1.00
   7  -4  -2   11.95    0.92
   7   4  -2   12.15    1.00
   7  -4  -1    3.51    0.48
  -7   4   1    2.12    0.41
  -7  -4   1    2.68    0.51
   7  -4  -1    3.22    0.53
   7   4  -1    2.75    0.51
   7  -4   0   12.75    0.85
  -7   4   0   13.67    1.00
  -7  -4   0   14.66    1.09
   7  -4   0   15.78    1.08
   7   4   0   14.53    1.08
   7  -4   0   12.93    0.82
   7  -4   1    1.86    0.37
  -7   4  -1    1.74    0.46
  -7  -4  -1    1.10    0.43
   7   4   1    2.03    0.48
   7  -4   1    1.51    0.32
   7  -4   2   34.92    1.31
  -7   4  -2   37.65    1.71
  -7  -4  -2   43.33    1.88
   7   4   2   40.90    1.80
   7  -4   2   37.88    1.48
   7  -4   3   74.19    1.82
  -7   4  -3   79.01    2.46
  -7  -4  -3   80.97    2.58
   7   4   3   82.00    2.52
   7  -4   3   82.12    2.21
   7  -4   4    9.10    0.62
  -7  -4  -4    8.94    0.61
  -7  -4  -4    9.83    0.95
  -7   4  -4    8.54    0.90
   7   4   4   11.56    0.96
   7  -4   4    9.39    0.80
  -7  -4  -5    1.38    0.39
  -7  -4  -5    1.48    0.24
  -7   4  -5    1.86    0.44
   7   4   5    1.84    0.43
   7  -4   5    1.84    0.38
  -7  -4  -6    5.23    0.68
   7   4   6    4.89    0.69
  -7   4  -6    4.75    0.67
   7  -4   6    4.26    0.56
  -7  -4  -6    5.34    0.46
  -7   4  -7   13.11    1.11
  -7  -4  -7   13.41    1.07
   7   4   7   12.81    1.06
   7  -4   7   13.15    0.97
  -7  -4  -8    3.50    0.57
  -7   4  -8    3.23    0.57
   7   4   8    3.05    0.54
   7  -4   8    3.06    0.50
  -7  -4  -9    0.44    0.27
  -7   4  -9    0.11    0.18
   7   4   9    0.53    0.24
   7  -4   9    0.44    0.25
  -7  -4 -10   -0.20    0.17
  -7   4 -10    0.22    0.24
   7   4  10   -0.22    0.26
   7  -4  10    0.18    0.19
  -7  -4 -11    0.18    0.16
  -7   4 -11    0.04    0.17
   7  -4  11    0.47    0.19
  -7  -4 -12    0.45    0.27
  -7   4 -12    0.01    0.21
   7  -4  12    0.37    0.26
  -7  -4 -13    1.65    0.41
  -7   4 -13    1.39    0.45
   7  -4  13    0.95    0.32
  -7  -4 -14    0.31    0.25
  -7   4 -14    0.24    0.26
   7  -4  14    0.13    0.16
  -7  -4 -15    0.22    0.18
  -7   4 -15   -0.01    0.20
   7  -4  15   -0.13    0.21
  -7  -4 -16    0.39    0.29
   7  -4  16    0.50    0.19
  -7  -4 -17    0.44    0.25
  -7   4 -17    0.73    0.38
   7  -4  17    0.05    0.23
   7  -5 -18    0.76    0.34
   7   5 -18    0.77    0.42
  -7  -5  18    0.48    0.30
   7  -5 -17    0.38    0.37
   7   5 -17    0.35    0.27
  -7  -5  17    0.14    0.24
   7  -5 -16    0.53    0.35
   7   5 -16    0.67    0.39
  -7  -5  16   -0.11    0.19
   7  -5 -15    0.94    0.39
   7   5 -15    1.44    0.46
  -7   5  15    0.97    0.32
  -7  -5  15    1.51    0.49
   7  -5 -14   -0.07    0.23
   7   5 -14    0.36    0.28
  -7  -5  14    0.55    0.29
   7  -5 -13    1.37    0.40
   7   5 -13    1.85    0.48
  -7  -5  13    2.06    0.53
   7  -5 -12   -0.08    0.17
   7   5 -12    0.64    0.32
  -7   5  12   -0.03    0.13
  -7  -5  12    0.84    0.37
   7  -5 -12    0.24    0.17
   7  -5 -11    0.31    0.22
   7   5 -11    0.29    0.22
  -7   5  11    0.68    0.24
  -7  -5  11    0.62    0.31
   7  -5 -11    0.76    0.23
   7   5 -10    2.08    0.51
   7  -5 -10    1.52    0.43
  -7   5  10    1.65    0.37
  -7  -5  10    1.53    0.44
   7  -5 -10    1.03    0.29
   7   5  -9    0.12    0.26
   7  -5  -9    0.03    0.20
  -7   5   9   -0.02    0.15
  -7  -5   9   -0.04    0.21
   7  -5  -9   -0.05    0.15
   7   5  -8   -0.01    0.17
   7  -5  -8    0.18    0.17
  -7   5   8   -0.39    0.20
  -7  -5   8    0.13    0.27
   7  -5  -8    0.27    0.19
   7   5  -7   -0.29    0.24
   7  -5  -7    0.03    0.21
  -7   5   7   -0.03    0.19
  -7  -5   7    0.05    0.16
   7  -5  -7   -0.20    0.17
   7   5  -6    1.48    0.40
   7  -5  -6    1.72    0.39
  -7   5   6    2.14    0.41
  -7  -5   6    1.94    0.47
   7  -5  -6    1.46    0.35
   7  -5  -5   -0.01    0.18
  -7   5   5    0.03    0.15
  -7  -5   5    0.03    0.20
   7  -5  -5    0.38    0.18
   7   5  -5    0.02    0.18
   7  -5  -4    0.27    0.22
  -7   5   4   -0.07    0.17
  -7  -5   4   -0.06    0.18
   7  -5  -4    0.06    0.15
   7   5  -4   -0.08    0.19
   7  -5  -3    1.30    0.32
  -7   5   3    1.12    0.32
  -7  -5   3    1.64    0.41
   7  -5  -3    1.95    0.38
   7   5  -3    0.83    0.31
   7  -5  -2    4.96    0.58
  -7   5   2    5.66    0.65
  -7  -5   2    4.53    0.65
   7  -5  -2    5.99    0.69
   7   5  -2    4.85    0.66
   7  -5  -1    2.94    0.46
  -7   5   1    3.12    0.52
  -7  -5   1    2.56    0.48
   7   5  -1    2.19    0.44
   7  -5   0    9.30    0.77
  -7   5   0    9.64    0.88
  -7  -5   0    9.56    0.92
   7   5   0   10.32    0.93
   7  -5   1    3.34    0.46
  -7   5  -1    3.62    0.57
  -7  -5  -1    2.98    0.51
   7  -5   1    2.94    0.50
   7   5   1    3.71    0.58
  -7   5  -2    3.11    0.52
  -7  -5  -2    3.71    0.57
   7  -5   2    3.53    0.51
   7   5   2    3.53    0.56
  -7  -5  -3    5.36    0.69
  -7   5  -3    4.64    0.72
   7   5   3    5.27    0.68
   7  -5   3    5.10    0.61
  -7  -5  -4    2.99    0.54
  -7   5  -4    2.17    0.51
   7   5   4    3.01    0.53
   7  -5   4    3.85    0.55
  -7  -5  -5    0.47    0.27
  -7   5  -5    0.10    0.21
   7   5   5    0.30    0.25
   7  -5   5    0.61    0.26
  -7  -5  -6    3.97    0.62
  -7   5  -6    3.73    0.60
   7   5   6    3.31    0.56
   7  -5   6    4.89    0.65
  -7   5  -7   10.34    1.02
  -7  -5  -7   10.59    0.98
   7   5   7   10.89    0.98
   7  -5   7    9.18    0.89
  -7  -5  -8    7.67    0.85
   7   5   8    6.98    0.82
   7  -5   8    7.80    0.83
  -7   5  -8    7.41    0.88
  -7  -5  -9    0.08    0.26
  -7   5  -9   -0.13    0.28
   7   5   9    0.02    0.16
   7  -5   9    0.43    0.29
  -7  -5 -10    2.02    0.46
  -7   5 -10    1.22    0.43
   7   5  10    1.44    0.41
   7  -5  10    2.11    0.49
  -7  -5 -11   -0.01    0.17
   7   5  11   -0.03    0.19
   7  -5  11   -0.32    0.25
  -7  -5 -12    4.06    0.66
  -7   5 -12    4.71    0.75
   7  -5  12    4.21    0.66
  -7  -5 -13    2.27    0.52
  -7   5 -13    1.80    0.49
   7  -5  13    1.45    0.46
  -7  -5 -14    1.76    0.46
  -7   5 -14    1.73    0.52
   7  -5  14    2.13    0.53
  -7  -5 -15    0.12    0.27
  -7   5 -15    0.06    0.27
   7  -5  15    0.15    0.23
  -7  -5 -16   -0.01    0.16
  -7   5 -16    0.20    0.27
   7  -5  16   -0.51    0.28
   7  -6 -17   -0.09    0.23
   7   6 -17   -0.12    0.21
  -7  -6  17    0.56    0.36
   7  -6 -16    0.32    0.34
   7   6 -16    0.33    0.38
  -7  -6  16    0.26    0.35
   7  -6 -15    0.93    0.45
   7   6 -15    0.68    0.40
  -7   6  15    0.86    0.34
  -7  -6  15    1.65    0.53
   7  -6 -14    0.79    0.38
   7   6 -14    1.01    0.44
  -7  -6  14    1.59    0.47
   7  -6 -13   -0.26    0.30
   7   6 -13    0.17    0.27
  -7  -6  13   -0.06    0.19
   7  -6 -12    0.94    0.41
   7   6 -12    1.25    0.41
  -7  -6  12    0.44    0.30
   7  -6 -11    0.21    0.26
   7   6 -11    0.30    0.28
  -7  -6  11    0.30    0.25
   7  -6 -10    1.60    0.47
   7   6 -10    2.60    0.59
  -7  -6  10    1.68    0.49
   7  -6  -9    0.03    0.24
   7   6  -9    0.30    0.31
  -7   6   9    0.37    0.18
  -7  -6   9    0.44    0.30
   7  -6  -9    0.27    0.15
   7   6  -8    3.84    0.67
   7  -6  -8    3.46    0.60
  -7   6   8    4.30    0.55
  -7  -6   8    4.95    0.74
   7  -6  -8    4.43    0.56
   7   6  -7    1.25    0.40
   7  -6  -7    1.25    0.41
  -7   6   7    1.65    0.37
  -7  -6   7    1.39    0.43
   7  -6  -7    1.38    0.32
   7   6  -6    3.35    0.62
   7  -6  -6    2.72    0.52
  -7   6   6    3.29    0.49
  -7  -6   6    2.80    0.55
   7  -6  -6    3.59    0.50
   7  -6  -5    0.08    0.17
  -7   6   5   -0.01    0.16
  -7  -6   5    0.02    0.17
   7   6  -5    0.01    0.19
   7  -6  -4    2.11    0.46
  -7   6   4    1.55    0.39
  -7  -6   4    2.70    0.55
   7   6  -4    1.76    0.45
   7  -6  -3   13.78    1.08
  -7   6   3   16.12    1.12
  -7  -6   3   16.05    1.24
   7   6  -3   16.44    1.22
  -7   6   2   10.78    0.93
   7   6  -2   11.98    1.05
  -7   6   1   11.24    0.93
  -7  -6   1   12.55    1.11
   7   6  -1    9.66    0.94
  -7   6   0    3.79    0.56
  -7  -6   0    4.64    0.68
   7   6   0    4.37    0.63
  -7   6  -1    4.74    0.62
  -7  -6  -1    5.87    0.74
   7   6   1    5.06    0.67
   7  -6   1    5.83    0.70
  -7  -6  -2    6.67    0.76
  -7   6  -2    7.46    0.88
   7   6   2    6.01    0.71
   7  -6   2    5.87    0.72
  -7  -6  -3    2.64    0.48
  -7   6  -3    2.72    0.58
   7   6   3    2.85    0.51
   7  -6   3    1.87    0.42
  -7  -6  -4    2.89    0.51
  -7   6  -4    2.25    0.54
   7   6   4    2.93    0.51
   7  -6   4    2.31    0.47
  -7   6  -5    7.82    0.89
  -7  -6  -5    6.85    0.78
   7   6   5    7.04    0.81
   7  -6   5    7.29    0.82
  -7  -6  -6    0.39    0.24
  -7   6  -6    0.83    0.33
   7   6   6    0.64    0.32
   7  -6   6    0.32    0.17
  -7  -6  -7    0.52    0.26
  -7   6  -7    0.65    0.33
   7   6   7    0.06    0.16
   7  -6   7    0.66    0.33
  -7  -6  -8    5.57    0.72
   7   6   8    6.21    0.77
   7  -6   8    6.34    0.80
  -7   6  -8    6.51    0.87
  -7  -6  -9    5.16    0.69
   7   6   9    5.12    0.72
   7  -6   9    5.73    0.79
  -7   6  -9    5.03    0.81
  -7  -6 -10    0.79    0.38
  -7   6 -10    0.44    0.29
   7   6  10    0.30    0.24
   7  -6  10    0.23    0.26
  -7  -6 -11    0.27    0.21
  -7   6 -11   -0.05    0.22
   7   6  11    0.16    0.23
   7  -6  11   -0.06    0.19
  -7  -6 -12    0.76    0.33
  -7   6 -12    0.36    0.23
   7  -6  12    0.70    0.29
  -7  -6 -13   -0.28    0.23
  -7   6 -13   -0.06    0.22
   7  -6  13    0.30    0.31
  -7  -6 -14    1.74    0.45
  -7   6 -14    2.20    0.59
   7  -6  14    1.41    0.43
  -7  -6 -15    1.14    0.34
  -7   6 -15    1.22    0.47
   7  -6  15    1.32    0.45
   7  -7 -15   -0.09    0.21
   7   7 -15    0.10    0.20
  -7   7  15   -0.11    0.16
  -7  -7  15    0.35    0.33
   7  -7 -14    0.18    0.31
   7   7 -14    0.28    0.22
  -7   7  14   -0.69    0.34
  -7  -7  14    0.13    0.34
   7  -7 -13    0.59    0.34
   7   7 -13    0.64    0.37
  -7  -7  13    0.85    0.36
   7  -7 -12    0.11    0.20
   7   7 -12    0.27    0.30
  -7  -7  12    0.61    0.35
   7  -7 -11    0.17    0.25
   7   7 -11    0.76    0.38
  -7  -7  11    1.05    0.41
   7  -7 -10   -0.53    0.33
   7   7 -10   -0.27    0.25
  -7  -7  10    0.31    0.27
   7   7  -9    1.13    0.41
  -7  -7   9    0.97    0.44
   7   7  -8    0.94    0.39
  -7  -7   8    0.89    0.39
   7   7  -7   -0.56    0.28
  -7  -7   7   -0.07    0.23
   7   7  -6    0.15    0.19
  -7   7   6    0.30    0.18
  -7  -7   6    0.12    0.19
  -7   7   5    2.23    0.41
  -7  -7   5    2.54    0.53
   7   7  -5    2.50    0.52
  -7   7   4    0.03    0.13
  -7  -7   4   -0.05    0.27
   7   7  -4   -0.38    0.24
  -7   7   3    0.10    0.19
  -7  -7   3   -0.16    0.20
   7   7  -3    0.18    0.16
  -7   7   2    0.04    0.13
  -7  -7   2    0.13    0.21
   7   7  -2    0.08    0.22
  -7   7   1    3.39    0.52
  -7  -7   1    3.98    0.65
   7   7  -1    3.78    0.62
  -7   7   0    0.55    0.22
  -7  -7   0    0.85    0.29
   7   7   0    0.60    0.30
  -7   7  -1    3.37    0.52
  -7  -7  -1    3.43    0.59
   7  -7   1    2.77    0.53
  -7   7  -1    3.45    0.63
   7   7   1    3.50    0.58
  -7  -7  -2    0.34    0.21
  -7   7  -2    0.67    0.32
   7  -7   2    0.26    0.22
   7   7   2    0.26    0.17
  -7  -7  -3    0.55    0.23
  -7   7  -3    0.39    0.28
   7  -7   3    0.47    0.26
  -7  -7  -4    0.12    0.16
  -7   7  -4    0.38    0.21
   7   7   4    0.77    0.31
   7  -7   4    0.66    0.31
  -7  -7  -5   -0.27    0.22
  -7   7  -5    0.51    0.29
   7   7   5   -0.15    0.25
   7  -7   5    0.03    0.16
  -7  -7  -6    4.34    0.65
  -7   7  -6    3.96    0.70
   7   7   6    3.45    0.58
   7  -7   6    3.30    0.60
  -7  -7  -7    0.39    0.31
  -7   7  -7    0.09    0.21
   7   7   7    0.03    0.16
   7  -7   7   -0.06    0.27
  -7  -7  -8    0.25    0.19
  -7   7  -8    0.70    0.36
   7   7   8    0.31    0.18
   7  -7   8    0.76    0.32
  -7  -7  -9    0.24    0.24
  -7   7  -9   -0.23    0.18
   7   7   9   -0.13    0.18
   7  -7   9    0.49    0.32
  -7  -7 -10    2.04    0.46
  -7   7 -10    2.98    0.66
   7   7  10    1.97    0.49
   7  -7  10    1.70    0.48
  -7  -7 -11    0.27    0.21
  -7   7 -11    0.95    0.43
   7   7  11    0.13    0.21
   7  -7  11    0.33    0.30
  -7  -7 -12    0.88    0.28
  -7   7 -12    1.25    0.44
   7  -7  12    1.72    0.51
  -7   7 -13    3.50    0.75
   7  -7  13    3.09    0.67
   7   8 -13    0.46    0.33
  -7  -8  13    0.22    0.29
   7   8 -12   -0.10    0.21
  -7  -8  12    0.00    0.26
   7   8 -11    0.33    0.19
  -7  -8  11   -0.05    0.31
   7   8 -10    0.65    0.34
  -7  -8  10    0.66    0.40
   7   8  -9    0.40    0.29
  -7  -8   9    0.43    0.29
   7   8  -8    2.03    0.57
  -7  -8   8    3.16    0.63
   7   8  -7    0.99    0.37
  -7  -8   7    0.99    0.38
   7   8  -6    0.49    0.33
  -7  -8   6    0.69    0.30
  -7  -8   5    1.12    0.38
   7   8  -5    1.12    0.38
  -7  -8   4   -0.14    0.16
   7   8  -4    0.05    0.20
  -7  -8   3    0.19    0.26
   7   8  -3    0.32    0.28
  -7   8   2    0.48    0.22
  -7  -8   2   -0.12    0.17
   7   8  -2    0.47    0.22
  -7   8   1    0.55    0.22
  -7  -8   1    0.83    0.32
   7   8  -1    0.46    0.25
  -7   8   0    2.74    0.50
  -7  -8   0    2.86    0.56
  -7   8   0    3.04    0.61
   7   8   0    2.92    0.54
  -7   8  -1    0.11    0.13
  -7  -8  -1    0.08    0.19
  -7   8  -1   -0.16    0.24
   7   8   1   -0.07    0.15
  -7  -8  -2    1.78    0.46
  -7   8  -2    1.92    0.51
   7  -8   2    1.84    0.45
   7   8   2    1.22    0.38
  -7  -8  -3    0.08    0.20
  -7   8  -3    0.10    0.20
   7   8   3   -0.34    0.25
   7  -8   3   -0.21    0.23
  -7  -8  -4    4.42    0.66
  -7   8  -4    4.43    0.76
   7   8   4    3.98    0.61
   7  -8   4    3.92    0.67
  -7  -8  -5    1.31    0.39
  -7   8  -5    1.53    0.45
   7   8   5    1.11    0.35
   7  -8   5    1.51    0.46
  -7  -8  -6   -0.28    0.26
  -7   8  -6    0.16    0.22
   7   8   6    0.22    0.22
   7  -8   6    0.26    0.26
  -7  -8  -7    0.86    0.30
  -7   8  -7    1.91    0.53
   7   8   7    1.68    0.41
   7  -8   7    1.75    0.53
  -7  -8  -8    0.20    0.15
  -7   8  -8    0.74    0.33
   7   8   8    0.35    0.24
   7  -8   8    0.33    0.32
  -7  -8  -9    2.12    0.49
  -7   8  -9    1.85    0.53
   7   8   9    2.22    0.49
   7  -8   9    1.95    0.55
  -7   8 -10   -0.10    0.28
   7  -8  10    0.15    0.23
  -7   8 -11    0.77    0.36
   7  -8  11    0.64    0.33
   7   9 -10    0.53    0.30
  -7  -9  10    0.44    0.37
   7   9  -9   -0.17    0.33
  -7  -9   9    0.21    0.20
   7   9  -8   -0.11    0.23
  -7  -9   8   -0.14    0.25
   7   9  -7    0.14    0.17
  -7  -9   7    0.48    0.26
   7   9  -6    0.10    0.19
  -7  -9   6    0.20    0.20
  -7  -9   5    0.00    0.22
   7   9  -5   -0.15    0.21
  -7  -9   4    0.08    0.17
   7   9  -4   -0.23    0.18
  -7  -9   3   -0.20    0.23
   7   9  -3   -0.04    0.18
  -7  -9   2    1.19    0.39
   7   9  -2    1.11    0.38
  -7  -9   1    3.94    0.65
  -7   9   1    4.79    0.79
   7   9  -1    3.55    0.63
  -7  -9   0    0.48    0.24
  -7   9   0    0.81    0.39
   7   9   0    0.13    0.22
  -7  -9  -1    0.32    0.24
  -7   9  -1   -0.08    0.19
   7   9   1    0.08    0.17
  -7  -9  -2    0.24    0.24
  -7   9  -2    0.26    0.24
   7   9   2    0.08    0.16
  -7  -9  -3    0.50    0.26
  -7   9  -3    0.15    0.26
   7   9   3    0.33    0.23
   7  -9   3    0.21    0.22
  -7  -9  -4    0.40    0.24
  -7   9  -4    0.31    0.26
   7   9   4    0.19    0.21
   7  -9   4    0.05    0.17
  -7  -9  -5    2.93    0.55
  -7   9  -5    3.71    0.73
   7   9   5    2.58    0.54
   7  -9   5    3.12    0.65
  -7  -9  -6    0.29    0.26
  -7   9  -6    0.15    0.19
   7  -9   6    0.55    0.35
  -7   9  -7    1.09    0.45
   7  -9   7    0.93    0.41
  -7   9  -8    1.02    0.47
   7  -9   8    1.21    0.44
  -7 -10   3    0.25    0.24
  -7  10   3   -0.04    0.18
   7  10  -3   -0.12    0.18
  -7 -10   2    0.03    0.19
  -7  10   2    0.17    0.26
   7  10  -2    0.28    0.23
  -7 -10   1    0.66    0.33
  -7  10   1    0.43    0.32
   7  10  -1    0.49    0.29
  -7 -10   0    0.88    0.34
  -7  10   0    1.57    0.50
   7  10   0    1.16    0.38
  -7 -10  -1    0.17    0.24
  -7  10  -1    0.07    0.19
   7  10   1    0.08    0.20
   8   0 -19    0.36    0.31
  -8   0  19   -0.07    0.23
   8   0 -18    0.52    0.34
  -8   0  18    0.33    0.27
   8   0 -17    0.09    0.19
  -8   0  17    0.18    0.21
   8   0 -16    0.24    0.26
  -8   0  16   -0.03    0.19
  -8   0  15   -0.14    0.21
   8   0 -15    0.13    0.22
  -8   0  14    0.04    0.18
   8   0 -14    0.28    0.25
  -8   0  13    0.34    0.24
   8   0 -13    0.27    0.17
  -8   0  12    0.58    0.29
   8   0 -12    0.35    0.28
  -8   0  11   -0.14    0.17
   8   0 -11   -0.12    0.17
  -8   0  10    0.02    0.20
   8   0 -10    0.41    0.24
  -8   0   9    0.00    0.21
   8   0  -9    0.09    0.22
  -8   0   8    1.47    0.38
   8   0  -8    1.40    0.39
  -8   0   7   -0.15    0.19
   8   0  -7   -0.11    0.17
  -8   0   6   -0.03    0.16
   8   0  -6    0.24    0.25
  -8   0   5    0.10    0.15
   8   0  -5   -0.07    0.19
  -8   0   4    7.28    0.80
   8   0  -4    7.96    0.84
  -8   0   3   -0.51    0.28
   8   0  -3    0.11    0.22
  -8   0   2    0.12    0.19
   8   0  -2    0.01    0.18
  -8   0   1    0.24    0.17
   8   0  -1    0.17    0.23
  -8   0   0    0.37    0.22
   8   0   0    0.88    0.39
  -8   0  -1    0.24    0.21
   8   0   1    0.10    0.18
  -8   0  -2    1.54    0.41
   8   0   2    1.68    0.41
  -8   0  -3    0.00    0.18
   8   0   3    0.27    0.23
  -8   0  -4   11.79    1.05
  -8   0  -4   12.13    0.96
   8   0   4   14.26    1.12
  -8   0  -5    0.10    0.24
   8   0   5    0.13    0.17
  -8   0  -5    0.24    0.20
   8   0   6    0.11    0.24
  -8   0  -6    0.29    0.27
   8   0   6    0.04    0.08
  -8   0  -7    0.20    0.15
  -8   0  -7   -0.09    0.15
   8   0   7   -0.15    0.20
   8   0   7   -0.02    0.11
  -8   0  -8    9.95    0.99
  -8   0  -8    9.43    0.88
  -8   0  -9    0.72    0.34
  -8   0  -9    0.12    0.20
  -8   0 -10    8.01    0.92
  -8   0 -10    7.37    0.81
  -8   0 -11    0.32    0.31
  -8   0 -11   -0.42    0.23
  -8   0 -12    0.15    0.20
  -8   0 -13    0.00    0.16
  -8   0 -14    1.76    0.44
  -8   0 -15   -0.14    0.16
  -8   0 -16    0.46    0.28
  -8   0 -17    0.08    0.19
   8  -1 -19    0.16    0.24
   8   1 -19    0.25    0.24
  -8   1  19    0.09    0.18
  -8  -1  19    0.28    0.32
   8   1 -18    0.70    0.35
  -8   1  18    0.53    0.32
  -8  -1  18    0.04    0.20
   8  -1 -18    0.50    0.30
   8   1 -17    0.02    0.18
  -8   1  17    0.09    0.21
  -8  -1  17    0.37    0.31
   8  -1 -17    0.05    0.18
   8   1 -16    0.29    0.31
  -8   1  16    0.07    0.18
  -8  -1  16   -0.27    0.25
   8  -1 -16   -0.05    0.15
   8   1 -15    0.19    0.29
  -8   1  15    0.43    0.29
  -8  -1  15    0.28    0.24
   8  -1 -15    0.02    0.16
   8   1 -14    2.60    0.58
  -8   1  14    1.88    0.48
  -8  -1  14    2.33    0.56
   8  -1 -14    1.79    0.47
  -8   1  13    0.21    0.22
  -8  -1  13    0.11    0.21
   8  -1 -13    0.15    0.24
   8   1 -13    0.29    0.26
  -8   1  12    3.78    0.64
  -8  -1  12    4.01    0.66
   8  -1 -12    3.75    0.59
   8   1 -12    3.78    0.64
  -8   1  11   -0.07    0.22
  -8  -1  11    0.04    0.20
   8  -1 -11    0.70    0.32
   8   1 -11    0.49    0.30
  -8   1  10   -0.06    0.21
  -8  -1  10    0.46    0.23
   8  -1 -10   -0.06    0.15
   8   1 -10   -0.01    0.14
  -8   1   9    0.10    0.23
  -8  -1   9    0.03    0.19
   8  -1  -9    0.50    0.26
   8   1  -9   -0.20    0.20
  -8   1   8   -0.02    0.25
  -8  -1   8    0.19    0.22
   8  -1  -8   -0.49    0.25
   8   1  -8   -0.04    0.17
  -8   1   7    0.14    0.19
  -8  -1   7    0.16    0.18
   8  -1  -7    0.29    0.20
   8   1  -7    0.05    0.24
  -8   1   6    0.03    0.20
  -8  -1   6    0.14    0.21
   8  -1  -6    0.21    0.19
   8   1  -6   -0.04    0.21
  -8   1   5    0.18    0.20
  -8  -1   5   -0.07    0.18
   8  -1  -5    0.49    0.25
   8   1  -5    0.00    0.16
  -8   1   4    0.24    0.23
  -8  -1   4    0.28    0.23
   8  -1  -4    0.30    0.25
   8   1  -4    0.11    0.20
  -8   1   3    0.24    0.24
  -8  -1   3    0.31    0.23
   8  -1  -3    0.59    0.27
   8   1  -3    0.51    0.25
  -8   1   2    4.78    0.67
  -8  -1   2    4.38    0.64
   8  -1  -2    4.09    0.62
   8   1  -2    4.28    0.64
  -8   1   1    0.55    0.28
  -8  -1   1    0.44    0.24
   8  -1  -1    1.38    0.39
   8   1  -1    0.70    0.31
  -8   1   0    1.20    0.37
  -8  -1   0    1.16    0.35
   8  -1   0    1.08    0.34
   8   1   0    1.20    0.35
  -8   1  -1    0.29    0.23
  -8  -1  -1    0.25    0.21
   8  -1   1    0.46    0.24
   8   1   1    0.57    0.29
  -8   1  -2    3.34    0.57
  -8  -1  -2    4.23    0.63
   8  -1   2    3.87    0.60
   8   1   2    3.95    0.60
  -8   1  -3    3.71    0.62
  -8  -1  -3    4.68    0.68
   8  -1   3    3.97    0.61
   8   1   3    3.57    0.58
  -8   1  -4    5.85    0.76
  -8  -1  -4    5.15    0.74
  -8  -1  -4    5.77    0.65
  -8   1  -4    5.95    0.72
   8  -1   4    6.19    0.77
   8   1   4    6.55    0.77
  -8  -1  -5    4.70    0.69
  -8  -1  -5    4.09    0.57
  -8   1  -5    3.72    0.59
  -8   1  -5    4.38    0.64
   8  -1   5    5.16    0.71
   8   1   5    4.85    0.69
   8  -1   5    3.93    0.41
  -8  -1  -6    4.08    0.55
  -8   1  -6    5.20    0.70
  -8  -1  -6    5.00    0.73
  -8   1  -6    4.48    0.63
   8  -1   6    5.33    0.74
   8   1   6    4.88    0.72
   8  -1   6    4.64    0.46
  -8   1  -7    2.82    0.57
  -8  -1  -7    2.96    0.57
  -8  -1  -7    2.39    0.44
  -8   1  -7    2.43    0.49
   8   1   7    3.46    0.60
   8  -1   7    3.06    0.39
  -8   1  -8    4.58    0.70
  -8  -1  -8    4.74    0.68
   8   1   8    4.13    0.67
   8  -1   8    3.48    0.43
  -8  -1  -8    3.83    0.54
  -8   1  -8    4.15    0.63
  -8   1  -9    1.64    0.43
  -8  -1  -9    2.04    0.51
  -8  -1  -9    1.78    0.39
  -8   1  -9    1.11    0.38
   8  -1   9    2.07    0.35
  -8  -1 -10    1.85    0.46
  -8  -1 -10    1.27    0.34
  -8   1 -10    1.57    0.43
   8  -1  10    2.04    0.36
  -8  -1 -11    0.74    0.31
  -8  -1 -11    1.20    0.34
  -8   1 -11    1.22    0.39
   8  -1  11    0.82    0.23
   8  -1  12    1.89    0.39
  -8  -1 -12    2.68    0.58
  -8  -1 -12    1.84    0.41
  -8   1 -12    1.60    0.42
   8  -1  13    1.53    0.37
  -8  -1 -13    1.56    0.42
  -8  -1 -13    1.52    0.39
  -8   1 -13    1.78    0.47
  -8  -1 -14   -0.18    0.18
  -8  -1 -14    0.48    0.24
  -8   1 -14    0.26    0.25
  -8  -1 -15    1.91    0.44
  -8   1 -15    2.26    0.52
  -8   1 -16   -0.15    0.21
  -8   1 -17    0.61    0.33
   8   2 -19    0.22    0.36
  -8   2  19   -0.40    0.26
  -8  -2  19    0.63    0.42
   8  -2 -19    0.43    0.26
   8   2 -18    0.15    0.29
  -8   2  18    0.08    0.15
  -8  -2  18    0.50    0.33
   8  -2 -18    0.20    0.19
   8   2 -17    0.06    0.22
  -8   2  17   -0.27    0.23
  -8  -2  17    0.16    0.31
   8  -2 -17    0.22    0.23
   8   2 -16    0.23    0.29
  -8   2  16   -0.14    0.24
  -8  -2  16    0.05    0.21
   8  -2 -16   -0.06    0.14
   8   2 -15    0.03    0.17
  -8   2  15    0.51    0.20
  -8  -2  15    0.18    0.21
   8  -2 -15    0.29    0.21
   8   2 -14    0.00    0.18
  -8   2  14   -0.02    0.19
  -8  -2  14    0.45    0.26
   8  -2 -14   -0.01    0.18
   8   2 -13    2.75    0.55
  -8   2  13    1.73    0.44
  -8  -2  13    1.98    0.52
   8  -2 -13    1.48    0.40
   8   2 -12    0.37    0.31
  -8   2  12    0.59    0.31
  -8  -2  12    1.25    0.42
   8  -2 -12    0.36    0.25
  -8   2  11    2.86    0.54
  -8  -2  11    3.60    0.64
   8  -2 -11    2.42    0.48
   8   2 -11    2.50    0.57
  -8   2  10    0.48    0.28
  -8  -2  10   -0.16    0.20
   8  -2 -10    0.46    0.30
   8   2 -10    0.61    0.32
  -8   2   9    2.22    0.48
  -8  -2   9    3.17    0.58
   8  -2  -9    2.56    0.49
   8   2  -9    2.72    0.54
  -8   2   8    0.40    0.24
  -8  -2   8    0.54    0.32
   8  -2  -8    0.18    0.17
   8   2  -8    0.25    0.26
  -8   2   7    1.91    0.44
  -8  -2   7    2.38    0.50
   8  -2  -7    2.69    0.49
   8   2  -7    1.51    0.42
  -8   2   6    2.12    0.45
  -8  -2   6    2.34    0.52
   8  -2  -6    1.71    0.44
   8   2  -6    1.30    0.38
  -8   2   5    1.88    0.41
  -8  -2   5    1.61    0.41
   8  -2  -5    1.59    0.37
   8   2  -5    2.28    0.46
  -8   2   4    3.47    0.59
  -8  -2   4    3.63    0.62
   8  -2  -4    4.71    0.63
   8   2  -4    3.72    0.58
  -8   2   3   -0.02    0.16
  -8  -2   3   -0.05    0.18
   8  -2  -3    0.12    0.17
   8   2  -3    0.20    0.19
  -8   2   2    1.63    0.41
  -8  -2   2    2.17    0.50
   8  -2  -2    2.11    0.43
   8   2  -2    1.64    0.42
  -8   2   1    0.59    0.30
  -8  -2   1    0.68    0.30
   8  -2  -1    0.71    0.29
   8   2  -1    0.50    0.26
  -8   2   0   -0.41    0.24
  -8  -2   0    0.05    0.16
   8  -2   0    0.04    0.17
   8   2   0    0.07    0.17
  -8   2  -1    0.30    0.23
  -8  -2  -1    0.04    0.20
   8  -2   1   -0.18    0.20
   8   2   1   -0.03    0.22
  -8   2  -2    1.47    0.39
  -8  -2  -2    0.81    0.26
   8  -2   2    1.79    0.45
   8   2   2    2.40    0.48
  -8   2  -3    0.38    0.17
  -8  -2  -3    0.11    0.18
   8  -2   3    0.35    0.22
   8   2   3    0.33    0.19
  -8   2  -4    0.36    0.23
  -8  -2  -4    0.28    0.24
   8  -2   4    0.40    0.21
   8   2   4    0.05    0.21
  -8  -2  -4    0.22    0.20
  -8   2  -4    0.11    0.18
   8  -2   4    0.38    0.16
  -8   2  -5    2.20    0.48
  -8  -2  -5    1.33    0.37
   8   2   5    2.35    0.49
  -8  -2  -5    1.45    0.34
  -8   2  -5    1.91    0.44
   8  -2   5    1.94    0.32
  -8  -2  -6    6.56    0.65
  -8   2  -6    6.92    0.83
  -8  -2  -6    7.46    0.87
  -8   2  -6    6.57    0.80
   8   2   6    7.53    0.86
   8  -2   6    6.52    0.58
  -8   2  -7    0.33    0.30
  -8  -2  -7    0.13    0.17
  -8  -2  -7    0.39    0.17
  -8   2  -7    0.34    0.23
   8   2   7    0.52    0.26
   8  -2   7   -0.09    0.16
  -8  -2  -8    0.04    0.20
  -8  -2  -8    0.10    0.15
  -8   2  -8   -0.09    0.18
   8   2   8    0.25    0.26
   8  -2   8    0.08    0.11
  -8  -2  -9    0.21    0.27
  -8  -2  -9    0.15    0.16
  -8   2  -9    0.26    0.26
   8   2   9   -0.46    0.27
   8  -2   9   -0.19    0.19
  -8  -2 -10    0.76    0.35
  -8  -2 -10    0.48    0.21
  -8   2 -10    0.52    0.27
   8  -2  10    0.22    0.19
  -8  -2 -11    0.54    0.27
  -8  -2 -11    0.10    0.16
  -8   2 -11    0.24    0.24
   8  -2  11    0.69    0.29
  -8  -2 -12    1.48    0.41
  -8   2 -12    2.08    0.48
   8  -2  12    1.58    0.36
  -8  -2 -13    0.16    0.20
  -8   2 -13    0.00    0.22
   8  -2  13    0.02    0.13
  -8  -2 -14    1.15    0.41
  -8   2 -14    0.42    0.27
   8  -2  14    0.37    0.24
  -8  -2 -15    1.09    0.42
  -8   2 -15    1.19    0.41
   8  -2  15    0.44    0.24
  -8  -2 -16    1.52    0.46
  -8   2 -16    1.61    0.45
   8  -2  16    1.84    0.43
   8   3 -18    0.47    0.35
   8  -3 -18    0.11    0.23
  -8  -3  18    0.04    0.21
   8   3 -17    0.40    0.27
   8  -3 -17    0.72    0.36
  -8   3  17   -0.13    0.18
  -8  -3  17    0.31    0.31
   8  -3 -17   -0.09    0.17
   8   3 -16    1.20    0.47
   8  -3 -16    1.26    0.53
  -8   3  16    1.20    0.37
  -8  -3  16    1.73    0.52
   8  -3 -16    0.87    0.33
   8   3 -15    0.03    0.20
   8  -3 -15    0.61    0.38
  -8   3  15    0.27    0.25
  -8  -3  15    0.79    0.38
   8  -3 -15    0.45    0.28
   8   3 -14    0.67    0.34
   8  -3 -14    0.60    0.34
  -8   3  14   -0.03    0.17
  -8  -3  14   -0.02    0.24
   8  -3 -14    0.26    0.20
   8   3 -13    0.59    0.36
  -8   3  13    0.33    0.27
  -8  -3  13    0.53    0.32
   8  -3 -13    0.72    0.29
   8   3 -12    0.77    0.39
  -8   3  12    0.73    0.32
  -8  -3  12    1.32    0.43
   8  -3 -12    1.08    0.33
   8   3 -11    1.87    0.49
  -8   3  11    1.41    0.40
  -8  -3  11    1.75    0.49
   8  -3 -11    0.97    0.31
  -8   3  10    1.78    0.44
  -8  -3  10    2.06    0.51
   8  -3 -10    1.75    0.43
   8   3 -10    2.62    0.58
  -8   3   9    2.65    0.51
  -8  -3   9    2.48    0.56
   8  -3  -9    2.24    0.45
   8   3  -9    2.54    0.55
  -8   3   8    6.26    0.76
  -8  -3   8    5.77    0.80
   8  -3  -8    6.20    0.71
   8   3  -8    5.54    0.80
  -8   3   7    0.21    0.17
  -8  -3   7    0.88    0.38
   8  -3  -7    1.04    0.34
   8   3  -7    1.02    0.38
  -8   3   6    1.94    0.43
  -8  -3   6    2.10    0.47
   8  -3  -6    1.85    0.42
   8   3  -6    2.53    0.54
  -8   3   5    1.56    0.40
  -8  -3   5    1.78    0.43
   8  -3  -5    1.38    0.35
   8   3  -5    1.63    0.42
  -8   3   4    2.80    0.52
  -8  -3   4    3.70    0.60
   8  -3  -4    3.19    0.52
   8   3  -4    3.16    0.58
  -8   3   3    1.92    0.45
  -8  -3   3    2.18    0.49
   8  -3  -3    1.76    0.39
   8   3  -3    2.17    0.49
  -8   3   2    5.56    0.72
  -8  -3   2    6.06    0.76
   8  -3  -2    5.41    0.70
   8   3  -2    7.10    0.81
  -8   3   1    7.86    0.84
  -8  -3   1    8.09    0.90
   8  -3  -1   10.04    0.93
   8   3  -1    8.51    0.89
  -8   3   0    2.06    0.44
  -8  -3   0    2.84    0.55
   8  -3   0    2.41    0.48
   8   3   0    2.37    0.48
   8  -3   1    1.50    0.29
  -8   3  -1    1.35    0.37
  -8  -3  -1    1.40    0.38
   8  -3   1    1.68    0.44
   8   3   1    1.95    0.45
   8  -3   2   -0.04    0.15
  -8   3  -2    0.00    0.16
  -8  -3  -2    0.00    0.19
   8  -3   2   -0.11    0.19
   8   3   2    0.18    0.19
   8  -3   2    0.09    0.10
   8  -3   3   -0.09    0.10
  -8   3  -3    0.19    0.22
  -8  -3  -3    0.09    0.18
   8  -3   3   -0.49    0.26
   8   3   3    0.06    0.25
   8  -3   3   -0.05    0.09
  -8   3  -4   -0.09    0.20
  -8  -3  -4    0.19    0.20
   8   3   4    0.39    0.25
  -8  -3  -4    0.35    0.19
  -8   3  -4    0.16    0.23
   8  -3   4    0.08    0.17
  -8   3  -5    3.19    0.58
  -8  -3  -5    2.37    0.53
  -8  -3  -5    2.68    0.39
   8   3   5    3.37    0.58
  -8   3  -5    3.04    0.56
   8  -3   5    2.78    0.42
  -8   3  -6    4.97    0.69
  -8   3  -6    4.83    0.69
  -8  -3  -6    4.87    0.72
   8   3   6    4.43    0.67
   8  -3   6    3.92    0.49
  -8  -3  -6    4.60    0.51
  -8  -3  -7    0.05    0.16
  -8  -3  -7    0.33    0.17
  -8   3  -7    0.04    0.19
   8   3   7    0.25    0.21
   8  -3   7    0.73    0.26
  -8  -3  -8    0.60    0.28
  -8   3  -8    0.15    0.21
   8   3   8    0.65    0.34
   8  -3   8    0.14    0.13
  -8  -3  -9    0.42    0.26
  -8   3  -9    0.93    0.36
   8   3   9    0.58    0.32
   8  -3   9    0.71    0.25
  -8  -3 -10   -0.01    0.18
  -8   3 -10    0.15    0.19
   8   3  10   -0.11    0.20
   8  -3  10    0.01    0.15
  -8  -3 -11    1.21    0.36
  -8   3 -11    0.84    0.33
   8  -3  11    0.97    0.29
  -8  -3 -12   -0.45    0.26
   8  -3  12   -0.18    0.18
  -8  -3 -13    0.38    0.27
  -8   3 -13    0.46    0.27
   8  -3  13    0.57    0.24
  -8  -3 -14    1.33    0.42
  -8   3 -14    1.05    0.40
   8  -3  14    0.93    0.29
  -8  -3 -15    1.54    0.47
  -8   3 -15    0.87    0.37
   8  -3  15    1.01    0.36
  -8  -3 -16    0.96    0.37
   8  -3  16    0.40    0.24
   8   4 -17    0.02    0.24
   8  -4 -17    0.33    0.30
  -8  -4  17    0.38    0.34
   8   4 -16   -0.12    0.19
   8  -4 -16    0.05    0.29
   8   4 -15    0.13    0.27
   8  -4 -15    0.87    0.40
  -8  -4  15    0.85    0.39
   8   4 -14    0.70    0.38
   8  -4 -14   -0.22    0.19
  -8   4  14    0.32    0.24
  -8  -4  14    0.11    0.22
   8  -4 -14    0.26    0.20
   8   4 -13   -0.06    0.20
   8  -4 -13   -0.13    0.24
  -8   4  13   -0.16    0.22
  -8  -4  13   -0.18    0.25
   8  -4 -13    0.16    0.17
   8   4 -12   -0.01    0.20
   8  -4 -12   -0.06    0.22
  -8   4  12    0.00    0.17
  -8  -4  12   -0.07    0.19
   8  -4 -12    0.21    0.17
   8   4 -11    0.07    0.24
   8  -4 -11    0.12    0.20
  -8   4  11   -0.06    0.18
  -8  -4  11   -0.13    0.25
   8  -4 -11   -0.05    0.17
   8   4 -10    0.55    0.31
   8  -4 -10    0.77    0.31
  -8   4  10    0.48    0.24
  -8  -4  10    0.73    0.40
   8  -4 -10    0.38    0.23
   8  -4  -9    0.49    0.27
  -8   4   9    0.24    0.19
  -8  -4   9   -0.27    0.30
   8  -4  -9    0.52    0.25
   8   4  -9    0.13    0.20
   8  -4  -8    0.64    0.29
  -8   4   8    0.32    0.23
  -8  -4   8    0.48    0.28
   8  -4  -8    0.32    0.17
   8   4  -8    0.53    0.27
   8  -4  -7    0.17    0.19
  -8   4   7    0.12    0.16
  -8  -4   7    0.13    0.19
   8  -4  -7    0.17    0.19
   8   4  -7   -0.10    0.20
   8  -4  -6    0.13    0.18
  -8   4   6    0.01    0.16
  -8  -4   6    0.40    0.17
   8  -4  -6    0.75    0.28
   8   4  -6    0.20    0.21
   8  -4  -5    0.84    0.31
  -8   4   5    0.64    0.27
  -8  -4   5    1.22    0.39
   8  -4  -5    0.88    0.27
   8   4  -5    1.13    0.37
   8  -4  -4    2.09    0.42
  -8   4   4    1.96    0.42
  -8  -4   4    2.72    0.54
   8  -4  -4    2.56    0.49
   8   4  -4    2.49    0.56
   8  -4  -3    8.35    0.79
  -8   4   3    8.69    0.87
  -8  -4   3    9.63    1.00
   8  -4  -3    8.76    0.87
   8   4  -3    9.85    0.97
   8  -4  -2    2.28    0.40
  -8   4   2    3.01    0.53
  -8  -4   2    2.53    0.53
   8  -4  -2    2.29    0.46
   8   4  -2    2.25    0.48
   8  -4  -1    0.16    0.18
  -8   4   1    0.08    0.16
  -8  -4   1    0.25    0.26
   8  -4  -1    0.27    0.19
   8   4  -1    0.80    0.36
   8  -4   0    0.25    0.16
  -8   4   0    0.00    0.17
  -8  -4   0    0.09    0.21
   8  -4   0    0.17    0.16
   8   4   0    0.41    0.27
   8  -4   1    1.74    0.34
  -8   4  -1    1.75    0.44
  -8  -4  -1    1.52    0.44
   8  -4   1    1.84    0.43
   8   4   1    1.19    0.39
   8  -4   1    1.86    0.33
   8  -4   2    4.22    0.49
  -8   4  -2    5.08    0.69
  -8  -4  -2    5.48    0.74
   8   4   2    5.14    0.71
   8  -4   2    4.25    0.52
  -8   4  -3    7.21    0.83
  -8  -4  -3    6.51    0.82
  -8   4  -3    7.51    0.87
   8   4   3    5.74    0.75
   8  -4   3    6.92    0.66
  -8   4  -4    2.02    0.49
  -8  -4  -4    2.70    0.55
   8   4   4    2.22    0.49
  -8   4  -4    2.67    0.54
   8  -4   4    1.80    0.37
  -8   4  -5    0.31    0.25
  -8  -4  -5    0.16    0.21
   8   4   5    0.71    0.31
  -8   4  -5    0.19    0.17
   8  -4   5    0.30    0.20
  -8  -4  -6    0.31    0.22
  -8   4  -6    0.28    0.27
   8   4   6   -0.03    0.16
   8  -4   6    0.21    0.19
  -8  -4  -7   -0.04    0.18
  -8   4  -7    0.51    0.33
   8   4   7    0.03    0.20
   8  -4   7    0.03    0.19
  -8  -4  -8    0.91    0.35
  -8   4  -8    0.37    0.34
   8   4   8    0.41    0.24
   8  -4   8    0.50    0.22
  -8  -4  -9    4.74    0.73
  -8   4  -9    3.83    0.67
   8   4   9    3.23    0.60
   8  -4   9    4.21    0.61
  -8  -4 -10    1.90    0.48
  -8   4 -10    1.80    0.50
   8   4  10    1.53    0.43
   8  -4  10    1.27    0.36
  -8  -4 -11   -0.08    0.20
  -8   4 -11    0.23    0.22
   8  -4  11   -0.15    0.19
  -8  -4 -12    2.19    0.52
  -8   4 -12    2.52    0.58
   8  -4  12    1.66    0.41
  -8  -4 -13    1.65    0.41
  -8   4 -13    1.25    0.44
   8  -4  13    1.39    0.38
  -8  -4 -14   -0.38    0.26
  -8   4 -14    0.34    0.32
   8  -4  14   -0.02    0.24
  -8  -4 -15    0.00    0.21
  -8   4 -15    0.44    0.33
   8  -4  15   -0.12    0.25
   8  -5 -16    0.09    0.25
   8   5 -16   -0.21    0.24
  -8  -5  16    0.01    0.25
   8   5 -15    0.29    0.31
   8  -5 -15   -0.02    0.20
  -8  -5  15    0.21    0.29
   8   5 -14    0.19    0.20
   8  -5 -14   -0.05    0.25
  -8  -5  14    0.57    0.35
   8   5 -13    0.47    0.35
   8  -5 -13    0.17    0.19
  -8  -5  13    0.45    0.33
   8   5 -12    0.67    0.30
   8  -5 -12    0.36    0.36
  -8  -5  12    1.06    0.44
   8   5 -11    0.40    0.26
   8  -5 -11    0.70    0.29
  -8   5  11    0.58    0.26
  -8  -5  11    0.72    0.38
   8  -5 -11    0.35    0.22
   8   5 -10    0.51    0.36
   8  -5 -10    0.29    0.19
  -8   5  10    0.04    0.13
  -8  -5  10    0.56    0.34
   8  -5 -10    0.58    0.28
   8   5  -9    0.89    0.37
   8  -5  -9    0.72    0.31
  -8   5   9    0.33    0.22
  -8  -5   9    0.79    0.35
   8  -5  -9    1.07    0.34
   8  -5  -8   -0.12    0.22
  -8   5   8    0.00    0.15
   8  -5  -8    0.08    0.18
   8   5  -8    0.14    0.20
   8  -5  -7    0.08    0.17
  -8   5   7   -0.12    0.19
  -8  -5   7    0.39    0.32
   8  -5  -7    0.37    0.22
   8   5  -7    0.07    0.19
   8  -5  -6   -0.15    0.18
  -8   5   6    0.15    0.20
  -8  -5   6    0.22    0.18
   8  -5  -6   -0.09    0.15
   8   5  -6    0.13    0.17
   8  -5  -5    0.39    0.28
  -8   5   5    0.27    0.20
  -8  -5   5    0.73    0.35
   8  -5  -5    0.65    0.24
   8   5  -5    0.20    0.18
   8  -5  -4    0.94    0.32
  -8   5   4    0.95    0.33
  -8  -5   4    1.44    0.42
   8  -5  -4    1.53    0.36
   8   5  -4    1.06    0.38
   8  -5  -3    0.26    0.19
  -8   5   3    0.24    0.20
  -8  -5   3   -0.01    0.21
   8  -5  -3    0.00    0.16
   8   5  -3    0.04    0.21
   8  -5  -2    0.20    0.17
  -8   5   2    0.26    0.24
  -8  -5   2   -0.05    0.25
   8  -5  -2    0.32    0.18
   8   5  -2    0.14    0.21
   8  -5  -1    3.48    0.52
  -8   5   1    4.17    0.64
  -8  -5   1    4.22    0.67
   8   5  -1    3.89    0.65
   8  -5   0    0.64    0.28
  -8   5   0    0.60    0.34
  -8  -5   0    0.78    0.42
   8   5   0    1.44    0.47
   8  -5   1   16.71    1.05
  -8   5  -1   18.24    1.27
  -8  -5  -1   19.87    1.42
   8   5   1   17.26    1.31
   8  -5   1   19.12    1.13
  -8   5  -2    0.33    0.21
  -8  -5  -2    0.13    0.32
   8   5   2    0.54    0.28
   8  -5   2    0.29    0.21
  -8   5  -3    1.11    0.35
  -8  -5  -3    1.76    0.46
   8   5   3    1.86    0.45
  -8   5  -3    1.62    0.46
   8  -5   3    1.39    0.36
  -8   5  -4    2.72    0.52
  -8  -5  -4    3.13    0.60
  -8   5  -4    2.58    0.57
   8   5   4    2.94    0.57
   8  -5   4    2.96    0.49
  -8  -5  -5    2.05    0.51
  -8   5  -5    1.63    0.45
   8   5   5    0.93    0.37
   8  -5   5    1.83    0.43
  -8   5  -6    7.69    0.93
  -8  -5  -6    8.00    0.94
   8   5   6    7.62    0.89
   8  -5   6    8.43    0.87
  -8  -5  -7    0.22    0.26
  -8   5  -7    0.28    0.32
   8   5   7    0.54    0.31
   8  -5   7    0.67    0.34
  -8  -5  -8    3.04    0.59
  -8   5  -8    3.40    0.67
   8   5   8    3.20    0.60
   8  -5   8    3.38    0.58
  -8  -5  -9    0.00    0.18
  -8   5  -9   -0.11    0.24
   8   5   9   -0.21    0.26
   8  -5   9    0.10    0.23
  -8  -5 -10    3.51    0.64
  -8   5 -10    3.60    0.71
   8   5  10    4.09    0.69
   8  -5  10    4.22    0.67
  -8  -5 -11    1.63    0.48
  -8   5 -11    1.29    0.42
   8   5  11    1.01    0.35
   8  -5  11    0.88    0.34
  -8  -5 -12    0.94    0.40
  -8   5 -12    0.53    0.34
   8  -5  12    0.46    0.18
  -8  -5 -13    3.21    0.63
  -8   5 -13    3.58    0.71
   8  -5  13    2.42    0.52
  -8  -5 -14    0.03    0.16
  -8   5 -14    0.15    0.24
   8  -5  14   -0.33    0.30
   8  -6 -15    0.68    0.38
   8   6 -15    0.51    0.32
  -8  -6  15    0.76    0.35
   8  -6 -14    0.32    0.31
   8   6 -14    0.26    0.35
  -8  -6  14    0.41    0.35
   8  -6 -13   -0.12    0.23
   8   6 -13    0.31    0.28
  -8  -6  13   -0.26    0.29
   8   6 -12   -0.31    0.30
   8  -6 -12    0.38    0.32
  -8  -6  12   -0.32    0.23
   8   6 -11    0.14    0.30
   8  -6 -11    0.46    0.29
  -8  -6  11    0.05    0.20
   8   6 -10    0.13    0.22
  -8  -6  10    0.78    0.38
   8   6  -9    1.58    0.50
   8  -6  -9    1.34    0.42
  -8  -6   9    1.15    0.45
   8  -6  -8    2.54    0.55
  -8   6   8    3.53    0.55
  -8  -6   8    3.27    0.65
   8  -6  -8    3.27    0.54
   8   6  -8    3.77    0.69
   8  -6  -7    0.10    0.24
  -8   6   7    0.26    0.21
  -8  -6   7    0.22    0.29
   8  -6  -7   -0.05    0.16
   8   6  -7    0.23    0.23
   8  -6  -6   -0.15    0.22
  -8   6   6   -0.07    0.15
  -8  -6   6    0.22    0.26
   8  -6  -6    0.22    0.17
   8   6  -6   -0.35    0.29
   8  -6  -5    0.21    0.26
  -8   6   5   -0.04    0.15
  -8  -6   5    0.04    0.19
   8  -6  -5   -0.15    0.24
   8   6  -5   -0.19    0.20
   8  -6  -4    0.81    0.28
  -8   6   4    1.30    0.36
  -8  -6   4    1.65    0.46
   8   6  -4    0.33    0.21
   8  -6  -3    0.12    0.22
  -8   6   3    0.09    0.18
  -8  -6   3   -0.23    0.22
   8   6  -3    0.24    0.26
   8  -6  -2    0.49    0.21
  -8   6   2    0.78    0.31
  -8  -6   2    1.57    0.45
   8   6  -2    1.21    0.38
  -8   6   1    0.31    0.24
  -8  -6   1    0.26    0.22
   8   6  -1    0.45    0.28
  -8   6   0    1.00    0.35
  -8  -6   0    1.32    0.42
   8   6   0    1.47    0.42
  -8   6  -1    0.43    0.21
  -8  -6  -1    0.35    0.26
   8   6   1    0.26    0.18
  -8   6  -2    0.32    0.25
  -8  -6  -2   -0.42    0.33
   8   6   2    0.17    0.22
  -8   6  -2    0.23    0.26
   8  -6   2    0.11    0.15
  -8   6  -3   -0.12    0.19
  -8  -6  -3   -0.11    0.18
  -8   6  -3   -0.35    0.24
   8   6   3   -0.33    0.25
   8  -6   3   -0.32    0.24
  -8   6  -4    0.52    0.27
  -8  -6  -4    0.27    0.24
  -8   6  -4    0.54    0.32
   8   6   4    0.98    0.38
   8  -6   4    0.34    0.24
  -8  -6  -5    0.06    0.19
  -8   6  -5    0.54    0.30
   8   6   5    0.14    0.17
   8  -6   5    0.30    0.20
  -8   6  -6    6.37    0.91
  -8  -6  -6    6.47    0.85
   8   6   6    6.90    0.87
   8  -6   6    5.83    0.76
  -8  -6  -7    0.56    0.32
  -8   6  -7    1.42    0.46
   8   6   7    0.62    0.33
   8  -6   7    0.39    0.26
  -8  -6  -8    1.17    0.39
  -8   6  -8    2.41    0.58
   8   6   8    1.88    0.46
   8  -6   8    1.72    0.46
  -8  -6  -9    0.18    0.18
  -8   6  -9   -0.35    0.28
   8   6   9   -0.06    0.24
   8  -6   9    0.00    0.17
  -8  -6 -10    1.00    0.36
  -8   6 -10    0.88    0.37
   8   6  10    0.82    0.33
   8  -6  10    0.98    0.36
  -8  -6 -11    0.54    0.32
  -8   6 -11    1.11    0.44
   8   6  11    0.76    0.39
   8  -6  11    0.42    0.23
  -8  -6 -12    1.32    0.42
  -8   6 -12    0.42    0.28
   8  -6  12    1.23    0.43
   8  -7 -12   -0.01    0.23
   8   7 -12    0.08    0.27
  -8  -7  12    0.23    0.26
   8  -7 -11   -0.15    0.26
   8   7 -11   -0.01    0.21
  -8  -7  11    0.03    0.19
   8   7 -10    0.37    0.29
   8  -7 -10   -0.25    0.30
  -8  -7  10   -0.10    0.22
   8   7  -9    0.58    0.36
   8  -7  -9   -0.01    0.24
  -8  -7   9    0.00    0.24
   8   7  -8    0.50    0.26
   8  -7  -8    0.53    0.34
  -8  -7   8   -0.24    0.20
  -8  -7   7    0.61    0.26
   8   7  -7    0.40    0.33
  -8  -7   6    3.79    0.72
   8   7  -6    4.74    0.75
  -8   7   5    1.92    0.43
  -8  -7   5    1.97    0.53
   8   7  -5    1.84    0.47
  -8   7   4    0.13    0.20
  -8  -7   4   -0.12    0.21
   8   7  -4    0.32    0.33
  -8   7   3    0.27    0.17
  -8  -7   3    0.39    0.27
   8   7  -3    0.48    0.28
  -8   7   2   -0.31    0.24
   8   7  -2   -0.33    0.21
  -8   7   1    0.13    0.17
  -8  -7   1   -0.30    0.26
   8   7  -1    0.54    0.31
  -8   7   0    2.27    0.49
  -8  -7   0    1.51    0.44
   8   7   0    2.28    0.51
  -8   7  -1    0.58    0.28
  -8  -7  -1    0.82    0.36
  -8   7  -1    1.63    0.45
   8   7   1    0.86    0.33
  -8   7  -2    1.73    0.41
  -8  -7  -2    1.86    0.45
  -8   7  -2    1.60    0.49
   8   7   2    1.30    0.42
   8  -7   2    1.12    0.35
  -8   7  -3    1.31    0.36
  -8  -7  -3    1.14    0.37
  -8   7  -3    0.68    0.36
   8   7   3    0.99    0.35
   8  -7   3    1.31    0.40
  -8  -7  -4    2.38    0.53
  -8   7  -4    2.61    0.61
   8   7   4    2.36    0.52
   8  -7   4    2.26    0.51
  -8  -7  -5   -0.30    0.18
  -8   7  -5    0.18    0.29
   8   7   5    0.12    0.23
   8  -7   5   -0.19    0.18
  -8  -7  -6    1.31    0.46
  -8   7  -6    1.74    0.49
   8   7   6    1.85    0.46
   8  -7   6    1.53    0.45
  -8  -7  -7    1.30    0.41
  -8   7  -7    1.63    0.52
   8   7   7    1.64    0.47
   8  -7   7    1.25    0.47
  -8  -7  -8   -0.34    0.26
  -8   7  -8    0.24    0.27
   8   7   8   -0.23    0.23
   8  -7   8   -0.21    0.20
  -8  -7  -9    2.03    0.50
  -8   7  -9    2.10    0.57
   8   7   9    1.59    0.47
   8  -7   9    1.04    0.38
  -8  -7 -10    0.73    0.34
  -8   7 -10    1.18    0.47
   8   7  10    0.66    0.32
   8  -7  10    1.19    0.41
   8   8  -9    0.84    0.38
  -8  -8   9    2.03    0.56
   8   8  -8   -0.04    0.21
  -8  -8   8    0.78    0.38
  -8  -8   7    1.95    0.54
   8   8  -7    1.28    0.43
  -8  -8   6    0.92    0.43
   8   8  -6    0.46    0.34
  -8  -8   5    1.09    0.44
   8   8  -5    0.84    0.37
  -8  -8   4    0.88    0.36
   8   8  -4    0.51    0.30
  -8  -8   3   -0.09    0.18
   8   8  -3    0.23    0.25
  -8  -8   2    0.25    0.25
   8   8  -2    0.28    0.24
  -8   8   1    1.00    0.28
  -8  -8   1    1.21    0.40
   8   8  -1    1.39    0.41
  -8   8   0    0.31    0.25
  -8  -8   0    0.80    0.34
  -8   8   0    0.64    0.36
   8   8   0    0.16    0.19
  -8   8  -1    1.12    0.35
  -8  -8  -1    1.28    0.44
  -8   8  -1    1.64    0.50
   8   8   1    0.79    0.35
  -8   8  -2    0.14    0.18
  -8  -8  -2   -0.04    0.23
  -8   8  -2    0.34    0.27
   8   8   2    0.08    0.22
  -8   8  -3    0.19    0.22
  -8  -8  -3    0.44    0.26
  -8   8  -3    0.27    0.26
   8   8   3    0.25    0.23
   8  -8   3    0.39    0.19
  -8  -8  -4    2.27    0.53
  -8   8  -4    2.38    0.60
   8   8   4    2.30    0.51
   8  -8   4    2.13    0.52
  -8  -8  -5    1.02    0.42
  -8   8  -5    1.00    0.46
   8   8   5    0.87    0.32
   8  -8   5    1.34    0.43
  -8  -8  -6    2.67    0.57
  -8   8  -6    3.07    0.66
   8   8   6    1.99    0.47
   8  -8   6    1.75    0.50
  -8  -8  -7    0.08    0.20
  -8   8  -7    0.41    0.31
   8   8   7    0.18    0.24
   8  -8   7    0.29    0.26
  -8  -9   2    0.24    0.22
  -8   9   2    0.30    0.28
   8   9  -2    0.22    0.22
  -8  -9   1    0.44    0.28
  -8   9   1    0.82    0.38
   8   9  -1    0.86    0.39
  -8  -9   0    0.39    0.32
  -8   9   0    0.21    0.21
   8   9   0    0.06    0.17
  -9   0  17    1.32    0.47
   9   0 -17    1.72    0.56
  -9   0  16    0.31    0.26
   9   0 -16    0.10    0.20
  -9   0  15    0.58    0.29
   9   0 -15    0.69    0.36
  -9   0  14    0.39    0.25
   9   0 -14    0.35    0.30
  -9   0  13    0.51    0.33
   9   0 -13    0.14    0.21
  -9   0  12    0.09    0.23
   9   0 -12   -0.13    0.20
  -9   0  11    0.18    0.21
   9   0 -11    0.39    0.24
  -9   0  10   -0.40    0.27
   9   0 -10    0.35    0.29
  -9   0   9    0.40    0.27
   9   0  -9    0.42    0.27
  -9   0   8    0.00    0.22
   9   0  -8   -0.20    0.23
  -9   0   7    0.15    0.17
   9   0  -7    0.53    0.28
  -9   0   6   -0.08    0.21
   9   0  -6   -0.05    0.16
  -9   0   5    0.56    0.30
   9   0  -5    0.66    0.31
  -9   0   4   -0.24    0.19
   9   0  -4   -0.11    0.26
  -9   0   3    0.09    0.17
   9   0  -3    0.00    0.21
  -9   0   2   -0.11    0.23
   9   0  -2   -0.01    0.18
  -9   0   1    0.32    0.24
   9   0  -1    0.18    0.22
  -9   0   0   -0.15    0.23
   9   0   0   -0.27    0.25
  -9   0  -1    0.06    0.21
   9   0   1    0.21    0.21
  -9   0  -2   -0.02    0.22
   9   0   2   -0.01    0.21
  -9   0  -3    0.32    0.29
   9   0   3    0.97    0.39
  -9   0  -4   -0.01    0.18
   9   0   4    0.22    0.23
  -9   0  -4   -0.08    0.18
  -9   0  -5    0.01    0.20
   9   0   5    0.44    0.25
  -9   0  -5   -0.05    0.18
  -9   0  -6    0.28    0.38
   9   0   6   -0.09    0.23
  -9   0  -6    0.47    0.34
  -9   0  -7   29.77    1.64
  -9   0  -7   30.54    1.84
   9   0   7   31.23    1.87
  -9   0  -8    1.37    0.52
  -9   0  -8    0.94    0.37
  -9   0  -9    7.82    0.96
  -9   0  -9    8.71    0.92
  -9   0 -10    0.34    0.31
  -9   0 -10    0.05    0.18
  -9   0 -11    0.42    0.32
  -9   0 -11    0.20    0.19
  -9   0 -12    0.23    0.23
  -9   0 -12    0.23    0.23
  -9   0 -13    1.00    0.43
  -9   0 -13    0.30    0.28
  -9   0 -14   -0.04    0.23
  -9   0 -14    0.03    0.17
  -9  -1  16    0.31    0.27
   9  -1 -16    0.02    0.24
   9   1 -16    0.26    0.25
  -9   1  15   -0.09    0.20
  -9  -1  15    0.13    0.27
   9  -1 -15    0.11    0.23
   9   1 -15    0.22    0.28
  -9   1  14    0.21    0.27
  -9  -1  14    0.80    0.39
   9  -1 -14    0.42    0.31
   9   1 -14    0.45    0.30
  -9   1  13    1.01    0.40
  -9  -1  13    1.20    0.46
   9  -1 -13    0.50    0.30
   9   1 -13    1.19    0.44
  -9   1  12    0.29    0.27
  -9  -1  12    0.45    0.30
   9  -1 -12    0.15    0.20
   9   1 -12    0.26    0.32
  -9   1  11    0.19    0.20
  -9  -1  11    0.23    0.23
   9  -1 -11    0.32    0.28
   9   1 -11   -0.26    0.23
  -9   1  10    0.13    0.18
  -9  -1  10    0.78    0.32
   9  -1 -10    0.54    0.27
   9   1 -10    0.77    0.35
  -9   1   9    0.98    0.39
  -9  -1   9    1.57    0.45
   9  -1  -9    1.06    0.37
   9   1  -9    1.06    0.43
  -9   1   8    0.36    0.27
  -9  -1   8    0.07    0.19
   9  -1  -8    0.25    0.23
   9   1  -8    0.47    0.33
  -9   1   7    0.16    0.20
  -9  -1   7    0.81    0.33
   9  -1  -7    0.29    0.20
   9   1  -7    0.54    0.33
  -9   1   6    0.19    0.24
  -9  -1   6   -0.14    0.23
   9  -1  -6   -0.17    0.19
   9   1  -6    0.25    0.25
  -9   1   5   -0.01    0.17
  -9  -1   5   -0.23    0.24
   9  -1  -5    0.30    0.21
   9   1  -5    0.00    0.18
  -9   1   4   -0.19    0.17
  -9  -1   4    0.12    0.21
   9  -1  -4   -0.21    0.19
   9   1  -4   -0.04    0.16
  -9   1   3    0.88    0.32
  -9  -1   3    1.10    0.36
   9  -1  -3    1.31    0.40
   9   1  -3    0.90    0.35
  -9   1   2    1.22    0.40
  -9  -1   2    1.29    0.41
   9  -1  -2    2.13    0.48
   9   1  -2    2.11    0.47
  -9   1   1    0.17    0.21
  -9  -1   1    0.05    0.17
   9  -1  -1   -0.03    0.16
   9   1  -1    0.29    0.25
  -9   1   0   -0.02    0.17
  -9  -1   0   -0.42    0.27
   9  -1   0    0.28    0.27
   9   1   0    0.30    0.22
  -9   1  -1    0.88    0.35
  -9  -1  -1    0.41    0.34
   9  -1   1    0.60    0.32
   9   1   1    0.57    0.30
  -9   1  -2    0.08    0.20
  -9  -1  -2   -0.02    0.18
   9  -1   2    0.09    0.20
   9   1   2    0.41    0.32
  -9   1  -3    0.02    0.27
  -9  -1  -3    0.43    0.32
   9  -1   3    0.33    0.29
   9   1   3    0.18    0.25
  -9   1  -4    4.62    0.71
  -9  -1  -4    5.03    0.64
  -9  -1  -4    4.20    0.69
  -9   1  -4    4.79    0.69
   9  -1   4    4.09    0.68
   9   1   4    4.52    0.71
  -9   1  -5    0.26    0.29
  -9  -1  -5    0.02    0.19
   9  -1   5    0.11    0.24
   9   1   5   -0.28    0.27
  -9  -1  -5    0.03    0.16
  -9   1  -5    0.05    0.25
  -9   1  -6    0.32    0.28
  -9  -1  -6   -0.37    0.30
   9  -1   6    0.03    0.19
   9   1   6    0.01    0.23
  -9  -1  -6    0.31    0.21
  -9   1  -6    0.21    0.16
  -9   1  -7    0.35    0.27
  -9  -1  -7    0.14    0.18
  -9  -1  -7    0.46    0.26
  -9   1  -7    0.29    0.28
   9   1   7    0.38    0.25
  -9   1  -8    0.26    0.21
  -9  -1  -8    0.30    0.26
  -9  -1  -8    0.55    0.23
  -9   1  -8    0.37    0.26
   9   1   8    0.55    0.32
  -9   1  -9    0.11    0.28
  -9  -1  -9    0.03    0.17
  -9  -1  -9    0.38    0.26
  -9   1  -9    0.14    0.20
  -9   1 -10    0.43    0.23
  -9  -1 -10    0.59    0.35
  -9  -1 -10    0.55    0.26
  -9   1 -10    0.37    0.26
  -9   1 -11    0.51    0.33
  -9  -1 -11    0.37    0.30
  -9  -1 -11   -0.15    0.25
  -9   1 -11    0.21    0.19
  -9   1 -12    0.34    0.29
  -9  -1 -12    0.54    0.33
  -9   1 -12   -0.19    0.22
  -9   1 -13    0.16    0.23
  -9  -1 -13    0.07    0.21
  -9   1 -13   -0.10    0.20
  -9  -1 -14    1.64    0.53
  -9   1 -14    1.38    0.40
   9   2 -16    0.25    0.23
  -9   2  16    0.18    0.22
  -9  -2  16    0.16    0.30
   9  -2 -16    0.02    0.17
  -9   2  15   -0.58    0.30
   9  -2 -15    0.12    0.18
   9   2 -15    0.09    0.26
  -9   2  14    0.27    0.22
  -9  -2  14   -0.17    0.20
   9  -2 -14    0.69    0.33
   9   2 -14    0.55    0.34
  -9   2  13    1.97    0.53
  -9  -2  13    2.14    0.58
   9  -2 -13    1.09    0.41
   9   2 -13    1.85    0.53
  -9   2  12   -0.29    0.24
  -9  -2  12    0.61    0.39
   9  -2 -12   -0.15    0.20
   9   2 -12    0.59    0.38
  -9   2  11   -0.14    0.21
   9  -2 -11    0.10    0.16
   9   2 -11    0.24    0.26
  -9   2  10    0.65    0.33
  -9  -2  10    0.92    0.40
   9  -2 -10    0.29    0.25
   9   2 -10    1.28    0.45
  -9   2   9    0.44    0.30
  -9  -2   9    0.31    0.21
   9  -2  -9    0.43    0.26
   9   2  -9    0.56    0.32
  -9   2   8    0.70    0.29
  -9  -2   8    1.96    0.50
   9  -2  -8    1.34    0.40
   9   2  -8    1.19    0.42
  -9   2   7    2.46    0.53
  -9  -2   7    1.83    0.49
   9  -2  -7    1.54    0.42
   9   2  -7    1.74    0.49
  -9   2   6    2.77    0.54
  -9  -2   6    3.64    0.65
   9  -2  -6    2.74    0.53
   9   2  -6    3.19    0.61
  -9   2   5    0.12    0.22
  -9  -2   5   -0.32    0.22
   9  -2  -5    0.10    0.17
   9   2  -5    0.12    0.17
  -9   2   4   -0.21    0.24
  -9  -2   4   -0.08    0.20
   9  -2  -4    0.09    0.16
   9   2  -4   -0.15    0.21
  -9   2   3    1.71    0.46
  -9  -2   3    1.34    0.43
   9  -2  -3    1.27    0.41
   9   2  -3    1.88    0.47
  -9   2   2    0.61    0.32
  -9  -2   2    0.66    0.31
   9  -2  -2    0.57    0.32
   9   2  -2    0.38    0.24
  -9   2   1    5.08    0.74
  -9  -2   1    4.07    0.70
   9  -2  -1    5.41    0.74
   9   2  -1    5.32    0.75
  -9   2   0    0.05    0.24
  -9  -2   0    0.31    0.26
   9  -2   0    0.07    0.24
   9   2   0    0.11    0.24
  -9   2  -1    7.08    0.85
  -9  -2  -1    6.44    0.83
   9  -2   1    5.69    0.77
   9   2   1    6.20    0.81
  -9   2  -2    0.57    0.33
  -9  -2  -2    0.60    0.34
   9  -2   2    0.46    0.31
   9   2   2    0.86    0.39
  -9   2  -3    8.27    0.94
  -9  -2  -3    9.42    1.00
   9  -2   3    8.72    0.96
   9   2   3    7.93    0.93
  -9   2  -4    0.54    0.34
  -9  -2  -4    0.23    0.25
   9  -2   4    1.03    0.40
   9   2   4    0.17    0.21
  -9  -2  -4    0.21    0.22
  -9   2  -4    0.57    0.31
  -9   2  -5    0.02    0.24
  -9  -2  -5    0.01    0.18
   9   2   5    0.39    0.26
  -9  -2  -5    0.09    0.18
  -9   2  -5    0.02    0.18
  -9   2  -6    0.28    0.25
  -9  -2  -6    0.69    0.33
  -9  -2  -6    0.62    0.25
   9   2   6    0.37    0.19
  -9   2  -6    0.44    0.28
  -9   2  -7   -0.02    0.18
  -9  -2  -7   -0.18    0.28
  -9  -2  -7    0.33    0.19
  -9   2  -7    0.05    0.18
   9   2   7   -0.09    0.19
  -9   2  -8   -0.04    0.18
  -9  -2  -8    0.09    0.22
  -9   2  -8    0.27    0.23
   9   2   8    0.67    0.34
  -9   2  -9    0.58    0.34
  -9  -2  -9    0.72    0.35
  -9   2  -9    0.32    0.23
   9   2   9    0.36    0.27
  -9   2 -10    0.83    0.43
  -9  -2 -10    0.21    0.20
  -9   2 -10    0.77    0.35
  -9   2 -11    0.03    0.21
  -9  -2 -11    0.25    0.21
  -9   2 -11    0.37    0.27
  -9  -2 -12   -0.13    0.29
  -9   2 -12   -0.47    0.33
  -9  -2 -13    0.04    0.21
  -9   2 -13   -0.23    0.31
   9   3 -15    1.16    0.47
   9  -3 -15    1.33    0.43
  -9   3  15    0.44    0.30
  -9  -3  15    1.10    0.45
   9  -3 -15    0.72    0.34
   9  -3 -14    0.76    0.36
  -9   3  14    0.19    0.28
  -9  -3  14    0.48    0.27
   9  -3 -14    0.68    0.32
   9   3 -14    0.63    0.37
  -9   3  13   -0.14    0.20
  -9  -3  13    0.39    0.28
   9  -3 -13    0.19    0.23
   9   3 -13    0.32    0.31
  -9   3  12    0.80    0.35
  -9  -3  12    0.64    0.38
   9  -3 -12    0.99    0.38
   9   3 -12    1.40    0.48
  -9   3  11    0.38    0.27
  -9  -3  11    0.85    0.41
   9  -3 -11    0.77    0.34
   9   3 -11    1.32    0.48
  -9   3  10    4.43    0.73
  -9  -3  10    4.91    0.80
   9  -3 -10    4.29    0.66
   9   3 -10    5.24    0.81
  -9   3   9    1.49    0.49
  -9  -3   9    2.92    0.65
   9  -3  -9    1.85    0.48
   9   3  -9    2.85    0.60
  -9   3   8    0.25    0.28
  -9  -3   8   -0.06    0.19
   9  -3  -8    0.10    0.16
   9   3  -8    0.64    0.36
  -9   3   7    0.58    0.29
  -9  -3   7    1.10    0.41
   9  -3  -7    1.11    0.36
   9   3  -7    1.50    0.47
  -9   3   6    0.15    0.19
  -9  -3   6    0.16    0.19
   9  -3  -6   -0.05    0.17
   9   3  -6   -0.08    0.22
  -9   3   5    0.50    0.31
  -9  -3   5   -0.01    0.18
   9  -3  -5    0.51    0.25
   9   3  -5    0.47    0.27
  -9   3   4    0.24    0.17
  -9  -3   4    0.73    0.36
   9  -3  -4    1.20    0.38
   9   3  -4    0.96    0.42
  -9   3   3    8.35    0.91
  -9  -3   3    7.55    0.91
   9  -3  -3    7.50    0.85
   9   3  -3    7.76    0.91
  -9   3   2    0.41    0.28
  -9  -3   2    0.36    0.29
   9  -3  -2    0.74    0.31
   9   3  -2    1.12    0.37
  -9   3   1    0.77    0.31
  -9  -3   1    0.68    0.28
   9  -3  -1    1.43    0.41
   9   3  -1    0.77    0.34
  -9   3   0   -0.15    0.20
  -9  -3   0   -0.10    0.25
   9  -3   0    0.11    0.24
   9   3   0    0.08    0.25
   9  -3   1    0.24    0.17
  -9   3  -1    0.11    0.23
  -9  -3  -1    0.48    0.33
   9  -3   1    0.22    0.18
   9   3   1    0.14    0.27
  -9   3  -2    5.97    0.81
  -9  -3  -2    5.23    0.77
   9  -3   2    6.60    0.85
   9   3   2    6.79    0.85
  -9   3  -3    0.31    0.31
  -9  -3  -3   -0.01    0.22
   9   3   3    0.47    0.32
  -9   3  -3    0.55    0.34
  -9   3  -4    1.00    0.34
  -9  -3  -4    0.62    0.19
   9   3   4    1.80    0.49
  -9   3  -4    1.04    0.41
  -9   3  -5    0.14    0.23
  -9  -3  -5   -0.25    0.23
   9   3   5    0.38    0.27
  -9   3  -5   -0.12    0.24
  -9   3  -6    0.78    0.33
  -9  -3  -6   -0.06    0.21
  -9   3  -6    0.44    0.27
   9   3   6    0.60    0.30
  -9   3  -7    1.62    0.44
  -9  -3  -7    1.76    0.47
  -9   3  -7    2.07    0.51
   9   3   7    1.25    0.40
  -9   3  -8    0.41    0.25
  -9  -3  -8    0.77    0.33
  -9   3  -8   -0.14    0.22
   9   3   8    0.47    0.28
  -9   3  -9    5.24    0.80
  -9  -3  -9    5.84    0.84
   9   3   9    4.54    0.77
  -9   3  -9    5.59    0.82
  -9  -3 -10    0.51    0.37
  -9   3 -10    0.58    0.28
  -9  -3 -11    1.98    0.52
  -9   3 -11    2.45    0.64
  -9  -3 -12    4.37    0.76
  -9   3 -12    3.34    0.66
  -9  -3 -13    0.65    0.35
  -9   3 -13    0.70    0.37
   9   4 -14    0.52    0.30
   9  -4 -14    0.22    0.30
  -9  -4  14    0.78    0.36
   9  -4 -13    0.45    0.31
  -9   4  13    0.16    0.21
  -9  -4  13   -0.08    0.20
   9  -4 -13    0.03    0.19
   9   4 -13    0.74    0.36
   9  -4 -12   -0.12    0.18
  -9   4  12   -0.11    0.22
  -9  -4  12   -0.31    0.29
   9  -4 -12    0.18    0.21
   9   4 -12    0.31    0.24
   9  -4 -11   -0.02    0.18
  -9   4  11   -0.10    0.27
  -9  -4  11    0.18    0.26
   9  -4 -11    0.11    0.17
   9  -4 -10    2.25    0.51
  -9   4  10    1.00    0.38
  -9  -4  10    1.98    0.56
   9  -4 -10    1.53    0.40
   9   4 -10    1.96    0.50
   9  -4  -9    0.63    0.31
  -9   4   9    0.18    0.24
  -9  -4   9    0.04    0.25
   9  -4  -9    0.09    0.19
   9   4  -9   -0.03    0.21
   9  -4  -8    0.84    0.35
  -9   4   8    1.04    0.41
  -9  -4   8    0.69    0.33
   9  -4  -8    1.07    0.35
   9   4  -8    0.84    0.37
   9  -4  -7    0.35    0.25
  -9   4   7    0.04    0.22
   9  -4  -7    0.34    0.25
   9   4  -7   -0.03    0.18
   9  -4  -6    1.88    0.43
  -9   4   6    1.67    0.43
  -9  -4   6    1.53    0.47
   9  -4  -6    2.16    0.47
   9   4  -6    2.35    0.55
   9  -4  -5    2.30    0.45
  -9   4   5    1.72    0.43
  -9  -4   5    2.58    0.62
   9  -4  -5    2.25    0.47
   9   4  -5    2.65    0.56
   9  -4  -4    0.06    0.17
  -9   4   4    0.19    0.22
  -9  -4   4    0.07    0.22
   9  -4  -4   -0.09    0.18
   9   4  -4   -0.08    0.20
   9  -4  -3    0.33    0.18
  -9   4   3    0.16    0.20
  -9  -4   3   -0.14    0.21
   9  -4  -3    0.28    0.23
   9   4  -3    0.39    0.26
   9  -4  -2    0.65    0.25
  -9   4   2    0.63    0.30
  -9  -4   2    0.60    0.30
   9  -4  -2    0.80    0.27
   9   4  -2    1.55    0.47
   9  -4  -1    0.23    0.20
  -9   4   1    0.59    0.32
  -9  -4   1    0.20    0.28
   9  -4  -1    0.19    0.26
   9   4  -1    0.07    0.23
   9  -4   0    3.01    0.47
  -9   4   0    3.22    0.63
  -9  -4   0    4.77    0.74
   9  -4   0    4.27    0.72
   9   4   0    3.12    0.63
  -9   4  -1   11.63    1.10
  -9  -4  -1   12.71    1.19
   9   4   1   11.45    1.10
  -9   4  -2    6.37    0.81
  -9  -4  -2    7.48    0.92
   9   4   2    6.44    0.87
  -9   4  -3    1.77    0.46
  -9  -4  -3    0.79    0.32
   9   4   3    1.79    0.47
  -9   4  -3    1.51    0.47
  -9   4  -4    1.96    0.48
  -9  -4  -4    1.94    0.48
   9   4   4    1.85    0.49
  -9   4  -4    2.18    0.51
  -9   4  -5    1.69    0.46
  -9  -4  -5    1.07    0.40
   9   4   5    0.98    0.39
  -9   4  -5    1.27    0.41
  -9   4  -6    0.23    0.27
  -9  -4  -6    0.23    0.24
  -9   4  -6    0.39    0.26
   9   4   6   -0.17    0.21
  -9   4  -7    2.07    0.52
  -9  -4  -7    1.94    0.48
  -9   4  -7    1.82    0.49
   9   4   7    1.95    0.51
  -9   4  -8    0.11    0.19
  -9  -4  -8    0.29    0.23
  -9   4  -8    0.13    0.24
   9   4   8    0.69    0.39
  -9  -4  -9   -0.03    0.30
  -9   4  -9    0.64    0.33
   9   4   9    0.37    0.30
  -9  -4 -10    2.08    0.53
  -9   4 -10    2.65    0.62
   9   4  10    1.54    0.50
  -9  -4 -11    0.87    0.38
  -9   4 -11    0.51    0.36
  -9  -4 -12    0.28    0.30
  -9   4 -12    0.33    0.24
   9   5 -13    0.14    0.30
   9  -5 -13    0.00    0.26
  -9  -5  13   -0.08    0.19
   9  -5 -12    0.19    0.27
  -9  -5  12    0.16    0.27
   9   5 -12    0.65    0.32
   9  -5 -11    0.34    0.28
  -9  -5  11    1.00    0.39
   9   5 -11    1.19    0.46
   9  -5 -10    0.43    0.29
  -9   5  10    0.33    0.24
  -9  -5  10    0.57    0.33
   9  -5 -10    0.46    0.27
   9   5 -10    0.52    0.33
   9  -5  -9   -0.10    0.20
  -9   5   9   -0.18    0.23
  -9  -5   9    0.24    0.25
   9  -5  -9    0.22    0.22
   9   5  -9    0.39    0.34
   9  -5  -8    0.35    0.26
  -9   5   8   -0.49    0.26
  -9  -5   8    1.07    0.45
   9  -5  -8    0.60    0.26
   9   5  -8    0.07    0.22
   9  -5  -7    2.08    0.47
  -9   5   7    2.68    0.57
  -9  -5   7    2.75    0.61
   9  -5  -7    2.35    0.49
   9   5  -7    3.62    0.68
   9  -5  -6    0.55    0.28
  -9   5   6    0.30    0.27
  -9  -5   6    0.53    0.33
   9  -5  -6    0.42    0.31
   9   5  -6    0.92    0.35
   9  -5  -5    0.10    0.16
  -9   5   5   -0.22    0.18
  -9  -5   5   -0.02    0.25
   9  -5  -5    0.33    0.20
   9   5  -5    0.64    0.32
   9  -5  -4    0.05    0.15
  -9   5   4    0.49    0.28
  -9  -5   4    0.87    0.41
   9  -5  -4    0.39    0.26
   9   5  -4    0.75    0.37
   9  -5  -3    2.42    0.48
  -9   5   3    3.25    0.61
  -9  -5   3    3.93    0.75
   9  -5  -3    3.85    0.63
   9   5  -3    4.09    0.75
   9  -5  -2    5.36    0.68
  -9   5   2    6.86    0.86
  -9  -5   2    9.53    1.07
   9  -5  -2    8.08    0.91
   9   5  -2    6.02    0.84
   9  -5  -1    0.89    0.34
  -9   5   1    0.28    0.30
  -9  -5   1    0.31    0.35
   9   5  -1    1.08    0.42
  -9   5   0    2.81    0.55
  -9  -5   0    2.55    0.57
   9   5   0    2.65    0.56
  -9   5  -1    1.85    0.47
  -9  -5  -1    2.06    0.52
   9   5   1    1.74    0.50
  -9   5  -2    0.75    0.37
  -9  -5  -2    1.05    0.40
   9   5   2    0.70    0.32
  -9   5  -2    1.20    0.45
  -9   5  -3    2.56    0.56
  -9  -5  -3    3.74    0.68
   9   5   3    2.85    0.60
  -9   5  -3    3.66    0.70
  -9   5  -4    0.99    0.38
  -9  -5  -4    0.81    0.45
  -9   5  -4    0.92    0.41
   9   5   4    0.48    0.29
  -9   5  -5    4.52    0.75
  -9  -5  -5    5.27    0.80
   9   5   5    4.59    0.76
  -9   5  -5    3.96    0.71
  -9   5  -6    1.58    0.47
  -9  -5  -6    0.86    0.34
  -9   5  -6    1.10    0.41
   9   5   6    1.06    0.45
  -9   5  -7    0.05    0.20
  -9  -5  -7    0.54    0.23
  -9   5  -7    0.52    0.32
   9   5   7    0.07    0.18
  -9  -5  -8    0.21    0.27
  -9   5  -8    0.35    0.25
   9   5   8   -0.33    0.27
  -9  -5  -9    0.09    0.23
  -9   5  -9   -0.30    0.32
   9   5   9   -0.34    0.26
  -9  -5 -10    0.01    0.21
   9   5  10   -0.05    0.18
   9  -6 -11    0.05    0.30
  -9  -6  11    0.67    0.32
   9   6 -11    0.25    0.32
   9  -6 -10    1.15    0.39
  -9  -6  10    0.67    0.37
   9   6 -10    0.73    0.40
   9  -6  -9    0.23    0.28
   9   6  -9   -0.25    0.30
   9  -6  -8    0.97    0.39
  -9  -6   8    0.40    0.29
   9   6  -8    0.76    0.33
   9  -6  -7   -0.27    0.32
  -9   6   7    0.23    0.21
  -9  -6   7    0.15    0.23
   9  -6  -7    0.16    0.15
   9   6  -7    0.06    0.26
   9  -6  -6    0.44    0.26
  -9   6   6    0.08    0.15
  -9  -6   6    0.05    0.18
   9  -6  -6    0.17    0.16
   9   6  -6   -0.15    0.23
   9  -6  -5    0.96    0.36
  -9   6   5    0.88    0.35
  -9  -6   5    1.69    0.50
   9   6  -5    0.54    0.35
   9  -6  -4    1.75    0.43
  -9   6   4    1.53    0.47
  -9  -6   4    2.48    0.60
   9   6  -4    1.61    0.46
   9  -6  -3   -0.32    0.24
  -9   6   3    0.16    0.18
  -9  -6   3    0.02    0.19
   9   6  -3   -0.11    0.23
  -9   6   2    0.33    0.22
  -9  -6   2    0.43    0.34
   9   6  -2    0.47    0.31
  -9   6   1    0.37    0.23
  -9  -6   1    0.35    0.30
   9   6  -1    0.37    0.28
  -9   6   0    1.74    0.43
  -9  -6   0    1.43    0.45
   9   6   0    1.70    0.48
  -9   6  -1   -0.22    0.23
  -9  -6  -1   -0.05    0.20
  -9   6  -1    0.09    0.22
  -9   6  -2    0.96    0.39
  -9  -6  -2    1.84    0.51
   9   6   2    1.48    0.42
  -9   6  -2    1.67    0.50
  -9   6  -3    0.95    0.33
  -9  -6  -3    1.84    0.52
  -9   6  -3    1.24    0.49
   9   6   3    1.39    0.45
  -9   6  -4    2.52    0.55
  -9  -6  -4    2.06    0.51
  -9   6  -4    2.01    0.56
   9   6   4    3.74    0.66
  -9   6  -5    0.16    0.19
  -9  -6  -5    0.28    0.26
  -9   6  -5    0.77    0.42
   9   6   5    0.02    0.18
  -9   6  -6    0.19    0.23
  -9  -6  -6    0.08    0.22
  -9   6  -6    0.37    0.24
   9   6   6    0.21    0.26
  -9  -6  -7    4.48    0.75
  -9   6  -7    5.46    0.85
   9   6   7    4.16    0.71
  -9  -6  -8    0.57    0.37
  -9   6  -8    1.27    0.50
   9   6   8    0.90    0.39
   9  -7  -7    0.16    0.27
  -9  -7   7    0.46    0.36
   9   7  -7   -0.07    0.21
  -9  -7   6    0.26    0.34
   9   7  -6    0.31    0.34
  -9  -7   5    0.53    0.33
   9   7  -5   -0.08    0.22
  -9  -7   4    0.79    0.38
   9   7  -4   -0.09    0.21
  -9   7   3    0.19    0.24
  -9  -7   3    0.02    0.19
   9   7  -3    0.13    0.21
  -9   7   2    0.03    0.17
  -9  -7   2    0.20    0.24
   9   7  -2    0.38    0.29
  -9   7   1   -0.18    0.23
  -9  -7   1   -0.13    0.17
   9   7  -1    0.31    0.19
  -9   7   0    0.07    0.16
  -9  -7   0    0.14    0.22
   9   7   0    0.26    0.35
  -9   7  -1    1.45    0.43
  -9  -7  -1    2.93    0.63
  -9   7  -1    2.20    0.60
   9   7   1    2.56    0.57
  -9   7  -2    2.19    0.52
  -9  -7  -2    2.48    0.62
  -9   7  -2    2.72    0.64
   9   7   2    1.98    0.52
  -9   7  -3    3.09    0.59
  -9  -7  -3    4.25    0.74
  -9   7  -3    3.65    0.75
   9   7   3    3.31    0.65
  -9   7  -4    0.08    0.20
  -9  -7  -4    1.00    0.33
  -9   7  -4    0.42    0.39
   9   7   4    1.01    0.39
  -9   7  -5    1.19    0.41
  -9  -7  -5    2.11    0.55
  -9   7  -5    1.12    0.45
   9   7   5    1.75    0.50
 -10   0  13    0.10    0.33
  10   0 -13    0.23    0.25
 -10   0  12    0.63    0.37
  10   0 -12    0.90    0.40
 -10   0  11   -0.13    0.23
  10   0 -11   -0.37    0.27
 -10   0  10   -0.09    0.29
  10   0 -10    0.01    0.19
 -10   0   9    0.39    0.30
  10   0  -9    0.48    0.37
 -10   0   8    2.26    0.57
  10   0  -8    1.44    0.46
 -10   0   7    0.29    0.30
  10   0  -7    0.17    0.22
 -10   0   6    0.18    0.22
  10   0  -6    0.09    0.20
 -10   0   5    0.09    0.22
  10   0  -5   -0.46    0.27
 -10   0   4    1.00    0.38
  10   0  -4    0.67    0.27
 -10   0   3    0.21    0.26
  10   0  -3    0.06    0.20
 -10   0   2    6.75    0.92
  10   0  -2    7.23    0.91
 -10   0   1    0.62    0.36
  10   0  -1    0.49    0.29
 -10   0   0    0.29    0.32
  10   0   0   -0.03    0.20
 -10   0  -1    0.16    0.35
  10   0   1    0.22    0.31
 -10   0  -2    6.74    0.97
  10   0   2    6.85    0.92
 -10   0  -3    0.26    0.33
  10   0   3    0.04    0.19
 -10   0  -4    7.36    0.96
 -10   0  -4    6.97    0.84
  10   0   4    7.29    0.95
 -10   0  -5    0.27    0.33
  10   0   5    0.46    0.31
 -10   0  -5    0.32    0.23
 -10   0  -6    2.91    0.67
  10   0   6    2.46    0.58
 -10   0  -6    1.74    0.44
 -10   0  -7    0.29    0.30
 -10   0  -7    0.18    0.20
  10   0   7    0.43    0.30
 -10   0  -8    2.42    0.62
 -10   0  -8    2.37    0.50
 -10   0  -9    0.28    0.34
 -10   0  -9    0.07    0.15
 -10   0 -10    1.19    0.46
 -10   0 -10    1.05    0.35
 -10   1  13    0.26    0.22
 -10  -1  13    0.19    0.28
  10  -1 -13    0.22    0.21
  10   1 -13    0.28    0.30
 -10   1  12   -0.14    0.27
 -10  -1  12   -0.05    0.27
  10  -1 -12    0.15    0.23
  10   1 -12    0.24    0.28
 -10   1  11   -0.14    0.27
 -10  -1  11   -0.09    0.20
  10  -1 -11   -0.50    0.28
  10   1 -11    0.33    0.23
 -10   1  10   -0.11    0.27
 -10  -1  10    0.53    0.30
  10  -1 -10    0.40    0.24
  10   1 -10    0.24    0.32
 -10   1   9    1.60    0.50
 -10  -1   9    1.33    0.47
  10  -1  -9    1.81    0.49
  10   1  -9    1.24    0.46
 -10   1   8    1.02    0.38
 -10  -1   8    0.98    0.45
  10  -1  -8    0.95    0.38
  10   1  -8    1.03    0.41
 -10   1   7    0.46    0.32
 -10  -1   7    0.04    0.22
  10  -1  -7   -0.05    0.17
  10   1  -7    0.33    0.23
 -10   1   6   -0.28    0.25
 -10  -1   6   -0.22    0.24
  10  -1  -6    0.34    0.25
  10   1  -6   -0.40    0.33
 -10   1   5   -0.08    0.24
 -10  -1   5    0.58    0.28
  10   1  -5    0.58    0.35
 -10   1   4   -0.21    0.26
 -10  -1   4   -0.21    0.28
  10  -1  -4    0.29    0.29
  10   1  -4    0.05    0.21
 -10   1   3    0.27    0.26
 -10  -1   3    0.06    0.17
  10  -1  -3   -0.11    0.17
  10   1  -3    0.04    0.18
 -10   1   2    0.55    0.32
 -10  -1   2   -0.01    0.18
  10  -1  -2    0.66    0.28
  10   1  -2    0.40    0.27
 -10   1   1    0.92    0.36
 -10  -1   1    1.02    0.40
  10  -1  -1    1.43    0.41
  10   1  -1    1.10    0.41
 -10   1   0    0.76    0.38
 -10  -1   0    1.12    0.41
  10  -1   0    0.59    0.31
  10   1   0    1.13    0.41
 -10   1  -1    2.20    0.57
 -10  -1  -1    3.03    0.63
  10  -1   1    2.24    0.55
  10   1   1    1.43    0.44
 -10   1  -2    0.61    0.36
 -10  -1  -2    0.73    0.37
  10  -1   2    0.21    0.24
  10   1   2    0.70    0.35
 -10   1  -3    0.06    0.27
 -10  -1  -3    0.24    0.32
  10  -1   3    0.84    0.37
  10   1   3    0.60    0.32
 -10  -1  -4    5.04    0.83
 -10  -1  -4    4.22    0.64
 -10   1  -4    3.30    0.69
  10  -1   4    3.39    0.67
  10   1   4    3.30    0.67
 -10   1  -4    3.76    0.67
 -10   1  -5    0.54    0.37
 -10  -1  -5    0.15    0.32
  10  -1   5    0.89    0.40
  10   1   5    0.76    0.40
 -10  -1  -5    0.60    0.27
 -10   1  -5    0.65    0.32
 -10   1  -6    0.83    0.37
 -10  -1  -6    0.38    0.28
 -10  -1  -6    0.18    0.18
  10   1   6    0.77    0.37
 -10   1  -6    0.46    0.26
 -10   1  -7    1.06    0.43
 -10  -1  -7    0.28    0.26
 -10  -1  -7    0.69    0.25
 -10   1  -7    0.61    0.31
  10   1   7    0.63    0.36
 -10   1  -8    1.26    0.47
 -10  -1  -8    1.41    0.49
 -10   1  -8    0.84    0.33
  10   1   8    1.84    0.51
 -10   1  -9    0.75    0.37
 -10  -1  -9    1.03    0.43
 -10   1  -9    0.56    0.31
 -10   1 -10    1.29    0.47
 -10  -1 -10    1.62    0.50
 -10   1 -10    1.19    0.42
 -10   2  12    0.68    0.35
 -10  -2  12    1.06    0.40
  10  -2 -12    0.37    0.30
  10   2 -12    0.55    0.38
 -10   2  11    0.02    0.19
 -10  -2  11    0.42    0.37
  10  -2 -11    0.10    0.24
  10   2 -11    0.47    0.30
 -10   2  10    2.04    0.54
 -10  -2  10    1.99    0.59
  10  -2 -10    0.96    0.40
  10   2 -10    1.72    0.50
 -10   2   9   -0.04    0.22
 -10  -2   9    0.07    0.21
  10  -2  -9    0.09    0.21
  10   2  -9    0.36    0.30
 -10   2   8   -0.09    0.18
 -10  -2   8    0.24    0.28
  10  -2  -8    0.13    0.23
  10   2  -8    0.45    0.38
 -10   2   7    0.15    0.25
 -10  -2   7   -0.15    0.22
  10  -2  -7   -0.04    0.17
  10   2  -7    0.14    0.29
 -10   2   6    0.21    0.26
 -10  -2   6    0.33    0.27
  10  -2  -6    0.02    0.20
  10   2  -6    0.14    0.20
 -10   2   5    0.05    0.19
 -10  -2   5    0.32    0.29
  10  -2  -5   -0.17    0.22
  10   2  -5    0.24    0.18
 -10   2   4    0.17    0.17
 -10  -2   4    1.24    0.43
  10  -2  -4    0.68    0.31
  10   2  -4    0.83    0.40
 -10   2   3    0.37    0.28
 -10  -2   3    0.34    0.24
  10  -2  -3    0.26    0.24
  10   2  -3   -0.12    0.17
 -10   2   2    2.95    0.63
 -10  -2   2    2.77    0.59
  10  -2  -2    2.82    0.59
  10   2  -2    3.24    0.67
 -10   2   1    0.64    0.31
 -10  -2   1    0.63    0.37
  10  -2  -1    0.65    0.33
  10   2  -1    0.39    0.37
 -10   2   0    0.63    0.31
 -10  -2   0   -0.07    0.18
  10  -2   0    0.16    0.17
  10   2   0    0.16    0.23
 -10   2  -1    0.04    0.20
 -10  -2  -1    0.02    0.22
  10  -2   1    0.05    0.19
  10   2   1    0.00    0.18
 -10   2  -2    0.77    0.37
 -10  -2  -2    0.73    0.37
  10  -2   2    1.10    0.42
  10   2   2    0.07    0.23
 -10   2  -3    1.39    0.45
 -10  -2  -3    1.41    0.46
  10  -2   3    0.86    0.36
  10   2   3    1.05    0.39
 -10  -2  -3    1.00    0.33
 -10   2  -3    0.82    0.40
 -10   2  -4    0.61    0.34
 -10  -2  -4    0.41    0.35
  10  -2   4    0.88    0.40
  10   2   4    1.03    0.42
 -10   2  -4    0.73    0.30
 -10   2  -5    0.02    0.20
 -10  -2  -5   -0.08    0.23
  10   2   5    0.71    0.40
 -10   2  -5    0.30    0.26
 -10   2  -6    1.34    0.48
 -10  -2  -6    0.97    0.43
  10   2   6    0.25    0.23
 -10   2  -6    0.43    0.28
 -10   2  -7    0.32    0.27
 -10  -2  -7    0.49    0.41
 -10   2  -7    1.01    0.36
  10   2   7    0.17    0.25
 -10   2  -8    1.15    0.46
 -10  -2  -8    0.81    0.37
 -10   2  -8    0.85    0.37
  10   2   8   -0.02    0.19
 -10   2  -9    1.49    0.50
 -10  -2  -9    1.08    0.40
 -10   2  -9    0.72    0.35
 -10   3  11    0.77    0.38
 -10  -3  11    0.40    0.33
  10  -3 -11    0.71    0.35
  10   3 -11    0.30    0.29
 -10   3  10    2.03    0.54
 -10  -3  10    1.46    0.55
  10  -3 -10    1.88    0.51
  10   3 -10    2.85    0.66
 -10   3   9    0.07    0.25
 -10  -3   9    0.47    0.41
  10  -3  -9    0.44    0.28
  10   3  -9    0.11    0.31
 -10   3   8    1.39    0.48
 -10  -3   8    1.94    0.53
  10  -3  -8    1.34    0.41
  10   3  -8    1.37    0.49
 -10   3   7    0.64    0.38
 -10  -3   7    0.76    0.38
  10  -3  -7    0.92    0.38
  10   3  -7    0.58    0.39
 -10   3   6    1.32    0.42
 -10  -3   6    1.83    0.51
  10  -3  -6    1.04    0.44
  10   3  -6    1.88    0.51
 -10   3   5    1.32    0.44
 -10  -3   5    2.67    0.59
  10  -3  -5    1.82    0.53
  10   3  -5    1.43    0.45
 -10   3   4   -0.01    0.18
 -10  -3   4    0.47    0.25
  10  -3  -4    0.83    0.32
  10   3  -4   -0.28    0.20
 -10   3   3    0.74    0.33
 -10  -3   3    0.74    0.39
  10  -3  -3    0.04    0.21
  10   3  -3    0.73    0.34
 -10   3   2   -0.14    0.24
 -10  -3   2    0.02    0.22
  10  -3  -2    0.43    0.32
  10   3  -2   -0.13    0.18
 -10   3   1    0.06    0.19
 -10  -3   1   -0.05    0.19
  10  -3  -1    0.54    0.28
  10   3  -1    0.50    0.30
 -10   3   0    0.10    0.25
 -10  -3   0    0.45    0.30
  10  -3   0    0.49    0.37
  10   3   0    0.35    0.23
 -10   3  -1    1.16    0.41
 -10  -3  -1    1.49    0.47
  10  -3   1    1.22    0.43
  10   3   1    0.81    0.39
 -10   3  -2    0.13    0.23
 -10  -3  -2   -0.11    0.19
  10  -3   2    0.27    0.26
  10   3   2    0.51    0.33
 -10   3  -3    3.68    0.67
 -10  -3  -3    3.05    0.63
  10   3   3    3.05    0.63
 -10   3  -3    2.43    0.59
 -10   3  -4    0.43    0.30
 -10  -3  -4    0.32    0.30
  10   3   4    0.21    0.29
 -10   3  -4    0.27    0.26
 -10   3  -5    0.09    0.20
 -10  -3  -5   -0.22    0.24
  10   3   5    0.03    0.23
 -10   3  -5    0.22    0.25
 -10   3  -6    0.00    0.19
 -10  -3  -6    0.07    0.23
 -10   3  -6    0.70    0.35
  10   3   6    0.33    0.31
 -10   3  -7    0.63    0.34
 -10  -3  -7   -0.15    0.27
 -10   3  -7    0.53    0.26
  10   3   7    0.07    0.23
 -10   3  -8    0.34    0.31
 -10  -3  -8    0.14    0.27
 -10   3  -8    0.42    0.34
  10   3   8    0.28    0.24
  10  -4 -10    0.63    0.37
 -10   4  10    0.06    0.18
 -10  -4  10    0.81    0.40
  10  -4 -10    0.96    0.39
  10  -4  -9    0.40    0.34
 -10   4   9    0.18    0.29
 -10  -4   9    1.02    0.44
  10  -4  -9    0.25    0.25
  10   4  -9    0.28    0.39
  10  -4  -8    1.15    0.43
 -10   4   8    1.34    0.43
 -10  -4   8    1.99    0.57
  10  -4  -8    0.99    0.39
  10   4  -8    1.07    0.43
  10  -4  -7    1.58    0.44
 -10   4   7    1.36    0.48
 -10  -4   7    1.39    0.50
  10  -4  -7    1.75    0.48
  10   4  -7    1.71    0.52
  10  -4  -6    0.44    0.25
 -10   4   6    0.21    0.23
 -10  -4   6    0.27    0.32
  10  -4  -6    0.10    0.17
  10   4  -6    0.57    0.34
  10  -4  -5    0.03    0.19
 -10   4   5    0.11    0.18
 -10  -4   5   -0.06    0.18
  10  -4  -5    0.16    0.26
  10   4  -5    0.24    0.26
  10  -4  -4    0.35    0.25
 -10   4   4   -0.42    0.26
 -10  -4   4   -0.20    0.23
  10  -4  -4   -0.22    0.25
  10   4  -4   -0.21    0.21
  10  -4  -3    0.20    0.21
 -10   4   3    0.03    0.20
 -10  -4   3    0.08    0.24
  10  -4  -3    0.11    0.16
  10   4  -3    0.22    0.28
 -10   4   2    1.26    0.38
 -10  -4   2    1.83    0.51
  10  -4  -2    1.36    0.46
  10   4  -2    1.74    0.50
 -10   4   1    0.06    0.21
 -10  -4   1    0.10    0.23
  10  -4  -1    0.06    0.20
 -10   4   0    3.00    0.60
 -10  -4   0    4.03    0.74
  10  -4   0    2.80    0.61
  10   4   0    2.41    0.58
 -10   4  -1    1.49    0.47
 -10  -4  -1    1.69    0.52
  10   4   1    1.86    0.52
 -10   4  -2    1.24    0.47
 -10  -4  -2    1.60    0.48
  10   4   2    1.62    0.49
 -10   4  -2    1.33    0.44
 -10   4  -3    0.52    0.32
 -10  -4  -3    0.12    0.23
  10   4   3   -0.02    0.18
 -10   4  -3    0.25    0.35
 -10   4  -4    4.05    0.73
 -10  -4  -4    3.34    0.67
  10   4   4    4.01    0.73
 -10   4  -4    4.11    0.72
 -10   4  -5    0.94    0.42
 -10  -4  -5    0.16    0.35
  10   4   5    0.35    0.28
 -10   4  -5    0.03    0.33
 -10   4  -6    9.78    1.11
 -10   4  -6    8.74    1.06
 -10  -4  -6   10.62    1.19
  10   4   6    9.03    1.11
 -10   4  -7    1.42    0.48
 -10  -4  -7    1.44    0.55
 -10   4  -7    1.43    0.43
  10   4   7    2.26    0.60
  10  -5  -7   -0.06    0.25
 -10   5   7    0.11    0.18
 -10  -5   7   -0.06    0.32
  10  -5  -7   -0.18    0.24
  10   5  -7    0.12    0.21
  10  -5  -6    0.74    0.34
 -10   5   6    0.52    0.32
 -10  -5   6    0.79    0.36
  10  -5  -6    0.12    0.22
  10   5  -6    0.71    0.32
  10  -5  -5    0.35    0.22
 -10   5   5    0.04    0.24
 -10  -5   5    0.55    0.28
  10  -5  -5    0.01    0.17
  10   5  -5    0.52    0.29
  10  -5  -4    0.56    0.32
 -10   5   4    0.93    0.37
 -10  -5   4    0.82    0.42
  10  -5  -4    0.97    0.41
  10   5  -4    1.21    0.42
 -10   5   3    0.14    0.20
  10  -5  -3    0.70    0.34
  10   5  -3    0.89    0.43
 -10   5   2    0.19    0.28
 -10  -5   2    0.70    0.38
  10   5  -2    0.25    0.28
 -10   5   1    1.98    0.51
 -10  -5   1    2.68    0.66
  10   5  -1    2.01    0.50
 -10   5   0    0.03    0.23
 -10  -5   0    0.15    0.31
  10   5   0    0.65    0.37
 -10   5  -1    3.76    0.70
 -10  -5  -1    4.37    0.77
  10   5   1    4.02    0.73
 -10   5  -2    0.46    0.34
 -10  -5  -2    0.82    0.38
  10   5   2    1.07    0.44
 -10   5  -2    1.01    0.44
 -10   5  -3    2.05    0.56
 -10  -5  -3    2.18    0.60
  10   5   3    0.96    0.40
 -10   5  -3    1.30    0.47
 -10   5  -4    0.57    0.30
 -10  -5  -4    0.98    0.41
  10   5   4   -0.18    0.28
 -10   5  -4    0.43    0.34
 -11   0   6    0.25    0.25
  11   0  -6    0.13    0.25
 -11   0   5   -0.26    0.22
  11   0  -5    0.71    0.39
 -11   0   4    0.02    0.18
  11   0  -4    0.33    0.29
 -11   0   3    0.65    0.35
  11   0  -3    0.75    0.39
 -11   0   2    0.20    0.34
  11   0  -2    0.63    0.37
 -11   0   1    0.72    0.36
  11   0  -1    0.76    0.38
 -11   0   0   -0.02    0.25
  11   0   0    0.22    0.36
 -11   0  -1    1.57    0.45
  11   0   1    1.16    0.41
 -11   0  -2    0.37    0.32
  11   0   2   -0.11    0.20
 -11   0  -3    0.34    0.30
  11   0   3    0.98    0.36
 -11   0  -3    0.54    0.28
 -11   1   5    0.87    0.39
 -11  -1   5    0.32    0.31
  11  -1  -5    0.57    0.36
  11   1  -5    0.45    0.33
 -11   1   4    0.12    0.21
 -11  -1   4    0.40    0.36
  11  -1  -4   -0.15    0.21
  11   1  -4    0.34    0.33
 -11   1   3    0.78    0.39
 -11  -1   3    0.79    0.39
  11  -1  -3    0.69    0.38
  11   1  -3    0.61    0.37
 -11   1   2    0.79    0.40
 -11  -1   2    1.28    0.48
  11  -1  -2    1.15    0.44
  11   1  -2    0.43    0.32
 -11   1   1    0.27    0.28
 -11  -1   1    0.08    0.24
  11  -1  -1    0.28    0.26
  11   1  -1    0.30    0.35
 -11  -1   0    0.35    0.28
  11  -1   0    0.03    0.21
  11   1   0    0.00    0.18
 -11   1  -1    0.95    0.44
 -11  -1  -1    0.40    0.25
  11  -1   1    0.54    0.35
  11   1   1    0.91    0.47
 -11   1  -2    0.25    0.25
 -11  -1  -2    0.37    0.34
  11  -1   2   -0.04    0.19
  11   1   2    0.16    0.26
 -11   2   4    0.41    0.33
 -11  -2   4    0.64    0.38
  11  -2  -4    0.13    0.30
 -11   2   3    0.64    0.34
 -11  -2   3    0.76    0.40
  11  -2  -3    0.32    0.29
  11   2  -3    0.20    0.26
 -11   2   2   -0.37    0.29
 -11  -2   2    0.06    0.22
  11  -2  -2    0.01    0.20
  11   2  -2    0.31    0.35
 -11   2   1    0.41    0.29
 -11  -2   1    0.03    0.28
  11  -2  -1   -0.39    0.28
  11   2  -1    0.34    0.32
 -11   2   0    0.23    0.26
 -11  -2   0    0.06    0.28
  11  -2   0   -0.32    0.26
  11   2   0    0.03    0.18
   0   0   0    0.00    0.00
;
_shelx_hkl_checksum              34168
loop_
_space_group_symop_operation_xyz
'x, y, z'
'-x+1/2, y+1/2, -z+1/2'
'-x, -y, -z'
'x-1/2, -y-1/2, z-1/2'
loop_
_atom_site_label
_atom_site_type_symbol
_atom_site_fract_x
_atom_site_fract_y
_atom_site_fract_z
_atom_site_U_iso_or_equiv
_atom_site_adp_type
_atom_site_occupancy
_atom_site_site_symmetry_order
_atom_site_calc_flag
_atom_site_refinement_flags_posn
_atom_site_refinement_flags_adp
_atom_site_refinement_flags_occupancy
_atom_site_disorder_assembly
_atom_site_disorder_group
V1 V 0.4562(2) 0.01958(18) 0.49005(12) 0.0729(7) Uani 0.5 1 d . . P . .
O1 O 0.3084(10) 0.0798(8) 0.4718(5) 0.095(3) Uani 0.5 1 d . . P . .
O2 O 0.7766(5) 0.1227(4) 0.0804(2) 0.0772(13) Uani 1 1 d . . . . .
O3 O 0.6608(8) 0.3082(7) 0.0948(3) 0.0611(17) Uani 0.684(10) 1 d D U P A 1
O3B O 0.6144(19) 0.2568(17) 0.0884(7) 0.067(3) Uani 0.316(10) 1 d D U P A 2
O4 O 0.9819(3) 0.7443(3) 0.67422(16) 0.0506(9) Uani 1 1 d . . . . .
O5 O 0.7777(5) 0.8341(4) 0.6401(3) 0.0489(15) Uani 0.820(9) 1 d D U P B 1
O5B O 0.755(2) 0.8051(18) 0.6726(12) 0.046(3) Uani 0.180(9) 1 d D U P B 2
N1 N 0.6000(4) 0.1451(3) 0.46370(19) 0.0405(9) Uani 1 1 d . . . . .
N2 N 0.4920(4) -0.0861(3) 0.41946(18) 0.0405(10) Uani 1 1 d . . . . .
C1 C 0.6072(5) 0.0721(4) 0.3580(2) 0.0423(11) Uani 1 1 d . . . . .
C2 C 0.6375(5) 0.1578(4) 0.4052(2) 0.0434(12) Uani 1 1 d . . . . .
C3 C 0.7123(5) 0.2718(4) 0.3980(3) 0.0470(12) Uani 1 1 d . . . . .
H3A H 0.7502 0.3016 0.3622 0.056 Uiso 1 1 calc R U . . .
C4 C 0.7183(5) 0.3286(4) 0.4521(2) 0.0484(13) Uani 1 1 d . . . . .
H4A H 0.7610 0.4063 0.4612 0.058 Uiso 1 1 calc R U . . .
C5 C 0.6490(5) 0.2513(4) 0.4933(2) 0.0418(12) Uani 1 1 d . . . . .
C6 C 0.6345(5) 0.2774(4) 0.5535(2) 0.0428(12) Uani 1 1 d . . . . .
C7 C 0.5697(5) 0.1993(4) 0.5943(2) 0.0429(12) Uani 1 1 d . . . . .
C8 C 0.5594(5) 0.2246(4) 0.6567(2) 0.0497(13) Uani 1 1 d . . . . .
H8A H 0.5932 0.2967 0.6771 0.060 Uiso 1 1 calc R U . . .
C9 C 0.4934(5) 0.1286(4) 0.6818(2) 0.0467(12) Uani 1 1 d . . . . .
H9A H 0.4727 0.1196 0.7227 0.056 Uiso 1 1 calc R U . . .
C10 C 0.5392(5) -0.0422(4) 0.3664(2) 0.0440(12) Uani 1 1 d . . . . .
C11 C 0.6414(5) 0.1069(4) 0.2968(2) 0.0444(12) Uani 1 1 d . . . . .
C12 C 0.7433(5) 0.0429(4) 0.2651(3) 0.0520(14) Uani 1 1 d . . . . .
H12A H 0.7967 -0.0214 0.2846 0.062 Uiso 1 1 calc R U . . .
C13 C 0.5682(5) 0.2029(4) 0.2673(2) 0.0464(12) Uani 1 1 d . . . . .
H13A H 0.5006 0.2491 0.2879 0.056 Uiso 1 1 calc R U . . .
C14 C 0.7671(5) 0.0716(5) 0.2067(3) 0.0522(14) Uani 1 1 d . . . . .
H14A H 0.8361 0.0263 0.1863 0.063 Uiso 1 1 calc R U . . .
C15 C 0.5924(5) 0.2322(4) 0.2083(3) 0.0481(12) Uani 1 1 d . . . . .
H15A H 0.5410 0.2981 0.1891 0.058 Uiso 1 1 calc R U . . .
C16 C 0.6913(5) 0.1664(4) 0.1765(2) 0.0489(13) Uani 1 1 d . . . . .
C17 C 0.7111(6) 0.1901(6) 0.1122(3) 0.0607(15) Uani 1 1 d . . . . .
C18 C 0.6699(10) 0.3395(10) 0.0321(4) 0.075(2) Uani 0.684(10) 1 d D U P A 1
H18A H 0.7527 0.2975 0.0158 0.090 Uiso 0.684(10) 1 calc R U P A 1
H18B H 0.6829 0.4295 0.0278 0.090 Uiso 0.684(10) 1 calc R U P A 1
C19 C 0.5358(15) 0.3000(16) -0.0018(6) 0.105(4) Uani 0.684(10) 1 d D U P A 1
H19A H 0.5396 0.3235 -0.0441 0.157 Uiso 0.684(10) 1 calc R U P A 1
H19B H 0.4540 0.3402 0.0152 0.157 Uiso 0.684(10) 1 calc R U P A 1
H19C H 0.5256 0.2104 0.0012 0.157 Uiso 0.684(10) 1 calc R U P A 1
C18B C 0.597(3) 0.2520(19) 0.0228(8) 0.078(3) Uani 0.316(10) 1 d D U P A 2
H18C H 0.5357 0.1823 0.0090 0.094 Uiso 0.316(10) 1 calc R U P A 2
H18D H 0.6906 0.2450 0.0047 0.094 Uiso 0.316(10) 1 calc R U P A 2
C19B C 0.526(3) 0.375(2) 0.0080(13) 0.094(6) Uani 0.316(10) 1 d D U P A 2
H19D H 0.5066 0.3818 -0.0355 0.142 Uiso 0.316(10) 1 calc R U P A 2
H19E H 0.5902 0.4422 0.0218 0.142 Uiso 0.316(10) 1 calc R U P A 2
H19F H 0.4369 0.3810 0.0281 0.142 Uiso 0.316(10) 1 calc R U P A 2
C21 C 0.6918(5) 0.3972(4) 0.5779(2) 0.0412(11) Uani 1 1 d . . . . .
C22 C 0.8295(5) 0.4059(4) 0.6037(3) 0.0604(16) Uani 1 1 d . . . . .
H22A H 0.8884 0.3347 0.6052 0.072 Uiso 1 1 calc R U . . .
C23 C 0.6089(5) 0.5023(4) 0.5771(3) 0.0548(14) Uani 1 1 d . . . . .
H23A H 0.5134 0.4991 0.5605 0.066 Uiso 1 1 calc R U . . .
C24 C 0.8832(5) 0.5145(4) 0.6270(3) 0.0566(15) Uani 1 1 d . . . . .
H24A H 0.9780 0.5175 0.6444 0.068 Uiso 1 1 calc R U . . .
C25 C 0.6634(5) 0.6119(4) 0.6000(3) 0.0522(14) Uani 1 1 d . . . . .
H25A H 0.6052 0.6836 0.5982 0.063 Uiso 1 1 calc R U . . .
C26 C 0.8003(4) 0.6190(4) 0.6253(2) 0.0366(10) Uani 1 1 d . . . . .
C27 C 0.8645(5) 0.7355(4) 0.6511(2) 0.0402(11) Uani 1 1 d . . . . .
C28 C 0.8336(8) 0.9552(6) 0.6583(3) 0.0447(15) Uani 0.820(9) 1 d D U P B 1
H28A H 0.7793 1.0197 0.6354 0.054 Uiso 0.820(9) 1 calc R U P B 1
H28B H 0.9345 0.9612 0.6482 0.054 Uiso 0.820(9) 1 calc R U P B 1
C29 C 0.8242(7) 0.9786(6) 0.7244(3) 0.0524(16) Uani 0.820(9) 1 d D U P B 1
H29A H 0.8423 1.0659 0.7329 0.079 Uiso 0.820(9) 1 calc R U P B 1
H29B H 0.8955 0.9283 0.7470 0.079 Uiso 0.820(9) 1 calc R U P B 1
H29C H 0.7287 0.9567 0.7362 0.079 Uiso 0.820(9) 1 calc R U P B 1
C28B C 0.801(3) 0.922(2) 0.7003(14) 0.049(3) Uani 0.180(9) 1 d D U P B 2
H28C H 0.8785 0.9064 0.7315 0.059 Uiso 0.180(9) 1 calc R U P B 2
H28D H 0.7203 0.9600 0.7200 0.059 Uiso 0.180(9) 1 calc R U P B 2
C29B C 0.853(4) 1.009(3) 0.6544(15) 0.055(6) Uani 0.180(9) 1 d D U P B 2
H29D H 0.8797 1.0879 0.6737 0.083 Uiso 0.180(9) 1 calc R U P B 2
H29E H 0.7774 1.0234 0.6230 0.083 Uiso 0.180(9) 1 calc R U P B 2
H29F H 0.9366 0.9740 0.6364 0.083 Uiso 0.180(9) 1 calc R U P B 2
loop_
_atom_site_aniso_label
_atom_site_aniso_U_11
_atom_site_aniso_U_22
_atom_site_aniso_U_33
_atom_site_aniso_U_23
_atom_site_aniso_U_13
_atom_site_aniso_U_12
V1 0.0597(14) 0.0463(12) 0.1088(19) -0.0082(11) -0.0261(12) 0.0080(9)
O1 0.077(6) 0.065(6) 0.139(9) -0.001(6) -0.023(6) 0.013(5)
O2 0.069(3) 0.080(3) 0.084(3) -0.027(2) 0.013(2) -0.008(2)
O3 0.054(4) 0.061(4) 0.067(3) -0.001(3) -0.005(3) -0.004(3)
O3B 0.063(7) 0.072(7) 0.068(5) 0.004(6) 0.010(6) -0.004(6)
O4 0.0374(18) 0.0349(17) 0.077(3) -0.0144(16) -0.0162(17) -0.0030(14)
O5 0.045(2) 0.022(2) 0.076(4) -0.011(2) -0.019(2) 0.0005(17)
O5B 0.051(7) 0.022(6) 0.064(7) -0.011(6) -0.013(7) -0.003(5)
N1 0.0367(19) 0.0243(18) 0.058(3) -0.0046(17) -0.0144(18) 0.0029(15)
N2 0.040(2) 0.0188(17) 0.061(3) -0.0059(17) -0.0125(18) 0.0013(15)
C1 0.034(2) 0.027(2) 0.064(3) -0.005(2) -0.013(2) 0.0048(18)
C2 0.033(2) 0.025(2) 0.070(4) -0.004(2) -0.015(2) 0.0036(18)
C3 0.040(2) 0.029(2) 0.070(4) -0.001(2) -0.012(2) -0.0016(19)
C4 0.041(3) 0.027(2) 0.074(4) -0.006(2) -0.020(2) -0.0047(19)
C5 0.035(2) 0.020(2) 0.068(3) -0.006(2) -0.020(2) 0.0001(17)
C6 0.034(2) 0.022(2) 0.069(3) -0.008(2) -0.018(2) 0.0042(18)
C7 0.039(2) 0.021(2) 0.066(3) -0.007(2) -0.015(2) 0.0027(18)
C8 0.052(3) 0.027(2) 0.068(4) -0.013(2) -0.013(2) -0.001(2)
C9 0.049(3) 0.029(2) 0.061(3) -0.009(2) -0.009(2) 0.000(2)
C10 0.035(2) 0.026(2) 0.068(3) -0.008(2) -0.014(2) 0.0027(18)
C11 0.039(2) 0.027(2) 0.065(3) -0.009(2) -0.012(2) -0.0041(19)
C12 0.039(3) 0.033(2) 0.083(4) -0.008(3) -0.009(3) 0.003(2)
C13 0.039(2) 0.031(2) 0.069(4) -0.009(2) -0.005(2) 0.0017(19)
C14 0.035(3) 0.043(3) 0.078(4) -0.018(3) 0.001(2) -0.005(2)
C15 0.041(3) 0.032(2) 0.070(4) -0.006(2) -0.009(2) -0.004(2)
C16 0.036(2) 0.041(3) 0.069(4) -0.015(2) -0.008(2) -0.009(2)
C17 0.041(3) 0.078(4) 0.063(4) -0.016(3) 0.000(3) -0.018(3)
C18 0.068(5) 0.088(6) 0.069(4) 0.004(4) 0.002(4) -0.010(4)
C19 0.107(8) 0.134(10) 0.070(6) -0.003(8) -0.018(5) -0.040(8)
C18B 0.080(7) 0.086(7) 0.068(5) 0.008(7) 0.005(6) -0.009(6)
C19B 0.116(12) 0.102(11) 0.066(10) 0.017(10) 0.018(9) 0.013(10)
C21 0.040(2) 0.023(2) 0.059(3) -0.005(2) -0.011(2) -0.0015(18)
C22 0.047(3) 0.026(2) 0.105(5) -0.014(3) -0.028(3) 0.010(2)
C23 0.036(3) 0.031(2) 0.094(4) -0.015(3) -0.021(3) 0.005(2)
C24 0.039(3) 0.031(2) 0.096(4) -0.016(3) -0.027(3) 0.004(2)
C25 0.040(3) 0.026(2) 0.088(4) -0.016(2) -0.022(2) 0.0073(19)
C26 0.033(2) 0.023(2) 0.052(3) -0.0059(19) -0.008(2) 0.0002(17)
C27 0.038(2) 0.027(2) 0.055(3) -0.009(2) -0.008(2) 0.0027(18)
C28 0.051(3) 0.019(3) 0.062(3) -0.003(3) -0.011(3) -0.006(3)
C29 0.059(4) 0.032(3) 0.065(3) -0.008(3) -0.007(3) -0.005(3)
C28B 0.052(7) 0.024(6) 0.069(7) -0.011(6) -0.015(7) -0.008(6)
C29B 0.053(12) 0.029(10) 0.080(11) 0.001(9) -0.019(10) -0.008(10)
loop_
_atom_type_symbol
_atom_type_description
_atom_type_scat_dispersion_real
_atom_type_scat_dispersion_imag
_atom_type_scat_source
C C 0.0033 0.0016 'International Tables Vol C Tables 4.2.6.8 and 6.1.1.4'
H H 0.0000 0.0000 'International Tables Vol C Tables 4.2.6.8 and 6.1.1.4'
N N 0.0061 0.0033 'International Tables Vol C Tables 4.2.6.8 and 6.1.1.4'
O O 0.0106 0.0060 'International Tables Vol C Tables 4.2.6.8 and 6.1.1.4'
V V 0.3005 0.5294 'International Tables Vol C Tables 4.2.6.8 and 6.1.1.4'
loop_
_geom_angle_atom_site_label_1
_geom_angle_atom_site_label_2
_geom_angle_atom_site_label_3
_geom_angle
_geom_angle_site_symmetry_1
_geom_angle_site_symmetry_3
_geom_angle_publ_flag
V1 V1 O1 168.6(6) 3_656 . ?
V1 V1 N2 86.1(3) 3_656 . ?
O1 V1 N2 103.0(4) . . ?
V1 V1 N1 82.6(3) 3_656 . ?
O1 V1 N1 103.9(4) . . ?
N2 V1 N1 90.58(19) . . ?
V1 V1 N1 69.8(3) 3_656 3_656 ?
O1 V1 N1 103.4(4) . 3_656 ?
N2 V1 N1 87.65(17) . 3_656 ?
N1 V1 N1 152.35(11) . 3_656 ?
V1 V1 N2 66.4(3) 3_656 3_656 ?
O1 V1 N2 104.3(4) . 3_656 ?
N2 V1 N2 152.52(11) . 3_656 ?
N1 V1 N2 86.05(17) . 3_656 ?
N1 V1 N2 82.97(17) 3_656 3_656 ?
C17 O3 C18 116.1(7) . . ?
C17 O3B C18B 115.8(15) . . ?
C27 O5 C28 117.1(4) . . ?
C27 O5B C28B 114(2) . . ?
C2 N1 C5 105.7(4) . . ?
C2 N1 V1 123.6(3) . . ?
C5 N1 V1 128.6(4) . . ?
C2 N1 V1 128.5(3) . 3_656 ?
C5 N1 V1 123.1(3) . 3_656 ?
V1 N1 V1 27.65(11) . 3_656 ?
C10 N2 C7 105.6(4) . 3_656 ?
C10 N2 V1 124.0(3) . . ?
C7 N2 V1 126.7(3) 3_656 . ?
C10 N2 V1 128.3(3) . 3_656 ?
C7 N2 V1 124.6(3) 3_656 3_656 ?
V1 N2 V1 27.48(11) . 3_656 ?
C10 C1 C2 123.3(5) . . ?
C10 C1 C11 118.3(4) . . ?
C2 C1 C11 118.3(4) . . ?
N1 C2 C1 125.8(4) . . ?
N1 C2 C3 110.3(4) . . ?
C1 C2 C3 124.0(5) . . ?
C4 C3 C2 106.7(5) . . ?
C4 C3 H3A 126.7 . . ?
C2 C3 H3A 126.7 . . ?
C3 C4 C5 108.0(4) . . ?
C3 C4 H4A 126.0 . . ?
C5 C4 H4A 126.0 . . ?
C6 C5 N1 125.4(4) . . ?
C6 C5 C4 125.3(4) . . ?
N1 C5 C4 109.4(4) . . ?
C5 C6 C7 125.1(4) . . ?
C5 C6 C21 118.4(4) . . ?
C7 C6 C21 116.5(5) . . ?
N2 C7 C6 125.6(5) 3_656 . ?
N2 C7 C8 109.6(4) 3_656 . ?
C6 C7 C8 124.9(4) . . ?
C9 C8 C7 108.4(4) . . ?
C9 C8 H8A 125.8 . . ?
C7 C8 H8A 125.8 . . ?
C8 C9 C10 105.9(5) . 3_656 ?
C8 C9 H9A 127.1 . . ?
C10 C9 H9A 127.1 3_656 . ?
N2 C10 C1 126.2(4) . . ?
N2 C10 C9 110.6(4) . 3_656 ?
C1 C10 C9 123.2(5) . 3_656 ?
C13 C11 C12 117.6(5) . . ?
C13 C11 C1 120.1(4) . . ?
C12 C11 C1 122.2(4) . . ?
C14 C12 C11 121.4(5) . . ?
C14 C12 H12A 119.3 . . ?
C11 C12 H12A 119.3 . . ?
C15 C13 C11 121.1(5) . . ?
C15 C13 H13A 119.5 . . ?
C11 C13 H13A 119.5 . . ?
C12 C14 C16 121.0(5) . . ?
C12 C14 H14A 119.5 . . ?
C16 C14 H14A 119.5 . . ?
C13 C15 C16 121.1(5) . . ?
C13 C15 H15A 119.5 . . ?
C16 C15 H15A 119.5 . . ?
C14 C16 C15 117.8(5) . . ?
C14 C16 C17 120.2(5) . . ?
C15 C16 C17 121.9(5) . . ?
O2 C17 O3B 118.8(9) . . ?
O2 C17 O3 124.1(6) . . ?
O2 C17 C16 124.1(6) . . ?
O3B C17 C16 112.3(9) . . ?
O3 C17 C16 111.3(5) . . ?
O3 C18 C19 108.9(9) . . ?
O3 C18 H18A 109.9 . . ?
C19 C18 H18A 109.9 . . ?
O3 C18 H18B 109.9 . . ?
C19 C18 H18B 109.9 . . ?
H18A C18 H18B 108.3 . . ?
C18 C19 H19A 109.5 . . ?
C18 C19 H19B 109.5 . . ?
H19A C19 H19B 109.5 . . ?
C18 C19 H19C 109.5 . . ?
H19A C19 H19C 109.5 . . ?
H19B C19 H19C 109.5 . . ?
O3B C18B C19B 101.9(18) . . ?
O3B C18B H18C 111.4 . . ?
C19B C18B H18C 111.4 . . ?
O3B C18B H18D 111.4 . . ?
C19B C18B H18D 111.4 . . ?
H18C C18B H18D 109.3 . . ?
C18B C19B H19D 109.5 . . ?
C18B C19B H19E 109.5 . . ?
H19D C19B H19E 109.5 . . ?
C18B C19B H19F 109.5 . . ?
H19D C19B H19F 109.5 . . ?
H19E C19B H19F 109.5 . . ?
C23 C21 C22 117.5(4) . . ?
C23 C21 C6 121.5(4) . . ?
C22 C21 C6 121.0(4) . . ?
C24 C22 C21 121.8(4) . . ?
C24 C22 H22A 119.1 . . ?
C21 C22 H22A 119.1 . . ?
C21 C23 C25 120.7(4) . . ?
C21 C23 H23A 119.6 . . ?
C25 C23 H23A 119.6 . . ?
C22 C24 C26 120.3(4) . . ?
C22 C24 H24A 119.9 . . ?
C26 C24 H24A 119.9 . . ?
C26 C25 C23 121.1(4) . . ?
C26 C25 H25A 119.4 . . ?
C23 C25 H25A 119.4 . . ?
C25 C26 C24 118.6(4) . . ?
C25 C26 C27 123.3(4) . . ?
C24 C26 C27 118.1(4) . . ?
O4 C27 O5 123.0(4) . . ?
O4 C27 O5B 119.6(9) . . ?
O4 C27 C26 125.0(4) . . ?
O5 C27 C26 111.8(4) . . ?
O5B C27 C26 107.6(9) . . ?
O5 C28 C29 112.4(7) . . ?
O5 C28 H28A 109.1 . . ?
C29 C28 H28A 109.1 . . ?
O5 C28 H28B 109.1 . . ?
C29 C28 H28B 109.1 . . ?
H28A C28 H28B 107.9 . . ?
C28 C29 H29A 109.5 . . ?
C28 C29 H29B 109.5 . . ?
H29A C29 H29B 109.5 . . ?
C28 C29 H29C 109.5 . . ?
H29A C29 H29C 109.5 . . ?
H29B C29 H29C 109.5 . . ?
O5B C28B C29B 111(3) . . ?
O5B C28B H28C 109.4 . . ?
C29B C28B H28C 109.4 . . ?
O5B C28B H28D 109.4 . . ?
C29B C28B H28D 109.4 . . ?
H28C C28B H28D 108.0 . . ?
C28B C29B H29D 109.5 . . ?
C28B C29B H29E 109.5 . . ?
H29D C29B H29E 109.5 . . ?
C28B C29B H29F 109.5 . . ?
H29D C29B H29F 109.5 . . ?
H29E C29B H29F 109.5 . . ?
loop_
_geom_bond_atom_site_label_1
_geom_bond_atom_site_label_2
_geom_bond_distance
_geom_bond_site_symmetry_2
_geom_bond_publ_flag
V1 V1 1.004(4) 3_656 ?
V1 O1 1.566(9) . ?
V1 N2 1.994(4) . ?
V1 N1 2.031(4) . ?
V1 N1 2.146(4) 3_656 ?
V1 N2 2.172(5) 3_656 ?
O2 C17 1.212(7) . ?
O3 C17 1.412(10) . ?
O3 C18 1.450(9) . ?
O3B C17 1.254(18) . ?
O3B C18B 1.464(15) . ?
O4 C27 1.192(5) . ?
O5 C27 1.360(6) . ?
O5 C28 1.464(7) . ?
O5B C27 1.39(2) . ?
O5B C28B 1.466(16) . ?
N1 C2 1.380(7) . ?
N1 C5 1.392(5) . ?
N1 V1 2.146(4) 3_656 ?
N2 C10 1.374(6) . ?
N2 C7 1.385(5) 3_656 ?
N2 V1 2.172(5) 3_656 ?
C1 C10 1.413(6) . ?
C1 C2 1.420(7) . ?
C1 C11 1.472(7) . ?
C2 C3 1.437(6) . ?
C3 C4 1.354(7) . ?
C3 H3A 0.9500 . ?
C4 C5 1.430(7) . ?
C4 H4A 0.9500 . ?
C5 C6 1.388(7) . ?
C6 C7 1.409(7) . ?
C6 C21 1.498(6) . ?
C7 N2 1.385(5) 3_656 ?
C7 C8 1.428(7) . ?
C8 C9 1.352(7) . ?
C8 H8A 0.9500 . ?
C9 C10 1.446(7) 3_656 ?
C9 H9A 0.9500 . ?
C10 C9 1.446(7) 3_656 ?
C11 C13 1.391(7) . ?
C11 C12 1.408(7) . ?
C12 C14 1.372(8) . ?
C12 H12A 0.9500 . ?
C13 C15 1.387(7) . ?
C13 H13A 0.9500 . ?
C14 C16 1.400(7) . ?
C14 H14A 0.9500 . ?
C15 C16 1.398(7) . ?
C15 H15A 0.9500 . ?
C16 C17 1.482(8) . ?
C18 C19 1.491(12) . ?
C18 H18A 0.9900 . ?
C18 H18B 0.9900 . ?
C19 H19A 0.9800 . ?
C19 H19B 0.9800 . ?
C19 H19C 0.9800 . ?
C18B C19B 1.521(17) . ?
C18B H18C 0.9900 . ?
C18B H18D 0.9900 . ?
C19B H19D 0.9800 . ?
C19B H19E 0.9800 . ?
C19B H19F 0.9800 . ?
C21 C23 1.380(6) . ?
C21 C22 1.386(6) . ?
C22 C24 1.372(6) . ?
C22 H22A 0.9500 . ?
C23 C25 1.381(6) . ?
C23 H23A 0.9500 . ?
C24 C26 1.375(6) . ?
C24 H24A 0.9500 . ?
C25 C26 1.375(6) . ?
C25 H25A 0.9500 . ?
C26 C27 1.500(6) . ?
C28 C29 1.504(8) . ?
C28 H28A 0.9900 . ?
C28 H28B 0.9900 . ?
C29 H29A 0.9800 . ?
C29 H29B 0.9800 . ?
C29 H29C 0.9800 . ?
C28B C29B 1.500(17) . ?
C28B H28C 0.9900 . ?
C28B H28D 0.9900 . ?
C29B H29D 0.9800 . ?
C29B H29E 0.9800 . ?
C29B H29F 0.9800 . ?
