#------------------------------------------------------------------------------
#$Date: 2021-06-15 04:02:23 +0300 (Tue, 15 Jun 2021) $
#$Revision: 266448 $
#$URL: file:///home/coder/svn-repositories/cod/cif/1/56/34/1563420.cif $
#------------------------------------------------------------------------------
#
# This file is available in the Crystallography Open Database (COD),
# http://www.crystallography.net/
#
# All data on this site have been placed in the public domain by the
# contributors.
#
data_1563420
loop_
_publ_author_name
'Sasano, Yoshifumi'
'Maeda, Hiromitsu'
'Tanaka, Hiroki'
'Haketa, Yohei'
'Kobayashi, Yoichi'
'Ishibashi, Yukihide'
'Asahi, Tsuyoshi'
'Morimoto, Tatsuki'
'Yasuda, Nobuhiro'
'Sato, Ryuma'
'Shigeta, Yasuteru'
_publ_section_title
;
 Ion-pairing&#x00A0;\p-electronic systems: ordered arrangement and
 noncovalent interactions of negatively charged porphyrins
;
_journal_name_full               'Chemical Science'
_journal_paper_doi               10.1039/D1SC02260A
_journal_year                    2021
_chemical_formula_moiety         'C38 H8 F15 N4 O Pd, C16 H36 N'
_chemical_formula_sum            'C54 H44 F15 N5 O Pd'
_chemical_formula_weight         1170.34
_space_group_crystal_system      orthorhombic
_space_group_IT_number           19
_space_group_name_Hall           'P 2ac 2ab'
_space_group_name_H-M_alt        'P 21 21 21'
_atom_sites_solution_hydrogens   geom
_audit_creation_method           SHELXL-2014/7
_audit_update_record
;
2019-03-30 deposited with the CCDC.	2021-06-14 downloaded from the CCDC.
;
_cell_angle_alpha                90
_cell_angle_beta                 90
_cell_angle_gamma                90
_cell_formula_units_Z            4
_cell_length_a                   8.2881(3)
_cell_length_b                   22.4879(6)
_cell_length_c                   26.3395(9)
_cell_measurement_reflns_used    27310
_cell_measurement_temperature    90(2)
_cell_measurement_theta_max      28.101
_cell_measurement_theta_min      1.310
_cell_volume                     4909.2(3)
_computing_cell_refinement       'Rapid Auto(Rigaku)'
_computing_data_collection       'Rapid Auto(Rigaku)'
_computing_data_reduction        'Rapid Auto(Rigaku)'
_computing_structure_refinement  'SHELXL-2014/7 (Sheldrick, 2014)'
_computing_structure_solution    'SHELXS-97 (Sheldrick, 1990)'
_diffrn_ambient_temperature      90(2)
_diffrn_detector_area_resol_mean 29
_diffrn_measured_fraction_theta_full 0.995
_diffrn_measured_fraction_theta_max 0.994
_diffrn_measurement_device_type  'Rigaku Saturn 724'
_diffrn_measurement_method       'Oscillation Photograph'
_diffrn_radiation_monochromator  'Si(111) Channel Cut'
_diffrn_radiation_type           Synchrotron
_diffrn_radiation_wavelength     0.78192
_diffrn_reflns_av_R_equivalents  0.0709
_diffrn_reflns_av_unetI/netI     0.0838
_diffrn_reflns_Laue_measured_fraction_full 0.995
_diffrn_reflns_Laue_measured_fraction_max 0.994
_diffrn_reflns_limit_h_max       8
_diffrn_reflns_limit_h_min       -9
_diffrn_reflns_limit_k_max       27
_diffrn_reflns_limit_k_min       -27
_diffrn_reflns_limit_l_max       31
_diffrn_reflns_limit_l_min       -31
_diffrn_reflns_number            27310
_diffrn_reflns_point_group_measured_fraction_full 0.996
_diffrn_reflns_point_group_measured_fraction_max 0.995
_diffrn_reflns_theta_full        27.979
_diffrn_reflns_theta_max         28.101
_diffrn_reflns_theta_min         1.310
_diffrn_source                   'synchrotron radiation SPring-8 BL40XU'
_exptl_absorpt_coefficient_mu    0.611
_exptl_absorpt_correction_T_max  1.000
_exptl_absorpt_correction_T_min  0.509
_exptl_absorpt_correction_type   multi-scan
_exptl_absorpt_process_details   'ABSCOR (T.Higashi, 2001)'
_exptl_crystal_colour            green
_exptl_crystal_density_diffrn    1.583
_exptl_crystal_density_meas      ?
_exptl_crystal_description       prism
_exptl_crystal_F_000             2368
_exptl_crystal_size_max          0.100
_exptl_crystal_size_mid          0.015
_exptl_crystal_size_min          0.010
_refine_diff_density_max         1.378
_refine_diff_density_min         -2.332
_refine_diff_density_rms         0.145
_refine_ls_abs_structure_details
;
 Refined as an inversion twin.
;
_refine_ls_abs_structure_Flack   0.18(5)
_refine_ls_extinction_coef       0.0060(7)
_refine_ls_extinction_expression Fc^*^=kFc[1+0.001xFc^2^\l^3^/sin(2\q)]^-1/4^
_refine_ls_extinction_method     'SHELXL-2014/7 (Sheldrick 2014'
_refine_ls_goodness_of_fit_ref   1.101
_refine_ls_hydrogen_treatment    constr
_refine_ls_matrix_type           full
_refine_ls_number_parameters     691
_refine_ls_number_reflns         8719
_refine_ls_number_restraints     0
_refine_ls_restrained_S_all      1.101
_refine_ls_R_factor_all          0.1046
_refine_ls_R_factor_gt           0.0641
_refine_ls_shift/su_max          0.000
_refine_ls_shift/su_mean         0.000
_refine_ls_structure_factor_coef Fsqd
_refine_ls_weighting_details
'w=1/[\s^2^(Fo^2^)+(0.0943P)^2^+13.0340P] where P=(Fo^2^+2Fc^2^)/3'
_refine_ls_weighting_scheme      calc
_refine_ls_wR_factor_gt          0.1539
_refine_ls_wR_factor_ref         0.1982
_reflns_Friedel_coverage         0.785
_reflns_Friedel_fraction_full    0.998
_reflns_Friedel_fraction_max     0.997
_reflns_number_gt                6394
_reflns_number_total             8719
_reflns_threshold_expression     'I > 2\s(I)'
_cod_data_source_file            d1sc02260a2.cif
_cod_data_source_block           180131_ys-3-2
_cod_depositor_comments
;
The following automatic conversions were performed:

data item '_exptl_crystal_density_meas' value 'not measured' was
changed to '?' -- the value is perceived as not measured.

Automatic conversion script
Id: cif_fix_values 7556 2019-12-06 15:28:31Z antanas 
;
_cod_database_code               1563420
_shelx_shelxl_version_number     2014/7
_shelx_space_group_comment
;
The symmetry employed for this shelxl refinement is uniquely defined
by the following loop, which should always be used as a source of
symmetry information in preference to the above space-group names.
They are only intended as comments.
;
_shelx_res_file
;

    shelxl.res created by SHELXL-2014/7


TITL ydkr_a.res in P2(1)2(1)2(1)
REM  Yadorkari-X generated
CELL 0.78192 8.2881 22.4879 26.3395 90.0000 90.0000 90.0000
ZERR 4.0 0.0003 0.0006 0.0009 0.0000 0.0000 0.0000
LATT -1
SYMM 1/2-X, -Y, 1/2+Z
SYMM 1/2+X, 1/2-Y, -Z
SYMM -X, 1/2+Y, 1/2-Z
REM  SPGR P212121 orthorhombic
SFAC C H Pd N O F
DISP    C     0.00409    0.00201        13.88
DISP    H     0.00000    0.00000         0.67
DISP    Pd   -0.77341    1.20091      5570.26
DISP    N     0.00779    0.00411        24.46
DISP    O     0.01350    0.00752        41.15
DISP    F     0.02148    0.01270        66.00
UNIT 216 176 4 20 4 60
TEMP -183.0
L.S. 20
FMAP 2
PLAN -20
ACTA
CONF
LIST 4
BOND $H
MERG 2
OMIT    0   15   12
OMIT    4   17   17
OMIT    0   14   17
TWIN
WGHT    0.094300   13.033999
EXTI    0.005993
BASF   0.18004
FVAR       1.68584   0.61337
C1    1    0.533068    0.488987    0.785725    11.00000    0.05017    0.02047 =
         0.03461    0.00441   -0.00075   -0.00311
C2    1    0.569602    0.486666    0.732427    11.00000    0.03276    0.01846 =
         0.03735    0.00404   -0.00349   -0.00119
C3    1    0.604708    0.433897    0.706082    11.00000    0.04460    0.01360 =
         0.04384    0.00732   -0.00548    0.00233
AFIX  43
H3    2    0.616858    0.395504    0.720635    11.00000   -1.20000
AFIX   0
C4    1    0.618194    0.447745    0.655848    11.00000    0.03024    0.02349 =
         0.03737    0.00246    0.00633    0.00318
AFIX  43
H4    2    0.646578    0.421373    0.629124    11.00000   -1.20000
AFIX   0
C5    1    0.581533    0.509331    0.651193    11.00000    0.03495    0.03082 =
         0.03635    0.00675   -0.00572    0.00152
C6    1    0.560788    0.540804    0.605750    11.00000    0.04756    0.02206 =
         0.03178   -0.00176   -0.00039   -0.00470
C7    1    0.530217    0.600071    0.601704    11.00000    0.04493    0.02896 =
         0.02083    0.00005    0.00166   -0.01168
C8    1    0.503894    0.632681    0.554889    11.00000    0.06472    0.02550 =
         0.03688    0.00224   -0.00129   -0.00823
AFIX  43
H8    2    0.498281    0.616365    0.521667    11.00000   -1.20000
AFIX   0
C9    1    0.488970    0.690309    0.567439    11.00000    0.09341    0.02526 =
         0.02584    0.00645   -0.00105   -0.00146
AFIX  43
H9    2    0.467963    0.722022    0.544546    11.00000   -1.20000
AFIX   0
C10   1    0.509960    0.695785    0.620822    11.00000    0.05228    0.01942 =
         0.03600   -0.00339    0.00559   -0.00366
C11   1    0.523882    0.749219    0.647566    11.00000    0.04560    0.01836 =
         0.03281    0.00556    0.00474    0.00506
C12   1    0.553200    0.755074    0.698974    11.00000    0.02262    0.02135 =
         0.04114    0.00822   -0.00231    0.00249
C13   1    0.578723    0.809260    0.726144    11.00000    0.03881    0.02243 =
         0.03689    0.00472    0.00369   -0.00113
AFIX  43
H13   2    0.581042    0.848109    0.711995    11.00000   -1.20000
AFIX   0
C14   1    0.598961    0.795214    0.775617    11.00000    0.02975    0.02745 =
         0.04268    0.00139    0.00638   -0.00679
AFIX  43
H14   2    0.620691    0.822358    0.802395    11.00000   -1.20000
AFIX   0
C15   1    0.581839    0.732246    0.780460    11.00000    0.02194    0.02908 =
         0.03682   -0.00157    0.00225    0.00341
C16   1    0.578786    0.701281    0.824825    11.00000    0.03895    0.01926 =
         0.03232   -0.00842   -0.00419   -0.00264
C17   1    0.549163    0.640391    0.829711    11.00000    0.04963    0.02127 =
         0.02754   -0.00294    0.00550   -0.00019
C18   1    0.519816    0.608955    0.875331    11.00000    0.07940    0.02600 =
         0.03587   -0.00087   -0.00374    0.00192
AFIX  43
H18   2    0.514007    0.625981    0.908288    11.00000   -1.20000
AFIX   0
C19   1    0.501577    0.551152    0.864292    11.00000    0.08027    0.02759 =
         0.02438    0.00807   -0.00284    0.00886
AFIX  43
H19   2    0.480260    0.520011    0.887724    11.00000   -1.20000
AFIX   0
C20   1    0.519705    0.545443    0.812254    11.00000    0.06560    0.02796 =
         0.02923   -0.00298   -0.00465    0.00299
C21   1    0.562828    0.505256    0.557584    11.00000    0.06519    0.01881 =
         0.03471    0.00516   -0.00461   -0.00692
C22   1    0.427685    0.493933    0.531237    11.00000    0.06767    0.02328 =
         0.04802    0.00124   -0.01164   -0.01364
C23   1    0.428070    0.460032    0.486587    11.00000    0.10967    0.02893 =
         0.03581   -0.00461   -0.02265   -0.00512
C24   1    0.568598    0.436284    0.470675    11.00000    0.12676    0.02944 =
         0.03066   -0.01091    0.00161   -0.00957
C25   1    0.711032    0.445609    0.495814    11.00000    0.08737    0.02888 =
         0.04463   -0.00381    0.01066   -0.00398
C26   1    0.710170    0.480891    0.538991    11.00000    0.06103    0.02906 =
         0.04192   -0.00230    0.00097   -0.00062
C27   1    0.509678    0.805836    0.617614    11.00000    0.05848    0.01512 =
         0.03172   -0.00035    0.00157    0.00479
C28   1    0.367066    0.831595    0.605588    11.00000    0.04092    0.02920 =
         0.04740    0.00815   -0.00929    0.00650
C29   1    0.353411    0.883277    0.576685    11.00000    0.06293    0.03344 =
         0.04505   -0.00014   -0.01760    0.01566
C30   1    0.495331    0.909281    0.560047    11.00000    0.08996    0.01880 =
         0.03469    0.00259   -0.00701    0.01478
C31   1    0.639738    0.885500    0.572170    11.00000    0.07158    0.02609 =
         0.04146    0.01075    0.01276   -0.00538
C32   1    0.643430    0.834006    0.600990    11.00000    0.05671    0.02349 =
         0.05017    0.00257    0.01393    0.00409
C33   1    0.604661    0.735038    0.873003    11.00000    0.04240    0.02776 =
         0.03357    0.00347   -0.00526    0.00709
C34   1    0.484867    0.765784    0.897455    11.00000    0.05902    0.03530 =
         0.04385   -0.01333   -0.00931    0.01776
C35   1    0.511214    0.795045    0.942972    11.00000    0.10070    0.03960 =
         0.03386   -0.01413   -0.00069    0.02728
C36   1    0.662121    0.795317    0.963188    11.00000    0.12905    0.03764 =
         0.03053   -0.00556   -0.02559   -0.01325
C37   1    0.789199    0.765133    0.940774    11.00000    0.07844    0.04044 =
         0.04490    0.00491   -0.01290   -0.02386
C38   1    0.756997    0.735390    0.894916    11.00000    0.05909    0.02471 =
         0.04406    0.00160    0.00153   -0.00147
C39   1    1.141944    0.649653    0.733771    11.00000    0.04625    0.03392 =
         0.07059   -0.01326   -0.00127   -0.00714
AFIX  23
H39   2    1.206465    0.636610    0.763377    11.00000   -1.20000
H39A  2    1.218765    0.661939    0.706969    11.00000   -1.20000
AFIX   0
C40   1    1.046176    0.703233    0.749240    11.00000    0.03432    0.04443 =
         0.10221   -0.02689    0.01195   -0.00181
AFIX  23
H40   2    0.976360    0.715568    0.720619    11.00000   -1.20000
H40A  2    0.975407    0.692563    0.778117    11.00000   -1.20000
AFIX   0
C41   1    1.150035    0.753650    0.764115    11.00000    0.04667    0.06060 =
         0.09349   -0.02801    0.00336   -0.01054
AFIX  23
H41   2    1.221431    0.763898    0.735280    11.00000   -1.20000
H41A  2    1.219400    0.741183    0.792803    11.00000   -1.20000
AFIX   0
C42   1    1.056764    0.808189    0.779487    11.00000    0.05843    0.05693 =
         0.16293   -0.04352    0.03278   -0.02162
AFIX 137
H42   2    1.016819    0.828501    0.749063    11.00000   -1.50000
H42A  2    1.127437    0.835065    0.798546    11.00000   -1.50000
H42B  2    0.965311    0.796508    0.800858    11.00000   -1.50000
AFIX   0
C43   1    0.944868    0.617702    0.669955    11.00000    0.03336    0.03532 =
         0.05221    0.00328    0.00568    0.00632
AFIX  23
H43   2    0.885979    0.582930    0.656244    11.00000   -1.20000
H43A  2    0.863612    0.646261    0.682779    11.00000   -1.20000
AFIX   0
C44   1    1.036464    0.646552    0.627410    11.00000    0.04777    0.03854 =
         0.04969   -0.00265    0.00746   -0.00741
AFIX  23
H44   2    1.125140    0.620035    0.616382    11.00000   -1.20000
H44A  2    1.084701    0.684253    0.639503    11.00000   -1.20000
AFIX   0
C45   1    0.925244    0.659146    0.582651    11.00000    0.05403    0.03021 =
         0.05695    0.00329   -0.00217   -0.00256
AFIX  23
H45   2    0.888227    0.620878    0.568174    11.00000   -1.20000
H45A  2    0.828974    0.680792    0.595041    11.00000   -1.20000
AFIX   0
C46   1    1.003584    0.694866    0.541695    11.00000    0.08272    0.04064 =
         0.04911    0.00142    0.01612   -0.01157
AFIX 137
H46   2    1.016672    0.736036    0.553177    11.00000   -1.50000
H46A  2    0.935871    0.694080    0.511201    11.00000   -1.50000
H46B  2    1.109616    0.677920    0.533833    11.00000   -1.50000
AFIX   0
C47   1    1.156737    0.548905    0.697497    11.00000    0.04526    0.02822 =
         0.06430   -0.01059   -0.00110   -0.00883
AFIX  23
H47   2    1.206534    0.530562    0.727860    11.00000   -1.20000
H47A  2    1.244764    0.566801    0.677199    11.00000   -1.20000
AFIX   0
C48   1    1.078502    0.499367    0.665822    11.00000    0.04081    0.03596 =
         0.05455   -0.00026   -0.00100   -0.00470
AFIX  23
H48   2    0.974048    0.488110    0.681316    11.00000   -1.20000
H48A  2    1.056800    0.514363    0.631150    11.00000   -1.20000
AFIX   0
C49   1    1.185184    0.445440    0.662676    11.00000    0.04434    0.02800 =
         0.06823   -0.00002   -0.00587   -0.00592
AFIX  23
H49   2    1.188827    0.425787    0.696289    11.00000   -1.20000
H49A  2    1.296219    0.458035    0.653937    11.00000   -1.20000
AFIX   0
C50   1    1.126219    0.401422    0.623441    11.00000    0.08189    0.03206 =
         0.07260   -0.01212    0.00917   -0.00242
AFIX 137
H50   2    1.015584    0.389379    0.631605    11.00000   -1.50000
H50A  2    1.196478    0.366371    0.623503    11.00000   -1.50000
H50B  2    1.128383    0.419990    0.589787    11.00000   -1.50000
AFIX   0
C51   1    0.932835    0.573324    0.755759    11.00000    0.04636    0.04148 =
         0.05870   -0.00171    0.00261    0.00129
AFIX  23
H51   2    0.852726    0.604633    0.763681    11.00000   -1.20000
H51A  2    0.873417    0.538803    0.741813    11.00000   -1.20000
AFIX   0
C52   1    1.015980    0.554294    0.805304    11.00000    0.06621    0.06279 =
         0.03947    0.00591   -0.00376    0.00255
AFIX  23
H52A  2    1.129231    0.544438    0.796820    11.00000   -1.20000
H52B  2    1.019068    0.589577    0.827762    11.00000   -1.20000
AFIX   0
PART 1
C53A  1    0.952709    0.505484    0.834902    21.00000    0.05377
AFIX  23
H53A  2    0.834854    0.510647    0.839145    21.00000   -1.20000
H53B  2    1.002572    0.505997    0.869054    21.00000   -1.20000
AFIX   0
C54A  1    0.986208    0.444878    0.809434    21.00000    0.05994
AFIX 137
H54A  2    0.939742    0.444654    0.775222    21.00000   -1.50000
H54B  2    0.937193    0.413077    0.829665    21.00000   -1.50000
H54C  2    1.102947    0.438441    0.807254    21.00000   -1.50000
AFIX   0
PART 2
C53B  1    0.994323    0.480719    0.802862   -21.00000    0.04375
AFIX  23
H53C  2    0.878579    0.469924    0.801716   -21.00000   -1.20000
H53D  2    1.047919    0.464494    0.772262   -21.00000   -1.20000
AFIX   0
C54B  1    1.075676    0.455157    0.852608   -21.00000    0.06769
AFIX 137
H54D  2    1.188965    0.467548    0.853877   -21.00000   -1.50000
H54E  2    1.069621    0.411637    0.852259   -21.00000   -1.50000
H54F  2    1.018845    0.470448    0.882509   -21.00000   -1.50000
AFIX   0
PART 0
F1    6    0.280273    0.515717    0.546357    11.00000    0.06115    0.04446 =
         0.05960    0.00678   -0.01638    0.00078
F2    6    0.289435    0.449899    0.460790    11.00000    0.10824    0.04794 =
         0.06232    0.00477   -0.03691   -0.02252
F3    6    0.572223    0.400619    0.429394    11.00000    0.17384    0.04501 =
         0.04068   -0.01288    0.00168   -0.01799
F4    6    0.851186    0.421100    0.482375    11.00000    0.11202    0.05108 =
         0.05484   -0.01047    0.03207    0.00186
F5    6    0.845567    0.490843    0.564641    11.00000    0.05923    0.04236 =
         0.05240   -0.00515    0.00778   -0.00219
F6    6    0.224874    0.807083    0.621641    11.00000    0.04349    0.04535 =
         0.08414    0.00889   -0.00641   -0.00039
F7    6    0.209336    0.906467    0.565268    11.00000    0.07684    0.04889 =
         0.08074    0.01740   -0.02061    0.02186
F8    6    0.484020    0.958340    0.530572    11.00000    0.12179    0.02535 =
         0.03743    0.00994   -0.00491    0.01034
F9    6    0.776746    0.911519    0.554827    11.00000    0.08934    0.04245 =
         0.10257    0.02331    0.03458   -0.00661
F10   6    0.794713    0.812352    0.610468    11.00000    0.04678    0.04233 =
         0.09186    0.02435    0.01926    0.00260
F11   6    0.335577    0.766170    0.879230    11.00000    0.08068    0.08266 =
         0.05297   -0.02443   -0.01195    0.03635
F12   6    0.388844    0.823850    0.965544    11.00000    0.15372    0.08189 =
         0.05563   -0.02715   -0.00502    0.05979
F13   6    0.693869    0.825107    1.006874    11.00000    0.17755    0.05434 =
         0.04179   -0.00999   -0.02193   -0.00417
F14   6    0.941444    0.767404    0.959019    11.00000    0.09594    0.07416 =
         0.06317    0.00285   -0.03596   -0.03053
F15   6    0.880186    0.707241    0.872964    11.00000    0.05186    0.05443 =
         0.05539   -0.00151   -0.01358   -0.00448
N1    4    0.558464    0.532830    0.699105    11.00000    0.03159    0.02140 =
         0.02446    0.00193    0.00607    0.00274
N2    4    0.532467    0.640955    0.642434    11.00000    0.03373    0.01727 =
         0.05081    0.00230    0.00533    0.00298
N3    4    0.558030    0.707925    0.733142    11.00000    0.03274    0.02665 =
         0.02360    0.00246   -0.00220   -0.00034
N4    4    0.545961    0.600341    0.789026    11.00000    0.02304    0.01483 =
         0.05918    0.00952   -0.00724   -0.00255
N5    4    1.048895    0.597060    0.714548    11.00000    0.03647    0.03806 =
         0.05174   -0.01043    0.00395   -0.00053
O1    5    0.514854    0.441978    0.810297    11.00000    0.08609    0.02284 =
         0.03692    0.00281    0.00626   -0.00374
PD1   3    0.546952    0.620587    0.715858    11.00000    0.03917    0.01751 =
         0.03370    0.00285   -0.00069    0.00019

HKLF 4 1 1 0 0 0 1 0 0 0 1

REM  ydkr_a.res in P2(1)2(1)2(1)
REM R1 =  0.0641 for    6394 Fo > 4sig(Fo)  and  0.1046 for all    8719 data
REM    691 parameters refined using      0 restraints

END

WGHT      0.0943     13.0375

REM Highest difference peak  1.378,  deepest hole -2.332,  1-sigma level  0.145
Q1    1   0.3818  0.6198  0.7155  11.00000  0.05    1.38
Q2    1   0.2462  0.6068  0.7171  11.00000  0.05    1.22
Q3    1   0.4789  0.6195  0.7148  11.00000  0.05    1.00
Q4    1   0.4535  0.6195  0.6645  11.00000  0.05    0.97
Q5    1   0.4552  0.6442  0.6363  11.00000  0.05    0.88
Q6    1   0.6374  0.6194  0.6659  11.00000  0.05    0.83
Q7    1   0.7334  0.6217  0.7055  11.00000  0.05    0.81
Q8    1   0.4540  0.6198  0.7680  11.00000  0.05    0.81
Q9    1   0.6311  0.6205  0.7662  11.00000  0.05    0.78
Q10   1   0.5548  0.6192  0.6291  11.00000  0.05    0.77
Q11   1   0.4148  0.5989  0.7528  11.00000  0.05    0.77
Q12   1   0.9816  0.6181  0.7152  11.00000  0.05    0.77
Q13   1   0.5599  0.6448  0.7730  11.00000  0.05    0.75
Q14   1   0.5460  0.6187  0.7345  11.00000  0.05    0.74
Q15   1   0.6212  0.6182  0.7146  11.00000  0.05    0.73
Q16   1   0.5711  0.6595  0.7599  11.00000  0.05    0.72
Q17   1   0.8629  0.6093  0.7173  11.00000  0.05    0.71
Q18   1   0.5436  0.6808  0.7996  11.00000  0.05    0.70
Q19   1   0.4468  0.5789  0.6928  11.00000  0.05    0.69
Q20   1   0.5611  0.5997  0.6616  11.00000  0.05    0.68
;
_shelx_res_checksum              52440
_shelx_hkl_file
;
   0   0  -1   -6.33    4.39
   0   0   1    3.98    5.86
   0   0  -1    7.85   11.34
   0   0   1    5.73    8.50
   0   0  -229447.48 1022.06
   0   0   231259.89 1093.73
   0   0  -232059.14 1122.15
   0   0  -3   72.06   60.70
   0   0   3  -20.12   31.93
   0   0  -3   31.78   36.99
   0   0   3   79.34   67.52
   0   0  -428614.37 1147.15
   0   0   428342.11 1074.14
   0   0   427398.45 1077.62
   0   0  -427281.37 1044.49
   0   0   5   60.94  109.54
   0   0  -5   60.76   91.06
   0   0   5   10.35   52.06
   0   0  -5    5.49  106.67
   0   0  -646533.80 1961.31
   0   0   643698.43 1864.72
   0   0  -639361.99 1583.50
   0   0   642948.32 1792.08
   0   0  -7   43.20  135.53
   0   0   7   78.86   62.61
   0   0   7  -81.83  151.07
   0   0  -7   41.90  109.97
   0   0  -811563.24  660.45
   0   0   812280.90  690.28
   0   0  -9  118.42  149.15
   0   0   9  -19.98  155.76
   0   0 -10  314.99  191.69
   0   0  10  143.66  199.69
   0   0  11  259.08  237.30
   0   0 -11  473.80  222.17
   0   0 -12286959.114752.99
   0   0  12313506.816234.24
   0   0 -13  -63.40  180.93
   0   0  13  173.23  198.20
   0   0  1420669.65 1234.94
   0   0 -1421231.40 1098.26
   0   0  15 -174.96  187.09
   0   0 -15  181.44  172.55
   0   0 -16 5134.39  443.94
   0   0  16 5483.56  591.10
   0   0  17  889.03  322.33
   0   0 -17   98.61  285.59
   0   0 -1844549.63 2520.01
   0   0  1844189.79 2558.31
   0   0 -19  213.65  270.99
   0   0  19  117.06  180.78
   0   0  20 8475.64  892.24
   0   0 -20 9447.27  936.08
   0   0  21   26.54  167.71
   0   0 -21   11.63  247.73
   0   0  22 1968.80  590.95
   0   0 -22 2645.97  587.82
   0   0 -23 -154.89  198.22
   0   0  23  317.37  210.38
   0   0  24  613.93  552.53
   0   0 -24 2434.57  571.38
   0   0 -25  480.83  413.30
   0   0  25  170.54  284.64
   0   0  26 1293.40  619.04
   0   0 -26 1274.19  570.45
   0   0  27   53.71  435.19
   0   0 -27  205.78  429.63
   0   0  28 7228.02 1154.75
   0   0 -28 6413.15  818.51
   0   0 -29  400.03  427.00
   0   0  29 -499.43  432.04
   0   0  30 -134.46  285.64
   0   0 -30  164.57  460.74
   0   0  31   11.65  432.04
   0  -1   0    9.08   24.34
   0   1   0    2.97   22.77
   0  -1   0   -8.13   11.08
   0   1   0   -8.52   11.74
   0  -1   1   56.81   22.69
   0  -1  -1   13.83   14.95
   0   1   1   18.39   28.53
   0   1   1   11.60   20.49
   0  -1  -1   36.94   37.22
   0  -1   1   15.18   35.40
   0   1  -1   33.43   22.72
   0   1  -1   44.13   35.65
   0  -1  -212323.43  445.95
   0  -1   211978.46  422.57
   0   1  -211771.84  452.12
   0   1   212823.59  416.47
   0   1  -210055.51  406.66
   0  -1   211811.72  449.08
   0   1   212629.99  448.32
   0  -1  -212815.25  421.19
   0  -1  -365590.82 2531.53
   0   1  -362521.30 2526.31
   0  -1  -364669.50 2492.05
   0  -1   364410.50 2582.21
   0   1  -368378.07 2713.20
   0  -1   367128.62 2667.49
   0  -1  -442863.61 1722.06
   0   1   443811.24 1703.43
   0  -1   444034.29 1723.52
   0  -1  -443263.01 1713.45
   0   1   445083.28 1776.65
   0   1  -445267.67 1763.36
   0   1  -443111.15 1703.94
   0  -1   444662.15 1740.16
   0  -1   5 9203.30  463.09
   0  -1   5 9248.81  424.68
   0   1  -5 9122.78  413.58
   0  -1  -5 9929.92  477.76
   0  -1  -5 8550.07  372.53
   0   1   5 9157.72  474.54
   0   1  -5 9245.90  510.44
   0   1   5 9470.82  436.69
   0   1  -612312.75  626.48
   0  -1   613083.46  553.02
   0  -1  -612548.84  528.60
   0   1  -613069.55  576.38
   0  -1  -612103.25  592.22
   0   1   613985.09  671.38
   0   1   612117.59  497.61
   0  -1   614390.17  721.30
   0  -1  -791929.26 4027.78
   0   1   789723.55 3893.96
   0   1   790944.52 3988.42
   0   1  -784328.62 3838.92
   0  -1   790149.15 4027.09
   0  -1   784813.45 3772.28
   0   1  -793079.56 4132.21
   0  -1  -784678.51 3772.06
   0  -1   823025.95 1120.47
   0   1   820633.69  941.13
   0   1  -823088.15 1138.35
   0  -1  -824523.15 1131.72
   0   1   823226.73  995.83
   0  -1  -913031.11  711.14
   0   1  -912375.14  709.59
   0  -1   913169.48  739.56
   0   1   912042.15  589.66
   0  -1  1017394.48  948.61
   0   1  1017659.99  925.56
   0  -1 -1017852.33  933.97
   0   1 -1017296.29  835.79
   0   1 -11 3965.17  307.18
   0   1  11 4351.02  414.04
   0  -1 -11 3837.51  387.41
   0  -1  11 3538.38  411.75
   0  -1 -1255823.39 2681.06
   0   1 -1257534.94 2796.48
   0  -1  1255547.33 2580.91
   0   1  1255951.90 2702.83
   0   1  13 8623.15  657.17
   0  -1  13 8550.59  656.62
   0   1 -13 8113.34  640.64
   0  -1 -13 8487.65  530.36
   0  -1  14  572.39  281.33
   0   1  14  154.31  157.30
   0  -1 -14  979.22  255.47
   0   1 -14  396.24  160.02
   0   1  15 2467.29  395.81
   0   1 -15 2172.66  359.45
   0  -1  15 1543.01  246.51
   0  -1 -15 1822.70  368.38
   0  -1 -16 6236.95  478.01
   0  -1  16 5803.82  602.56
   0   1  16 5963.84  599.08
   0   1 -16 5417.99  449.90
   0  -1 -17 4180.86  548.25
   0   1 -17 4686.92  566.49
   0   1  17 4575.20  407.59
   0  -1  17 4537.88  587.47
   0  -1 -1846446.39 2635.84
   0   1  1841841.12 2444.11
   0   1 -1846906.11 2703.92
   0  -1  1843662.52 2399.93
   0  -1  19 8033.75  845.42
   0   1 -19 7027.34  777.31
   0  -1 -19 8436.82  811.25
   0   1  19 8009.21  806.61
   0  -1  20 8258.61  690.40
   0   1 -20 9394.63  933.00
   0   1  20 9715.79  927.62
   0  -1 -20 9011.22  885.14
   0   1  21 3075.88  590.65
   0  -1  21 3363.24  620.58
   0   1 -21 3227.37  595.34
   0  -1 -21 2812.61  568.45
   0  -1  22 4409.33  754.42
   0  -1 -22 5218.92  575.54
   0   1  22 4677.01  558.74
   0   1 -22 5568.93  774.55
   0  -1  23 -315.07  332.65
   0   1 -23 -195.16  309.92
   0   1  23  249.33  313.24
   0  -1 -23  421.83  314.75
   0   1  24 4355.75  790.54
   0   1 -24 4313.84  773.20
   0  -1 -24 5007.67  814.60
   0  -1  24 5077.79  826.71
   0  -1 -25 3071.33  516.37
   0   1 -25 3624.85  780.93
   0   1  25 4124.65  558.90
   0  -1  25 2930.01  762.25
   0   1 -26  228.17  500.53
   0  -1  26  395.10  550.44
   0  -1 -26 1058.70  487.47
   0   1  27 1601.82  440.40
   0   1 -27 1865.82  696.06
   0  -1  27 1859.56  690.58
   0  -1 -27 1120.02  626.86
   0  -1  28  123.77  428.56
   0   1  28  312.91  425.22
   0   1 -28  234.59  247.08
   0  -1 -28 -227.83  235.46
   0   1  29  448.53  569.06
   0  -1 -29   51.08  539.85
   0  -1  29  449.75  582.36
   0   1 -29  332.59  556.11
   0   1 -30  -70.41  246.52
   0   1  30  167.15  249.97
   0  -1  30  -53.46  251.59
   0  -1  31   37.12  600.32
   0   1 -31  458.14  594.21
   0   1  31   52.04  576.61
   0  -2   012551.27  437.15
   0   2   012406.07  440.38
   0  -2   012903.77  504.66
   0   2   012595.59  442.43
   0   2  -2 3308.99  227.19
   0  -2   2 3226.41  226.66
   0   2  -2 3017.77  154.88
   0   2   2 3205.56  179.94
   0  -2  -2 3271.78  163.37
   0  -2  -2 3434.98  163.90
   0   2   2 3402.91  195.05
   0  -2   2 3312.68  164.55
   0   2  -3133735.0 5772.67
   0   2   453873.14 2167.70
   0  -2  -454317.68 2164.73
   0  -2  -453260.06 2161.10
   0  -2   453635.66 2238.38
   0   2   455263.41 2189.43
   0   2  -450149.94 2058.04
   0   2  -451334.59 2179.40
   0  -2   451975.24 2109.18
   0   2   5 3218.65  220.27
   0   2   5 4333.61  287.01
   0  -2   5 3287.68  203.04
   0   2  -5 3122.84  278.66
   0  -2   5 3195.41  224.58
   0  -2  -5 3419.34  250.87
   0   2  -5 3219.37  220.86
   0  -2  -5 3030.20  240.11
   0   2  -6103571.3 4733.90
   0  -2  -6105495.6 4670.06
   0   2   6109087.9 4656.47
   0   2  -6110339.5 4825.45
   0  -2   6109579.5 4897.45
   0   2   6105170.5 4627.86
   0  -2  -6114035.8 4949.63
   0  -2   6111596.8 4876.09
   0   2  -7  266.01  202.83
   0   2   7  132.23  164.97
   0  -2   7  412.04  210.15
   0   2   7  120.81  117.68
   0  -2  -7  226.85  146.58
   0  -2  -7  201.25  135.96
   0   2   8153900.3 7207.24
   0  -2  -8165189.5 7498.63
   0  -2   8167588.8 7769.42
   0   2  -8161690.9 7507.50
   0   2   8158727.3 7352.70
   0  -2  -9  451.73  178.35
   0  -2   9  545.43  227.74
   0   2  -9  402.30  205.76
   0   2   9  130.66  121.37
   0  -2 -10 2302.97  206.15
   0  -2  10 1899.21  331.14
   0   2 -10 2296.74  330.75
   0   2  10 2193.12  297.31
   0  -2 -1130247.71 1478.58
   0   2 -1131064.94 1580.10
   0   2  1129902.07 1491.54
   0  -2  1128630.42 1492.67
   0  -2  12 4113.31  458.21
   0   2 -12 4477.66  475.61
   0   2  12 5011.87  459.66
   0  -2 -12 4773.34  437.72
   0  -2  1312606.40  863.62
   0   2  1314324.56  875.81
   0   2 -1312912.66  738.06
   0  -2 -1315820.81  918.79
   0   2 -14 3412.16  455.09
   0   2  14 2633.30  393.14
   0  -2 -14 3727.85  424.46
   0  -2  14 4199.38  475.94
   0   2  1555144.85 2860.32
   0  -2  1555466.93 2731.71
   0  -2 -1557877.01 2932.95
   0   2 -1554098.88 2841.59
   0   2 -16 2525.81  432.64
   0   2  16 2759.43  437.17
   0  -2 -16 2547.87  298.73
   0  -2  16 3069.73  334.41
   0  -2 -17 3353.10  356.04
   0   2 -17 3270.46  359.02
   0  -2  17 3282.57  517.91
   0   2  17 3186.22  355.20
   0   2 -18 7684.31  749.84
   0  -2  18 9212.74  848.58
   0  -2 -18 8416.99  777.50
   0   2  18 8820.41  807.26
   0  -2  1911055.07  822.65
   0   2  19 9494.01  897.89
   0  -2 -1911166.35  960.82
   0   2 -1911400.43 1036.90
   0   2  20 4349.12  682.76
   0   2 -20 4173.66  496.53
   0  -2  20 5002.50  701.43
   0  -2 -20 5127.89  652.22
   0   2  21  609.40  262.23
   0   2 -21  680.31  431.62
   0  -2  21 1595.33  461.43
   0  -2 -21 1068.64  277.93
   0   2 -22 3008.57  444.81
   0   2  22 3154.77  615.45
   0  -2 -22 3273.08  607.32
   0  -2  22 2519.62  675.90
   0   2  23  392.66  382.12
   0  -2  23  239.98  409.43
   0  -2 -23   55.20  366.53
   0   2 -23  312.26  404.48
   0   2 -24  951.38  286.78
   0  -2  24  454.78  312.96
   0   2  24  197.75  279.20
   0  -2 -24   19.07  415.15
   0   2 -2517103.69 1623.20
   0  -2 -2514835.41 1190.92
   0   2  2515260.59 1430.71
   0  -2  2515083.86 1445.44
   0   2  26  262.61  429.07
   0  -2  26 -388.15  264.97
   0  -2 -26 -304.51  377.95
   0   2 -26   37.48  257.23
   0   2  27 7209.79  820.89
   0   2 -27 8018.13 1144.66
   0  -2  27 7681.79 1151.56
   0  -2 -27 7743.80 1123.48
   0  -2 -28  -21.01  246.53
   0   2 -28  106.61  269.30
   0  -2  28   94.11  286.36
   0   2  28  271.90  442.28
   0  -2  29 5526.03 1153.44
   0  -2 -29 5551.25 1058.67
   0   2  29 5632.57 1067.98
   0   2 -29 7232.44 1180.39
   0   2  30  -19.38  285.26
   0  -2  30  -50.46  497.22
   0   2 -30 -113.41  307.97
   0   2 -31  270.17  670.66
   0   2  31  314.63  607.08
   0  -2  31  313.07  679.06
   0  -3   0  -31.37   75.98
   0   3   0   -7.65   88.20
   0   3   0  108.46   82.41
   0  -3   0   56.15   96.54
   0  -3  -140260.72 1615.85
   0   3  -141051.78 1665.78
   0   3  -142313.24 1629.55
   0  -3   140632.64 1565.10
   0  -3  -141510.26 1616.45
   0   3   140874.51 1562.59
   0   3   142737.20 1666.07
   0  -3   138028.32 1550.11
   0   3   2 4131.34  247.39
   0  -3  -2 4008.31  222.89
   0   3  -2 4068.78  274.62
   0   3  -2 4207.08  316.75
   0  -3   2 4077.54  226.96
   0  -3   2 3900.75  267.24
   0   3   2 4125.32  248.21
   0  -3  -2 3916.77  276.82
   0  -3  -318424.63  730.67
   0  -3   317492.10  723.67
   0  -3  -317511.84  695.24
   0   3  -318662.93  859.87
   0   3   318771.64  792.49
   0   3   318949.33  767.72
   0   3  -316615.37  697.15
   0  -3   316142.44  734.84
   0   3  -418727.50  820.23
   0   3  -419498.59  901.71
   0  -3   419852.74  811.17
   0  -3   415781.51  819.48
   0   3   420088.00  864.01
   0  -3  -421926.02  845.52
   0   3   421724.54  835.01
   0  -3  -419364.08  747.87
   0   3   5  350.22  171.69
   0   3  -5  961.99  136.58
   0  -3   5  431.52  172.06
   0  -3   5  973.00  235.66
   0   3  -5  889.74  126.13
   0   3   5  523.77  164.92
   0  -3  -5  471.04  151.50
   0  -3  -5  411.25   79.81
   0   3   6124441.8 5487.99
   0  -3  -6122906.7 5465.08
   0   3  -6119714.3 5507.30
   0  -3  -6125194.5 5517.76
   0  -3   6119818.1 5384.53
   0  -3   7200688.5 9667.88
   0  -3  -7186816.3 8870.06
   0  -3  -7204443.0 9399.41
   0   3   7198392.8 9298.88
   0   3  -7205024.4 9866.67
   0  -3  -8 2063.64  252.82
   0   3  -8 2343.57  224.77
   0  -3   8 2073.12  216.19
   0   3   8 2003.69  151.76
   0   3   8 2207.11  268.02
   0   3  -9 4794.99  440.30
   0  -3  -9 3852.20  341.93
   0   3   9 4077.49  353.71
   0  -3   9 4838.04  447.29
   0   3  1052654.18 2294.65
   0   3 -1050386.80 2450.93
   0  -3  1049060.85 2244.16
   0  -3 -1050018.48 2313.51
   0   3 -1124741.57 1213.20
   0  -3  1125292.30 1233.64
   0  -3 -1126133.16 1312.20
   0   3  1125126.39 1279.92
   0  -3 -12 4426.83  423.43
   0   3 -12 5339.84  394.02
   0   3  12 4950.05  442.73
   0  -3  12 4705.26  490.98
   0  -3  13  816.72  320.67
   0  -3 -13 1198.44  275.74
   0   3 -13  960.01  200.71
   0   3  13 1408.57  201.18
   0   3 -14  793.54  192.98
   0   3  14  992.40  290.13
   0  -3  14  966.57  324.36
   0  -3 -14  803.44  173.53
   0   3  15  331.76  195.40
   0  -3  15    6.84  131.41
   0  -3 -15  -91.29  113.49
   0   3 -15  185.14  206.80
   0   3 -16 7447.06  694.89
   0   3  16 7036.79  652.59
   0  -3  16 7402.58  548.97
   0  -3 -16 7857.64  545.15
   0   3  17   77.58  132.45
   0  -3  17  -87.76  145.17
   0   3 -17   22.24  235.25
   0  -3 -17  172.45  131.74
   0   3  18 7066.52  580.70
   0   3 -18 6597.18  563.77
   0  -3  18 6909.03  728.41
   0  -3 -18 8043.46  612.15
   0   3 -1919313.44 1408.36
   0   3  1917891.01 1121.56
   0  -3  1918087.73 1328.72
   0  -3 -1917499.81 1103.46
   0   3 -20  914.52  462.09
   0  -3 -20 1440.66  418.63
   0  -3  20 2195.15  341.18
   0   3  20 1584.63  448.71
   0   3  21 5127.38  720.21
   0   3 -21 4433.95  529.60
   0  -3 -21 6357.83  755.38
   0  -3  21 6531.74  851.17
   0   3  2211689.13 1124.82
   0  -3 -2212169.12 1130.15
   0   3 -2210892.23 1113.17
   0  -3  2210339.16 1135.63
   0  -3  23 9703.18  904.00
   0   3 -2310892.88 1169.40
   0  -3 -23 9885.44 1084.60
   0   3  2311611.34  951.68
   0  -3  24 6148.16  919.15
   0  -3 -24 6606.53  714.36
   0   3 -24 5687.48  672.12
   0   3  24 5208.33  840.42
   0  -3 -2515739.38 1485.44
   0   3 -2518420.37 1671.24
   0   3  2514917.64 1441.41
   0  -3  2516590.80 1580.09
   0  -3  26 2486.64  536.18
   0  -3 -26 2019.59  676.70
   0   3  26 2940.53  712.22
   0   3 -26 2426.21  496.07
   0  -3 -27 1452.90  624.65
   0  -3  27 1236.73  684.70
   0   3  27 1597.50  429.54
   0   3 -27 1187.62  685.85
   0   3 -28  797.25  596.21
   0  -3 -28 -150.86  491.67
   0   3  28  453.04  550.60
   0  -3  28  650.62  360.75
   0   3  29  112.77  455.10
   0   3 -29  325.18  497.71
   0  -3  29 -208.23  499.02
   0   3  30 -122.87  283.59
   0   3 -30   44.79  505.79
   0  -3  30   14.42  517.40
   0  -3  31  212.26  628.56
   0   3 -31  185.59  619.91
   0  -4   0 7905.46  425.08
   0   4   0 7562.89  350.00
   0  -4   0 8395.33  473.37
   0   4   0 8140.31  455.23
   0  -4  -1 8326.81  357.21
   0  -4   1 9261.32  422.07
   0   4  -1 8936.63  394.37
   0  -4   1 8749.08  384.93
   0   4   1 8298.97  369.67
   0   4   1 9237.47  465.42
   0   4  -1 8805.23  499.44
   0  -4  -1 8019.66  378.40
   0   4   223925.63  928.42
   0   4  -223896.73 1050.13
   0  -4  -223880.87  988.80
   0  -4   223781.57  981.16
   0   4   223582.01  934.34
   0  -4  -223997.06 1055.61
   0  -4   224651.85 1003.36
   0   4  -223981.77 1102.18
   0   4  -3  860.12  222.77
   0   4  -3  649.95  170.86
   0  -4  -3  598.38  188.15
   0  -4   3  752.39  218.51
   0  -4   3  533.96  175.80
   0  -4  -3  552.83  126.52
   0   4   3  351.00  142.08
   0   4   3  538.47  155.11
   0  -4   4 2839.89  332.34
   0   4  -4 2396.20  215.84
   0  -4  -4 2567.85  284.55
   0  -4   4 2506.71  256.17
   0   4   4 2662.50  245.66
   0   4   4 2011.30  240.12
   0  -4  -4 2548.65  203.69
   0   4  -4 2235.35  261.31
   0   4   513157.89  638.14
   0   4  -513466.08  633.06
   0  -4  -513330.30  614.79
   0  -4   511880.71  704.33
   0  -4  -628383.53 1176.01
   0   4   631088.54 1356.57
   0  -4   628636.48 1268.09
   0  -4  -631703.29 1381.92
   0   4  -630369.00 1460.75
   0   4   628850.15 1312.03
   0   4  -7 6547.41  512.24
   0  -4   7 5810.40  368.96
   0   4   7 6408.13  427.15
   0   4   7 7049.89  362.31
   0  -4  -7 5744.97  369.41
   0  -4  -7 7224.01  427.87
   0  -4   8 3045.41  271.18
   0  -4  -8 3646.95  301.00
   0   4  -8 3775.95  390.01
   0   4   8 3525.08  321.38
   0  -4  -8 2423.65  253.97
   0  -4  -9  848.45  196.01
   0  -4   9  598.75  172.02
   0   4  -9  704.15  172.65
   0   4   9 1116.18  219.76
   0  -4 -1045177.99 1946.08
   0  -4  1039714.35 1990.17
   0   4  1043789.58 2031.18
   0   4 -1041101.70 2045.79
   0  -4  1186938.55 4257.58
   0   4 -1190828.90 4453.29
   0   4  1181423.37 3857.26
   0  -4 -1190373.01 4076.10
   0  -4 -12  919.98  218.71
   0   4  12  785.91  154.64
   0  -4  12  238.39  176.85
   0   4 -12  522.15  182.45
   0  -4  13 1104.77  326.04
   0   4  13 1170.94  284.44
   0  -4 -13  932.67  270.82
   0   4 -13 1208.34  217.58
   0   4  1490932.44 4483.81
   0   4 -1489395.73 4408.23
   0  -4  1490623.67 4616.20
   0  -4 -1498953.62 4810.62
   0   4 -15  180.64  160.80
   0  -4  15  433.73  260.15
   0   4  15  134.54  140.47
   0  -4 -15  172.26  128.72
   0  -4  1610040.54  843.01
   0  -4 -1611741.64  827.84
   0   4  1612176.49  873.51
   0   4 -1610982.40  724.78
   0   4 -17 7526.17  731.74
   0  -4 -17 6330.41  631.92
   0   4  17 6256.93  659.34
   0  -4  17 6310.65  535.15
   0   4 -1810181.85  919.79
   0  -4 -1810868.39  908.72
   0   4  1810722.71  891.75
   0  -4  1811057.71  778.03
   0   4 -19 1648.13  426.94
   0   4  19 1376.81  381.66
   0  -4  19  773.71  268.99
   0  -4 -19 1204.96  366.36
   0  -4  2010939.92 1073.03
   0  -4 -2012210.03 1055.56
   0   4 -2010342.05  801.45
   0   4  2012038.80  865.38
   0  -4  21  400.19  431.60
   0  -4 -21  763.89  369.75
   0   4 -21  451.37  237.29
   0   4  21  531.48  248.55
   0   4 -22  929.80  415.21
   0   4  22  436.94  239.80
   0  -4  22  484.15  270.24
   0  -4 -22  393.77  236.62
   0  -4 -23  454.73  235.11
   0  -4  23  135.26  274.13
   0   4  23  321.24  391.89
   0   4 -23  394.58  439.62
   0  -4  24 3621.75  814.14
   0  -4 -24 4071.90  720.95
   0   4 -24 3852.16  560.19
   0  -4  25  110.74  450.31
   0   4  25  132.08  388.60
   0   4 -25  268.41  424.81
   0  -4 -25   79.24  376.54
   0   4  2614920.03 1196.06
   0  -4 -2613896.74 1465.67
   0   4 -2614510.31 1277.89
   0  -4  2614133.19 1260.42
   0   4  27  138.92  281.77
   0  -4 -27  271.85  427.44
   0   4 -27  -90.36  498.30
   0  -4  27  628.84  515.06
   0   4  28 8808.79 1218.92
   0  -4  28 9054.81 1009.27
   0   4 -28 9410.25 1375.14
   0   4 -29   -9.47  544.20
   0   4  29  339.98  489.16
   0  -4  29   98.44  548.17
   0   4  30 5036.28  994.88
   0  -4  30  -84.32 1038.84
   0   4 -30 5706.86 1061.48
   0   4 -31  200.15  516.19
   0  -4  31 -124.34  323.10
   0   5   0   74.67  106.55
   0  -5   0  194.27  103.20
   0  -5   0   20.70   80.50
   0   5   0  -98.02   66.28
   0  -5  -1171131.1 7927.04
   0   5  -1171475.7 8006.18
   0   5   2 9477.65  507.26
   0  -5   2 8832.06  443.76
   0  -5  -2 8819.25  463.23
   0  -5  -2 9145.69  526.58
   0   5   2 9126.99  487.47
   0  -5   2 7757.89  391.09
   0   5  -2 8912.94  568.10
   0   5  -2 8063.83  483.47
   0  -5   317567.23  780.55
   0   5   316345.17  769.47
   0  -5  -315872.80  801.11
   0   5  -317599.03  905.79
   0   5   316471.45  763.87
   0  -5  -316329.95  674.23
   0  -5   5 4591.52  436.45
   0   5  -5 3975.89  416.10
   0   5   5 4493.21  252.87
   0   5   5 4361.26  243.80
   0  -5  -5 4247.74  388.56
   0  -5  -5 4110.80  282.44
   0   5   6129668.7 5937.20
   0  -5  -6130161.2 5931.74
   0   5  -6139918.0 6407.84
   0  -5   6134892.1 6179.37
   0  -5   7 6206.06  537.16
   0   5   7 6319.98  336.53
   0  -5  -7 5254.26  346.69
   0  -5  -7 6733.42  429.14
   0   5  -7 6452.05  395.83
   0   5  -8117619.8 5500.18
   0  -5  -8115104.9 5286.19
   0   5   8115889.0 5313.15
   0  -5   8114990.7 5549.81
   0   5   954931.86 2492.31
   0  -5   953309.00 2606.74
   0  -5  -956374.87 2524.09
   0   5  -954821.28 2665.64
   0  -5 -1071006.33 3263.58
   0   5 -1069913.24 3448.65
   0  -5  1067801.42 3183.87
   0   5  1068515.93 3176.74
   0  -5 -1136849.92 1672.54
   0  -5  1138519.17 2005.97
   0   5  1136725.79 1794.51
   0   5 -1139659.88 2040.88
   0   5 -1224053.14 1227.85
   0  -5 -1226191.61 1228.25
   0   5  1225622.77 1317.33
   0  -5  1224530.98 1238.10
   0  -5  13 3627.34  487.07
   0  -5 -13 3963.69  418.26
   0   5 -13 3549.19  338.21
   0   5  13 4147.11  312.48
   0  -5 -14 2749.49  371.54
   0  -5  14 3096.51  473.02
   0   5 -14 3234.13  456.65
   0   5  14 3071.15  401.82
   0  -5 -15 1282.37  310.88
   0   5 -15 1477.00  345.04
   0  -5  15 1015.87  375.92
   0   5  15 1465.31  215.59
   0   5  16 1823.47  362.84
   0   5 -16 1785.67  404.85
   0  -5 -16 1421.53  226.05
   0  -5  16 1637.67  428.19
   0  -5  17  180.12  322.99
   0   5 -17   -5.54  302.69
   0   5  17  705.28  283.87
   0  -5 -17  182.25  239.76
   0  -5  1812218.69 1061.60
   0  -5 -1813941.22 1018.85
   0   5 -1810298.85  782.03
   0   5  1813689.08 1018.12
   0   5  19 3288.50  517.05
   0  -5 -19 3106.42  493.89
   0  -5  19 1848.30  555.84
   0   5 -19 2565.42  389.01
   0  -5 -2016954.52 1295.65
   0  -5  2016636.90 1358.58
   0   5  2015351.96 1204.51
   0   5 -2015334.34 1298.45
   0   5  2111640.04 1058.10
   0  -5 -2111382.47 1047.86
   0  -5  2110135.23  854.91
   0   5 -2110355.94 1069.61
   0   5 -2217769.20 1519.32
   0   5  2213936.37 1213.57
   0  -5 -2214555.03 1265.38
   0  -5  2213381.53 1061.52
   0  -5  23 7856.52 1040.14
   0  -5 -2310007.45 1057.00
   0   5  23 8808.60  996.15
   0   5 -23 8680.30  839.08
   0  -5 -2421579.27 1756.53
   0   5  2421917.46 1722.10
   0  -5  2420040.47 1838.63
   0   5 -2422629.57 1903.68
   0  -5  25 2958.31  513.06
   0   5  25 2818.53  656.70
   0  -5 -25 2367.86  635.86
   0   5 -25 2775.31  753.06
   0   5 -26  824.51  399.69
   0  -5  26 1142.62  598.89
   0   5  26 1007.91  342.50
   0  -5 -26  958.35  522.55
   0   5  27  566.80  471.53
   0   5 -27   37.17  543.58
   0  -5  27  173.95  553.32
   0  -5 -27  454.81  446.63
   0   5  28  722.64  520.28
   0  -5  28   51.38  372.15
   0   5 -28  884.42  610.52
   0  -5  29    8.36  397.72
   0   5  29  174.52  336.33
   0   5 -29  -74.24  229.42
   0  -5  30   -5.45  556.29
   0   5 -30  172.40  540.86
   0  -5  31 -156.38  363.40
   0   5 -31  251.59  334.52
   0   6   011308.75  529.88
   0   6   012763.90  689.70
   0  -6   013060.15  719.06
   0  -6   012457.93  643.84
   0  -6  -1134252.0 6055.39
   0   6   1135571.6 6251.02
   0   6  -1135253.1 6094.17
   0  -6  -1133608.0 6154.67
   0   6   2 8798.57  513.39
   0  -6   2 9381.53  605.94
   0   6   2 8691.60  420.78
   0  -6  -2 8640.80  477.88
   0  -6  -2 9052.36  567.62
   0   6  -2 9245.73  468.98
   0  -6   328921.43 1278.07
   0   6  -330848.60 1495.45
   0   6   327865.41 1267.73
   0   6   330046.83 1306.01
   0  -6  -329465.72 1224.70
   0  -6  -329456.18 1360.90
   0   6  -4 1868.82  309.41
   0  -6  -4 1600.89  277.68
   0  -6   4 1885.30  323.82
   0   6   4 1602.81  233.74
   0   6   4 1746.78  153.71
   0  -6  -4 1541.30  203.09
   0  -6   5 3574.00  404.55
   0   6   5 3970.27  236.88
   0  -6  -5 3588.87  280.01
   0  -6  -5 3342.49  372.51
   0   6  -5 3303.46  394.86
   0  -6  -6 1709.65  203.40
   0   6   6 1834.20  171.73
   0  -6  -6 2117.63  300.77
   0  -6   6 2056.56  240.51
   0   6  -6 2104.28  345.67
   0   6  -7  -30.17  121.32
   0  -6   7  174.21  190.00
   0  -6  -7   68.60   76.38
   0   6   7   36.71   85.96
   0  -6  -8 8191.82  512.61
   0   6  -8 8766.99  507.00
   0  -6   8 8196.42  610.79
   0   6   8 7709.93  515.98
   0  -6   9 2733.72  398.67
   0   6   9 3228.47  322.02
   0  -6  -9 2446.51  285.13
   0   6  -9 2497.82  394.15
   0   6  10 6538.57  489.91
   0  -6 -10 7055.34  478.44
   0  -6  10 6440.93  447.55
   0   6 -10 7264.26  620.17
   0   6  1119934.44  938.43
   0   6 -1120335.97 1058.57
   0  -6  1120957.11 1223.95
   0  -6 -1119886.20 1046.32
   0   6 -12 4452.75  383.43
   0   6  12 4067.25  299.97
   0  -6  12 4344.30  372.83
   0  -6 -12 3088.67  362.84
   0  -6  1335553.13 1956.31
   0  -6 -1338792.50 1925.81
   0   6 -1337191.58 2068.17
   0   6  1337463.18 1864.77
   0  -6 -14 8190.10  539.08
   0   6 -14 9976.31  819.38
   0   6  14 7615.11  619.84
   0  -6  1410568.27  808.99
   0   6 -1534591.09 2024.10
   0  -6  1535212.75 1864.52
   0  -6 -1533051.27 1833.55
   0   6  1531745.43 1607.70
   0  -6 -16 1056.25  305.88
   0   6 -16 1328.04  255.44
   0  -6  16  902.07  252.93
   0   6  16  856.56  323.86
   0  -6 -1761485.39 3250.96
   0   6 -1760823.59 3207.77
   0   6  1761452.39 3265.77
   0  -6  1760939.03 3202.54
   0  -6  18  723.42  264.12
   0   6  18 1632.94  388.24
   0   6 -18  573.56  428.11
   0  -6 -18 2000.68  374.76
   0   6 -1911867.78 1100.58
   0  -6  1911071.57  856.61
   0   6  1911510.30  804.63
   0  -6 -1911862.40  819.29
   0   6  20  126.38  180.10
   0  -6 -20  324.27  270.20
   0  -6  20  -34.92  207.06
   0   6 -20  112.48  329.14
   0   6  21 1622.60  315.17
   0   6 -21 1769.28  573.55
   0  -6 -21  892.84  444.74
   0  -6  21 2180.06  557.34
   0   6 -22 2362.74  418.78
   0  -6 -22 1844.95  529.44
   0   6  22 1956.56  350.13
   0  -6  22 3026.56  623.23
   0  -6 -23  969.37  528.30
   0  -6  23 2545.11  674.07
   0   6  23 3001.82  434.94
   0   6 -23 2526.42  444.55
   0  -6  24  502.02  271.67
   0   6  24  -87.66  236.44
   0  -6 -24   88.19  358.72
   0   6 -24  456.92  432.62
   0   6  25 1573.47  370.33
   0   6 -25 1437.61  674.37
   0  -6 -25 1578.60  557.05
   0  -6  25 1762.85  436.95
   0  -6 -26 1405.79  564.77
   0  -6  26 1769.96  660.74
   0   6 -26  895.72  427.65
   0   6  26 1477.75  365.09
   0   6 -27 9918.59 1340.89
   0   6  27 7363.23 1080.32
   0  -6  27 8624.01 1292.41
   0   6 -28  -61.15  547.68
   0  -6  28  153.97  336.76
   0   6  28  548.61  455.55
   0  -6  29  -11.74  883.20
   0   6 -29 2752.00  564.00
   0  -6  30   12.12  671.19
   0   6 -30  804.72  695.95
   0  -7   0   50.40  101.67
   0   7   0   49.35   91.83
   0   7  -1  145.52  122.88
   0  -7  -1  250.93  198.52
   0  -7   1  306.60  119.51
   0   7   1   51.74  105.77
   0   7   289936.44 4015.47
   0  -7  -288854.60 3925.00
   0  -7   291133.32 4055.10
   0   7  -293271.02 4290.07
   0  -7   3 8085.89  592.39
   0  -7  -3 7673.90  529.46
   0   7  -3 8508.32  461.52
   0   7   3 8321.57  504.18
   0   7   4  847.85  129.69
   0  -7  -4  868.53  237.78
   0   7  -4  801.28  167.04
   0  -7   4  763.61  267.91
   0  -7   5193339.0 9535.40
   0  -7  -5190021.4 9232.46
   0   7  -5191373.6 9498.94
   0   7  -641027.52 1908.07
   0  -7   639216.88 1812.20
   0   7   643510.41 1934.61
   0  -7  -644630.75 2094.74
   0  -7  -714897.98  872.87
   0  -7   716392.78  954.83
   0   7   715582.03  707.31
   0   7  -715453.63  806.72
   0  -7  -8 3602.28  333.75
   0   7   8 3510.59  345.06
   0  -7   8 2187.37  394.18
   0   7  -8 2189.37  264.94
   0  -7   911280.26  784.21
   0  -7  -911905.94  680.64
   0   7  -911912.22  704.63
   0   7   911797.13  588.94
   0  -7 -1018337.66  871.29
   0   7  1019533.12 1011.00
   0  -7  1016335.12  881.68
   0   7 -1016933.62 1080.44
   0  -7 -11 2298.92  305.80
   0  -7  11 2756.80  428.55
   0   7 -11 3053.84  303.63
   0   7  11 2771.26  334.98
   0  -7  12 5589.34  577.40
   0   7 -12 6019.85  603.32
   0   7  12 6372.87  502.76
   0  -7 -12 6051.41  477.75
   0  -7  1345635.42 2476.70
   0   7  1344028.85 2214.44
   0  -7 -1345632.60 2126.07
   0   7 -1345078.98 2260.81
   0  -7 -14 3990.84  423.05
   0   7  14 3759.68  424.66
   0  -7  14 3327.11  368.94
   0   7 -14 2941.18  349.09
   0   7  15 1300.50  214.22
   0  -7  15 1526.93  394.73
   0  -7 -15 1149.47  295.34
   0   7 -15 2094.98  420.46
   0   7 -16 4789.20  596.86
   0  -7  16 4272.43  599.62
   0   7  16 4209.16  502.40
   0  -7 -16 4068.47  471.60
   0  -7 -1710013.25  811.04
   0   7 -17 9072.88  886.46
   0  -7  17 9776.21  926.54
   0   7  17 9761.57  794.71
   0   7  18 1807.14  414.95
   0   7 -18 1695.10  501.24
   0  -7 -18 1664.75  389.54
   0  -7  18 1731.91  528.45
   0  -7  1910712.25 1052.94
   0   7  1910546.28  905.89
   0   7 -1911470.60 1063.92
   0  -7 -19 9903.82  896.01
   0   7  20  927.82  392.94
   0   7 -20  588.88  451.96
   0  -7  20 1199.48  473.41
   0  -7 -20 1060.46  359.66
   0   7 -21 2866.12  441.62
   0  -7  21 2165.69  682.52
   0   7  21 3448.72  575.69
   0  -7 -21 3218.10  401.81
   0  -7 -22 1078.53  285.68
   0   7  22 1299.56  458.43
   0   7 -22 1956.08  401.99
   0  -7  22 2099.74  587.68
   0   7  2312266.69 1131.54
   0   7 -2312290.52 1090.03
   0  -7  2311297.49 1291.88
   0  -7 -2313099.23 1226.56
   0   7  24 3631.13  662.42
   0  -7  24 2461.30  498.06
   0   7 -24 3546.58  777.46
   0  -7 -24 2441.91  619.00
   0  -7  25 5199.72  703.84
   0   7  25 5616.16  884.88
   0   7 -25 6558.90 1049.89
   0  -7 -25 4573.71  817.86
   0  -7  26 2664.95  808.56
   0   7  26 2129.99  656.17
   0   7 -26 2662.52  554.73
   0   7  27 1451.32  544.14
   0  -7  27  -36.07  638.11
   0   7 -27  936.56  649.14
   0  -7  28  106.30  291.09
   0   7  28   19.36  394.15
   0   7 -28   -0.97  479.74
   0   7 -29  633.43  414.37
   0  -7  29   66.18  648.28
   0  -7  30  154.37  681.05
   0   7 -30  656.30  701.94
   0  -8   0 2560.90  343.44
   0   8   0 2446.20  332.78
   0  -8   1 2005.05  341.33
   0   8   1 2235.18  307.27
   0  -8  -1 2070.24  320.25
   0   8  -1 2179.96  218.81
   0  -8   241322.79 1994.16
   0   8  -242637.10 2035.34
   0   8   242734.98 1940.31
   0  -8  -242137.65 1979.00
   0   8  -343075.72 2062.28
   0  -8  -341841.27 1971.11
   0  -8   344739.36 1999.30
   0   8   342603.19 1932.75
   0   8   4  172.51  101.31
   0  -8  -4  289.76  128.24
   0  -8   4  243.57  155.01
   0   8  -4  131.40  230.32
   0  -8  -5  587.22  253.00
   0  -8   5  562.92  304.34
   0   8   5  953.41  218.20
   0   8  -5  638.88  184.85
   0   8  -631599.42 1653.96
   0  -8  -634373.15 1696.12
   0  -8   631573.92 1513.42
   0   8   633532.82 1561.66
   0   8  -7 8554.12  659.88
   0  -8  -7 8083.53  609.55
   0   8   7 8161.26  427.30
   0  -8   7 8849.75  661.49
   0   8  -826330.62 1474.57
   0  -8   826459.49 1462.46
   0  -8  -826132.97 1370.22
   0   8   828483.52 1256.62
   0  -8   9  438.01  273.31
   0   8   9  286.90  135.27
   0  -8  -9  486.47  132.62
   0   8  -9  723.81  291.82
   0  -8  10 3979.80  494.94
   0   8  10 4433.60  418.93
   0  -8 -10 4605.33  405.96
   0   8 -10 4667.26  391.64
   0   8  11 8699.66  603.95
   0  -8  11 8718.66  591.87
   0   8 -11 8831.62  767.72
   0  -8 -11 8428.88  582.02
   0  -8  1213178.48  949.06
   0   8 -1213855.72  851.77
   0   8  1212048.72  776.80
   0  -8 -1213078.37  795.30
   0   8  13 3859.40  412.56
   0  -8  13 4302.75  403.75
   0  -8 -13 4594.20  447.36
   0   8 -13 4413.56  575.25
   0  -8 -1471592.64 3580.59
   0   8  1468112.62 3437.00
   0   8 -1469288.13 3770.54
   0  -8  1469007.72 3704.19
   0  -8  1511328.83  942.85
   0  -8 -1510468.98  783.71
   0   8  1512042.46  830.93
   0   8 -1512374.11  812.39
   0   8 -1627211.06 1617.36
   0   8  1628188.86 1615.40
   0  -8  1627584.87 1582.77
   0  -8 -1626601.46 1563.29
   0  -8  17 3844.47  430.96
   0  -8 -17 3656.83  365.80
   0   8  17 2670.13  482.62
   0   8 -17 3088.86  438.02
   0  -8 -1826563.80 1640.86
   0   8  1823361.44 1489.80
   0   8 -1821652.97 1373.85
   0  -8  1824091.45 1466.05
   0   8 -19  835.63  301.42
   0  -8 -19  990.55  230.52
   0   8  19  807.93  225.29
   0  -8  19  280.29  433.66
   0   8  20 1179.06  409.32
   0  -8  20 1209.80  496.34
   0  -8 -20 1506.92  396.22
   0   8 -20  834.21  296.16
   0   8  21 1426.93  425.39
   0   8 -21 1401.57  364.22
   0  -8  21 1442.87  530.52
   0  -8 -21 1485.49  432.60
   0  -8 -22  -73.08  286.96
   0   8  22  -86.85  309.94
   0   8 -22  -31.53  237.22
   0  -8  22 -325.57  241.90
   0   8  23 2351.02  572.51
   0  -8 -23 2617.84  413.09
   0   8 -23 2915.62  710.14
   0  -8  23 3091.99  523.64
   0   8  24 2702.01  600.18
   0  -8 -24 1976.20  581.71
   0   8 -24 2082.48  734.69
   0  -8  24 2650.06  487.34
   0   8  25   -6.71  377.97
   0  -8  25 -445.98  472.10
   0   8 -25 -151.47  484.59
   0   8 -2613900.48 1275.53
   0   8  2611479.90 1305.84
   0  -8  2612634.45 1533.55
   0  -8  27 2330.25  761.97
   0   8 -27  -52.87  489.65
   0   8  27 2334.82  627.99
   0   8 -28 -244.80  927.73
   0  -8  28 4557.95  699.71
   0  -8  29 1119.48  696.50
   0   8 -29  -88.57  712.59
   0   8 -30 3288.13  709.42
   0  -8  30 2679.71 1112.69
   0  -9   0  -25.57  111.67
   0   9   0  -60.53  101.85
   0   9   1  399.98  186.82
   0  -9  -1   70.14  191.84
   0   9  -1  -75.50  199.32
   0  -9   1  -28.76  195.96
   0   9   233341.66 1575.60
   0  -9   233139.33 1666.50
   0   9  -234307.89 1703.82
   0  -9  -233019.25 1630.71
   0   9  -3 7210.85  578.63
   0   9   3 7061.22  399.29
   0  -9   3 7637.50  602.45
   0  -9  -3 6398.68  520.37
   0   9   4 1991.69  212.69
   0   9  -4 3547.80  308.78
   0  -9   4 3979.40  466.61
   0  -9  -4 2563.07  366.39
   0  -9  -586687.32 4113.49
   0   9  -584013.81 4131.60
   0  -9   585152.11 3996.77
   0   9   589666.06 4089.96
   0   9   690480.21 4200.08
   0   9  -686995.75 4299.61
   0  -9  -689026.99 4132.96
   0  -9   684760.94 4184.25
   0  -9  -7 3716.18  307.46
   0   9  -7 4134.69  357.00
   0  -9   7 3608.21  341.51
   0   9   7 3499.89  365.85
   0  -9   8   83.12  133.18
   0  -9  -8  -90.35  196.38
   0   9   8  144.52  172.03
   0   9  -8  186.45  144.67
   0   9   9 4629.12  308.43
   0  -9   9 4109.76  369.74
   0   9  -9 4317.36  526.59
   0  -9  -9 4610.34  362.16
   0   9  1063829.27 3090.41
   0  -9  1065286.66 3369.11
   0   9 -1067010.63 3512.06
   0  -9 -1068713.66 3280.75
   0  -9 -11 3537.98  365.60
   0  -9  11 3249.51  480.74
   0   9 -11 3449.57  369.91
   0   9  11 2754.12  363.87
   0  -9 -12  414.07  210.02
   0   9 -12  160.24  345.33
   0  -9  12  559.30  207.68
   0   9  12  771.83  154.74
   0  -9 -13 2094.91  321.50
   0  -9  13 2556.02  464.89
   0   9  13 2705.14  267.01
   0   9 -13 3025.36  344.11
   0   9 -14 1133.77  387.22
   0  -9 -14  717.13  255.13
   0   9  14  784.78  274.31
   0  -9  14  574.38  233.07
   0   9  15 3816.11  468.36
   0   9 -15 4719.08  636.51
   0  -9  15 4407.20  614.42
   0  -9 -15 3994.88  473.82
   0  -9  16 5006.59  672.65
   0   9  16 4096.88  505.03
   0  -9 -16 4819.80  540.31
   0   9 -16 5076.83  681.55
   0   9  1731500.55 1854.38
   0   9 -1730330.87 1798.46
   0  -9  1730386.43 2013.93
   0  -9 -1732354.31 1888.72
   0  -9  18 5361.59  554.73
   0  -9 -18 4819.75  457.85
   0   9 -18 4228.74  525.32
   0   9  18 5499.40  624.87
   0   9 -19 1188.72  318.18
   0  -9  19  939.35  304.11
   0   9  19  865.22  390.00
   0  -9  20 2806.96  423.21
   0   9  20 1474.72  433.05
   0   9 -20 1673.37  396.44
   0  -9 -20 1545.23  297.28
   0   9  21 1546.74  442.17
   0   9 -21 1583.28  378.06
   0  -9 -21 1053.34  414.42
   0  -9  21 1171.17  349.33
   0   9  22  934.34  407.98
   0  -9 -22  623.33  388.34
   0   9 -22 1252.94  347.91
   0  -9  22 1023.84  338.90
   0  -9 -23 2636.19  596.22
   0   9 -23 4122.80  802.67
   0   9  23 2859.79  604.69
   0  -9  23 2999.89  495.83
   0   9  24 8053.28  984.27
   0   9 -2410953.88 1314.36
   0  -9  24 9294.83  929.08
   0  -9  25 2244.21  690.73
   0   9  25 1487.14  534.26
   0   9 -25 1765.78  747.88
   0   9 -26 4056.08  655.68
   0   9  26 4630.77  812.82
   0  -9  26 5696.24  969.89
   0  -9  27  300.71  469.37
   0   9 -27  -40.45  275.29
   0  -9  28  442.43  388.57
   0   9 -28 -228.07  600.99
   0  -9  29  478.34  422.32
   0   9 -29   19.61  669.93
   0 -10   053187.18 2599.11
   0  10   054374.65 2609.72
   0 -10   1122999.5 5980.84
   0  10  -1121245.8 5853.26
   0  10   1120242.8 5589.22
   0 -10  -1119905.9 5616.11
   0  10   2 1379.86  284.14
   0 -10  -2 1221.96  320.04
   0  10  -2 1125.94  321.13
   0 -10   2 1551.07  338.89
   0  10  -321203.92 1179.30
   0  10   320149.51  942.12
   0 -10   320256.41 1156.13
   0 -10  -320902.17 1001.18
   0 -10   4  473.84  289.86
   0  10  -4  487.89  171.78
   0 -10  -4  492.78  257.85
   0  10   4  650.45  221.54
   0 -10   5 2415.64  271.17
   0  10  -5 2360.97  265.80
   0 -10  -5 2142.84  349.89
   0  10   5 2710.90  322.49
   0  10  -674226.22 3758.69
   0  10   677651.07 3632.10
   0 -10   676392.13 3629.66
   0 -10  -676412.95 3581.72
   0 -10  -7 3625.58  441.00
   0  10   7 3290.84  263.84
   0 -10   7 3346.18  477.73
   0  10  -7 4040.15  479.00
   0  10  -8 3764.44  470.78
   0  10   8 2300.37  323.18
   0 -10  -8 1937.08  386.29
   0 -10   8 3064.02  445.46
   0 -10   911352.92  861.09
   0  10  -911822.22  885.95
   0 -10  -911413.54  801.11
   0  10   911465.94  709.44
   0 -10  10 8656.04  720.61
   0  10  10 8629.50  499.29
   0  10 -10 7021.79  527.72
   0 -10 -10 8400.62  610.12
   0 -10  1120173.54 1140.28
   0  10  1121192.69 1174.28
   0 -10 -1120844.67 1167.96
   0  10 -1119460.99 1296.67
   0 -10 -12 5877.68  517.86
   0  10  12 6582.45  551.20
   0  10 -12 6098.15  514.42
   0 -10  12 6002.57  638.74
   0 -10 -1342105.85 2179.43
   0 -10  1343111.03 2278.57
   0  10  1343143.30 2220.36
   0  10 -1340234.42 2389.29
   0 -10 -1414153.53  928.40
   0 -10  1413441.16 1062.48
   0  10 -1413131.08  908.29
   0  10  1414207.82  938.24
   0  10  15 4178.75  381.92
   0 -10  15 4991.26  488.80
   0 -10 -15 3983.92  475.56
   0  10 -15 4167.35  646.71
   0 -10  16  562.85  277.87
   0  10  16 1002.99  315.69
   0 -10 -16  571.85  275.34
   0  10 -16  641.23  436.74
   0  10 -1731601.44 2132.84
   0  10  1730652.92 1806.14
   0 -10  1729672.97 2038.62
   0 -10 -1730843.83 1804.78
   0 -10  1822420.07 1711.59
   0  10  1826375.59 1619.21
   0  10 -1826425.28 1906.68
   0 -10 -1824432.03 1558.34
   0 -10 -19 5454.77  649.43
   0 -10  19 5638.36  802.90
   0  10  19 5794.30  679.24
   0  10 -19 6270.58  642.36
   0 -10 -2014382.49 1163.25
   0  10  2012760.10 1104.36
   0 -10  2012591.13 1038.42
   0  10 -2013861.38 1084.68
   0  10  21  181.59  167.00
   0  10 -21  247.56  225.12
   0 -10  21 -263.47  205.57
   0 -10 -21    1.88  160.29
   0 -10  22 1252.70  410.53
   0  10 -22 2023.03  644.67
   0 -10 -22 1382.36  464.00
   0  10  22 1998.82  496.44
   0 -10  23 -371.76  411.84
   0 -10 -23   25.43  284.45
   0  10 -23 -601.81  410.55
   0  10  23  264.86  300.28
   0  10 -24  984.93  625.18
   0  10  24 1389.63  514.68
   0 -10  24 1008.64  630.62
   0  10  25 4088.85  733.22
   0 -10  25 2326.62  872.77
   0  10 -25 6319.67 1058.31
   0  10 -26  119.11  645.67
   0 -10  26 1115.38  669.94
   0  10 -27 3373.00  638.43
   0 -10  27 3725.25 1052.16
   0  10 -28   36.68  667.91
   0 -10  28  592.50  426.11
   0 -10  29 1952.45  603.22
   0  10 -29  245.58  865.52
   0  11   0  -58.60  166.41
   0 -11   0   45.34  106.86
   0 -11  -125429.08 1361.72
   0  11  -124274.69 1315.46
   0  11   124559.50 1319.06
   0 -11   125213.56 1219.34
   0  11   2 9666.77  636.81
   0 -11   210048.58  734.88
   0  11  -210775.62  732.16
   0 -11  -2 9780.16  707.30
   0 -11  -3 1015.92  197.46
   0  11   3 1066.28  277.06
   0 -11   3 1886.29  338.54
   0  11  -3 1041.91  335.32
   0 -11  -4  909.70  268.76
   0  11  -4  199.18  294.18
   0  11   4  464.43  235.02
   0 -11   4  809.04  204.11
   0 -11  -530182.44 1595.90
   0  11   529620.69 1473.14
   0  11  -529635.43 1473.40
   0 -11   529396.55 1622.61
   0 -11   6  980.86  214.87
   0 -11  -6  796.13  304.58
   0  11  -6  941.44  209.84
   0  11   6 1102.07  256.25
   0  11  -724366.36 1443.42
   0 -11  -726186.45 1447.49
   0 -11   725250.17 1319.11
   0  11   724954.66 1169.51
   0  11   835241.60 1746.87
   0 -11   834466.71 1728.73
   0 -11  -834898.35 1896.36
   0  11  -832863.29 1689.41
   0 -11   933141.31 1723.63
   0  11   933854.63 1712.49
   0 -11  -934049.76 1860.91
   0  11  -933541.36 1741.25
   0 -11  10 2393.10  303.85
   0  11 -10 2667.51  454.49
   0  11  10 2468.80  345.03
   0 -11 -10 2262.59  412.62
   0  11  1114385.63  791.74
   0 -11 -1114973.48  926.29
   0 -11  1113387.90 1012.32
   0  11 -1114381.16 1048.20
   0  11 -1211265.93  769.20
   0 -11 -1210917.22  770.71
   0 -11  1211448.68  948.77
   0  11  1212713.38  722.27
   0 -11 -13 1298.45  303.69
   0 -11  13 1314.25  444.84
   0  11  13 1637.74  221.40
   0  11 -13  916.90  426.05
   0 -11  14  229.21  202.79
   0  11 -14   43.03  333.16
   0 -11 -14  352.31  224.98
   0  11  14  188.71  251.58
   0  11  15  547.97  320.02
   0 -11  15 1093.18  411.10
   0 -11 -15  456.42  264.25
   0  11 -15 1252.19  288.39
   0  11  16  164.78  259.20
   0  11 -16 -209.99  370.28
   0 -11  16  141.75  207.10
   0 -11 -16  527.19  249.25
   0 -11  17 2860.91  417.74
   0  11  17 2901.19  361.06
   0 -11 -17 2943.98  459.18
   0  11 -17 2125.57  626.32
   0 -11 -18  428.16  289.60
   0  11  18  570.78  324.56
   0  11 -18  384.21  445.94
   0 -11  18  304.38  414.93
   0  11  1916334.45 1033.67
   0 -11  1912201.37 1228.51
   0  11 -1916718.79 1453.96
   0 -11 -1914243.71 1141.66
   0 -11 -2015547.05 1258.43
   0  11  2015663.94 1249.72
   0 -11  2017064.31 1500.14
   0  11 -2016526.16 1551.53
   0 -11  2111348.19 1276.10
   0  11  2113085.76 1119.49
   0  11 -2115644.47 1486.44
   0 -11 -2113183.21 1127.68
   0  11 -22    0.63  464.88
   0  11  22  275.76  215.17
   0 -11 -22  168.00  317.95
   0 -11  22  718.72  479.46
   0  11  23 5654.53  777.13
   0 -11  23 5840.71  994.40
   0  11 -23 7658.24 1114.76
   0 -11  24 1418.23  732.22
   0  11 -24 2696.00  813.23
   0  11  24 2275.40  579.06
   0  11  25 1124.27  479.25
   0  11 -25  194.45  615.73
   0 -11  25  414.72  626.11
   0  11 -26  198.66  486.26
   0 -11  26  -32.43  480.05
   0 -11  27  954.28  594.01
   0  11 -27  -59.41  377.04
   0  11 -28 -197.75  348.76
   0 -11  28   -0.28  335.17
   0  11 -29   83.51  613.76
   0 -11  29  120.96  375.58
   0  12   031776.80 1670.36
   0 -12   034413.77 1806.81
   0 -12  -1  372.02  282.61
   0  12   1  280.06  257.44
   0  12  -1  460.37  171.99
   0 -12   1  542.25  183.27
   0  12   264331.94 3094.30
   0  12  -264511.44 3254.37
   0 -12  -263472.32 3181.99
   0 -12   263381.74 3031.17
   0 -12   3 7596.53  665.19
   0  12   3 8341.79  480.62
   0 -12  -3 8177.43  503.79
   0  12  -3 6984.74  627.36
   0 -12   4 8953.39  566.29
   0  12   4 8521.04  495.97
   0 -12  -4 8467.76  653.21
   0  12  -4 8938.81  740.99
   0  12   5 1332.72  278.44
   0  12  -5  907.82  218.37
   0 -12   5 1033.54  355.52
   0 -12  -5 1145.58  314.19
   0  12  -6 1576.17  260.85
   0 -12   6 1847.67  400.65
   0  12   6 2001.97  327.08
   0 -12  -6 2288.15  390.13
   0 -12   7 5292.17  426.94
   0 -12  -7 5128.77  414.87
   0  12  -7 5043.05  414.23
   0  12   7 4489.54  442.77
   0 -12  -8  108.65  239.91
   0  12  -8  -56.47  149.61
   0 -12   8  159.86  160.22
   0  12   8  436.65  212.07
   0 -12   916408.05 1133.94
   0  12   915693.22  811.77
   0 -12  -916181.06 1073.60
   0  12  -915504.19  953.52
   0  12 -10 7591.02  758.25
   0 -12  10 8158.18  784.13
   0 -12 -10 8791.21  738.25
   0  12  10 8305.57  616.52
   0 -12  11  914.50  364.38
   0 -12 -11  470.54  161.71
   0  12 -11  242.27  231.06
   0  12  11  585.47  189.61
   0 -12  1226363.65 1501.05
   0  12  1226483.86 1356.41
   0 -12 -1228798.59 1592.31
   0  12 -1224478.11 1650.62
   0  12  13 1590.19  367.92
   0  12 -13 1694.56  311.55
   0 -12  13 1517.95  460.08
   0 -12 -13 1458.46  342.18
   0 -12  14 5013.37  524.48
   0  12  14 6424.34  601.14
   0 -12 -14 5467.09  555.48
   0  12 -14 4699.12  701.56
   0 -12 -15 2366.83  396.79
   0 -12  15 2128.89  525.66
   0  12  15 1822.51  398.80
   0  12 -15 1657.66  335.24
   0 -12  16 9392.57  958.59
   0  12 -16 8768.98  752.60
   0  12  16 9555.76  830.90
   0 -12 -16 9655.10  799.71
   0 -12 -17 1389.91  379.94
   0  12  17 2237.32  416.53
   0  12 -17 2263.86  563.04
   0 -12  17 1682.93  364.19
   0 -12 -18 1615.08  263.10
   0  12 -18 1856.44  597.22
   0  12  18 1586.85  422.42
   0 -12  18 2320.46  386.70
   0  12 -19 -104.93  276.28
   0 -12  19  107.85  264.88
   0 -12 -19  -87.75  177.93
   0  12  19   39.01  114.98
   0 -12 -20 7208.86  794.56
   0  12 -20 8082.09 1091.92
   0  12  20 7240.97  804.53
   0 -12  20 8007.67 1055.12
   0  12  21 4645.75  684.94
   0 -12  21 4446.70  843.10
   0 -12 -21 3730.07  612.36
   0  12 -21 4823.85  888.94
   0 -12  22 1537.78  605.33
   0  12 -22 1446.20  663.33
   0  12  22  918.67  285.83
   0  12  23  563.12  404.52
   0  12 -23  639.98  590.26
   0 -12  23  433.69  559.32
   0  12  24 1878.72  512.35
   0 -12  24 1823.77  706.46
   0  12 -24   15.05  734.10
   0  12 -25 -128.89  645.87
   0 -12  25 1136.36  627.40
   0 -12  26  481.59  575.27
   0  12 -26   50.21  583.77
   0  12 -27   40.83  539.96
   0 -12  27  168.52  548.08
   0  12 -28   35.46  564.52
   0 -12  28 3714.27  644.81
   0  13   0  -75.53  164.56
   0 -13   0  119.42  185.43
   0  13  -1 3098.87  431.28
   0 -13  -1 2995.54  310.61
   0  13   1 3494.91  302.99
   0 -13   1 3769.09  466.53
   0  13   2 2487.46  260.71
   0 -13   2 2771.65  301.44
   0 -13  -2 3190.46  300.22
   0  13  -2 2099.30  272.32
   0  13  -3  320.27  303.75
   0 -13  -3  375.72  172.47
   0  13   3  469.58  148.10
   0 -13   3  428.76  300.26
   0  13   439135.44 1833.71
   0 -13  -438667.23 1879.53
   0  13  -438834.69 2103.55
   0 -13   441414.15 2060.23
   0 -13  -5 3603.77  489.15
   0  13   5 4652.75  442.63
   0  13  -5 3918.65  372.74
   0 -13   5 4373.70  536.89
   0  13   630736.61 1613.55
   0  13  -634229.15 1770.79
   0 -13   630996.56 1829.76
   0 -13  -633606.01 1844.87
   0 -13  -7 3887.70  500.74
   0  13  -7 3003.45  348.29
   0  13   7 3387.76  413.48
   0 -13   7 3773.60  534.01
   0  13  -840649.39 2163.49
   0  13   842901.71 2051.24
   0 -13  -843652.54 2381.37
   0 -13   840395.67 2343.09
   0 -13   917217.19 1189.74
   0 -13  -917265.96 1176.77
   0  13   917664.86 1049.68
   0  13  -917585.43 1234.54
   0 -13 -10 7789.11  747.04
   0  13 -10 6401.94  714.31
   0  13  10 7965.51  625.68
   0 -13  10 7629.96  768.38
   0  13  11 1199.27  320.72
   0 -13 -11 1383.81  254.56
   0 -13  11 1131.21  264.16
   0  13 -11 1000.63  272.31
   0  13 -12 1570.16  523.98
   0  13  12 1885.44  260.46
   0 -13  12 2989.80  538.93
   0 -13 -12 2504.74  284.84
   0 -13  13 1503.42  509.27
   0  13 -13 2235.92  348.92
   0  13  13 2363.66  409.40
   0 -13 -13 1872.30  375.20
   0  13  14 2352.48  428.60
   0 -13 -14 2497.34  420.81
   0  13 -14 2969.00  566.13
   0 -13  14 2172.69  526.75
   0 -13 -15  150.17  240.45
   0  13  15  215.88  276.91
   0  13 -15   18.24  351.30
   0 -13  15  232.39  236.60
   0  13  16 1695.56  262.57
   0  13 -16  674.49  334.24
   0 -13  16 1933.34  546.08
   0 -13 -16 1628.49  359.04
   0 -13  17   27.50  283.99
   0  13 -17  384.71  447.21
   0  13  17  265.07  318.59
   0 -13 -17  779.49  201.97
   0 -13 -1813803.68 1068.63
   0  13 -1812289.70 1254.84
   0 -13  1812635.88 1051.05
   0  13  1812590.06 1049.17
   0  13 -19 1326.45  602.39
   0  13  19 1537.09  287.07
   0 -13  19 2294.13  612.14
   0  13  2015419.91 1245.02
   0 -13 -2015869.02 1227.89
   0 -13  2015316.33 1492.82
   0  13 -2014566.10 1482.81
   0  13  21 1517.66  491.06
   0  13 -21 1963.47  697.80
   0  13 -22 5973.15  972.41
   0  13  22 4458.55  710.04
   0 -13  22 4407.66  904.61
   0  13  23  279.49  400.91
   0  13 -23 1022.96  595.82
   0 -13  23  592.99  565.50
   0  13 -24 8618.89 1197.11
   0 -13  24 4784.29 1012.45
   0 -13  25  -19.29  404.54
   0  13 -25   -7.77  414.83
   0 -13  26   17.69  465.98
   0  13 -26  -42.90  451.81
   0  13 -27  -31.68  471.33
   0 -13  27   71.24  481.35
   0  14   020986.23 1102.27
   0 -14   020412.95 1094.83
   0 -14  -125996.58 1499.70
   0  14   125724.17 1434.22
   0  14  -123121.66 1360.60
   0 -14   124475.54 1453.41
   0 -14   2  271.97  297.52
   0  14  -2  330.57  170.09
   0 -14  -2  178.14  274.20
   0  14   2  287.29  247.59
   0  14  -3 2141.64  411.53
   0  14   3 1661.96  363.55
   0 -14  -3 2663.10  414.97
   0 -14   3 2913.81  461.41
   0  14  -4   77.69  278.38
   0 -14   4  249.67  168.70
   0 -14  -4 -121.38  141.90
   0  14   4  243.83  134.29
   0  14   524798.78 1357.10
   0  14  -522692.56 1238.61
   0 -14  -522690.40 1207.14
   0 -14   523338.58 1444.49
   0  14  -6 2229.80  302.50
   0 -14  -6 2369.12  308.93
   0  14   6 2436.79  370.53
   0 -14   6 2555.71  484.66
   0  14   7 2512.11  373.01
   0 -14   7 2427.59  459.21
   0  14  -7 2006.93  302.38
   0 -14  -7 1882.41  451.83
   0  14   8   99.68  222.41
   0 -14  -8  119.03  286.34
   0  14  -8  268.83  186.12
   0 -14   8  -97.18  289.08
   0 -14  -9  296.74  284.30
   0  14   9  114.72  235.01
   0 -14   9  130.67  311.39
   0  14  -9  172.53  316.66
   0 -14  1027413.24 1563.70
   0  14 -1026046.52 1701.85
   0 -14 -1028216.26 1768.61
   0  14  1028320.33 1595.41
   0  14 -11 5544.27  531.56
   0 -14  11 5159.66  521.79
   0 -14 -11 5266.94  488.42
   0  14  11 6239.78  455.82
   0  14  12 6367.10  509.59
   0 -14 -12 6542.22  675.01
   0  14 -12 6571.10  782.74
   0 -14  12 7379.53  794.05
   0  14 -1318218.58 1189.00
   0 -14  1316845.00 1133.66
   0 -14 -1319053.69 1225.10
   0  14  1315897.82  957.09
   0  14 -14 3513.12  627.57
   0 -14 -14 3312.12  467.09
   0 -14  14 2687.45  599.44
   0  14  14 2913.50  485.28
   0 -14 -15  176.18  256.66
   0  14 -15  314.09  391.69
   0 -14  15  333.35  258.09
   0  14  15   67.49  291.94
   0  14  16 2409.75  459.42
   0 -14  16 1778.40  583.52
   0  14 -16 2431.70  409.43
   0 -14 -16 1991.75  309.11
   0  14 -17 5228.93  873.44
   0 -14  17 4460.66  811.45
   0  14  17 6855.35  736.46
   0 -14 -17 6328.41  700.51
   0 -14  18  632.75  327.26
   0 -14 -18  376.61  320.92
   0  14 -18 1487.02  532.39
   0  14  18  607.81  370.41
   0  14  19 1671.48  307.52
   0 -14  19 2084.25  428.97
   0 -14 -19 1355.42  416.82
   0  14 -19 1215.63  625.34
   0  14 -20 -188.51  299.36
   0  14  20   92.76  207.67
   0 -14  20  -17.26  306.81
   0  14  21  -51.61  256.28
   0  14 -21   59.52  380.26
   0 -14  21  191.96  387.57
   0  14 -22  839.72  398.47
   0 -14  22 1070.63  621.43
   0  14  22  806.09  434.26
   0 -14  23   18.71  397.86
   0  14 -23   28.38  403.93
   0  14 -24  701.60  564.10
   0 -14  24 -210.55  547.38
   0 -14  25 1958.25  755.09
   0  14 -25  -97.08  735.90
   0 -14  26  153.14  566.84
   0  14 -26   99.41  548.68
   0 -14  27  103.23  544.55
   0  14 -27  -65.43  549.93
   0 -15   0  202.81  284.32
   0  15   0  128.63  258.47
   0 -15  -1 1019.51  247.84
   0 -15   1 1244.98  268.56
   0  15   1 1683.94  244.09
   0  15  -1 1561.79  250.68
   0  15   2 4166.48  494.15
   0  15  -2 3899.03  530.28
   0 -15  -2 4403.85  533.60
   0 -15   2 3628.03  546.94
   0 -15  -313888.10 1015.18
   0  15  -314823.79 1028.45
   0 -15   315002.46  895.45
   0  15   314793.41  976.66
   0  15   4 1433.04  336.80
   0 -15  -4 1164.59  376.10
   0 -15   4 1174.21  273.59
   0  15  -4 1747.48  272.63
   0  15  -5 8860.90  645.38
   0 -15  -5 7404.65  549.74
   0 -15   5 8426.53  802.72
   0  15   5 7073.76  649.98
   0 -15  -620592.51 1148.00
   0  15   619007.34 1006.19
   0  15  -620858.37 1193.22
   0 -15   618154.09 1309.15
   0 -15   723466.82 1593.80
   0  15  -724749.85 1445.95
   0 -15  -725798.13 1416.70
   0  15   724888.48 1292.92
   0 -15  -8 1387.18  416.45
   0  15  -8  969.11  439.99
   0 -15   8  690.05  453.31
   0  15   8 1376.34  346.30
   0 -15  -922088.88 1478.08
   0  15   922116.50 1345.11
   0  15  -920887.57 1502.21
   0 -15   921395.70 1498.56
   0 -15  10 1217.07  282.65
   0  15  10 1030.49  338.04
   0 -15 -10  647.05  425.65
   0  15 -10 1341.16  293.74
   0  15  11 1819.90  396.35
   0  15 -11 1324.20  319.78
   0 -15  11 1564.43  512.30
   0 -15 -11  822.53  448.58
   0  15  12  879.72  258.12
   0 -15 -12 1352.05  260.76
   0  15 -13 -123.31  226.60
   0 -15  13  385.45  223.88
   0 -15 -13  330.49  270.23
   0  15  13  198.62  301.24
   0 -15 -14  313.18  255.84
   0 -15  14  272.13  348.87
   0  15 -14  145.76  348.97
   0  15  14  -37.62  178.45
   0  15 -15  236.78  352.42
   0  15  15   78.39  255.00
   0 -15 -15   85.79  231.43
   0 -15  15  -28.85  200.83
   0 -15  16  941.85  539.20
   0 -15 -16 1080.80  386.98
   0  15  16 1441.08  412.47
   0  15 -16 1238.43  356.71
   0  15 -17 3746.15  499.64
   0 -15  17 1854.95  627.38
   0  15  17 2610.79  381.24
   0 -15 -17 2240.70  344.63
   0 -15  18   64.90  303.21
   0  15  18  436.50  336.76
   0 -15 -18  411.92  311.00
   0  15 -18  415.26  455.19
   0  15 -19 1546.73  651.35
   0 -15  19 1268.44  401.99
   0  15  19 1849.38  469.60
   0  15 -20 5103.72  958.80
   0 -15  20 6616.20 1002.94
   0  15  20 4252.03  700.83
   0  15 -2118286.57 1430.82
   0 -15  2115840.12 1675.02
   0  15  2113537.94 1035.51
   0 -15  22 -154.61  597.38
   0  15 -22  947.04  374.41
   0  15 -23 2798.53  572.92
   0 -15  23 2236.76  810.37
   0  15 -24 1704.73  500.86
   0 -15  24  565.19  730.55
   0 -15  25 2446.23  875.18
   0  15 -25 2108.26  925.69
   0 -15  26 1088.29  720.04
   0  15 -26  -52.19  687.19
   0  16   055240.82 2758.78
   0 -16   055187.95 2820.99
   0  16   1 3448.51  534.54
   0  16  -1 3967.14  573.79
   0 -16   1 3552.97  589.90
   0 -16   224884.82 1385.66
   0  16  -225532.80 1590.90
   0 -16  -224094.36 1331.80
   0  16   226228.79 1368.70
   0  16   310529.20  830.04
   0 -16  -310586.08  893.57
   0 -16   310686.93  742.30
   0  16  -3 9849.53  682.94
   0  16  -4 4320.18  420.69
   0  16   4 5425.50  546.74
   0 -16  -4 4386.88  576.71
   0 -16   4 4733.34  623.93
   0 -16   5 3906.19  610.84
   0  16   5 4280.28  509.30
   0 -16  -5 4177.39  408.24
   0  16  -5 3728.99  412.83
   0  16   6 2088.74  271.89
   0  16  -6 1981.35  324.01
   0 -16   6 1476.84  504.74
   0 -16  -6 2426.13  332.94
   0 -16  -7  602.46  345.83
   0  16   7  160.80  173.22
   0 -16   7  451.86  357.37
   0  16  -7  437.03  222.91
   0  16   8  476.35  175.46
   0 -16   8  -34.47  347.60
   0 -16  -8    3.06  324.49
   0  16  -8  -29.33  212.54
   0 -16   912338.46 1065.73
   0  16   912786.65  960.83
   0  16  -912425.60 1082.98
   0 -16  -912180.42 1039.24
   0  16  10 1822.30  415.32
   0 -16 -10 2432.34  515.64
   0  16 -10 1657.89  346.30
   0 -16  10 1941.73  371.74
   0  16 -1113991.36 1025.82
   0  16  1115270.28 1071.68
   0 -16  1114036.45 1233.66
   0 -16 -1116527.08 1063.85
   0  16  12 7695.07  720.49
   0  16 -12 7747.92  896.59
   0 -16  12 5478.82  818.58
   0 -16 -12 7160.93  840.79
   0  16  1313006.80 1047.17
   0 -16  1311599.80  941.51
   0  16 -1311809.02  936.39
   0 -16 -1313163.20 1025.75
   0 -16 -14 6982.19  754.81
   0  16 -14 6350.00  896.25
   0 -16  14 8156.20  952.11
   0  16  14 7827.14  806.05
   0  16  15 6338.42  549.39
   0  16 -15 6884.41  899.88
   0 -16  15 5965.17  895.52
   0 -16  16 8673.02  817.31
   0  16  16 8797.52  869.23
   0 -16 -16 8034.60  843.25
   0  16 -16 7279.23  766.08
   0 -16 -17 1598.74  439.89
   0  16 -17 1854.55  420.27
   0  16  17 1806.37  500.32
   0 -16  17 1831.70  642.92
   0 -16  18 5531.82  940.57
   0  16 -18 5744.68  962.73
   0  16  18 6079.98  765.35
   0  16  19 2394.34  535.19
   0 -16  19 2218.99  467.56
   0  16 -19 1549.26  718.49
   0  16 -20 2613.68  746.18
   0  16  20 1430.37  329.43
   0 -16  20 2378.90  726.56
   0  16 -21 -324.86  296.12
   0 -16  21  365.72  457.41
   0 -16  22   40.57  454.27
   0  16 -22  -89.95  280.08
   0  16 -23   70.13  335.02
   0 -16  23  366.16  549.86
   0 -16  24  573.50  595.60
   0  16 -24  121.00  387.34
   0  16 -25  487.37  456.14
   0 -16  25  664.05  685.32
   0  17   0   19.98  249.21
   0 -17   0  104.87  279.23
   0 -17  -1 3523.50  398.94
   0  17  -1 3056.07  539.51
   0 -17   1 3159.81  579.30
   0  17   1 3707.21  368.28
   0  17   2 3984.51  532.28
   0 -17  -2 3145.38  547.29
   0 -17   2 3566.93  410.52
   0  17  -2 2867.21  357.90
   0 -17  -3 7486.85  582.19
   0  17   3 6758.02  520.73
   0 -17   3 7804.49  807.90
   0  17  -3 7231.05  584.12
   0  17  -4 2808.35  369.98
   0  17   4 2369.62  468.68
   0 -17   4 2129.46  539.28
   0 -17  -4 3278.92  550.12
   0  17   5  113.79  230.86
   0 -17   5   17.91  301.43
   0  17  -5   47.31  171.08
   0 -17  -5  -17.98  287.92
   0 -17   616860.48 1323.93
   0  17  -619336.00 1178.09
   0  17   619223.18 1071.70
   0 -17  -619390.99 1165.00
   0  17  -7  410.74  252.32
   0  17   7  680.87  210.99
   0 -17   7  413.81  408.68
   0 -17  -7  682.28  408.85
   0  17   8 1054.49  370.81
   0 -17  -8 1088.14  468.72
   0 -17   8 1008.34  478.50
   0  17  -8  878.69  291.42
   0  17  -9  409.73  423.20
   0 -17  -9  791.86  427.36
   0 -17   9  615.98  426.16
   0  17   9  448.49  345.66
   0  17 -10  304.20  244.99
   0 -17  10  389.54  247.04
   0  17  10  268.86  318.53
   0 -17 -10  172.21  237.28
   0  17 -11 7743.43  713.19
   0  17  1110099.77  882.39
   0 -17 -11 8562.63  930.72
   0 -17  11 8844.03  984.68
   0 -17  12 6856.83  908.48
   0  17  12 7598.34  780.29
   0 -17 -12 8074.89  918.99
   0  17 -12 7259.37  923.47
   0 -17  13  -58.01  220.43
   0 -17 -13  311.73  291.15
   0  17 -13  170.05  229.04
   0  17  13   78.78  320.08
   0  17 -14  725.14  511.56
   0 -17 -14  686.70  242.25
   0 -17  14  895.70  498.81
   0  17  14  470.46  405.16
   0 -17  15 9596.22 1082.73
   0  17  15 8974.80  907.15
   0  17 -15 6272.09  986.69
   0 -17 -15 9012.38  891.52
   0 -17 -16   95.95  281.90
   0  17 -16  211.56  248.81
   0 -17  16  581.83  257.86
   0  17  16 -220.34  200.26
   0  17 -17  439.54  294.84
   0  17  17   82.63  366.93
   0 -17  17  440.26  491.79
   0  17 -18 5928.02  956.85
   0  17  18 4476.31  707.10
   0 -17  18 4404.63  850.44
   0  17 -19 1598.39  710.78
   0 -17  19 1720.07  456.40
   0  17  19 3074.15  562.43
   0 -17  2018279.07 1574.56
   0  17 -2020056.02 1596.20
   0  17 -21  377.92  386.03
   0 -17  21 1037.87  625.43
   0 -17  22 5624.96 1113.81
   0  17 -22 8783.90  993.14
   0 -17  23 2479.74  850.91
   0  17 -23 2034.85  591.46
   0 -17  24 3608.48 1075.72
   0  17 -24 4439.85  753.75
   0 -18   0 4152.53  470.22
   0  18   0 4980.11  625.60
   0  18  -1   61.10  189.25
   0  18   1  252.19  299.13
   0 -18   1  338.35  216.30
   0 -18  -1   32.91  332.19
   0  18  -2 1707.77  467.25
   0  18   2 1313.76  290.22
   0 -18  -2 1575.02  305.79
   0 -18   2 2066.03  503.28
   0 -18  -3 3231.25  560.55
   0 -18   3 3302.24  575.75
   0  18  -3 3137.60  559.27
   0  18   3 3118.63  528.80
   0 -18  -4 2298.70  336.50
   0 -18   4 2389.11  536.51
   0  18  -4 2205.86  514.40
   0  18   4 1737.42  294.04
   0 -18  -5 2918.88  563.73
   0  18  -5 3497.26  576.93
   0  18   5 2227.16  499.62
   0 -18   5 3200.65  597.75
   0 -18  -6 1332.74  317.31
   0  18  -6 1752.99  478.70
   0 -18   6 1538.67  504.22
   0  18   6  923.51  402.30
   0 -18   7 3596.47  613.94
   0 -18  -7 2881.75  620.49
   0  18  -7 2735.82  398.66
   0  18   7 2625.63  343.86
   0 -18   8 1897.87  595.90
   0  18  -8 2506.32  387.86
   0  18   8 2219.71  498.89
   0 -18  -8 3328.21  608.26
   0 -18  -9  987.41  310.98
   0  18  -9  530.95  460.46
   0  18   9  507.25  373.74
   0 -18   9  348.21  463.60
   0  18  10 5384.99  656.09
   0 -18  10 4284.91  547.03
   0 -18 -10 4717.65  765.78
   0  18 -10 5303.33  787.13
   0 -18 -11  526.97  443.95
   0  18  11  571.18  234.98
   0  18 -11  226.33  282.74
   0 -18  11  362.69  458.74
   0 -18  12  304.87  450.44
   0 -18 -12  283.00  271.31
   0  18  12  454.14  361.19
   0  18 -12  511.36  467.96
   0 -18  13 6603.55  734.01
   0  18  13 8256.70  664.37
   0 -18 -13 7351.25  662.62
   0  18 -13 8081.02  780.89
   0  18 -14 2763.35  689.49
   0 -18  14 2796.10  682.87
   0  18  14 3481.78  585.13
   0 -18 -14 1823.69  530.72
   0 -18  15 8127.97 1128.61
   0  18  15 8037.04  702.70
   0 -18 -15 8991.13  931.85
   0  18 -1510123.11 1153.33
   0 -18  16 4155.63  613.06
   0  18 -16 5660.90  713.96
   0  18  16 3982.57  680.70
   0 -18  1710197.99 1264.36
   0  18  1711532.67  897.22
   0  18 -1710141.50 1261.65
   0 -18  18  193.70  461.58
   0  18 -18 -166.43  461.21
   0  18  18  237.58  342.41
   0  18 -19 3074.20  829.43
   0 -18  19 2885.45  611.37
   0 -18  20   53.01  511.42
   0  18 -20 -251.70  303.58
   0  18 -21  534.88  378.10
   0 -18  21  381.87  626.49
   0 -18  22  170.46  585.61
   0  18 -22  339.75  362.22
   0  18 -23  205.41  372.25
   0 -18  23  305.76  623.56
   0  19   0  560.12  371.01
   0 -19   0   80.18  386.87
   0 -19   1 3990.73  643.03
   0 -19  -1 2797.25  421.15
   0  19   1 3034.50  385.23
   0  19  -1 3663.41  603.12
   0 -19  -2  224.08  396.11
   0  19   2  480.86  359.87
   0  19  -2  467.83  372.01
   0 -19   2  310.17  403.70
   0 -19   3 9408.76  734.27
   0  19   3 8317.07  636.97
   0  19  -3 7629.13  850.78
   0 -19  -3 8080.83  877.58
   0 -19   4  132.78  236.27
   0 -19  -4   78.68  345.09
   0  19   4  230.69  316.22
   0  19  -4  239.07  346.07
   0  19  -513785.15 1191.83
   0 -19  -515593.51 1264.18
   0 -19   514433.40 1060.37
   0  19   514061.62 1080.74
   0 -19   6 3679.94  478.73
   0  19  -6 3108.79  613.57
   0 -19  -6 2537.35  674.25
   0  19   6 3753.56  574.47
   0 -19  -718677.84 1450.54
   0  19   717710.12 1083.14
   0  19  -717381.83 1410.82
   0 -19   715118.79 1354.60
   0  19   8  113.95  292.29
   0 -19   8  124.12  343.70
   0  19  -8   20.03  205.66
   0 -19  -8  -31.97  340.56
   0  19   9 4545.34  631.60
   0 -19  -9 4423.98  523.26
   0 -19   9 3912.43  750.96
   0  19  -9 3837.41  701.50
   0  19  10  230.49  200.90
   0 -19  10   70.09  259.17
   0 -19 -10  384.55  404.61
   0  19 -10 -244.47  376.61
   0 -19  11  259.79  392.93
   0  19  11  442.30  314.19
   0 -19 -11   62.59  376.09
   0  19 -11 -152.67  233.06
   0 -19  12 -490.57  445.90
   0 -19 -12 -410.31  423.43
   0  19  12 -105.07  352.68
   0  19 -12  114.58  436.10
   0 -19  13 5839.10  683.81
   0  19 -13 5196.61  609.39
   0 -19  14 4272.37  849.79
   0  19  14 3997.79  484.86
   0  19 -14 5019.16  833.21
   0 -19 -14 4935.72  761.99
   0  19 -15  548.60  401.88
   0 -19  15 -213.94  394.86
   0  19  15  -85.51  325.23
   0  19  16  978.09  500.71
   0 -19  16  584.24  410.16
   0  19 -16 1552.94  403.79
   0 -19  17 1796.47  702.11
   0  19 -17 2293.57  694.81
   0  19  17 1544.24  543.52
   0 -19  18  617.59  503.72
   0  19 -18 -124.01  497.12
   0 -19  19 5537.54  763.92
   0  19 -19 4755.73 1030.85
   0 -19  20  194.16  555.52
   0  19 -20  262.88  347.18
   0  19 -21 8102.55 1003.52
   0 -19  21 6826.46 1284.46
   0  19 -22  666.20  440.34
   0 -19  22  586.47  694.31
   0  20   0 6125.18  765.33
   0 -20   0 7271.17  864.16
   0 -20   1 1722.43  359.01
   0  20   1 1620.96  514.51
   0  20  -1 2262.28  516.83
   0 -20  -1 1383.83  567.11
   0  20  -2 2055.26  362.68
   0  20   2 2097.30  343.26
   0 -20   2 2477.17  420.69
   0 -20  -2 2803.68  592.55
   0 -20   3  538.60  271.12
   0  20   3  425.88  364.78
   0 -20  -3  440.80  260.95
   0  20  -3  167.56  261.36
   0 -20   413259.62  947.06
   0 -20  -4 9971.57 1063.97
   0  20   411015.54  995.65
   0  20  -412335.36  891.26
   0  20  -5 2068.05  553.45
   0 -20  -5 2344.36  398.46
   0  20   5 1710.41  324.01
   0 -20   5 1656.57  396.49
   0 -20   6 1619.48  388.36
   0  20  -6 1855.77  554.11
   0  20   6 1883.05  502.02
   0 -20  -6 1161.40  575.20
   0 -20  -7  561.57  288.67
   0  20   7  296.05  378.22
   0  20  -7  699.73  421.68
   0 -20   7  117.16  271.64
   0  20  -8  100.55  211.23
   0 -20  -8 -260.25  363.60
   0 -20   8  287.70  364.74
   0  20   8   57.50  304.64
   0 -20   9 1481.79  604.41
   0 -20  -9 1076.35  361.41
   0  20  -9 1124.56  553.23
   0  20   9 1543.02  493.88
   0  20  10 6500.48  606.40
   0 -20 -10 6440.26  938.13
   0  20 -10 4938.52  861.53
   0 -20  10 5170.07  644.38
   0 -20 -11  798.29  344.23
   0  20  11  812.26  450.34
   0  20 -11  469.92  339.73
   0 -20  11  677.09  552.24
   0 -20  12 1547.22  667.98
   0 -20 -12 2764.18  697.75
   0  20  12 1616.17  565.49
   0  20 -12 1984.88  654.65
   0  20 -13 3223.43  524.67
   0 -20  13 2709.51  502.61
   0  20 -14 4135.20  837.86
   0 -20  14 3818.32  872.38
   0  20  14 5188.63  801.65
   0  20 -15   99.38  518.30
   0 -20  15  269.54  518.53
   0  20  15  562.12  441.61
   0  20 -16 7756.54  874.19
   0  20  16 8457.45  959.55
   0 -20  16 5414.39  721.04
   0 -20  17 2001.54  767.38
   0  20 -17 1809.74  745.45
   0  20 -18 2465.61  797.42
   0 -20  18 1704.87  477.52
   0 -20  19  550.55  419.23
   0  20 -19 1489.02  449.17
   0 -20  20  493.25  640.28
   0  20 -20  480.17  394.99
   0  21   0   67.42  129.42
   0 -21   0  -97.69  155.19
   0  21  -1  482.66  251.33
   0 -21   1  246.84  455.27
   0 -21  -1  412.88  285.22
   0  21   1  102.99  392.87
   0  21  -2 2330.91  396.70
   0  21   2 3345.23  591.06
   0 -21   2 2377.21  642.74
   0 -21  -2 1963.78  615.56
   0  21   3   54.49  295.09
   0 -21   3 -163.60  358.54
   0 -21  -3  216.55  353.03
   0  21  -3   50.43  203.85
   0  21   413850.31  965.60
   0 -21   411496.76 1224.64
   0 -21  -414664.26 1023.10
   0  21  -412209.72  939.31
   0  21   5  439.86  421.42
   0 -21   5  115.40  514.35
   0 -21  -5  530.33  481.79
   0  21  -5  522.63  283.84
   0  21   629044.43 1694.26
   0  21  -627926.60 2077.09
   0 -21   628245.66 1795.54
   0 -21  -630032.44 2153.66
   0  21   7 2681.78  569.63
   0 -21   7 1559.79  463.52
   0 -21  -7 2090.43  426.72
   0  21  -7 1911.41  620.13
   0  21   810448.18  816.50
   0 -21  -812064.85 1228.41
   0 -21   811322.87 1227.37
   0  21  -810080.53 1089.78
   0 -21   9  -19.61  481.73
   0  21  -9  340.91  297.00
   0 -21  -9  277.29  316.75
   0  21   9  577.45  418.31
   0 -21  10 9597.29  875.19
   0  21 -10 9948.82 1164.66
   0  21  1010290.87  819.17
   0  21 -11 3056.00  508.27
   0  21  11 3254.61  690.15
   0 -21  11 2895.79  770.55
   0 -21 -11 2734.50  530.65
   0  21 -12 2136.04  700.01
   0 -21 -12 1508.40  724.45
   0 -21  12 2355.45  711.09
   0  21 -13   74.51  242.58
   0 -21  13  114.02  272.11
   0 -21 -13   26.26  261.77
   0  21  14  -71.85  399.02
   0 -21  14  387.14  487.09
   0  21 -14  200.85  460.51
   0 -21  15  471.95  307.17
   0  21  15   16.80  239.15
   0  21 -15 -113.80  295.40
   0  21 -16  853.79  364.50
   0 -21  16  -81.57  347.28
   0 -21  17  421.57  560.92
   0  21 -17   48.27  546.36
   0  21 -18 2668.83  769.47
   0 -21  18 1226.66  503.33
   0  21 -19  119.27  374.57
   0 -21  19  606.07  393.06
   0  22   0  574.35  483.05
   0 -22   0  547.54  533.14
   0  22  -112480.74 1218.55
   0 -22  -111485.00 1204.68
   0  22   111354.07 1127.84
   0 -22   113194.40 1272.31
   0  22  -211109.46 1154.48
   0  22   211943.69  903.22
   0 -22   212498.47 1272.70
   0 -22  -211672.60 1220.90
   0 -22   314367.59 1402.22
   0 -22  -314239.28 1070.51
   0  22   315970.68 1329.42
   0  22  -314712.09 1326.63
   0 -22  -4 3246.34  801.45
   0  22   4 3816.08  699.98
   0 -22   4 3475.79  767.75
   0  22  -4 3366.32  765.02
   0  22  -5 2562.51  691.40
   0 -22   5 2844.19  714.90
   0  22   5 2495.45  583.66
   0 -22  -5 1905.20  709.92
   0  22   6 2293.88  588.29
   0 -22  -6 2208.12  486.36
   0 -22   6 2186.79  689.17
   0  22  -6 2086.12  438.23
   0  22   7  134.43  423.36
   0 -22   7  240.90  289.26
   0 -22  -7  558.11  507.10
   0  22  -7  234.28  467.31
   0  22   8 -207.55  207.06
   0  22  -8  -71.51  385.84
   0 -22  -8  354.02  426.50
   0 -22   8  420.22  260.04
   0 -22   9 1071.91  652.16
   0 -22  -9 1519.46  422.56
   0  22  -9 1080.21  410.44
   0  22   9 2001.06  576.54
   0 -22 -10 2317.13  764.32
   0  22  10 2315.72  425.92
   0 -22  10 2650.33  753.51
   0  22 -10 2177.69  702.44
   0 -22  11 4240.26  629.41
   0  22 -11 4806.83  634.66
   0 -22 -11 4985.92  690.87
   0 -22  12  647.06  633.01
   0 -22 -12  641.80  669.73
   0  22 -12 1160.30  619.63
   0 -22  13 1554.02  490.29
   0 -22 -13 2947.70  539.81
   0  22 -13 2251.96  509.30
   0  22 -14 1240.48  693.81
   0  22  14 1892.19  637.78
   0 -22  14  755.69  718.75
   0 -22  15 3663.90  668.56
   0  22 -15 4936.27  736.54
   0  22 -16 1632.85  763.46
   0 -22  16 1595.79  792.02
   0 -22  17 2529.73  845.83
   0  22 -17 1880.78  860.00
   0 -23   0  -39.15  204.47
   0  23   0   58.23  309.12
   0 -23   1 3223.00  509.54
   0  23  -1 2430.71  660.00
   0  23   1 2396.93  651.22
   0 -23  -1 2605.18  489.74
   0  23  -2  247.50  388.43
   0  23   2   78.34  369.73
   0 -23  -2  -34.59  426.36
   0 -23   2   78.54  280.12
   0  23   3 7446.87  950.70
   0  23  -3 6631.18  943.35
   0 -23   3 6063.24  707.09
   0 -23  -3 6719.56  994.56
   0  23   4 2851.51  455.92
   0  23  -4 2872.03  725.62
   0 -23  -4 3058.28  759.18
   0 -23   4 3125.30  529.68
   0  23  -5 7086.92 1005.14
   0  23   5 6583.02  891.82
   0 -23  -5 7462.07  768.07
   0 -23   5 7366.79 1046.68
   0  23   6  524.29  512.82
   0 -23  -6  798.11  611.75
   0  23  -6  468.93  561.93
   0 -23   6 1050.22  591.27
   0  23  -7 9690.58  914.81
   0  23   710888.82  904.52
   0 -23   7 9374.70 1230.68
   0 -23  -712257.80 1338.64
   0  23   8 1406.87  585.68
   0 -23   8 1596.46  461.29
   0  23  -8 1623.23  641.75
   0 -23  -8 1199.15  445.09
   0  23  -9 7204.46 1069.94
   0 -23  -9 8318.74 1171.18
   0  23   9 9282.38 1077.66
   0 -23   9 6211.68 1087.36
   0  23 -10   42.90  281.36
   0 -23  10   67.81  470.85
   0 -23 -10  329.88  504.19
   0  23 -11 1659.64  696.21
   0 -23  11 1380.66  501.20
   0 -23 -11 1951.11  527.39
   0  23 -12  254.84  311.81
   0 -23  12 -238.17  492.22
   0  23 -13 2407.56  801.65
   0 -23  13 2272.79  526.43
   0 -23  14   38.60  521.53
   0  23 -14 -300.83  509.77
   0  23 -15   37.71  314.44
   0 -23  15 -234.52  319.27
   0  23 -16  -12.47  511.92
   0 -23  16 -144.95  518.98
   0 -24   0 5891.04  972.99
   0  24   0 4912.57  591.10
   0  24   1 4407.77  567.66
   0  24  -1 5252.78  603.47
   0 -24   1 4551.33  919.85
   0 -24  -1 4930.30  932.37
   0 -24   2 2431.14  730.50
   0 -24  -2 2263.23  470.56
   0  24  -2 1661.47  424.59
   0  24   2 1558.55  413.12
   0 -24  -3 3756.49  588.27
   0  24  -3 3328.10  526.45
   0 -24   3 2999.89  857.35
   0  24   3 3958.42  752.13
   0  24  -4 6037.75  681.61
   0  24   4 6080.83  894.58
   0 -24   4 6184.88  729.93
   0 -24  -4 5357.21  697.30
   0 -24   5  624.78  389.81
   0  24   5  691.19  546.78
   0 -24  -5  814.70  627.90
   0  24  -5  635.22  582.78
   0  24   6  238.19  260.90
   0  24  -6  -45.34  473.37
   0 -24  -6   48.66  505.56
   0 -24   6   72.85  515.64
   0 -24   7   62.14  497.79
   0  24  -7  177.39  295.65
   0  24   7  415.09  444.59
   0 -24  -7   21.83  323.43
   0 -24   8  281.33  570.33
   0 -24  -8  231.09  594.83
   0  24  -8  354.89  337.94
   0 -24   9   79.12  279.09
   0 -24  -9  239.47  473.09
   0  24  -9 -200.16  410.42
   0 -24 -10  633.14  683.76
   0  24 -10  630.43  381.14
   0 -24  10  571.64  628.36
   0  24 -11  554.41  686.89
   0 -24  11 1161.37  457.00
   0 -24  12   -8.39  447.92
   0  24 -12  -27.41  250.06
   0 -24  13  418.20  388.37
   0  24 -13  168.23  579.68
   0  24 -14 1448.72  514.95
   0 -24  14 1848.94  868.78
   0  25   0   23.74  340.94
   0 -25   0  -49.83  375.07
   0 -25   1   70.18  407.92
   0 -25  -1  -35.39  399.05
   0  25  -1  -40.66  356.48
   0  25   1  -43.60  359.27
   0  25   2  585.48  545.70
   0 -25  -2  603.79  627.84
   0 -25   2  788.55  630.51
   0  25  -2  503.15  574.02
   0 -25  -3  -16.14  492.05
   0  25  -3  125.18  447.63
   0  25   3   95.86  432.95
   0 -25   3  125.89  490.55
   0  25  -4 4891.82  663.62
   0 -25  -4 6585.63 1087.17
   0  25   4 6220.63  687.21
   0 -25   4 5921.36 1080.72
   0  25  -5  203.70  276.65
   0  25   5  -60.10  262.70
   0 -25  -5  -53.39  481.87
   0 -25  -614164.00 1261.72
   0  25  -612002.40 1426.77
   0  25   612698.88 1391.94
   0 -25   613307.28 1224.85
   0 -25   7 1609.26  787.90
   0  25  -7 1480.09  765.74
   0 -25  -7 1805.38  826.30
   0 -25   8 9272.44 1340.15
   0 -25  -810278.48 1410.80
   0  25  -8 9186.68  947.90
   0 -25  -9  290.73  577.47
   0 -25   9   98.16  355.83
   0  25  -9   27.29  489.28
   0  25 -10 1233.13  448.51
   0 -25  10 1589.44  803.22
   0 -25  11  195.38  648.36
   0  25 -11  568.07  623.25
   0  25 -12 1814.62  532.86
   0  26   0 2884.73  559.76
   0 -26   0 3624.77  621.87
   0  26  -1 2720.25  785.68
   0  26   1 2650.91  508.25
   0 -26  -1 1508.83  537.64
   0 -26   1 2804.47  581.14
   0  26   2  539.85  620.20
   0 -26   2  628.41  440.34
   0 -26  -2  963.51  454.92
   0  26  -2 1134.93  653.26
   0 -26  -3 5600.30  746.93
   0  26   3 3453.21  894.86
   0  26  -3 3250.71  934.96
   0 -26   3 4221.05  705.72
   0  26  -4  150.13  465.77
   0  26   4  -17.24  441.95
   0 -26  -4    0.29  312.17
   0 -26   4  297.11  517.38
   0  26   5  181.32  519.77
   0  26  -5  229.46  329.86
   0 -26   5  188.40  578.03
   0 -26  -5   64.90  599.48
   0  26  -6 1443.46  491.26
   0 -26   6 1698.46  529.34
   0 -26  -6 1276.79  873.23
   0 -26   7  326.70  402.91
   0  26  -7  112.11  572.37
   0 -26  -7  299.05  670.14
   0 -26  -8  -24.44  673.75
   0 -26   8  361.61  632.68
   0  26  -8  347.48  381.08
   0  27   0  130.19  496.06
   0 -27   0   21.39  544.73
   0  27  -1 1165.61  421.68
   0 -27   1   73.65  777.72
   0 -27  -1 1032.36  774.00
   0  27   1  924.13  685.88
   0  27   2   83.31  537.92
   0  27  -2  260.15  340.78
   0 -27  -2  488.37  662.54
   0 -27   2  164.64  637.04
  -1   0   0   40.20   72.82
  -1   0   0  136.48   72.96
  -1   0   0   81.96   72.87
  -1   0   0  177.43   77.32
   1   0   2 2937.04  235.98
   1   0  -2 2624.17  141.40
   1   0   2 3002.13  164.90
  -1   0   2 2940.95  178.61
  -1   0  -2 2734.65  130.82
  -1   0  -2 2941.07  176.45
  -1   0   2 2735.54  139.18
   1   0  -2 2603.63  211.37
  -1   0   3   95.23   49.00
   1   0  -3    5.15   50.75
  -1   0  -3  -44.46  130.24
  -1   0   3  285.03  126.21
   1   0   3   62.79   63.17
   1   0  -3   20.00   61.96
   1   0   3   22.91   49.73
  -1   0  -3   46.25   46.54
  -1   0  -4  318.68   78.11
   1   0   4  224.50  141.41
   1   0  -4  239.59   79.58
  -1   0   4  263.23  104.14
  -1   0  -4  218.38  114.02
   1   0   4  353.64  109.72
  -1   0   4  490.42  183.13
   1   0  -4  243.02  141.69
   1   0   5 6591.71  313.77
   1   0  -5 5516.72  282.43
  -1   0   5 6406.92  357.57
  -1   0  -5 7053.20  490.21
  -1   0   5 5910.70  281.55
   1   0  -5 5934.84  313.11
   1   0   5 6497.08  402.22
  -1   0  -5 7071.19  327.39
  -1   0  -6 5261.89  306.69
  -1   0  -6 6310.10  375.55
   1   0  -6 5823.46  323.09
  -1   0   6 5695.98  308.55
  -1   0   6 6479.49  501.25
   1   0   6 5978.14  349.73
   1   0  -7  158.02  120.71
  -1   0  -7  157.61  108.16
  -1   0  -7  387.65  132.03
  -1   0   7  254.87  212.19
  -1   0   7  354.46  103.80
   1   0   7   54.49   77.95
  -1   0  -8 5969.21  385.46
  -1   0   8 7310.32  401.86
   1   0   8 7659.40  456.64
   1   0  -8 7421.37  434.43
  -1   0   8 6791.11  535.18
  -1   0  -8 7410.48  577.38
   1   0   9 6290.50  407.46
  -1   0   9 6119.99  352.93
  -1   0  -9 5578.55  312.98
  -1   0   9 6253.19  540.46
   1   0  -9 7182.44  402.55
  -1   0  -9 6214.39  521.13
   1   0 -10  823.91  122.43
  -1   0  10 1005.33  300.25
   1   0  10  903.14  206.84
  -1   0 -10 1219.68  281.00
  -1   0 -11109421.8 5267.45
   1   0 -11111688.5 5212.98
   1   0  11115902.2 5398.21
  -1   0  11110477.4 5513.92
  -1   0 -12  644.84  199.87
   1   0 -12 1262.64  230.83
   1   0  12  734.52  231.74
  -1   0  12  853.07  207.38
  -1   0  1365169.10 3350.87
  -1   0 -1367920.24 3505.33
   1   0 -1367408.06 3242.92
   1   0  1364323.07 3145.41
  -1   0  14 1418.04  357.54
   1   0  14 1085.07  270.17
   1   0 -14 1378.68  250.87
  -1   0 -14  481.20  336.19
   1   0  1533658.62 1635.95
   1   0 -1533072.68 1730.43
  -1   0  1533635.49 1772.51
  -1   0 -1530511.60 1822.07
  -1   0  16    0.56  169.14
   1   0 -16   33.78  129.60
   1   0  16  365.44  221.40
  -1   0 -16  254.59  166.15
   1   0 -1742464.28 2244.84
   1   0  1742337.01 2311.64
  -1   0  1742128.60 2471.27
  -1   0 -1745797.15 2626.41
   1   0 -18 4516.41  563.36
  -1   0 -18 4908.62  682.85
  -1   0  18 5266.41  529.91
   1   0  18 6256.30  629.33
   1   0 -19 6425.03  643.07
  -1   0  19 6521.08  786.16
   1   0  19 5196.07  489.95
  -1   0 -19 6442.07  597.34
  -1   0  20  247.95  425.19
   1   0 -20  673.60  332.22
   1   0  20  739.73  351.09
  -1   0 -20 1571.59  443.91
  -1   0  21 -109.31  200.07
  -1   0 -21   95.17  328.57
   1   0 -21  350.36  267.36
   1   0  21   98.06  274.55
   1   0  22  214.70  381.24
  -1   0  22  283.70  430.37
   1   0 -22  481.92  208.68
  -1   0 -22  504.62  259.17
   1   0  23  672.27  374.74
   1   0 -23  239.05  371.78
  -1   0 -23 -167.34  438.81
  -1   0  23  464.93  429.38
  -1   0  24  250.71  266.90
   1   0 -24   46.84  364.91
   1   0  24  420.96  252.29
  -1   0 -24  225.47  428.46
  -1   0 -25 -210.17  246.40
   1   0  25   56.40  362.65
  -1   0  25 -194.82  429.38
   1   0 -25  -64.60  349.77
   1   0  26  653.57  293.56
   1   0 -26   14.76  446.89
  -1   0 -26  685.47  527.94
  -1   0  26  338.13  344.22
  -1   0 -27 9277.77 1359.36
   1   0 -2711256.44 1298.51
   1   0  28  525.71  317.63
  -1   0 -28  199.17  325.58
  -1   0  28  -10.59  564.02
  -1   0 -29 1217.52  636.38
  -1   0  29 -275.96  430.49
   1   0  29 1232.21  615.42
  -1   0 -30  -77.93  478.48
  -1   0  30   -6.55  477.96
  -1   0  31  169.29  648.15
  -1   0 -31 4064.49  657.15
  -1  -1   018984.04  707.74
  -1  -1   016018.25  654.08
   1  -1   017658.62  655.07
   1   1   015318.93  587.84
   1  -1   016991.28  714.16
   1   1   018310.62  662.29
  -1   1   017395.54  705.01
  -1   1   019571.86  740.07
  -1  -1   124446.68  999.59
  -1  -1   122335.64  866.02
   1  -1  -122459.94  762.53
   1   1   121430.96  705.84
  -1   1  -126810.84 1089.96
  -1   1  -120775.69  813.67
   1  -1  -121967.95  865.40
   1   1   123679.62  982.61
  -1  -1  -124118.29  827.46
  -1   1   124005.76  998.99
  -1   1   124076.17  821.95
  -1  -1  -122551.13  859.20
   1   1  -122076.85  859.38
   1  -1   121542.70  851.37
   1   1  -124413.43  964.08
   1  -1   122523.10  838.21
  -1  -1   218241.16  703.12
   1  -1  -215331.52  635.45
   1   1   217375.27  528.13
   1   1   218012.11  706.06
  -1   1  -220108.55  862.85
  -1   1  -217365.39  637.52
  -1  -1   218890.10  740.01
   1   1  -219644.04  758.12
  -1  -1  -219195.50  856.33
  -1   1   217469.21  565.34
   1  -1   216141.87  595.64
   1  -1   217997.10  766.52
  -1   1   217493.47  694.36
   1   1  -217376.97  673.04
  -1  -1   3 6351.24  325.95
   1   1   3 5356.45  179.14
  -1  -1   3 5955.92  292.19
  -1   1  -3 6542.52  408.62
   1  -1  -3 5271.57  182.85
   1  -1  -3 5839.34  293.25
  -1   1  -3 6403.71  302.45
   1   1   3 6336.65  374.85
   1  -1   3 5906.79  300.94
  -1  -1  -3 5427.47  191.13
  -1  -1  -3 5869.82  307.77
   1   1  -3 4934.61  271.15
  -1   1   3 5716.24  301.51
   1  -1   3 5512.14  359.49
   1   1  -3 5852.77  302.70
  -1   1  -4  810.92  130.00
   1   1   4  915.82   95.37
   1   1   4 1274.09  189.08
   1  -1  -4  817.38   85.60
  -1  -1   4 1209.37  228.24
  -1   1  -4  729.05  214.02
   1  -1  -4  771.40  179.45
  -1  -1   4  888.64  131.08
  -1  -1  -4  843.21   95.70
  -1  -1  -4  828.82  132.40
  -1   1   4  854.24   87.08
   1   1  -4  761.38  111.13
   1   1  -4  868.48  143.83
   1  -1   4  715.63  109.03
   1  -1   4  598.57  139.39
  -1   1   4 1122.33  135.95
  -1  -1   516350.38  681.85
  -1   1  -516115.63  691.34
   1   1   516491.36  791.76
  -1  -1   517851.32  898.43
   1  -1  -515604.20  710.06
   1   1   516951.24  681.86
   1  -1  -516137.23  585.81
  -1   1  -516653.42  866.08
  -1  -1  -516517.17  630.02
  -1   1   517743.29  644.78
  -1  -1  -515905.03  827.43
   1  -1   515253.54  602.72
   1  -1   516292.28  778.11
  -1   1   513587.45  645.06
   1   1  -517343.32  746.26
   1   1  -514713.30  642.63
  -1   1  -626055.12 1284.34
   1  -1  -625776.17  999.86
  -1  -1   626485.16 1107.59
   1   1   625612.39 1032.68
  -1  -1   626583.91 1172.58
  -1   1  -625903.15 1123.54
  -1  -1  -622634.82  945.91
   1   1  -627204.77 1145.76
   1  -1   625985.67 1084.26
  -1  -1  -624074.07 1192.35
  -1   1   625656.61 1122.02
  -1   1   623319.43  925.75
  -1  -1   724762.14 1046.97
   1   1   721653.14  910.58
  -1  -1   722729.00 1169.36
  -1   1  -720981.60  948.02
   1  -1  -718744.93  787.70
  -1   1  -721630.63  996.66
  -1  -1  -721300.37 1100.29
  -1  -1  -719414.87  847.15
   1  -1   720136.80  834.82
  -1   1   719797.16  815.78
  -1   1   721860.39 1109.66
   1   1  -720662.38  919.98
  -1  -1   831722.04 1570.68
   1   1   834958.93 1469.30
  -1   1  -829612.20 1366.72
  -1  -1   831460.81 1371.73
  -1   1  -832965.32 1632.57
   1  -1  -830458.21 1281.10
  -1   1   832618.72 1453.24
  -1  -1  -831698.11 1373.94
  -1   1   829072.19 1222.60
   1  -1   831529.03 1412.08
  -1  -1  -831302.00 1559.91
   1   1  -832322.18 1429.71
  -1  -1   915205.64  759.58
   1   1   915411.19  740.97
   1  -1  -914479.14  687.35
  -1   1  -914790.94  908.29
   1  -1   915189.25  762.18
  -1  -1  -912152.99  627.27
   1   1  -914380.43  733.94
  -1  -1  -913030.85  693.83
  -1   1   915313.65  905.20
  -1   1   913872.29  651.31
   1  -1 -1019417.11  905.21
   1   1  1018683.24  899.13
  -1  -1  1017572.51 1032.32
  -1   1 -1016268.54  863.41
   1  -1  1017383.00  806.95
   1   1 -1017019.46  866.86
  -1   1  1016883.39  795.24
  -1   1  1018893.17 1051.83
  -1  -1 -1017872.42 1062.37
  -1   1 -1123073.18 1310.04
   1   1  1121883.72 1086.72
  -1  -1  1122917.53 1153.95
   1  -1 -1122018.73 1077.19
  -1  -1 -1120599.87 1221.88
   1   1 -1123511.41 1140.90
   1  -1  1123544.14 1179.37
  -1   1  1122099.69 1253.78
  -1   1 -1217295.08 1106.57
  -1  -1  1218184.67 1129.46
   1   1  1219716.60 1015.68
   1  -1 -1218976.59  973.26
   1   1 -1217455.99  933.80
  -1   1  1218697.40 1131.39
  -1  -1 -1219227.96 1159.99
   1  -1  1217193.19  969.42
  -1  -1  13 6014.45  458.63
   1   1  13 4960.03  436.03
   1  -1 -13 4212.11  393.60
  -1   1 -13 5537.16  436.67
  -1  -1 -13 5714.87  576.87
   1   1 -13 6059.87  467.55
  -1   1  13 5754.89  590.88
   1  -1  13 5790.00  378.33
   1  -1 -14 7925.58  595.34
  -1   1 -14 9456.11  776.68
   1   1  14 9879.14  685.74
  -1  -1  14 8321.94  744.53
  -1  -1 -14 9409.81  776.45
   1  -1  14 9061.27  569.67
   1   1 -14 8649.16  642.43
  -1   1  14 9386.44  785.71
   1  -1 -15  782.61  250.10
  -1   1 -15 1114.68  242.23
  -1  -1  15 1248.58  245.05
   1   1  15  817.16  291.61
  -1   1  15 1536.96  240.31
  -1  -1 -15  914.94  339.78
   1  -1  15 1118.94  203.38
   1   1 -15 1013.71  280.11
  -1   1 -16 3360.79  553.16
  -1  -1  16 3586.30  553.45
   1  -1 -16 2995.80  288.61
   1   1  16 3525.36  436.34
  -1   1  16 3970.38  400.38
   1   1 -16 3712.94  424.12
   1  -1  16 3454.59  319.49
  -1  -1 -16 3894.05  389.24
  -1   1 -17 8607.20  843.92
   1  -1 -17 9292.59  703.37
  -1  -1  17 8669.87  849.79
   1   1  17 8335.80  709.13
   1  -1  17 7721.76  703.21
  -1   1  1710046.71  895.21
   1   1 -17 9589.65  753.07
  -1  -1 -17 8346.62  670.23
  -1   1 -18 1386.41  321.81
   1   1  18 2041.10  289.79
   1  -1 -18 2228.62  372.63
  -1  -1  18 1689.90  478.45
   1  -1  18 2370.15  417.79
  -1  -1 -18 1346.94  456.17
  -1   1  18 2001.24  498.09
   1   1 -18 2062.57  264.32
   1   1  1914192.81 1086.02
  -1  -1  1911840.80 1115.28
  -1   1 -1913510.69 1196.02
   1  -1 -1914520.66 1057.94
  -1  -1 -1914646.96 1226.65
   1   1 -1915972.25 1135.40
   1  -1  1914582.67 1105.91
  -1   1  1914125.68 1006.83
   1  -1 -20 7180.79  731.35
   1   1  20 6589.53  575.90
  -1   1 -20 6850.15  633.08
  -1  -1  20 5695.25  599.54
  -1  -1 -20 6591.20  827.97
   1  -1  20 6783.86  585.23
   1   1 -20 7234.76  721.26
  -1   1  20 6500.42  615.28
  -1   1 -21  919.66  451.57
   1   1  21  461.64  362.23
  -1  -1  21  827.86  439.68
   1  -1 -21  598.14  350.57
   1   1 -21  942.65  365.70
   1  -1  21  670.28  387.32
  -1   1  21  656.46  469.90
  -1  -1 -21  756.38  271.87
   1  -1 -22 1906.23  454.72
  -1   1 -22  145.97  521.71
   1   1  22 1450.70  469.15
  -1  -1  22 1153.27  359.46
   1   1 -22 1615.07  454.35
  -1   1  22 1725.92  548.54
   1  -1  22 1613.88  499.26
  -1  -1 -22 1798.99  533.78
  -1   1 -23  167.14  254.55
   1   1  23  425.91  371.25
   1  -1 -23  141.98  356.77
  -1  -1  23  -54.51  443.97
   1  -1  23  320.73  252.44
  -1  -1 -23 -191.19  411.07
  -1   1  23  959.27  276.10
   1   1 -23   53.84  365.41
  -1   1 -24  283.60  493.14
   1   1  24  309.29  392.55
  -1  -1  24  638.47  296.28
   1  -1 -24  343.56  369.35
   1   1 -24  450.77  248.59
  -1  -1 -24   73.96  267.93
   1  -1  24  445.60  415.45
  -1   1  24  354.47  466.58
   1  -1 -25  961.17  479.61
   1   1  25 1800.49  510.68
  -1   1 -25 1813.09  416.43
  -1  -1  25  620.30  609.75
  -1  -1 -25  227.14  380.84
   1   1 -25 1614.45  551.15
  -1   1  25 1116.87  616.18
   1  -1  25 1509.63  553.25
  -1   1 -26 3819.18  791.19
   1  -1 -26 2880.89  692.32
  -1  -1  26 3643.53  809.24
   1   1  26 3064.33  483.91
   1  -1  26 2842.12  495.43
  -1  -1 -26 -256.09  714.28
   1   1 -26 3583.27  769.25
  -1   1  26 3115.98  532.98
  -1   1 -27 2826.63  809.77
   1   1  27 2055.51  689.60
  -1  -1  27 2647.59  822.08
   1  -1 -27 2405.11  639.35
   1  -1  27 1660.69  702.05
   1   1 -27 2289.25  686.72
  -1   1  27  972.22  784.95
  -1  -1 -27 2217.54  770.12
  -1  -1  28 1783.88  702.17
  -1   1 -28  224.01  406.00
   1   1  28 1079.51  381.03
   1   1 -28  821.38  600.20
   1  -1  28 1333.61  403.49
  -1   1  28 1358.29  687.71
  -1  -1 -28  942.57  410.62
  -1  -1  29  132.71  258.13
   1   1  29  155.82  382.86
  -1   1 -29   65.56  414.62
  -1  -1 -29  314.85  401.71
   1  -1  29 -389.05  391.11
  -1   1  29 -238.37  253.42
  -1  -1  30   20.48  516.39
  -1   1 -30  -20.87  502.95
  -1   1  30   18.18  503.33
  -1  -1 -30   40.45  481.24
   1  -1  30  132.44  291.60
  -1   1 -31   -9.43  278.05
  -1  -1  31   32.48  272.57
  -1  -1 -31  -16.06  273.52
  -1   1  31 -127.15  458.82
  -1  -2   0 2915.54  166.46
   1  -2   0 2920.48  174.90
   1   2   0 2741.59  163.92
  -1  -2   0 2826.62  172.99
   1  -2   0 2708.27  183.14
  -1   2   0 2865.52  145.33
  -1   2   0 2825.12  228.38
   1   2   0 2888.73  241.95
   1   2   1 4213.83  233.04
   1   2   1 4307.63  164.99
  -1  -2   1 4359.90  272.10
   1  -2  -1 4268.57  189.77
  -1   2  -1 4128.72  283.20
   1  -2  -1 3763.97  240.21
  -1   2  -1 3928.38  264.36
  -1  -2   1 4697.82  285.39
   1   2  -1 3793.00  183.57
   1   2  -1 4177.18  297.06
  -1   2   1 4106.07  225.74
  -1  -2  -1 4524.73  285.69
  -1   2   1 4376.75  210.51
   1  -2   1 4410.55  303.89
   1  -2   1 4079.38  245.60
  -1  -2  -1 3894.78  182.60
  -1   2  -292282.12 3988.56
   1   2   288090.45 3643.08
  -1   2  -291778.85 3876.51
  -1  -2   293489.11 4005.11
   1  -2  -290271.23 3779.48
  -1  -2   289905.35 3794.36
  -1   2   286534.93 3696.00
   1   2  -284548.92 3556.94
   1   2  -290636.38 3817.49
  -1  -2  -292102.40 4010.11
   1  -2   283944.85 3512.90
  -1   2  -3 1897.11  134.20
  -1   2  -3 1848.58  181.76
  -1  -2   3 2133.32  282.23
  -1  -2   3 2632.60  219.07
  -1  -2  -3 1985.31  273.92
  -1   2   3 1566.81  157.91
   1  -2   3 2442.43  227.88
   1   2  -3 2250.09  228.53
   1   2  -3 1654.31  154.73
  -1  -2  -3 1772.74  149.65
   1  -2   3 2304.76  233.96
  -1   2   3 1681.46  177.18
   1  -2  -4 9183.63  316.83
  -1   2  -4 8713.64  450.54
   1  -2  -4 8918.79  434.58
  -1  -2   4 9955.00  623.66
   1   2   4 9496.93  439.12
   1   2   4 8846.98  329.70
  -1  -2   4 7406.21  339.58
  -1   2  -4 9367.82  510.57
   1   2  -4 7177.01  343.00
  -1  -2  -4 7791.14  402.79
  -1   2   4 8024.26  265.80
   1   2  -4 6877.24  448.98
  -1   2   4 7023.91  519.28
   1  -2   4 7299.29  464.93
  -1  -2  -4 7968.57  314.71
   1  -2   4 8039.11  438.13
   1   2   516364.20  650.53
   1   2   515534.10  692.12
  -1  -2   516717.40  913.38
   1  -2  -514394.36  668.28
  -1  -2   515621.07  714.03
  -1   2  -516086.79  765.31
   1  -2  -515540.88  582.24
  -1   2  -515200.46  645.91
  -1  -2  -515544.12  825.31
  -1   2   516406.39  873.46
   1   2  -516592.68  784.96
   1   2  -514401.80  659.65
   1  -2   516904.66  795.40
  -1   2   515754.95  570.84
   1  -2   514987.85  674.52
  -1  -2  -515399.89  594.25
  -1  -2   6 1658.91  300.91
  -1  -2   6 1230.08  182.42
   1   2   6 1630.42  147.55
   1  -2  -6 1388.92  145.07
  -1   2  -6 1398.34  188.26
  -1   2  -6 1998.39  319.01
   1  -2   6 1851.79  239.88
  -1   2   6 1614.81  115.74
  -1  -2  -6 1204.24  151.85
  -1  -2  -6 1434.43  266.69
  -1   2   6 1273.54  177.50
   1   2  -6 1209.70  142.36
  -1  -2   7 4177.97  433.14
  -1  -2   7 3611.00  276.93
  -1   2  -7 3778.56  293.55
  -1   2  -7 4644.99  435.08
   1  -2  -7 4374.44  273.23
   1   2   7 4748.37  260.93
  -1  -2  -7 4301.19  398.57
   1   2  -7 3323.79  319.34
  -1  -2  -7 3874.60  228.25
  -1   2   7 3978.73  203.10
  -1   2   7 3813.61  287.97
   1  -2   7 3756.81  329.64
   1   2   8  722.99  158.15
   1  -2  -8 1077.05  137.13
  -1  -2   8 1124.04  299.21
  -1   2  -8 1309.11  189.55
   1   2  -8 1396.02  230.21
  -1  -2  -8  893.69  264.08
  -1   2   8 1283.71  158.75
   1  -2   8 1727.14  241.89
  -1   2   8 1108.36  280.08
  -1  -2  -8 1113.00  143.97
  -1  -2   9 5050.92  372.20
   1   2   9 5063.91  331.76
   1  -2  -9 4236.30  270.73
  -1   2  -9 5561.00  492.15
  -1  -2  -9 4626.25  333.13
  -1   2   9 4499.08  262.14
   1   2  -9 4949.64  294.52
   1  -2   9 5103.73  404.68
  -1   2   9 4456.49  325.90
  -1  -2  -9 4146.13  282.61
   1  -2 -1016180.18  757.85
   1   2  1016316.42  797.52
  -1  -2  1016192.47  984.54
  -1   2 -1016024.10  843.64
  -1  -2 -1018024.37 1021.28
   1   2 -1014497.25  704.69
  -1   2  1014637.20  683.66
  -1   2  1015687.95  926.87
   1  -2  1017258.19  890.64
   1  -2 -11 6704.23  416.56
  -1   2 -11 7103.54  614.40
   1   2  11 6461.54  444.25
  -1  -2  11 6909.05  606.05
   1   2 -11 6753.46  504.49
  -1  -2 -11 5808.18  555.57
  -1   2  11 6302.12  430.26
   1  -2  11 5982.62  371.04
  -1  -2  1235941.23 1756.96
   1  -2 -1232436.00 1510.85
  -1   2 -1233700.41 1847.80
   1   2  1232695.86 1579.10
  -1  -2 -1233596.72 1655.35
   1  -2  1236851.96 1775.65
   1   2 -1228382.72 1363.21
  -1   2  1232878.76 1613.61
   1  -2 -13 1640.94  256.18
  -1  -2  13 1374.22  369.78
  -1   2 -13 1392.66  251.33
   1   2  13 1784.59  261.26
   1  -2  13 1386.09  304.02
  -1  -2 -13 1335.51  359.98
  -1   2  13 1781.84  250.30
   1   2 -13 1757.48  295.03
  -1   2 -1439917.84 2248.51
   1   2  1442379.80 1975.37
   1  -2 -1440017.72 1937.03
  -1  -2  1440523.85 2259.03
   1  -2  1439854.27 1954.88
  -1  -2 -1441375.80 2229.40
   1   2 -1440006.11 2050.71
  -1   2  1440490.97 2022.65
   1  -2 -15  649.22  208.50
  -1   2 -15  601.74  202.33
  -1  -2  15  312.27  217.91
   1   2  15  520.60  238.37
  -1  -2 -15  525.26  287.71
   1   2 -15  789.01  253.30
  -1   2  15  490.81  195.60
   1  -2  15  200.60  173.78
   1   2  1616858.03  906.44
  -1  -2  1615456.54 1154.18
  -1   2 -1616685.30 1189.29
   1  -2 -1616603.69  979.76
   1  -2  1614779.44  856.67
  -1  -2 -1615993.96 1144.91
  -1   2  1615345.12  957.58
   1   2 -1614849.92  977.08
  -1  -2  17  403.87  223.61
   1   2  17  272.35  258.13
  -1   2 -17  349.11  197.36
   1  -2 -17  294.07  237.73
  -1  -2 -17  468.79  210.10
   1   2 -17 -220.42  245.27
   1  -2  17  563.04  183.44
  -1   2  17  598.18  202.69
   1  -2 -1816459.38 1101.23
  -1   2 -1818533.14 1397.85
  -1  -2  1816867.26 1295.01
   1   2  1817778.43 1203.73
  -1   2  1818519.84 1316.63
   1   2 -1820071.26 1277.21
  -1  -2 -1819861.28 1237.78
   1  -2  1820298.57 1156.21
   1   2  19 8714.51  782.74
  -1  -2  19 8432.68  729.60
  -1   2 -19 7434.00  695.88
   1  -2 -19 8250.49  727.28
   1  -2  19 7333.28  753.58
  -1  -2 -19 7502.39  669.07
  -1   2  19 7537.65  851.78
   1   2 -19 8691.72  804.75
   1   2  20 1492.45  370.56
  -1  -2  20  797.19  445.24
  -1   2 -20  770.69  434.36
   1  -2 -20  267.04  309.34
  -1   2  20 1029.49  439.49
   1   2 -20  639.84  348.37
   1  -2  20  946.97  373.50
  -1  -2 -20  630.44  407.60
   1   2  21  630.65  227.85
  -1  -2  21  292.04  265.79
   1  -2 -21  320.33  326.83
  -1   2 -21  601.65  280.72
  -1   2  21  780.27  287.96
  -1  -2 -21  900.91  427.87
   1   2 -21  556.46  245.72
   1  -2  21  304.68  366.36
  -1  -2  22  364.34  414.08
   1  -2 -22  720.26  312.49
   1   2  22  646.88  349.62
  -1   2 -22  516.59  412.93
   1  -2  22  291.64  229.06
  -1   2  22 -116.96  236.67
  -1  -2 -22 -130.93  394.79
   1   2 -22  614.35  369.50
  -1  -2  23  995.00  368.13
   1   2  23 1750.71  322.88
  -1   2 -23 1877.94  406.13
   1  -2 -23 1446.66  331.22
   1   2 -23  856.23  498.37
  -1  -2 -23 -105.20  529.04
  -1   2  23  925.51  538.02
   1  -2  23 1422.21  514.36
   1   2  24  395.32  389.23
  -1  -2  24  970.70  488.54
   1  -2 -24 1008.08  393.48
  -1   2 -24  847.52  468.02
  -1   2  24  991.89  460.29
   1   2 -24  -12.12  264.01
   1  -2  24  394.62  418.60
  -1  -2 -24 -227.32  279.00
   1   2  25  432.13  388.56
  -1  -2  25  232.02  290.49
   1  -2 -25  213.96  371.74
  -1   2 -25 -217.67  464.27
   1   2 -25  791.95  413.78
  -1  -2 -25 -248.55  449.06
  -1   2  25   35.28  276.15
   1  -2  25  512.54  416.73
  -1   2 -2612040.74 1411.48
   1   2  26 9330.88 1155.69
  -1  -2  2611635.98 1377.20
   1  -2 -26 9887.56 1139.48
   1  -2  2611410.44 1263.82
  -1  -2 -2610972.69 1367.86
   1   2 -2611731.21 1317.82
  -1   2  2612116.55 1340.42
   1   2  27  782.22  466.17
  -1  -2  27  221.14  360.66
  -1   2 -27 1036.96  575.96
   1  -2  27  164.03  512.14
   1   2 -27  487.54  504.23
  -1  -2 -27  -24.78  532.56
  -1   2  27   75.63  545.45
  -1  -2  28  -25.19  852.97
   1   2  28 2866.02  533.24
  -1   2 -28 3452.22  605.12
  -1   2  28 3273.13  857.30
  -1  -2 -28 3618.93  620.54
   1   2 -28 4195.73  891.14
   1  -2  28 3129.48  593.44
  -1  -2  29  270.17  343.93
  -1   2 -29  102.55  558.30
   1   2 -29  200.08  311.91
  -1   2  29  -53.01  325.25
   1  -2  29  654.20  532.34
  -1  -2 -29  484.85  533.21
  -1  -2  30 -393.97  788.26
  -1   2 -30  -98.81  522.32
   1  -2  30 4979.35  820.57
  -1  -2 -30   41.75  745.18
  -1  -2  31   64.63  341.01
  -1   2 -31  -16.81  546.88
  -1   2  31  146.65  537.27
  -1  -2 -31  134.40  512.16
  -1  -3   0  340.34   91.52
   1   3   0  360.26  168.10
   1   3   0  193.42   85.97
  -1   3   0  394.69  149.08
   1  -3   0  345.18   92.39
  -1   3   0  308.54  112.04
  -1  -3   0  235.78  104.51
   1  -3   0  301.25  107.70
  -1   3  -1 1669.39  208.18
  -1  -3   1 1775.45  193.79
   1   3   1 1282.87  147.61
  -1   3  -1 1413.03  187.06
   1  -3  -1 1663.39  113.96
   1   3   1 1555.02  106.11
  -1  -3   1 1773.57  207.91
   1  -3  -1 1812.33  175.30
   1   3  -1 1614.75  233.78
  -1  -3  -1 1249.24  131.49
  -1  -3  -1 1552.98  127.63
  -1   3   1 1473.44  167.49
   1  -3   1 1762.04  251.07
  -1   3   1 1086.44  212.31
   1  -3   1 1509.77  175.51
   1   3  -1 1226.40  155.98
  -1   3  -212769.57  555.49
   1  -3  -213339.69  750.77
   1   3   214346.85  513.87
  -1  -3   214439.55  702.34
  -1  -3   213035.12  556.52
  -1   3  -214052.71  712.98
   1  -3  -213528.85  463.30
   1   3   214468.81  732.54
  -1   3   213903.02  608.02
  -1  -3  -211824.64  533.33
   1   3  -213146.33  566.11
   1   3  -212807.87  544.30
  -1  -3  -213196.51  501.99
  -1   3   214036.31  513.62
   1  -3   213323.19  670.21
   1  -3   213237.67  637.12
   1  -3  -3 4871.45  440.78
   1   3   3 5088.67  410.51
   1   3   3 4007.92  175.00
  -1  -3   3 4249.29  313.65
   1  -3  -3 4277.73  149.46
  -1   3  -3 4405.42  373.81
  -1   3  -3 4361.51  244.86
  -1  -3   3 4448.65  371.82
  -1  -3  -3 3748.10  232.70
  -1   3   3 3288.27  238.12
  -1   3   3 3753.19  153.57
  -1  -3  -3 4455.98  208.95
   1   3  -3 4155.83  343.07
   1   3  -3 3549.44  305.79
   1  -3   3 4267.49  351.24
   1  -3   3 4060.00  314.21
  -1  -3   425905.35 1069.69
   1  -3  -425879.48  876.09
  -1  -3   428754.38 1373.56
  -1   3  -426963.42 1201.93
   1   3   426659.80  977.77
  -1   3  -427439.66 1237.38
   1  -3  -428690.53  976.75
   1   3   428301.25 1015.92
  -1  -3  -424900.40 1090.26
   1   3  -423194.73 1044.40
   1   3  -426899.54 1233.68
  -1  -3  -430016.85 1413.21
   1  -3   423903.06 1113.83
   1  -3   427389.19 1251.01
  -1   3   427288.32 1331.28
  -1   3   425471.04 1130.72
  -1  -3   5 8347.05  488.14
  -1  -3   5 7965.88  481.18
   1   3   5 8327.63  327.59
   1  -3  -5 8406.96  318.48
   1  -3  -5 8735.33  329.33
  -1   3  -5 7955.01  569.25
  -1   3  -5 7951.95  480.21
   1   3   5 8212.48  376.50
  -1  -3  -5 9645.40  595.95
   1   3  -5 8674.04  557.15
   1  -3   510052.01  581.81
  -1   3   510030.44  641.78
  -1  -3  -5 7922.91  504.28
   1   3   638673.44 1493.19
  -1   3  -636818.37 1689.47
   1  -3  -636049.28 1361.71
  -1   3  -638415.38 1822.56
  -1  -3   636832.77 1559.85
  -1  -3   640010.30 1900.46
   1  -3  -634302.20 1266.19
   1  -3   636757.26 1546.55
   1   3  -637623.76 1690.45
  -1  -3  -639800.79 1868.20
  -1   3   637674.21 1627.30
  -1  -3   715043.80  749.94
  -1   3  -714418.55  709.16
   1  -3  -713817.67  570.11
   1   3   714789.56  648.60
  -1   3   714081.37  589.55
  -1  -3  -712314.59  628.50
   1   3  -711418.31  581.44
   1  -3   714018.88  647.08
  -1   3   713996.38  807.50
  -1  -3  -713021.73  578.94
   1   3   824057.87 1042.40
  -1   3  -825222.55 1324.13
   1  -3  -823186.21  969.54
  -1  -3   825506.24 1188.21
   1   3  -825865.84 1232.47
  -1   3   823512.55  954.66
  -1  -3  -820972.57  947.72
  -1  -3  -824027.42 1108.72
  -1   3   824015.86 1241.18
   1  -3   823946.44 1171.53
  -1  -3   9 8629.76  501.69
   1  -3  -9 7932.93  405.08
  -1   3  -9 8394.84  631.90
   1   3   9 8283.51  442.55
  -1  -3  -9 6584.81  384.93
   1  -3   9 7233.32  401.81
   1   3  -9 7433.08  413.68
  -1  -3  -9 7064.45  429.29
  -1   3   9 7076.29  399.46
  -1   3   9 7437.38  438.77
   1   3  10 3198.89  276.11
  -1  -3  10 3316.13  317.48
   1  -3 -10 3372.94  262.46
  -1   3 -10 2842.81  426.47
  -1  -3 -10 3079.39  381.09
  -1   3  10 3502.52  234.05
   1  -3  10 3615.57  268.12
   1   3 -10 3723.33  274.55
  -1   3  10 3697.61  294.14
  -1  -3 -10 2927.69  256.30
  -1   3 -1117550.19 1085.45
  -1  -3  1116484.89  903.06
   1  -3 -1118580.84  887.96
  -1   3  1116925.57  787.15
  -1   3  1118738.47 1083.45
  -1  -3 -1118485.94  948.39
   1  -3  1117688.24  968.22
   1   3 -1117492.12  975.39
  -1  -3  12 8289.73  727.21
   1   3  12 8596.29  553.39
  -1   3 -12 7260.71  525.42
   1  -3 -12 6659.33  462.55
   1   3 -12 6729.84  549.60
  -1  -3 -12 6646.72  621.38
  -1   3  12 6981.96  622.68
   1  -3  12 7845.37  605.69
  -1  -3  13 1871.73  392.61
  -1   3 -13 2320.93  395.84
   1  -3 -13 1897.90  259.54
   1   3  13 2088.68  290.97
  -1  -3 -13 1430.43  232.62
   1   3 -13 1884.03  328.51
  -1   3  13 1967.11  257.53
   1  -3  13 1647.00  336.18
   1   3  14 1464.31  268.62
  -1   3 -14 1319.43  371.07
  -1  -3  14 1259.52  240.71
   1  -3 -14 1177.84  230.21
  -1   3  14 1146.32  216.74
  -1  -3 -14 1289.29  234.27
   1   3 -14 1384.89  216.43
   1  -3  14 1216.93  198.10
   1  -3 -15 9286.71  620.31
  -1  -3  15 8133.64  609.61
   1   3  15 8558.47  630.74
  -1   3 -15 8569.65  632.95
  -1  -3 -15 8209.37  750.19
   1   3 -15 7609.87  520.32
   1  -3  15 8398.01  670.88
  -1   3  15 8796.22  591.72
  -1  -3  16 1911.06  435.26
   1   3  16 1370.20  208.34
  -1   3 -16 1365.57  405.39
   1  -3 -16 1028.15  170.67
  -1  -3 -16 1582.00  388.76
   1   3 -16 2149.88  345.36
   1  -3  16 1712.39  372.03
  -1   3  16 1609.56  261.77
  -1   3 -17 1515.43  434.98
  -1  -3  17 1267.20  444.62
   1   3  17 1206.69  332.40
   1  -3 -17 1292.10  296.92
  -1   3  17 1517.65  284.04
  -1  -3 -17 1625.79  407.01
   1  -3  17 1259.76  381.01
   1   3 -17 2126.28  373.67
   1   3  18 3379.25  478.25
   1  -3 -18 3960.65  474.42
  -1  -3  18 4310.06  484.98
  -1   3 -18 3978.53  486.08
  -1  -3 -18 4236.59  633.77
  -1   3  18 4035.80  449.16
   1  -3  18 3518.77  542.54
   1   3 -18 3682.72  536.49
  -1  -3  19 3423.51  634.73
   1  -3 -19 4846.71  534.51
   1   3  19 3468.67  381.70
  -1   3 -19 4192.64  667.50
  -1  -3 -19 3216.44  590.76
   1   3 -19 3698.47  398.07
  -1   3  19 2931.11  429.19
   1  -3  19 3550.05  572.23
   1  -3 -20 9717.01  870.48
  -1  -3  20 8860.69  805.41
   1   3  2011206.81  964.20
  -1   3 -20 9169.11  807.50
  -1   3  2011041.16  826.98
   1  -3  2010291.63  984.19
  -1  -3 -2010961.77 1055.58
   1   3 -20 9963.16  750.70
  -1   3 -21 5029.59  809.84
  -1  -3  21 5922.62  857.02
   1   3  21 6046.46  711.00
   1  -3 -21 6426.38  712.21
   1   3 -21 6315.46  790.52
  -1  -3 -21 6764.39  873.83
   1  -3  21 6440.89  625.90
  -1   3  21 6934.26  880.40
  -1  -3  22 4341.68  758.28
   1  -3 -22 3992.27  609.84
  -1   3 -22 4666.05  563.68
   1   3  22 3021.74  417.55
  -1  -3 -22 4233.98  546.59
   1  -3  22 4181.96  485.26
  -1   3  22 1773.71  721.22
   1   3 -22 4813.27  717.60
  -1   3 -23 3695.87  752.09
   1  -3 -23 3093.82  593.13
   1   3  23 3246.53  632.59
  -1  -3  23 3465.61  553.00
   1  -3  23 3934.60  691.62
  -1   3  23 3356.96  706.28
   1   3 -23 4420.13  706.42
  -1  -3 -23 3354.33  522.21
   1   3  24 4997.79  744.29
  -1  -3  24 5143.80  898.56
  -1   3 -24 4158.49  614.36
   1  -3 -24 5705.61  776.94
   1   3 -24 3982.29  565.07
   1  -3  24 5083.16  834.07
  -1   3  24 4094.59  558.97
   1   3  25 8284.39  766.98
  -1  -3  25 6941.26  817.64
   1  -3 -25 7452.08  945.09
  -1   3 -25 6501.26 1085.44
  -1   3  25 7902.57  817.42
   1   3 -25 7619.56 1048.09
  -1  -3 -25 7417.79 1116.79
   1  -3  25 8521.72  824.93
  -1   3 -26 9204.14  986.13
   1   3  26 6475.32  938.22
  -1  -3  26 7830.33 1175.33
  -1  -3 -26 9317.93 1203.42
   1  -3  26 7324.56 1092.00
  -1   3  26 7816.15 1084.46
   1   3 -26 6992.68 1081.02
  -1  -3  27 1308.55  461.11
   1   3  27  506.84  532.25
  -1   3 -27 1975.00  736.78
   1   3 -27 1089.90  391.67
  -1   3  27 1219.64  661.26
   1  -3  27 1075.66  649.72
  -1  -3 -27 2218.99  685.48
  -1  -3  28  219.67  407.76
  -1   3 -28  130.31  263.17
  -1  -3 -28 -139.53  230.66
  -1   3  28  401.42  422.64
   1  -3  28  -98.12  244.54
   1   3 -28    5.70  391.25
  -1  -3  29 -481.62  266.61
  -1   3 -29  268.81  443.20
   1   3 -29  235.72  436.65
  -1  -3 -29  509.94  422.06
   1  -3  29  326.99  424.14
  -1   3  29   39.01  253.06
  -1   3 -30  175.99  309.16
  -1  -3  30 -146.94  509.62
  -1  -3 -30 -256.94  467.21
   1  -3  30  285.44  470.92
  -1   3  30  -17.65  479.16
  -1  -3  31  -82.81  317.26
  -1   3 -31   51.42  506.09
  -1   3  31 -156.61  492.99
   1  -3  31   27.42  300.74
  -1  -3 -31  -55.20  483.69
  -1  -4   0 3880.90  313.87
   1  -4   0 3575.16  229.98
  -1   4   0 3977.19  271.90
   1   4   0 4115.28  366.21
  -1  -4   0 4269.82  214.29
   1   4   0 3591.05  231.61
   1  -4   0 3503.92  261.64
  -1   4   0 3518.93  236.78
   1  -4  -1 9146.77  583.96
  -1  -4   1 9589.81  527.99
   1   4   1 9494.61  408.77
  -1  -4   1 9902.80  508.23
   1   4   1 9698.93  575.44
   1  -4  -1 8954.78  392.73
  -1   4  -1 9690.98  451.75
  -1   4  -1 9994.35  516.48
  -1  -4  -1 7462.19  466.75
   1   4  -1 8004.30  347.20
  -1  -4  -1 8859.43  408.20
   1   4  -1 8257.68  554.91
  -1   4   1 8559.19  516.99
   1  -4   1 8207.97  365.36
   1  -4   1 8656.24  441.75
  -1   4   1 8463.53  400.91
  -1  -4   2 2572.40  288.45
   1   4   2 2481.10  154.06
  -1  -4   2 2618.17  279.75
   1   4   2 2968.37  326.17
   1  -4  -2 2743.27  153.97
   1  -4  -2 2695.57  358.09
  -1   4  -2 2648.22  285.27
  -1   4  -2 2726.65  203.30
  -1  -4  -2 2755.69  182.22
  -1  -4  -2 2501.11  183.57
   1  -4   2 2169.58  163.77
   1   4  -2 2505.05  237.93
   1   4  -2 2441.98  313.81
  -1   4   2 2594.76  274.41
  -1   4   2 2877.11  174.21
   1  -4   2 2234.61  206.44
   1   4   333114.26 1267.49
   1   4   333168.06 1537.92
  -1  -4   333575.60 1592.47
  -1  -4   332867.78 1489.20
   1  -4  -332070.58 1177.50
  -1   4  -329724.31 1403.82
  -1   4  -331390.01 1504.03
   1  -4  -333637.70 1638.25
   1  -4   331686.33 1444.69
  -1  -4  -331958.74 1495.82
   1   4  -330626.66 1421.26
  -1   4   332877.16 1223.12
   1   4  -332474.73 1372.19
   1  -4   331145.67 1319.44
  -1  -4  -333397.13 1255.35
  -1   4   332992.26 1535.46
   1   4   421624.64  809.55
  -1  -4   420613.95  951.87
   1   4   421996.51 1098.81
  -1   4  -421880.53 1062.02
   1  -4  -422168.43 1171.20
   1  -4  -421376.55  796.00
  -1   4  -423023.95 1041.46
  -1  -4  -421733.42  848.99
   1  -4   420878.60  909.01
  -1   4   421822.01  809.30
   1   4  -419998.00  897.63
   1   4   527465.25 1096.58
   1   4   526011.83 1052.70
  -1  -4   528723.81 1430.77
   1  -4  -523423.23  912.50
   1  -4  -526911.70 1032.62
  -1   4  -528205.00 1435.83
  -1  -4  -527026.81 1201.16
   1   4  -529637.33 1410.75
   1  -4   528005.29 1364.45
  -1   4   523986.89 1089.87
   1   4   610944.31  521.53
   1   4   610118.54  460.51
  -1  -4   612438.26  669.24
   1  -4  -6 9920.22  399.82
  -1   4  -611835.32  735.09
   1  -4  -6 9974.61  444.23
   1   4  -612014.69  723.69
  -1  -4  -610444.11  548.55
  -1   4   611685.63  761.46
   1  -4   611286.08  554.42
   1   4   7 2851.87  196.80
   1  -4  -7 2645.83  195.72
  -1   4  -7 3296.08  391.54
  -1  -4   7 3388.94  402.11
   1   4   7 2472.03  200.21
   1  -4  -7 3185.98  222.84
  -1  -4  -7 3112.86  366.81
   1   4  -7 3286.87  352.27
   1  -4   7 3091.38  242.01
  -1   4   7 3137.49  268.09
   1   4   816767.88  727.79
   1   4   814683.36  681.95
  -1  -4   815885.37  814.69
   1  -4  -813350.00  581.08
   1  -4  -816243.75  687.12
  -1   4  -816027.57  814.24
  -1  -4  -817653.83  834.98
   1   4  -816892.42  787.60
  -1   4   817132.44  943.59
   1  -4   817007.88  902.00
   1   4   9 8760.21  450.35
   1  -4  -9 8880.21  433.26
  -1  -4   9 7712.28  623.08
  -1   4  -9 7933.60  486.55
  -1   4   9 8311.90  595.53
  -1  -4  -9 6672.01  342.06
   1   4  -9 7338.79  429.79
  -1  -4  -9 8536.94  482.34
  -1   4   9 6601.56  301.91
   1  -4   9 8270.10  461.62
   1   4  10 9231.97  502.39
   1  -4 -10 9424.97  478.11
  -1   4 -10 8711.78  551.68
  -1  -4  10 8495.40  684.66
  -1  -4 -10 9296.07  535.11
  -1   4  10 8120.91  415.15
  -1   4  10 9117.56  525.79
   1   4 -10 7106.60  454.26
   1  -4  10 8198.01  490.54
  -1  -4 -10 8002.31  463.95
   1   4  11 5206.03  365.98
   1  -4 -11 5101.08  342.16
  -1  -4  11 4750.82  529.58
  -1   4 -11 4593.82  403.40
  -1   4  11 4588.36  298.30
  -1  -4 -11 4975.93  487.56
   1   4 -11 5289.38  381.20
   1  -4  11 4721.25  459.87
  -1   4  11 4713.97  348.14
   1   4  12 4976.48  398.01
  -1  -4  12 5000.82  543.06
   1  -4 -12 5052.67  364.08
  -1   4 -12 4781.05  416.01
  -1  -4 -12 4503.44  495.98
   1  -4  12 5094.01  472.52
  -1   4  12 4057.26  471.86
   1   4 -12 4802.80  470.54
  -1  -4  1321565.92 1355.18
   1   4  1322546.73 1134.25
  -1   4 -1322872.13 1428.30
   1  -4 -1322184.36 1110.91
  -1  -4 -1322138.60 1346.17
  -1   4  1322394.47 1281.40
   1  -4  1321229.74 1095.87
   1   4 -1321020.78 1105.09
   1   4  14  144.07  166.81
  -1  -4  14   43.58  166.87
   1  -4 -14   58.75  150.42
  -1   4 -14   91.19  257.05
  -1  -4 -14   13.09  144.97
   1  -4  14  132.11  229.04
  -1   4  14  360.55  148.16
   1   4 -14   71.99  223.47
   1   4  1522968.48 1263.85
  -1  -4  1521014.79 1225.00
  -1   4 -1521921.35 1475.18
   1  -4 -1521773.48 1203.26
  -1  -4 -1520235.70 1341.07
   1   4 -1521025.62 1278.60
   1  -4  1519593.16 1236.99
  -1   4  1520978.33 1319.77
   1   4  16  568.80  277.07
  -1  -4  16 1387.57  398.48
   1  -4 -16  586.47  231.91
  -1   4 -16  497.71  223.24
  -1  -4 -16 1229.67  338.80
   1   4 -16 1703.96  328.26
   1  -4  16 1078.44  338.63
  -1   4  16  834.77  348.89
   1   4  1717863.80 1099.68
  -1   4 -1712718.69 1100.21
  -1  -4  1712172.98 1057.63
   1  -4 -1717148.89 1054.33
  -1  -4 -1715981.68 1160.40
   1   4 -1716936.99 1124.43
  -1   4  1716320.94 1177.37
   1  -4  1714474.31  886.99
   1   4  18 5430.78  588.57
  -1  -4  18 6905.95  797.55
  -1   4 -18 6006.67  753.02
   1  -4 -18 5898.38  586.04
  -1  -4 -18 5664.05  550.19
   1  -4  18 6741.65  558.21
   1   4 -18 6227.68  691.34
  -1   4  18 5404.95  713.25
  -1  -4  19 5411.60  578.08
  -1   4 -19 6090.53  584.91
   1  -4 -19 6291.42  623.94
   1   4  19 6353.72  645.30
   1   4 -19 6398.77  715.16
   1  -4  19 6410.11  570.31
  -1  -4 -19 5068.21  536.37
  -1   4  19 6080.60  747.09
  -1  -4  20 1382.24  482.88
   1   4  20 1171.31  244.87
   1  -4 -20 1543.31  351.80
  -1   4 -20  685.04  456.86
  -1   4  20 1252.59  465.55
  -1  -4 -20 1062.23  288.33
   1   4 -20  647.24  406.96
   1  -4  20  945.84  278.46
   1   4  21  414.06  343.60
  -1  -4  21  337.42  450.80
   1  -4 -21  592.27  203.49
  -1   4 -21  383.40  455.48
  -1  -4 -21 1025.56  276.42
   1   4 -21  652.63  412.23
   1  -4  21  737.90  423.82
  -1   4  21  542.19  419.71
   1   4  22 1181.90  500.74
  -1  -4  22 2604.07  473.97
   1  -4 -22 2297.09  503.46
  -1   4 -22 2192.37  653.35
   1   4 -22 2278.81  567.59
  -1  -4 -22 2478.41  587.95
   1  -4  22 3636.04  639.90
  -1   4  22 2554.04  559.75
   1   4  23  124.06  332.01
   1  -4 -23  -53.23  302.43
  -1   4 -23  340.81  438.13
  -1  -4  23  444.39  433.23
  -1  -4 -23  352.86  416.28
   1   4 -23  227.43  393.63
  -1   4  23  515.31  260.19
   1  -4  23 -206.07  390.80
   1   4  24 2599.60  417.38
  -1   4 -24 3153.70  543.88
   1  -4 -24 1984.20  544.20
  -1  -4  24 4046.35  761.01
  -1  -4 -24 2244.57  671.37
   1   4 -24 2928.52  474.32
   1  -4  24 3771.01  732.50
  -1   4  24 2754.64  485.37
   1   4  25 9376.21 1043.50
  -1  -4  2510613.83 1297.96
  -1   4 -2510356.10 1345.54
   1   4 -2512031.67 1305.19
  -1  -4 -25 9388.85 1201.83
   1  -4  2510171.81  978.05
  -1   4  25 7893.86 1083.56
  -1   4 -26  241.60  319.20
  -1  -4  26  714.62  525.12
   1   4  26  261.26  404.39
  -1  -4 -26  417.27  471.96
   1   4 -26  609.98  487.41
  -1   4  26 -496.41  475.49
   1  -4  26   67.72  482.55
  -1  -4  27 6992.74  874.48
   1   4  27 4427.36  893.18
  -1   4 -27 6552.14 1162.25
  -1  -4 -27 5617.63 1077.38
  -1   4  27 5498.60 1017.07
   1  -4  27 7070.86 1102.18
   1   4 -27 8035.55  862.90
  -1   4 -28  172.99  302.13
  -1  -4  28 -193.59  511.26
  -1   4  28 -100.64  477.59
   1   4 -28 -240.35  470.09
  -1  -4 -28  296.10  279.39
   1  -4  28  196.65  303.66
  -1  -4  29 4093.15  693.16
  -1   4 -29 -318.86 1011.07
  -1   4  29 4279.28  638.61
  -1  -4 -29 4774.68  745.17
   1   4 -29 6808.28 1164.83
   1  -4  29 6021.00 1100.07
  -1   4 -30   20.42  333.87
  -1  -4  30   51.72  565.15
   1   4 -30  104.31  336.12
  -1  -4 -30  753.82  506.30
  -1   4  30 -118.06  511.72
   1  -4  30  -98.80  529.31
  -1  -4  31  -35.86  342.93
  -1   4 -31  548.46  534.58
   1  -4  31 -205.42  310.87
  -1   4  31  -39.92  500.23
   1  -5   0 3909.47  273.73
   1   5   0 3581.13  257.44
   1   5   0 3421.61  258.69
   1  -5   0 4264.33  293.65
  -1   5   0 4013.82  305.19
  -1  -5   0 4026.87  305.42
  -1  -5   111349.15  609.45
   1   5   110586.83  490.24
   1   5   110765.27  657.06
   1  -5  -110944.50  692.34
  -1   5  -111816.72  619.36
   1  -5  -110700.13  503.68
  -1  -5  -110938.81  523.07
   1   5  -112012.46  690.11
   1   5  -110808.97  548.44
   1  -5   111189.13  485.58
   1  -5   111292.98  673.66
  -1   5   111455.25  541.78
  -1  -5   2 1989.74  269.98
   1   5   2 1912.06  162.63
  -1   5  -2 1721.82  180.07
   1  -5  -2 2013.99  158.69
   1   5   2 1939.38  190.07
   1  -5  -2 1601.61  210.13
   1   5  -2 1567.61  210.54
   1   5  -2 1675.96  286.39
  -1  -5  -2 2293.99  196.54
  -1   5   2 2068.28  230.10
   1  -5   2 1645.56  198.10
   1  -5   2 1865.03  149.79
   1  -5  -3 6034.51  281.05
   1   5   3 5310.04  272.54
  -1  -5   3 6060.31  481.16
  -1   5  -3 5794.78  360.80
   1  -5  -3 5954.06  519.85
   1   5   3 6459.91  487.92
   1   5  -3 6697.07  520.73
   1  -5   3 5192.26  322.94
  -1  -5  -3 5051.42  290.95
  -1   5   3 5817.35  286.11
   1   5   448007.15 2069.55
   1   5   449080.99 1973.41
  -1  -5   453530.68 2510.44
  -1   5  -453395.03 2554.84
   1  -5  -451350.08 2069.83
   1  -5  -449041.80 2192.91
  -1  -5  -447949.54 1950.70
   1   5  -449371.70 2157.78
   1  -5   448813.50 2115.58
  -1   5   446692.71 1822.71
  -1   5  -521525.03 1184.41
  -1  -5   518550.45  910.17
   1   5   518386.52  850.97
   1   5   521063.62  904.39
   1  -5  -519017.01  743.01
   1  -5  -519826.83  966.61
  -1  -5  -518831.34  800.58
   1  -5   521359.39 1117.89
   1   5  -523017.76 1178.37
  -1   5   518818.98  775.11
  -1  -5   6 2589.40  261.87
   1   5   6 2662.07  194.17
   1   5   6 2402.88  181.02
   1  -5  -6 2574.37  192.89
  -1   5  -6 2626.83  369.83
   1  -5  -6 2728.30  173.82
   1   5  -6 3215.83  377.97
  -1  -5  -6 2635.65  244.92
  -1   5   6 2801.08  252.20
   1  -5   6 3124.30  369.63
   1   5   749426.76 2040.77
   1  -5  -749378.06 2008.67
  -1  -5   750884.39 2456.94
  -1   5  -750169.91 2278.01
   1  -5  -750396.96 2013.04
   1   5   746254.53 1984.86
   1  -5   750719.62 2365.36
   1   5  -748648.83 2178.93
  -1   5   749789.20 2359.88
  -1  -5  -751451.37 2466.79
   1   5   851861.87 2311.80
   1   5   859818.89 2486.65
  -1  -5   856220.06 2782.74
   1  -5  -852866.08 2212.11
   1  -5  -856033.17 2303.83
  -1   5  -857367.51 2812.32
   1  -5   856922.24 2692.76
  -1  -5  -860489.24 2705.25
  -1   5   858122.07 2765.41
   1   5  -856197.75 2686.23
  -1  -5   910014.58  729.94
   1   5   911470.25  559.15
   1   5   9 9089.26  508.45
   1  -5  -910199.57  548.47
   1  -5  -9 8333.26  429.79
  -1   5  -910373.96  742.62
   1  -5   910226.34  555.87
  -1  -5  -9 9058.46  674.84
   1   5  -9 9708.93  675.28
  -1   5   9 9948.24  571.64
  -1  -5  1014962.01  840.74
   1   5  1017226.40  871.34
  -1   5 -1015133.88  991.88
   1  -5 -1016903.27  779.90
   1  -5 -1014020.73  709.61
  -1  -5 -1017435.64 1016.34
   1   5 -1016508.41 1010.00
   1  -5  1016230.10  843.88
  -1   5  1016676.26 1001.35
   1   5  11  910.20  186.19
  -1  -5  11 1149.69  202.17
   1  -5 -11  783.62  156.93
  -1   5 -11  861.29  326.00
   1  -5 -11  502.08  126.74
  -1  -5 -11  847.83  258.23
   1   5 -11  821.42  286.88
   1  -5  11  483.94  178.18
  -1   5  11  972.66  283.48
  -1  -5  1224675.08 1459.71
   1   5  1222038.48 1082.35
   1  -5 -1223691.29 1189.47
  -1   5 -1221934.12 1191.81
   1   5 -1224150.11 1203.94
  -1  -5 -1220804.06 1109.37
   1  -5  1221663.32 1224.49
  -1   5  1220830.42 1071.77
   1   5  13 5432.06  437.04
  -1  -5  13 6581.52  640.87
  -1   5 -13 6594.81  648.80
   1  -5 -13 6606.80  469.62
  -1  -5 -13 5693.75  574.37
   1   5 -13 5890.03  569.91
  -1   5  13 5901.45  590.07
   1  -5  13 6670.53  448.16
  -1  -5  14 2166.52  448.50
   1   5  14 2631.01  241.12
  -1   5 -14 2256.83  450.10
   1  -5 -14 1721.43  268.39
  -1  -5 -14 2148.40  277.85
   1   5 -14 2669.13  296.79
   1  -5  14 2653.46  417.57
  -1   5  14 1966.72  266.26
   1   5  15  846.69  251.43
  -1  -5  15  764.79  224.24
   1  -5 -15  823.69  216.14
  -1   5 -15  909.19  365.62
  -1  -5 -15  926.85  323.06
   1   5 -15  604.99  218.59
   1  -5  15 1101.74  216.91
  -1   5  15  981.68  325.92
  -1  -5  16 6854.11  571.57
   1   5  16 6585.19  572.55
   1  -5 -16 7031.56  572.34
  -1   5 -16 6346.95  712.35
  -1  -5 -16 5631.52  497.45
   1   5 -16 6979.59  667.17
   1  -5  16 7092.06  671.69
  -1   5  16 5103.77  635.13
   1   5  17 9565.05  734.76
  -1  -5  17 8479.71  703.72
  -1   5 -17 8869.12  706.92
   1  -5 -17 8416.69  669.19
  -1  -5 -17 8859.16  671.28
   1   5 -17 9800.69  857.95
  -1   5  17 8257.04  793.68
   1  -5  17 8488.07  789.45
   1   5  18 1323.99  349.30
  -1  -5  18 1626.06  466.25
   1  -5 -18 1451.72  313.85
  -1   5 -18 1607.17  299.90
  -1  -5 -18 1181.66  436.81
   1   5 -18 2028.95  451.70
   1  -5  18 1534.21  434.73
  -1   5  18 1415.88  302.62
   1   5  1911117.55  880.14
  -1  -5  1910781.69 1052.00
   1  -5 -1911404.60  871.72
  -1   5 -19 9915.10 1044.13
  -1  -5 -1911577.00 1041.06
   1   5 -1910428.40  941.60
  -1   5  19 9519.79  749.43
   1  -5  1910702.05  980.75
  -1  -5  2012919.68 1229.63
   1   5  2012681.01 1008.58
  -1   5 -2013286.06 1282.33
   1  -5 -2013585.39 1031.85
   1   5 -2013716.58 1157.88
   1  -5  2013329.87 1185.03
  -1   5  2013294.70  984.17
  -1  -5 -2013171.31 1236.88
   1   5  21 6651.97  745.39
  -1  -5  21 5589.28  652.25
  -1   5 -21 6848.32  710.95
   1  -5 -21 6729.44  713.92
   1  -5  21 7162.28  853.23
   1   5 -21 8060.11  908.39
  -1   5  21 7027.81  678.12
  -1  -5 -21 6883.40  867.93
  -1   5 -22 1542.03  612.84
  -1  -5  22 1230.16  597.85
   1  -5 -22 1538.29  434.64
   1   5  22 1945.82  465.02
   1   5 -22 2505.71  594.53
  -1  -5 -22 1914.51  559.17
   1  -5  22 1662.87  556.22
  -1   5  22 1840.74  344.86
  -1  -5  2311561.39 1222.20
   1   5  23 6947.79  652.86
  -1   5 -23 7753.48  821.69
   1  -5 -23 9318.74  957.84
   1   5 -23 9606.43 1121.54
  -1  -5 -23 9004.91 1029.12
   1  -5  23 7965.48 1031.89
  -1   5  23 8982.12  796.83
  -1  -5  2410621.05  989.56
   1   5  2410248.76 1019.20
  -1   5 -2412503.06 1361.85
  -1  -5 -2410260.15 1203.18
   1   5 -2410452.31  946.08
   1  -5  2411335.05  986.76
  -1   5  24 9498.34 1129.04
  -1  -5  25 5346.74  974.68
   1   5  25 4589.44  740.34
  -1   5 -25 5128.92  985.50
  -1  -5 -25 5701.79  940.49
   1   5 -25 5931.37  933.54
   1  -5  25 3732.92  618.37
  -1   5  25 5261.97  869.45
  -1  -5  26 3378.80  847.01
   1   5  26 2772.68  664.00
  -1   5 -26 3658.53  607.30
   1   5 -26 3628.13  890.15
  -1  -5 -26 2709.95  760.08
   1  -5  26 4053.38  783.23
  -1   5  26  364.77  736.57
  -1  -5  27   50.70  551.91
  -1   5 -27 3511.04  886.39
  -1  -5 -27 3247.75  767.75
   1   5 -27 2796.81  794.07
  -1   5  27 3372.68  758.97
   1  -5  27 3275.20  803.40
  -1  -5  28 -104.57  695.19
  -1   5 -28   99.59  399.25
   1   5 -28 1212.71  481.18
  -1  -5 -28 1174.56  625.02
   1  -5  28 1419.87  435.39
  -1   5  28  708.01  624.98
  -1  -5  29   81.15  373.19
  -1   5 -29  205.88  587.41
  -1  -5 -29  813.11  341.76
  -1   5  29   97.60  321.08
   1   5 -29  479.31  611.70
   1  -5  29 -119.30  352.56
  -1  -5  30 -190.92  611.10
  -1   5 -30  151.14  362.44
   1   5 -30  710.34  578.44
  -1   5  30  -76.38  515.68
   1  -5  30   80.80  551.00
  -1  -5  31  -12.17  379.40
  -1   5 -31  518.46  597.62
   1  -5  31 -240.11  343.15
  -1   5  31 -187.60  528.35
   1   6   0124096.1 5652.57
  -1  -6   0125423.4 5543.10
   1   6   0128645.6 5980.65
   1  -6   0125442.3 5704.36
  -1   6   0129305.0 5830.58
   1  -6   0126131.3 5926.26
  -1  -6   1 4757.79  389.82
   1   6   1 4420.30  302.91
   1   6   1 3927.69  408.66
  -1   6  -1 4906.78  396.97
   1  -6  -1 4232.12  300.65
   1  -6  -1 4417.13  448.56
   1   6  -1 4004.37  326.39
  -1  -6  -1 4598.74  327.78
   1   6  -1 5556.46  476.34
   1  -6   1 4352.44  311.83
   1  -6   1 5215.12  474.12
  -1   6   1 4626.46  317.60
  -1  -6   220852.01 1047.71
   1   6   219569.99  848.54
   1   6   218535.39  981.42
   1  -6  -219415.77 1063.97
  -1   6  -220814.46  933.52
   1  -6  -219499.03  846.83
   1   6  -218950.52 1022.10
  -1  -6  -218052.88  818.44
  -1   6   219170.84  821.18
   1  -6   218296.86  996.79
   1   6   314678.75  825.32
   1   6   313160.21  589.13
  -1  -6   314610.83  824.31
  -1   6  -313682.50  684.75
   1  -6  -313885.02  714.39
   1  -6  -313130.89  585.63
   1   6  -313572.16  659.19
  -1  -6  -313380.11  615.52
   1  -6   314067.14  835.01
  -1   6   313085.22  579.72
   1   6   474568.56 3421.72
  -1  -6   475420.75 3530.10
   1   6   471824.32 3050.85
   1  -6  -472032.66 3285.75
  -1   6  -475586.97 3578.48
   1  -6  -473273.33 3056.29
   1   6  -474084.39 3482.45
  -1  -6  -473770.93 3209.37
   1  -6   471398.94 3196.47
  -1   6   477059.81 3208.39
   1   6   525516.95 1085.86
  -1   6  -528530.58 1508.12
  -1  -6   527057.20 1250.41
   1   6   526202.04 1329.89
   1  -6  -524440.25 1015.54
   1  -6  -524461.22 1202.93
  -1  -6  -525163.91 1097.80
   1   6  -528792.03 1458.32
   1  -6   526003.82 1201.89
  -1   6   525302.97 1013.58
  -1  -6   6 2649.24  266.74
   1   6   6 2464.31  205.21
   1   6   6 2732.48  352.02
  -1   6  -6 2765.82  385.65
   1  -6  -6 2432.27  421.99
   1  -6  -6 2162.59  162.88
   1   6  -6 2234.24  244.03
  -1  -6  -6 2191.85  227.97
  -1   6   6 2474.89  226.88
   1  -6   6 2725.86  250.79
   1   6   7 5766.90  400.12
  -1  -6   7 6869.10  473.49
   1   6   7 5376.70  333.19
   1  -6  -7 5264.27  294.98
  -1   6  -7 5381.71  536.18
   1  -6  -7 6387.55  389.50
   1   6  -7 6023.24  544.12
  -1  -6  -7 5565.46  514.03
  -1   6   7 6435.96  400.26
   1  -6   7 7295.03  590.09
  -1  -6   8 4519.55  511.51
   1   6   8 5034.42  326.57
   1   6   8 5253.87  315.79
  -1   6  -8 4682.65  389.24
   1  -6  -8 4887.69  347.19
   1  -6  -8 4400.73  267.66
  -1  -6  -8 5140.41  482.56
   1   6  -8 4562.22  352.11
   1  -6   8 5888.08  417.09
  -1   6   8 5525.08  539.18
   1   6   913100.41  634.55
   1   6   910870.82  587.78
  -1  -6   912424.93  890.41
  -1   6  -912470.85  901.70
   1  -6  -912385.95  644.52
   1  -6  -910295.20  524.29
  -1  -6  -912416.42  684.92
   1   6  -911781.15  703.75
   1  -6   914442.79  894.13
  -1   6   912938.76  853.14
  -1  -6  10 5885.34  560.07
   1  -6 -10 6262.27  354.26
  -1   6 -10 5345.28  573.12
   1  -6 -10 4943.74  310.91
   1   6  10 6189.00  386.47
  -1  -6 -10 5700.36  403.03
   1   6 -10 5374.45  382.60
   1  -6  10 5678.60  516.94
  -1   6  10 5100.64  499.74
   1   6  11 6174.16  407.83
  -1   6 -11 6763.18  616.93
   1  -6 -11 6334.45  385.77
   1  -6 -11 5140.27  335.30
  -1  -6  11 6667.78  471.24
   1   6 -11 6253.32  442.52
  -1  -6 -11 6421.84  438.75
   1  -6  11 5276.54  527.08
  -1   6  11 5510.88  513.60
  -1  -6  1257283.39 2864.42
   1   6  1256555.02 2589.82
   1  -6 -1251614.07 2393.02
  -1   6 -1255482.21 2775.67
   1   6 -1254742.92 2842.31
  -1  -6 -1256462.06 2690.58
   1  -6  1256285.28 2713.86
  -1   6  1252466.91 2558.25
   1   6  13  790.86  195.29
  -1  -6  13 1180.64  337.77
   1  -6 -13  772.26  182.25
  -1   6 -13  801.38  217.06
  -1  -6 -13  530.40  269.30
   1  -6  13  921.30  303.98
   1   6 -13  465.03  186.12
  -1   6  13  731.89  296.57
  -1  -6  1410403.43  876.37
   1   6  1411388.52  713.96
   1  -6 -1411515.21  684.06
  -1   6 -1410938.31  746.81
   1   6 -1411758.75  876.28
  -1  -6 -1412286.37  887.15
   1  -6  1411957.29  723.53
  -1   6  1412232.41  879.44
   1   6  15 3855.33  400.03
  -1  -6  15 4000.64  589.87
  -1   6 -15 3729.71  419.96
   1  -6 -15 3771.76  382.64
   1   6 -15 4013.33  394.58
   1  -6  15 4164.39  552.18
  -1   6  15 3966.52  500.32
  -1  -6 -15 4163.35  538.16
  -1  -6  1640112.65 2361.83
  -1   6 -1637481.45 2281.89
   1  -6 -1641695.90 2116.44
   1   6  1637363.32 1998.00
   1   6 -1630420.12 1681.33
  -1  -6 -1638441.05 2219.90
   1  -6  1635602.41 2071.43
  -1   6  1637994.58 1986.92
  -1  -6  17 1005.81  450.29
   1   6  17 1500.54  324.04
  -1   6 -17 1408.20  447.34
   1  -6 -17 2053.91  318.98
  -1  -6 -17 1089.64  395.47
   1   6 -17 1598.56  425.13
   1  -6  17 1068.33  261.12
  -1   6  17 1357.75  403.28
  -1  -6  18 7702.04  696.08
   1   6  18 7516.27  694.49
  -1   6 -18 7093.59  863.32
   1  -6 -18 9216.72  730.37
  -1  -6 -18 8780.13  872.97
   1   6 -18 8438.96  844.69
   1  -6  18 9323.86  681.42
  -1   6  18 7361.75  788.17
   1   6  19 1705.74  385.75
  -1  -6  19 1540.70  325.41
  -1   6 -19 1049.76  324.97
   1  -6 -19 1775.65  330.62
  -1  -6 -19 1743.87  310.30
   1   6 -19 1553.84  488.15
   1  -6  19 1082.87  454.09
  -1   6  19  862.72  437.63
  -1   6 -20 1781.40  372.77
   1   6  20 1235.46  381.73
  -1  -6  20 1664.70  340.56
   1  -6 -20 1160.71  338.01
   1   6 -20 1435.35  476.90
  -1  -6 -20 1052.72  276.85
   1  -6  20 1139.72  456.79
  -1   6  20  639.04  456.54
   1   6  21 2401.57  481.07
  -1  -6  21 1826.46  586.27
  -1   6 -21 2454.30  640.55
   1  -6 -21 2015.62  427.88
   1   6 -21 1817.50  565.22
  -1  -6 -21 2067.93  550.61
  -1   6  21 1991.53  593.20
   1  -6  21 2071.06  537.26
  -1  -6  22  318.42  480.74
   1   6  22 -197.38  308.81
   1  -6 -22  455.58  314.73
  -1   6 -22  720.18  458.48
   1   6 -22 1115.95  436.21
  -1  -6 -22  407.53  395.18
  -1   6  22  120.53  407.74
   1  -6  22  527.53  427.87
  -1  -6  23 1251.03  371.41
   1   6  23  821.09  399.04
   1  -6 -23  798.18  380.80
  -1   6 -23  796.78  337.57
  -1  -6 -23  840.18  483.63
   1   6 -23 1556.79  522.30
   1  -6  23  720.16  337.71
  -1   6  23  635.80  473.88
   1   6  24 1412.20  559.85
  -1  -6  24 2267.40  742.77
  -1   6 -24 3234.18  737.65
  -1  -6 -24 2408.98  655.65
   1   6 -24 2770.35  483.07
   1  -6  24 3090.59  450.20
  -1   6  24 2292.33  670.34
  -1  -6  25 1487.96  738.49
   1   6  25 1747.59  517.19
  -1   6 -25 2856.63  741.89
  -1  -6 -25 1770.41  607.07
   1   6 -25 2718.75  489.81
  -1   6  25  660.63  654.47
   1  -6  25 2166.92  453.58
  -1  -6  26 4402.31  709.12
  -1   6 -26 6529.49  821.56
   1   6 -26 5903.25 1050.12
   1  -6  26 5540.63  939.83
  -1   6  26 5280.33  897.77
  -1  -6 -26 4441.84  887.30
  -1  -6  27  -77.50  496.52
  -1   6 -27 -374.54  473.29
   1   6 -27  202.51  470.42
  -1  -6 -27  691.28  433.52
   1  -6  27  182.64  471.77
  -1   6  27  -53.88  445.59
  -1  -6  28 -118.22  916.05
  -1   6 -28 -179.81  567.29
   1   6 -28 4609.34  643.34
  -1  -6 -28 2673.30  814.23
  -1   6  28 2886.01  791.29
   1  -6  28 3735.39  866.20
  -1  -6  29 -126.27  300.97
  -1   6 -29 -216.85  505.62
   1   6 -29  672.11  472.67
   1  -6  29 -250.00  288.11
  -1   6  29   31.94  259.34
  -1  -6  30  -47.74 1015.27
  -1   6 -30 -191.92 1009.47
   1   6 -30 4711.38  969.55
   1  -6  30 -191.53  980.66
  -1   6  30 3586.85  577.38
   1   7   0  301.47  133.65
  -1  -7   0  289.17  108.65
  -1   7   0  344.95  176.78
   1  -7   0  408.28  150.08
  -1  -7   1 8578.35  441.13
   1   7   1 9918.80  641.21
   1   7   1 9331.13  517.73
   1  -7  -1 9149.85  656.31
   1  -7  -1 9309.60  507.98
  -1   7  -1 7841.33  428.37
  -1  -7  -1 8733.56  514.48
   1   7  -1 8911.93  504.74
  -1   7   1 9491.28  544.78
   1  -7   1 8475.87  614.57
  -1  -7   2 2257.39  331.53
   1   7   2 1965.21  210.48
   1   7   2 2471.12  335.37
   1  -7  -2 2920.76  244.86
  -1   7  -2 2774.05  344.25
   1  -7  -2 2783.37  381.67
   1   7  -2 2517.04  249.61
  -1  -7  -2 1647.49  162.39
   1  -7   2 2311.54  365.35
  -1   7   2 2245.05  232.49
   1   7   3 2973.82  247.31
  -1  -7   3 2915.74  245.94
   1   7   3 3108.34  358.23
  -1   7  -3 2749.87  362.26
   1  -7  -3 2777.68  224.25
   1  -7  -3 2843.10  413.31
   1   7  -3 3685.08  391.15
  -1  -7  -3 3494.29  285.11
  -1   7   3 3600.86  257.40
   1  -7   3 2961.21  390.27
   1   7   4 2843.40  248.30
  -1  -7   4 2712.24  403.17
   1   7   4 3081.88  250.31
   1  -7  -4 3587.37  460.34
   1  -7  -4 2882.99  221.99
  -1   7  -4 3224.41  305.94
   1   7  -4 3676.53  426.80
  -1  -7  -4 2905.86  260.69
   1  -7   4 2280.36  251.40
  -1   7   4 2664.23  221.69
   1   7   568331.65 3118.54
   1   7   573945.43 3230.12
  -1   7  -573852.34 3442.14
   1  -7  -571851.52 3336.79
  -1  -7   578019.40 3716.29
   1  -7  -571065.75 3083.33
   1   7  -577024.21 3684.84
  -1  -7  -571067.72 3145.45
  -1   7   572044.34 3024.80
   1  -7   571453.24 3265.71
   1   7   629472.43 1303.82
  -1  -7   629499.03 1591.01
   1  -7  -629172.04 1250.67
   1   7   630449.24 1534.30
  -1   7  -629567.59 1459.29
   1  -7  -631768.59 1715.84
   1   7  -628575.68 1381.47
  -1  -7  -630415.05 1351.00
   1  -7   630354.84 1581.44
  -1   7   631053.22 1274.89
  -1  -7   723798.68 1412.19
   1   7   722052.18 1076.05
   1   7   723366.25 1091.10
  -1   7  -723068.27 1233.83
   1  -7  -722804.74 1090.32
   1  -7  -721970.13 1153.83
   1   7  -726315.43 1448.02
  -1  -7  -726192.88 1205.26
   1  -7   724351.28 1346.03
  -1   7   724237.79 1023.26
  -1  -7   830311.47 1676.46
   1   7   827477.37 1316.68
   1  -7  -829242.30 1319.53
   1   7   829965.06 1330.96
   1  -7  -831659.27 1355.44
  -1   7  -830615.60 1702.97
   1  -7   829195.88 1611.72
  -1  -7  -828636.74 1602.40
   1   7  -828582.39 1559.83
  -1   7   831405.62 1679.42
   1  -7  -9 3595.76  264.97
   1   7   9 4272.03  304.88
  -1  -7   9 4600.61  381.85
  -1   7  -9 3311.64  339.27
   1  -7  -9 2822.60  233.00
  -1  -7  -9 3183.74  290.61
   1   7  -9 3397.52  325.25
   1  -7   9 3617.27  328.58
  -1   7   9 3710.53  451.38
  -1  -7  10 2315.63  421.28
   1  -7 -10 1963.55  201.04
   1   7  10 2810.79  262.75
  -1   7 -10 2454.58  416.34
   1  -7 -10 2612.19  231.25
  -1  -7 -10 2839.56  274.43
   1   7 -10 3182.12  410.09
   1  -7  10 3219.61  298.77
  -1   7  10 3108.08  405.58
   1   7  1119932.80  975.18
   1  -7 -1120582.50  969.38
  -1  -7  1120739.27 1135.59
  -1   7 -1118040.69 1195.03
  -1  -7 -1121299.30 1086.22
   1   7 -1120961.39 1222.79
  -1   7  1120250.40 1178.85
   1  -7  1119508.29 1182.93
  -1  -7  1222128.85 1387.06
   1   7  1224562.59 1198.93
   1  -7 -1224681.02 1187.54
  -1   7 -1224048.50 1313.28
  -1  -7 -1225466.24 1321.72
  -1   7  1224100.91 1391.14
   1   7 -1222210.15 1351.79
   1  -7  1223501.29 1374.84
   1   7  13 5055.36  340.41
  -1  -7  13 5477.90  643.50
   1  -7 -13 5054.69  404.28
  -1   7 -13 4915.52  459.45
  -1  -7 -13 4822.96  540.66
   1   7 -13 5080.86  595.45
   1  -7  13 6375.19  490.61
  -1   7  13 5124.63  413.73
   1   7  14  675.89  209.10
  -1  -7  14  924.98  350.98
  -1   7 -14  672.96  214.38
   1  -7 -14  562.65  178.59
   1   7 -14  757.97  315.10
  -1  -7 -14  439.32  295.72
   1  -7  14  933.72  326.33
  -1   7  14  620.81  313.73
   1   7  15  341.12  205.02
   1  -7 -15  376.45  190.46
  -1  -7  15  691.88  344.87
  -1   7 -15  388.89  226.65
  -1  -7 -15  480.27  184.13
   1   7 -15  807.74  327.08
   1  -7  15  857.94  212.57
  -1   7  15  376.99  195.18
   1  -7 -16 4810.97  454.38
   1   7  16 4795.10  494.77
  -1  -7  16 4410.59  655.20
  -1   7 -16 4443.13  483.68
  -1   7  16 5352.41  608.32
   1   7 -16 7202.02  556.50
  -1  -7 -16 5011.03  617.86
   1  -7  16 4827.87  639.94
   1  -7 -17 6411.96  567.03
  -1  -7  17 6511.07  789.09
   1   7  17 5944.43  552.37
  -1   7 -17 6198.24  578.06
   1   7 -17 6022.51  529.76
  -1  -7 -17 6163.15  547.07
   1  -7  17 6805.43  745.42
  -1   7  17 5858.77  688.25
  -1  -7  18 7598.71  857.03
   1   7  18 7729.43  689.01
   1  -7 -18 9038.37  730.15
  -1   7 -18 7549.49  672.44
   1   7 -18 8620.41  893.11
  -1  -7 -18 8250.56  841.03
   1  -7  18 7876.40  655.64
  -1   7  18 8283.26  641.92
   1  -7 -19 3423.35  485.86
  -1  -7  19 4390.57  684.75
   1   7  19 3811.07  387.20
  -1   7 -19 3819.63  695.95
  -1   7  19 4027.84  476.41
   1   7 -19 4707.35  676.14
  -1  -7 -19 4275.50  648.46
   1  -7  19 3715.61  466.92
   1   7  20  489.42  298.57
  -1   7 -20  772.15  427.22
  -1  -7  20   86.48  424.64
   1  -7 -20  358.21  273.25
  -1   7  20  131.33  384.07
   1   7 -20  745.66  430.33
  -1  -7 -20  499.40  383.25
   1  -7  20  660.25  252.56
   1  -7 -21  203.58  257.28
  -1  -7  21  128.82  412.48
   1   7  21  -75.57  276.79
  -1   7 -21  456.39  405.33
   1   7 -21  213.67  370.84
  -1  -7 -21  331.83  216.52
   1  -7  21  135.23  234.15
  -1   7  21  213.91  345.84
  -1  -7  22 2867.23  519.69
   1   7  22 3139.74  544.17
   1  -7 -22 2790.49  512.77
  -1   7 -22 2655.83  479.40
   1   7 -22 4393.46  703.43
  -1  -7 -22 2843.45  451.91
   1  -7  22 4160.01  517.43
  -1   7  22 3249.96  619.98
  -1  -7  23 4043.18  582.75
   1   7  23 3343.10  588.12
  -1   7 -23 3822.36  561.00
  -1  -7 -23 2736.70  660.15
   1   7 -23 4560.67  751.02
   1  -7  23 3462.50  539.02
  -1   7  23 3049.51  705.30
   1   7  24 2925.36  592.18
  -1  -7  24 2855.15  785.64
  -1   7 -24 3012.50  838.75
  -1  -7 -24 2699.33  682.75
  -1   7  24 2900.07  700.58
   1   7 -24 3694.90  550.44
   1  -7  24 3314.63  549.43
  -1  -7  25 6873.85 1069.55
  -1   7 -25 6052.23 1055.70
  -1  -7 -25 4229.73  860.02
   1   7 -25 6185.85  748.24
   1  -7  25 4984.18  940.90
  -1   7 -26 3405.43  645.25
   1   7 -26 3475.80  827.57
  -1  -7 -26 1895.71  699.20
   1  -7  26 3787.85  809.35
  -1   7  26 2503.13  741.78
  -1  -7  27  -79.84  640.51
  -1   7 -27   -5.43  643.74
  -1   7  27 1481.86  568.27
  -1  -7 -27  714.71  533.00
   1   7 -27  462.64  623.46
   1  -7  27  274.70  617.65
  -1  -7  28  381.70  597.21
  -1   7 -28   82.39  371.32
   1   7 -28  470.36  593.83
  -1  -7 -28  286.04  497.28
   1  -7  28 -111.60  579.00
  -1   7  28  840.21  560.75
  -1  -7  29 -144.26  401.88
  -1   7 -29   11.00  662.87
  -1   7  29  811.06  562.64
   1   7 -29  847.18  397.32
   1  -7  29   62.42  388.38
  -1  -7  30  104.60  674.23
  -1   7 -30  -14.28  676.27
  -1   7  30  271.47  353.43
   1   7 -30 1106.08  661.62
   1  -7  30  -74.90  645.30
  -1   8   0 8168.88  514.29
   1  -8   0 7478.99  474.94
   1   8   0 7876.22  566.26
  -1  -8   0 6924.92  503.74
  -1   8  -154573.97 2398.13
   1   8   153256.27 2377.29
   1  -8  -154045.69 2611.87
  -1  -8   155938.25 2572.80
  -1  -8  -154076.08 2322.83
   1  -8   154222.44 2613.97
   1   8  -153169.31 2400.48
  -1   8   155372.40 2471.65
  -1   8  -2 2099.46  311.09
   1  -8  -2  995.15  200.28
  -1  -8   2 1771.29  288.70
   1   8   2 1427.47  308.63
   1  -8   2 1761.08  222.49
  -1   8   2  988.39  129.78
  -1  -8  -2 1149.77  224.15
   1   8  -2 1340.49  195.76
   1   8   329905.33 1344.89
   1  -8  -329934.09 1335.75
  -1  -8   330792.19 1559.06
  -1   8  -330128.99 1396.98
   1  -8  -330634.05 1613.41
   1  -8   330190.62 1402.13
  -1   8   330950.15 1360.60
   1   8  -328883.50 1352.62
  -1  -8  -330766.89 1393.63
  -1   8  -429176.68 1516.35
  -1  -8   429254.17 1503.65
   1   8   426179.91 1379.58
   1  -8  -424771.86 1199.83
   1  -8  -425299.44 1142.09
  -1   8   423417.13  973.11
  -1  -8  -426516.90 1212.66
   1  -8   423067.50 1130.22
   1   8  -427541.17 1290.99
   1   8   514496.38  869.59
   1  -8  -513038.28  648.88
  -1  -8   514271.30  751.45
   1  -8  -514236.72  928.83
  -1   8  -514613.37  769.15
   1  -8   513839.25  734.45
  -1   8   515043.13  699.09
  -1  -8  -514048.98  727.30
   1   8  -514598.30  911.35
   1   8   6  794.63  178.27
  -1   8  -6  976.65  197.40
  -1  -8   6  567.54  305.43
   1  -8  -6  491.13  196.28
   1  -8  -6  624.57  136.95
   1  -8   6  510.23  322.13
  -1   8   6  753.43  143.49
   1   8  -6  477.48  201.71
  -1  -8  -6  498.60  193.29
   1  -8  -7 9038.28  488.41
   1  -8  -710348.17  800.09
  -1   8  -7 9628.88  586.16
   1   8   710778.47  724.14
  -1  -8   7 9743.24  751.24
   1  -8   7 9520.51  564.75
   1   8  -7 9473.37  717.44
  -1  -8  -710814.34  604.13
  -1   8   710182.91  513.75
  -1   8  -8 9289.03  747.34
   1  -8  -8 8254.58  720.68
   1  -8  -8 7991.92  451.34
   1   8   8 7798.16  625.27
  -1  -8   8 8446.36  559.92
  -1   8   8 9462.89  487.37
   1  -8   8 9178.89  723.78
  -1  -8  -8 8969.74  550.80
   1   8  -8 9400.88  687.11
  -1   8  -9 4618.77  427.27
   1  -8  -9 3972.17  303.30
  -1  -8   9 5303.83  406.46
   1   8   9 5068.05  359.20
   1  -8  -9 5020.06  333.04
  -1   8   9 5232.07  378.40
  -1  -8  -9 5379.68  398.49
   1   8  -9 4806.39  535.59
   1  -8   9 5581.62  536.02
   1  -8 -10 6086.92  376.91
  -1   8 -10 6041.01  617.02
   1   8  10 6740.50  422.50
  -1  -8  10 5503.41  581.51
   1  -8  10 5100.68  545.24
  -1  -8 -10 6562.12  553.84
  -1   8  10 5608.04  399.68
   1   8 -10 5616.40  564.80
   1  -8 -1122585.20 1065.84
   1   8  1121586.96 1079.68
  -1  -8  1121279.48 1210.41
  -1   8 -1121474.15 1208.07
   1  -8  1121283.39 1315.28
  -1  -8 -1122319.22 1294.94
   1   8 -1121721.52 1341.71
  -1   8  1121502.35 1142.29
   1  -8 -12 6010.31  400.97
  -1  -8  12 6685.39  673.23
   1   8  12 5922.11  430.68
  -1   8 -12 5812.34  648.64
  -1   8  12 5250.49  551.26
  -1  -8 -12 5275.55  546.70
   1   8 -12 6373.11  488.65
   1  -8  12 5785.32  483.25
  -1   8 -1333675.46 2021.69
   1  -8 -1333522.73 1614.95
   1   8  1334208.90 1685.68
  -1  -8  1330918.05 1872.71
   1  -8  1333386.19 1908.83
  -1   8  1333975.67 1885.06
  -1  -8 -1334949.06 1786.56
   1   8 -1334541.86 1977.50
  -1   8 -14  853.43  366.57
   1  -8 -14  697.26  240.56
   1   8  14  286.25  211.93
  -1  -8  14  798.41  234.09
  -1  -8 -14 1143.79  306.17
   1   8 -14  435.76  208.26
   1  -8  14  922.94  343.10
  -1   8  14  514.01  196.38
  -1   8 -1534555.20 2148.57
   1  -8 -1536115.97 1803.19
   1   8  1536829.14 1918.42
  -1  -8  1532961.75 1877.08
   1  -8  1534881.60 2045.74
  -1   8  1536574.74 2077.26
  -1  -8 -1534560.81 2054.48
   1   8 -1535035.66 2038.93
   1  -8 -1612324.19  821.13
   1   8  1612608.33  733.68
  -1   8 -1610788.40  995.52
  -1  -8  1612259.72  875.09
   1  -8  1612110.36  838.92
  -1   8  1611517.22  783.39
  -1  -8 -1610404.44  760.67
   1   8 -1613005.04 1059.85
  -1  -8  1713715.88  992.92
   1   8  1714322.43  952.35
  -1   8 -1713142.92 1148.63
   1  -8 -1715608.71  975.26
  -1  -8 -1714159.88 1095.09
  -1   8  1713198.13 1067.64
   1  -8  1712404.79 1075.12
   1   8 -1714268.14  978.29
  -1   8 -18  944.26  444.65
   1   8  18  878.78  186.34
   1  -8 -18  889.45  263.72
  -1  -8  18 1328.83  300.05
   1   8 -18  615.59  278.90
  -1   8  18 1020.16  408.94
  -1  -8 -18  508.89  235.45
   1  -8  18  817.95  433.26
  -1   8 -19 -207.35  404.30
   1  -8 -19  118.15  220.79
   1   8  19  191.29  255.35
  -1  -8  19  399.64  249.62
   1  -8  19  557.41  389.47
  -1  -8 -19  511.99  333.39
  -1   8  19  453.44  217.84
   1   8 -19  367.95  388.13
  -1   8 -20 2104.70  604.36
  -1  -8  20 2621.50  424.69
   1  -8 -20 1639.73  414.30
   1   8  20 2131.97  439.47
   1   8 -20 3116.58  637.37
  -1   8  20 2690.05  397.16
  -1  -8 -20 2549.29  534.12
   1  -8  20 2110.29  381.78
   1  -8 -21  641.64  280.63
   1   8  21  272.19  285.06
  -1   8 -21  630.40  279.44
  -1  -8  21   61.21  277.96
   1  -8  21  114.20  251.92
   1   8 -21  655.99  412.09
  -1  -8 -21  315.93  380.91
  -1   8  21  320.13  370.46
  -1   8 -22  976.27  347.58
   1   8  22 1139.33  248.60
  -1  -8  22 1114.27  371.43
   1  -8  22 1236.64  346.45
  -1  -8 -22  653.74  304.96
   1   8 -22 1077.15  513.88
  -1   8  22 1357.88  487.59
   1   8  23  168.94  195.79
  -1   8 -23 -237.27  459.06
  -1  -8  23 -216.01  474.05
  -1   8  23  591.54  398.92
   1   8 -23  764.01  443.56
  -1  -8 -23  157.04  235.22
   1  -8  23  445.14  280.29
  -1  -8  24 1299.26  676.93
  -1   8 -24 1121.51  646.74
  -1   8  24  678.37  553.12
  -1  -8 -24 1053.65  527.93
   1   8 -24 2058.58  623.34
   1  -8  24 1901.61  422.20
  -1   8 -25 5811.17  794.15
  -1  -8  25 6147.90  787.02
  -1  -8 -25 4558.96  905.69
  -1   8  25 4851.08  879.58
   1   8 -25 5679.52  750.12
   1  -8  25 6195.86 1023.54
  -1  -8  26  -62.97  319.15
  -1   8 -26  -67.78  331.09
  -1  -8 -26  393.05  430.50
   1   8 -26  688.85  327.75
  -1   8  26  118.69  430.82
   1  -8  26   38.61  492.75
  -1  -8  27 -137.34  879.48
  -1   8 -27   18.57  842.90
  -1   8  27 3527.97  761.96
   1   8 -27 5185.99  955.10
   1  -8  27 2204.11  878.22
  -1  -8 -27 3218.33  769.50
  -1   8 -28 -125.19  311.48
  -1  -8  28   50.68  531.99
  -1   8  28 -298.49  447.14
   1  -8  28   80.89  492.41
   1   8 -28    5.57  483.33
  -1   8 -29 -150.11 1178.55
  -1  -8  29 7248.88  877.20
   1  -8  29 5782.26  777.92
   1   8 -29 7252.07 1274.59
  -1  -8  30  180.37  657.90
  -1   8 -30   11.19  657.91
  -1   8  30 1010.47  555.36
   1  -8  30  -62.65  384.18
   1   8 -30  137.63  370.18
  -1   9   025706.02 1157.02
   1   9   026553.96 1404.16
  -1  -9   025402.54 1143.89
   1  -9   023501.17 1157.38
  -1   9  -1 4777.35  449.12
   1   9   1 4067.95  462.19
  -1  -9   1 5270.67  464.17
   1  -9  -1 3949.26  340.43
   1  -9   1 5109.46  516.72
   1   9  -1 5122.23  513.42
  -1   9   1 4190.32  381.80
  -1  -9  -1 3445.68  264.70
   1  -9  -2 7179.25  621.06
  -1   9  -2 6949.37  550.01
   1   9   2 6297.34  401.00
  -1  -9   2 6921.96  414.46
  -1   9   2 6112.18  431.70
   1   9  -2 7226.15  578.03
   1  -9   2 7013.34  606.41
  -1  -9  -2 5852.91  341.78
   1   9   311764.59  751.67
  -1  -9   311010.49  606.37
   1  -9  -311189.92  645.56
  -1   9  -311173.91  627.58
   1  -9   312160.10  815.96
  -1  -9  -312069.91  667.42
  -1   9   310981.25  515.28
   1   9  -312981.71  835.06
   1  -9  -4 5102.63  547.44
   1   9   4 3868.41  306.43
  -1   9  -4 3909.53  467.18
  -1  -9   4 4118.29  456.50
   1  -9   4 4260.30  490.69
  -1   9   4 4422.45  329.73
  -1  -9  -4 4410.93  281.34
   1   9  -4 3988.95  335.64
   1  -9  -514682.16  982.25
  -1  -9   515946.52  865.58
  -1   9  -515954.91  855.53
   1   9   515063.27  920.46
   1  -9   511509.62  698.92
  -1   9   514095.69  695.35
   1   9  -515254.16  842.50
  -1  -9  -513657.14  754.71
   1  -9  -664023.82 3093.21
  -1   9  -664965.45 3112.96
   1   9   666522.43 3245.11
  -1  -9   663859.21 3210.27
   1  -9   665051.30 3272.43
   1   9  -661116.62 2904.64
  -1   9   666366.33 2904.91
  -1  -9  -666044.16 3042.93
  -1   9  -719800.14 1058.54
  -1  -9   720344.77 1210.01
   1  -9  -720567.42 1249.46
   1   9   719905.22  985.14
  -1   9   721991.89  990.41
   1   9  -719634.49 1161.10
  -1  -9  -719853.49  922.40
   1  -9   719107.31  991.77
  -1   9  -8 2106.99  394.69
   1  -9  -8 1686.01  420.63
  -1  -9   8 2184.02  389.73
   1   9   8 2610.64  370.14
  -1   9   8 1913.04  221.69
   1   9  -8 1773.07  365.14
   1  -9   8 1740.01  250.52
  -1  -9  -8 1695.10  261.10
   1  -9  -922441.83 1024.78
  -1  -9   928576.62 1478.85
  -1   9  -927604.76 1608.35
   1   9   924183.42 1075.26
   1  -9   926544.79 1498.66
  -1  -9  -922901.73 1230.53
   1   9  -929280.42 1612.31
  -1   9 -10 7313.48  547.25
   1  -9 -10 7562.44  462.96
  -1  -9  10 7273.58  690.19
   1   9  10 7997.48  491.91
  -1   9  10 8501.71  668.58
  -1  -9 -10 8191.17  648.56
   1  -9  10 8176.45  712.76
   1   9 -10 8077.55  688.31
   1  -9 -11 7276.09  471.02
  -1  -9  11 7846.31  699.07
   1   9  11 7030.24  478.98
  -1   9 -11 8489.20  749.57
  -1  -9 -11 7685.98  653.84
   1  -9  11 7672.11  529.01
   1   9 -11 8217.53  705.78
  -1   9  11 8316.14  668.96
   1   9  12 1217.28  225.68
   1  -9 -12  963.41  203.95
  -1  -9  12 1133.99  386.16
  -1   9 -12 1934.76  412.84
   1  -9  12 1230.45  241.29
  -1   9  12 1286.53  348.63
  -1  -9 -12 1432.01  329.98
   1   9 -12 1677.67  254.20
  -1   9 -13 2984.64  354.66
  -1  -9  13 3276.91  374.25
   1  -9 -13 1929.41  266.92
   1   9  13 2590.71  325.36
   1  -9  13 3948.65  508.70
   1   9 -13 2913.09  487.48
  -1  -9 -13 2735.62  422.56
  -1   9  13 2667.02  308.25
   1  -9 -14 3612.82  371.41
  -1   9 -14 4553.41  469.44
   1   9  14 4937.26  453.08
  -1  -9  14 3788.88  606.30
   1  -9  14 5199.00  457.12
  -1   9  14 4469.75  543.91
   1   9 -14 4316.91  432.73
  -1  -9 -14 4266.11  549.62
  -1   9 -15 3316.61  425.34
   1   9  15 4303.40  427.20
  -1  -9  15 3559.18  612.08
   1  -9 -15 3321.52  364.64
  -1   9  15 3529.43  373.65
   1   9 -15 4130.99  584.80
  -1  -9 -15 3869.64  387.46
   1  -9  15 3673.25  575.39
   1  -9 -16 6016.94  509.31
  -1   9 -16 5353.15  731.81
   1   9  16 5809.95  537.83
  -1  -9  16 5707.42  744.59
  -1   9  16 6234.22  692.98
  -1  -9 -16 6414.41  688.01
   1  -9  16 5861.94  531.44
   1   9 -16 5861.66  728.33
   1  -9 -17  909.33  258.99
   1   9  17 1228.15  295.98
  -1  -9  17 1340.20  474.75
  -1   9 -17  948.83  458.10
  -1   9  17 1093.25  264.73
   1  -9  17  764.51  278.42
   1   9 -17  907.11  304.63
  -1  -9 -17  668.75  243.37
  -1   9 -1825418.49 1896.15
   1  -9 -1822239.11 1369.54
   1   9  1822272.84 1430.44
  -1  -9  1822733.66 1704.96
  -1   9  1824256.89 1638.75
   1  -9  1824411.52 1695.71
  -1  -9 -1822407.91 1571.05
   1   9 -1822819.00 1420.51
  -1  -9  19 1276.10  498.57
   1  -9 -19  908.12  302.92
  -1   9 -19 1002.42  324.38
   1   9  19  989.86  311.10
  -1   9  19  482.93  418.48
  -1  -9 -19  971.45  259.73
   1   9 -19 1040.70  471.55
   1  -9  19  755.17  452.04
  -1  -9  20 4280.93  788.04
   1   9  20 3932.23  542.65
  -1   9 -20 4536.98  570.99
   1  -9 -20 3654.76  515.49
  -1   9  20 4165.40  493.62
  -1  -9 -20 4023.08  671.21
   1  -9  20 3589.61  675.88
   1   9 -20 3753.12  704.93
  -1   9 -21 1816.14  397.80
   1   9  21 1185.59  384.22
  -1  -9  21 1067.57  584.15
   1  -9  21 1083.00  336.97
  -1  -9 -21  861.55  458.90
   1   9 -21 1839.01  564.30
  -1   9  21 2227.26  344.27
  -1   9 -22  361.95  525.96
   1   9  22  267.41  329.91
  -1  -9  22  700.66  543.67
  -1   9  22 1233.44  469.19
  -1  -9 -22 1153.79  447.91
   1   9 -22  326.40  475.84
   1  -9  22  602.56  310.83
  -1   9 -23 1818.27  700.73
   1   9  23 2011.99  493.41
  -1  -9  23 2293.13  749.30
   1  -9  23 2431.23  424.53
  -1   9  23 1860.76  555.42
  -1  -9 -23 1254.47  343.81
   1   9 -23 2655.27  661.09
  -1   9 -24 3946.28  900.89
  -1  -9  24 4908.67  911.47
   1  -9  24 3771.52  588.27
  -1   9  24 2809.42  699.65
   1   9 -24 4206.54  884.35
  -1  -9 -24 4461.83  760.94
  -1   9 -25 5551.00  711.07
  -1  -9  25 5581.94  724.08
   1  -9  25 6752.68 1056.52
  -1   9  25 6522.85  962.06
   1   9 -25 8966.15 1162.22
  -1  -9 -25 4506.05  860.69
  -1  -9  26 -171.33  442.63
  -1   9 -26   89.72  423.37
  -1   9  26 1626.81  592.30
  -1  -9 -26 1796.12  585.15
   1   9 -26 1715.93  468.60
   1  -9  26 1220.41  668.83
  -1  -9  27  -28.36  681.95
  -1   9 -27  -94.10  663.09
   1  -9  27 1584.57  661.36
   1   9 -27   31.45  416.15
  -1   9  27 1507.42  568.64
  -1   9 -28   27.03  449.83
  -1  -9  28 -119.43  456.32
   1   9 -28  108.77  423.87
   1  -9  28  -58.42  439.73
  -1   9  28  -51.87  389.25
  -1   9 -29   47.18  352.70
  -1  -9  29 -105.41  359.42
  -1   9  29  727.08  492.02
   1  -9  29  -40.66  553.28
   1   9 -29   53.53  552.65
   1 -10   0107822.9 5119.40
  -1 -10   0113198.0 5388.09
  -1  10   0114335.6 5464.53
   1  10   0109183.6 5320.66
  -1  10  -1  285.10  146.43
   1 -10  -1  505.14  167.35
  -1 -10   1  311.31  236.59
   1  10   1  421.25  273.32
   1  10  -1  485.42  277.27
  -1  10   1  423.90  214.35
  -1 -10  -1  348.30  238.42
   1 -10   1  339.75  169.19
   1 -10  -235755.32 1721.54
  -1 -10   236808.78 1867.39
  -1  10  -238928.81 1933.69
   1  10   236212.46 1827.23
   1 -10   236341.25 1742.37
   1  10  -236872.69 1902.88
  -1 -10  -238444.80 1842.36
  -1  10   238064.82 1789.12
   1 -10  -3 5483.43  530.16
   1  10   3 4636.97  345.31
  -1 -10   3 4930.62  364.43
  -1  10  -3 5537.56  520.32
  -1 -10  -3 5426.55  426.93
   1 -10   3 5447.26  406.35
   1  10  -3 5135.31  389.62
  -1  10   3 4723.32  393.35
  -1 -10   415182.90  809.53
   1 -10  -415697.43 1020.21
  -1  10  -415741.94  844.99
   1  10   416327.98  814.78
   1  10  -415860.28 1002.18
  -1 -10  -415964.40  859.13
  -1  10   416728.00  840.61
   1 -10   417151.61 1079.30
   1  10   546317.80 2316.44
  -1 -10   546775.70 2409.66
   1 -10  -544715.23 2393.59
  -1  10  -545690.58 2207.61
  -1  10   543268.59 1860.15
  -1 -10  -541623.47 1864.86
   1 -10   545410.70 2176.51
   1  10  -543722.18 2115.53
   1  10   6 3108.45  417.47
  -1  10  -6 3179.61  460.65
   1 -10  -6 2447.62  306.28
  -1 -10  -6 2754.12  334.22
   1  10  -6 2203.09  432.62
   1 -10   6 3781.94  496.62
  -1  10   6 2857.04  288.72
   1 -10  -7 7180.50  520.78
  -1  10  -7 7279.20  523.86
  -1 -10   7 7838.56  714.23
   1  10   7 7467.96  487.28
  -1  10   7 8014.54  485.69
   1 -10   7 8202.93  571.06
   1  10  -7 7523.89  712.08
  -1 -10  -7 7597.31  545.47
  -1 -10   8 7163.97  648.32
  -1  10  -8 6997.28  535.15
   1  10   8 6727.10  458.06
   1 -10  -8 6361.52  655.88
   1  10  -8 7570.94  672.95
  -1  10   8 6744.23  444.93
  -1 -10  -8 6365.24  499.67
   1 -10   8 6784.81  481.30
  -1  10  -9  807.03  364.53
   1  10   9  517.55  295.19
  -1 -10   9  720.99  343.67
   1 -10  -9  -42.84  344.81
  -1 -10  -9  635.21  239.58
   1 -10   9 1553.93  243.25
  -1  10   9  804.40  197.22
   1  10  -9 1365.87  339.28
   1  10  10 6526.56  454.77
  -1 -10  10 5511.59  470.46
  -1  10 -10 5787.97  471.54
   1 -10 -10 6968.65  447.25
   1 -10  10 6029.96  468.69
  -1  10  10 6334.43  586.75
   1  10 -10 5650.23  578.81
  -1 -10 -10 7177.06  612.89
  -1 -10  11 3298.63  508.28
  -1  10 -11 4418.79  548.69
   1 -10 -11 3332.50  365.88
   1  10  11 2881.82  327.64
   1 -10  11 2826.62  326.78
  -1 -10 -11 3459.77  454.36
   1  10 -11 3704.41  351.48
  -1  10  11 2752.97  314.23
  -1  10 -1231050.76 1732.50
   1  10  1229303.64 1478.30
   1 -10 -1230238.00 1472.02
  -1 -10  1229050.60 1613.22
  -1 -10 -1229395.65 1704.71
   1 -10  1229259.27 1737.27
   1  10 -1229368.99 1584.21
  -1  10  1230767.88 1590.00
  -1  10 -13 2462.86  495.81
   1  10  13 2170.99  303.23
  -1 -10  13 2591.50  492.52
   1 -10 -13 1613.14  256.49
   1 -10  13 1898.64  438.06
  -1  10  13 2376.25  418.13
  -1 -10 -13 2091.91  276.14
   1  10 -13 2820.82  463.44
   1 -10 -1415753.40  893.56
  -1 -10  1413852.26 1118.27
   1  10  1413967.19  872.50
  -1  10 -1415755.46 1205.63
   1 -10  1414566.87  929.70
   1  10 -1415951.33  997.51
  -1 -10 -1416413.34 1001.61
  -1  10  1416111.06 1116.82
  -1  10 -15 2589.34  539.10
   1  10  15 2221.14  343.60
   1 -10 -15 2164.18  300.38
  -1 -10  15 1712.09  341.72
  -1  10  15 2693.96  467.39
  -1 -10 -15 2704.13  449.40
   1 -10  15 2222.89  502.63
   1  10 -15 2078.60  504.30
  -1  10 -1613809.73  992.90
   1 -10 -1613744.59  882.08
   1  10  1613207.51  885.58
  -1 -10  1613292.49  961.42
   1 -10  1615220.34 1176.49
   1  10 -1614085.87 1137.81
  -1  10  1612957.46 1035.04
  -1 -10 -1612910.36 1026.42
  -1  10 -17 5589.92  619.79
   1  10  17 5607.00  566.61
  -1 -10  17 4960.66  773.41
   1 -10 -17 4728.78  501.49
   1 -10  17 5150.08  543.63
  -1  10  17 6561.24  721.91
  -1 -10 -17 5102.88  670.72
   1  10 -17 5617.47  566.09
   1 -10 -18 5849.49  589.08
  -1 -10  18 4954.09  772.64
   1  10  18 4973.72  551.38
  -1  10 -18 5901.41  620.51
   1 -10  18 5534.22  769.93
   1  10 -18 5410.55  569.75
  -1 -10 -18 5557.07  703.71
  -1  10  18 5673.92  707.61
   1 -10 -19 3563.07  498.23
   1  10  19 4664.32  551.94
  -1 -10  19 4420.17  772.65
  -1  10 -19 5298.35  631.05
   1  10 -19 5187.28  752.22
  -1 -10 -19 4506.89  674.21
  -1  10 -20   65.56  287.56
   1  10  20  265.46  271.22
  -1 -10  20  449.68  470.54
   1 -10  20  595.75  435.72
  -1  10  20  667.80  372.20
   1  10 -20 -100.12  431.85
  -1 -10 -20  813.68  360.86
  -1  10 -21 1218.62  617.77
  -1 -10  21 1666.27  602.60
   1  10  21 1354.37  266.99
  -1  10  21 1168.73  326.44
   1 -10  21  710.88  551.38
   1  10 -21 2047.84  579.57
  -1 -10 -21 1058.17  476.48
   1  10  22  973.47  386.35
  -1 -10  22 1906.66  620.21
  -1  10 -22  879.94  614.58
  -1  10  22 1298.88  521.74
  -1 -10 -22 1222.28  471.59
   1  10 -22 1640.79  592.75
   1 -10  22 1282.64  389.43
  -1 -10  23  231.20  357.64
  -1  10 -23  103.48  345.53
  -1 -10 -23  -39.06  169.79
  -1  10  23  -96.04  285.65
   1  10 -23  307.87  329.24
   1 -10  23  -77.03  201.55
  -1  10 -24 1401.97  648.92
  -1 -10  24  859.47  395.80
   1 -10  24  606.87  373.59
   1  10 -24 1331.32  611.99
  -1 -10 -24 1066.62  506.73
  -1  10  24  516.18  509.04
  -1  10 -25 1183.80  401.26
  -1 -10  25   -1.25  385.78
   1  10 -25  749.04  605.27
  -1 -10 -25  435.01  494.49
   1 -10  25 1243.35  424.78
  -1  10  25 1384.54  542.67
  -1  10 -26 -209.73  449.17
  -1 -10  26  135.56  681.24
   1 -10  26 2195.74  692.36
   1  10 -26  -40.89  665.70
  -1  10  26 2367.37  607.67
  -1  10 -27  237.76  518.93
  -1 -10  27 -227.92  517.29
   1 -10  27  294.23  494.64
   1  10 -27  -33.16  297.28
  -1  10  27  324.40  435.43
  -1  10 -28  -50.56  972.48
  -1 -10  28 2897.23 1036.64
  -1  10  28 2959.63  775.83
   1  10 -28 4216.29  711.31
  -1 -10  29  167.16  327.33
  -1  10 -29  -86.78  326.81
   1 -10  29   35.34  517.53
   1  10 -29   28.93  501.12
  -1 -11   0 1196.08  331.62
   1 -11   0  541.30  222.68
   1  11   0 2926.71  383.60
  -1  11   0  687.98  323.04
   1 -11  -1 7907.19  545.37
  -1  11  -1 9818.81  705.47
   1  11   1 9637.67  716.62
  -1 -11   1 8007.44  502.75
  -1  11   1 9202.58  628.94
  -1 -11  -1 9199.99  643.77
   1  11  -1 8832.53  560.91
   1 -11   1 8167.49  540.97
   1  11   218294.36 1067.41
   1 -11  -216489.43  889.32
  -1  11  -216835.94 1020.65
  -1 -11   217722.44  905.18
   1 -11   217077.96 1075.57
   1  11  -217222.42  904.58
  -1 -11  -216306.30  801.67
  -1  11   218442.47  977.84
   1 -11  -318829.26 1021.41
  -1 -11   322426.45 1284.35
   1  11   320892.26 1201.15
  -1  11  -319656.32 1016.95
  -1 -11  -320256.79 1094.71
  -1  11   320219.51 1048.47
   1  11  -319819.80 1212.26
   1 -11   321290.01 1270.74
   1 -11  -4 4283.76  376.86
  -1 -11   4 4986.02  510.04
  -1  11  -4 4169.58  512.97
   1  11   4 5128.57  497.23
  -1  11   4 3488.40  354.13
   1  11  -4 3410.32  334.09
  -1 -11  -4 3809.38  398.58
   1 -11   4 3880.38  376.00
   1 -11  -5 5157.03  416.18
   1  11   5 4507.08  483.33
  -1 -11   5 4798.83  538.48
  -1  11  -5 4406.14  516.39
  -1  11   5 5090.34  388.43
   1 -11   5 4374.51  545.07
   1  11  -5 6011.28  565.36
  -1 -11  -5 4866.69  422.41
  -1  11  -6 8186.04  706.68
   1 -11  -6 8859.38  760.05
   1  11   6 9076.62  549.29
  -1 -11   6 9620.82  615.46
   1 -11   6 9369.03  753.71
   1  11  -6 9325.30  752.63
  -1 -11  -6 9428.15  623.64
  -1  11   6 8957.90  540.32
  -1  11  -7 8887.07  766.72
  -1 -11   7 8367.70  560.83
   1  11   7 7910.81  507.01
   1 -11  -7 9023.05  768.04
   1 -11   7 7971.80  556.90
  -1  11   7 9777.83  570.88
  -1 -11  -7 8574.44  593.60
   1  11  -7 9228.80  744.87
  -1  11  -850157.46 2794.12
   1 -11  -852246.06 2852.20
  -1 -11   850623.12 2587.26
   1  11   852385.05 2513.03
   1  11  -852262.94 2792.99
   1 -11   851990.77 2581.99
  -1 -11  -853692.16 2613.33
  -1  11   856009.09 2550.32
   1 -11  -927537.90 1722.08
   1  11   926358.13 1352.97
  -1  11  -927463.66 1535.03
  -1 -11   928662.35 1711.54
  -1  11   927917.02 1346.32
   1  11  -929902.97 1764.89
  -1 -11  -928291.81 1487.54
   1 -11   925243.75 1374.76
   1 -11 -1022247.15 1295.72
  -1 -11  1026214.44 1616.50
  -1  11 -1025554.32 1631.16
   1  11  1023779.95 1232.97
  -1  11  1023079.55 1189.88
   1 -11  1024112.32 1339.93
   1  11 -1023970.62 1500.27
  -1  11 -11 4352.01  461.98
  -1 -11  11 5740.06  504.08
   1  11  11 5690.44  457.98
   1 -11 -11 5302.97  426.51
  -1  11  11 6526.61  492.28
  -1 -11 -11 5774.83  593.52
   1  11 -11 5351.00  474.09
   1 -11  11 5617.03  635.30
  -1 -11  1211875.36  997.86
  -1  11 -1210360.61  944.03
   1  11  1212025.60  738.93
   1 -11 -1211250.79  703.56
   1 -11  1211570.96  926.18
  -1 -11 -1211387.61  747.05
   1  11 -1212725.52  790.47
  -1  11  1211108.42  857.94
   1  11  13 3318.12  376.47
  -1 -11  13 4017.26  447.43
   1 -11 -13 3187.06  357.45
  -1  11 -13 2921.78  394.33
  -1 -11 -13 3857.42  366.50
   1  11 -13 3641.40  550.29
   1 -11  13 3163.54  380.52
  -1  11  13 2190.10  476.68
  -1  11 -14  150.88  201.02
   1  11  14  198.36  184.71
  -1 -11  14  230.30  309.47
   1 -11 -14  137.41  146.19
  -1 -11 -14  154.77  254.04
  -1  11  14  220.57  164.13
   1  11 -14   42.06  179.19
   1 -11  14 -137.65  302.47
   1  11  15 1388.44  287.47
  -1  11 -15 1766.15  503.21
  -1 -11  15 1757.10  473.97
   1 -11 -15  776.34  241.71
   1  11 -15 2151.24  465.90
  -1  11  15 1026.59  396.20
  -1 -11 -15 1131.45  383.57
   1 -11  15 1391.80  298.33
  -1 -11  16 4860.05  512.90
   1  11  16 4395.27  467.30
   1 -11 -16 4799.50  464.92
  -1  11 -16 4126.09  705.13
  -1  11  16 4481.97  621.08
  -1 -11 -16 2894.01  384.04
   1  11 -16 4263.56  653.84
   1 -11  16 3590.47  634.09
  -1  11 -17 1913.86  554.69
  -1 -11  17 1803.41  367.22
   1 -11 -17 1410.01  300.51
  -1 -11 -17 1873.90  433.00
   1  11 -17 1551.79  358.26
  -1  11  17 2024.65  491.58
   1 -11  17 1703.28  337.07
   1 -11 -18 2567.03  387.44
  -1 -11  18 2535.22  397.34
   1  11  18 2257.89  380.84
  -1  11 -18 3061.38  658.89
  -1 -11 -18 3161.12  544.14
   1  11 -18 2633.50  422.25
  -1  11  18 3095.37  414.37
   1 -11  18 2844.68  631.05
  -1 -11  1916484.24 1265.56
   1  11  1915076.65 1122.02
  -1  11 -1916630.10 1501.41
   1  11 -1915790.07 1373.78
  -1  11  1914691.38 1252.08
  -1 -11 -1914340.79 1239.12
   1 -11  1917401.16 1438.35
  -1 -11  2013787.08 1398.66
   1  11  2013329.21 1054.28
  -1  11 -2017062.67 1545.61
  -1  11  2014073.49 1201.73
   1  11 -2013900.30 1326.51
  -1 -11 -2014869.26 1073.07
   1 -11  2013794.42 1323.22
  -1  11 -21 3292.21  731.00
   1  11  21 1679.02  425.93
  -1 -11  21 2223.77  459.80
  -1 -11 -21 1688.77  568.66
  -1  11  21 2736.58  407.50
   1 -11  21 2086.03  641.44
   1  11 -21 2022.41  666.75
  -1 -11  2212717.13 1122.03
  -1  11 -2212911.76 1442.51
  -1  11  2210131.69 1095.48
  -1 -11 -2212724.84 1225.78
   1 -11  2212403.58 1069.65
   1  11 -2214577.01 1380.27
  -1  11 -23 2290.58  730.78
  -1 -11  23 2041.97  483.62
   1  11 -23 2098.28  733.42
  -1  11  23 1472.43  575.94
  -1 -11 -23 1906.12  392.97
   1 -11  23 1544.22  488.24
  -1 -11  24 2858.83  538.23
  -1  11 -24 3719.32  865.97
  -1  11  24 3386.97  690.82
  -1 -11 -24 2482.31  707.13
   1 -11  24 3554.28  605.50
   1  11 -24 3085.54  838.47
  -1 -11  25 1945.30  462.71
  -1  11 -25 1647.19  477.57
  -1  11  25 1582.77  565.40
   1 -11  25   -2.78  449.70
   1  11 -25   33.19  681.66
  -1 -11 -25 1818.53  574.51
  -1  11 -26  -66.41  358.76
  -1 -11  26  922.95  580.79
  -1  11  26  789.96  464.29
   1  11 -26   -6.13  551.66
   1 -11  26    7.33  359.47
  -1  11 -27  -70.42  508.33
  -1 -11  27 -293.19  497.17
  -1  11  27  -15.66  250.33
   1  11 -27  -90.83  493.70
   1 -11  27  -18.83  483.03
  -1  11 -28 -144.89  580.28
  -1 -11  28  -22.50  561.86
  -1  11  28  287.80  272.82
   1 -11  28 -105.46  538.94
   1  11 -28  -29.89  338.25
   1 -12   0 6470.61  629.94
  -1  12   0 6332.85  551.52
  -1 -12   0 6520.30  564.79
   1  12   0 6530.44  442.20
   1 -12  -146194.70 2263.81
   1  12   146906.99 2401.49
  -1 -12   146443.67 2350.26
  -1  12  -147624.75 2380.10
  -1  12   146336.09 2260.23
   1  12  -145189.22 2191.94
  -1 -12  -148453.11 2370.48
   1 -12   144815.68 2397.97
  -1  12  -2 9388.06  578.66
   1  12   2 9958.19  733.63
   1 -12  -2 9191.86  608.95
  -1 -12   210356.55  763.98
  -1 -12  -211178.42  725.71
  -1  12   210514.89  666.43
   1  12  -211182.69  832.46
   1 -12   210064.44  632.22
   1 -12  -317138.63 1107.81
  -1 -12   317932.17 1112.00
   1  12   316578.30 1044.10
  -1  12  -317474.25 1098.59
   1  12  -316659.58  913.70
  -1 -12  -316635.61  838.58
   1 -12   317370.42 1117.93
  -1  12   318246.51  988.30
  -1  12  -4 2908.14  298.05
   1  12   4 3778.24  438.25
   1 -12  -4 2533.42  453.82
  -1 -12   4 2600.11  300.63
  -1 -12  -4 2954.47  360.53
  -1  12   4 2688.54  331.80
   1 -12   4 2522.80  308.76
   1  12  -4 2776.43  439.10
   1 -12  -511656.97  908.43
   1  12   511890.77  841.97
  -1 -12   511535.35  713.26
  -1  12  -511145.83  686.55
  -1 -12  -511595.69  731.15
   1  12  -511697.02  858.88
  -1  12   512194.20  706.32
   1 -12   512128.98  888.63
   1  12   6 4106.45  472.02
   1 -12  -6 3739.65  552.05
  -1 -12   6 4785.02  547.75
  -1  12  -6 4067.29  385.46
   1  12  -6 4262.55  536.10
  -1 -12  -6 3211.12  281.92
  -1  12   6 4529.15  386.39
   1 -12   6 4145.04  388.13
  -1  12  -7 5068.82  433.07
   1  12   7 4245.53  505.96
  -1 -12   7 4469.34  542.10
   1 -12  -7 4590.33  577.27
  -1 -12  -7 4434.43  456.38
   1  12  -7 4534.65  416.28
  -1  12   7 4204.28  387.10
   1 -12   7 4307.42  412.22
  -1 -12   8 1125.72  416.11
   1  12   8 2484.28  419.16
  -1  12  -8 1296.48  277.96
   1  12  -8 1619.31  275.78
   1 -12   8 1329.99  264.75
  -1 -12  -8 1203.21  335.19
  -1  12   8 1800.55  282.47
  -1  12  -919179.54 1337.27
   1 -12  -921028.25 1424.20
  -1 -12   920855.46 1208.89
   1  12   918199.43 1187.83
  -1 -12  -920411.88 1177.63
  -1  12   919385.49 1043.09
   1  12  -919230.77 1290.49
   1 -12   919448.79 1137.60
  -1  12 -1020953.45 1434.85
   1 -12 -1021942.03 1474.05
   1  12  1021179.92 1143.22
  -1 -12  1021424.09 1267.23
   1 -12  1021336.08 1212.32
  -1 -12 -1021597.81 1252.46
   1  12 -1020622.38 1381.94
  -1  12  1022340.55 1145.07
   1  12  11 3529.27  377.95
  -1 -12  11 2478.86  532.24
   1 -12 -11 3227.50  350.34
  -1  12 -11 1740.21  525.94
  -1  12  11 3707.77  351.10
   1  12 -11 3428.74  384.69
  -1 -12 -11 4059.62  497.72
   1 -12  11 3082.50  528.65
   1  12  12 4114.54  415.83
  -1 -12  12 4013.61  436.05
  -1  12 -12 4459.05  470.02
   1 -12 -12 4092.00  396.10
   1 -12  12 4514.64  611.00
  -1  12  12 4429.93  561.56
  -1 -12 -12 3819.40  391.90
   1  12 -12 3646.59  416.36
   1 -12 -1313631.90  830.72
   1  12  1313913.88  751.23
  -1  12 -1313538.53 1183.52
  -1 -12  1314002.94 1148.16
  -1  12  1314462.84 1063.22
   1  12 -1312950.98 1056.02
  -1 -12 -1315085.44 1066.49
   1 -12  1312701.27  881.61
   1 -12 -14 1589.60  280.74
  -1 -12  14 2147.28  341.24
   1  12  14 1999.68  325.46
  -1  12 -14 2199.26  333.42
  -1  12  14 2186.16  317.17
  -1 -12 -14 1673.19  424.49
   1 -12  14 1624.84  493.54
   1  12 -14 2298.45  349.31
   1  12  1512057.74  830.50
  -1  12 -1510529.93  852.10
  -1 -12  1510628.89  880.58
   1 -12 -1511295.32  769.45
  -1 -12 -1512087.31  999.31
   1 -12  1512886.50  901.78
   1  12 -1510916.39 1021.31
  -1  12  1512807.91 1008.44
   1 -12 -16  204.79  193.78
  -1 -12  16  418.96  390.91
   1  12  16  378.14  227.48
  -1  12 -16  633.91  399.95
  -1  12  16  141.20  340.63
   1 -12  16  215.07  375.58
  -1 -12 -16  144.55  194.61
   1  12 -16  260.80  369.37
   1 -12 -17 6901.76  613.60
  -1 -12  17 6239.98  901.32
  -1  12 -17 7593.75  968.90
   1  12  17 6838.27  624.45
  -1 -12 -17 7123.80  777.41
   1  12 -17 7492.92  693.27
   1 -12  17 7014.44  652.82
  -1  12  17 7960.94  822.58
   1  12  18  865.62  302.38
  -1 -12  18  320.94  312.28
  -1  12 -18 1048.72  486.81
   1 -12  18 1330.55  317.55
  -1  12  18  707.82  259.70
   1  12 -18  721.42  293.62
  -1 -12 -18  369.94  233.86
  -1  12 -1911890.83 1235.85
  -1 -12  1910101.57  905.61
   1  12  19 9541.04  817.66
   1 -12  19 9886.56 1095.90
   1  12 -1911174.23 1140.97
  -1 -12 -19 8612.40  932.01
  -1  12  19 9557.78  979.85
   1  12  20 2223.09  326.09
  -1  12 -20 2343.90  703.08
  -1 -12  20 2765.32  442.54
  -1  12  20 2528.02  565.43
   1  12 -20  839.48  659.61
   1 -12  20 2832.79  666.18
  -1 -12 -20 2070.05  366.91
  -1 -12  21 4139.73  638.10
  -1  12 -21 6232.53  958.37
  -1  12  21 4312.52  511.56
   1 -12  21 5187.76  900.51
   1  12 -21 6132.10  902.69
  -1 -12 -21 3444.24  681.08
  -1 -12  22 2949.64  525.90
  -1  12 -22 2357.67  796.99
   1 -12  22 2917.58  512.43
  -1 -12 -22 2491.44  447.94
   1  12 -22 1988.22  768.76
  -1  12  22 2355.06  613.26
  -1  12 -23  338.11  561.37
  -1 -12  23  726.42  349.34
  -1  12  23  213.62  449.47
   1  12 -23  564.37  551.65
  -1 -12 -23  409.94  430.65
   1 -12  23  786.36  377.41
  -1  12 -24  527.09  330.44
  -1 -12  24  273.91  327.06
  -1  12  24  405.60  418.08
  -1 -12 -24  149.16  404.70
   1  12 -24  -36.54  496.40
   1 -12  24  -78.58  317.00
  -1  12 -25  647.94  369.95
  -1 -12  25  506.49  605.83
  -1  12  25  560.03  303.59
   1  12 -25  -11.88  571.75
   1 -12  25   46.86  353.34
  -1  12 -26   23.52  334.82
  -1 -12  26  586.39  557.58
  -1  12  26  260.56  261.82
   1  12 -26   15.12  545.23
   1 -12  26  -12.41  333.48
  -1  12 -27 -229.34  810.37
  -1 -12  27 1052.25  801.24
  -1  12  27 2020.77  411.45
   1  12 -27  -65.90  770.27
   1 -12  27  -12.57  506.62
  -1 -12  28 -198.38  527.43
  -1  12 -28 -123.63  548.05
   1 -12  28   20.25  524.06
   1  12 -28   56.15  520.00
  -1  13   0  330.47  235.69
   1  13   0  358.03  169.45
  -1 -13   0  283.13  162.15
   1  13   1 3627.58  488.54
  -1  13  -1 3977.91  454.56
   1 -13  -1 3956.45  371.34
  -1 -13   1 3818.01  472.55
   1  13  -1 4620.34  511.41
   1 -13   1 3712.77  370.76
  -1 -13  -1 4203.36  343.80
  -1  13   1 4464.81  448.71
  -1  13  -2 3157.39  313.15
   1 -13  -2 3769.72  353.98
  -1 -13   2 3110.41  454.79
   1  13   2 3825.46  463.61
   1  13  -2 2696.60  317.27
   1 -13   2 3377.45  495.63
  -1 -13  -2 3380.00  420.31
  -1  13   2 3759.45  402.29
  -1 -13   3 6687.02  485.98
   1 -13  -3 6305.67  655.34
   1  13   3 6661.76  452.74
  -1  13  -3 5788.80  578.20
  -1  13   3 5930.82  496.71
  -1 -13  -3 6238.37  543.41
   1  13  -3 6300.76  635.62
   1 -13   3 6400.27  502.23
  -1  13  -4 2692.09  441.01
  -1 -13   4 3547.24  470.65
   1  13   4 2444.14  281.47
   1 -13  -4 3348.36  494.13
  -1 -13  -4 3080.16  391.37
   1  13  -4 3161.40  464.39
  -1  13   4 2731.21  242.74
   1 -13   4 3296.66  481.37
   1  13   516237.31  879.99
  -1  13  -517112.74 1117.61
  -1 -13   516362.65  947.51
   1 -13  -517259.30 1153.66
   1  13  -516238.03  937.62
   1 -13   516601.14 1132.95
  -1  13   517646.82  956.47
  -1 -13  -516645.82  983.13
   1  13   6 7320.44  658.46
   1 -13  -6 6320.08  704.06
  -1  13  -6 6699.87  519.95
  -1 -13   6 6784.62  532.75
  -1  13   6 7707.85  544.61
   1  13  -6 7915.84  578.76
  -1 -13  -6 8074.65  608.71
   1 -13   6 7589.05  564.12
   1 -13  -731454.12 1733.37
  -1 -13   732339.38 1721.64
  -1  13  -733338.74 1953.75
   1  13   732166.42 1809.98
  -1  13   733570.56 1655.94
   1  13  -731556.72 1673.63
  -1 -13  -732519.58 1737.11
   1 -13   730946.73 1671.20
   1  13   8 6897.15  622.93
  -1  13  -8 5866.31  681.71
  -1 -13   8 4545.28  452.54
   1 -13  -8 6292.31  535.86
   1  13  -8 6168.60  500.25
  -1  13   8 6336.34  494.81
   1 -13   8 6884.86  547.89
  -1 -13  -8 6807.14  579.86
   1  13   928791.69 1659.74
  -1 -13   926677.87 1675.82
   1 -13  -927728.36 1772.23
  -1  13  -924488.31 1607.65
   1 -13   928806.93 1554.40
  -1 -13  -928768.78 1602.97
  -1  13   929979.43 1510.65
   1  13  -924040.64 1391.07
  -1 -13  1020280.04 1409.62
  -1  13 -1022817.43 1339.45
   1  13  1021120.27 1329.31
   1 -13 -1022301.09 1531.31
   1 -13  1020838.45 1224.08
   1  13 -1022276.02 1458.22
  -1  13  1020650.07 1138.64
  -1 -13 -1021439.20 1290.05
  -1 -13  11 5573.64  506.38
  -1  13 -11 5200.75  698.74
   1  13 -11 5710.10  686.32
   1 -13  11 5254.70  662.93
  -1  13  11 5527.30  364.85
   1 -13 -12  920.94  249.89
  -1 -13  12  688.59  453.87
   1  13  12 1059.58  297.00
  -1  13 -12 1159.81  281.32
  -1  13  12 1717.35  271.67
   1  13 -12  810.79  279.06
   1 -13  12 1145.04  452.29
  -1 -13 -12 1433.12  271.87
   1 -13 -13 3524.99  408.81
  -1  13 -13 3190.87  631.77
   1  13  13 4078.28  443.86
  -1 -13  13 3760.33  463.48
   1 -13  13 3665.92  430.41
  -1  13  13 3714.93  558.70
  -1 -13 -13 4543.60  442.87
   1  13 -13 3957.32  625.49
   1  13  14  891.44  284.82
  -1 -13  14  647.08  455.02
  -1  13 -14  688.95  462.67
   1 -13 -14  597.07  238.13
  -1  13  14  715.98  397.99
  -1 -13 -14 1563.61  398.98
   1  13 -14 1060.34  267.43
   1 -13  14  865.23  441.77
   1 -13 -15 1294.63  308.10
   1  13  15 1524.82  236.03
  -1 -13  15 2432.60  359.90
  -1  13 -15 2108.52  382.94
   1 -13  15 1815.28  351.02
  -1 -13 -15 1565.73  442.10
  -1  13  15 2070.04  488.00
   1  13 -15 2756.38  525.44
   1 -13 -16  564.20  224.08
   1  13  16  476.22  267.69
  -1 -13  16  520.78  279.73
  -1  13 -16  552.22  276.69
   1 -13  16  941.44  440.50
  -1 -13 -16  444.64  239.03
  -1  13  16  504.74  387.60
   1  13 -16  941.20  437.00
  -1 -13  17 1314.47  550.05
  -1  13 -17 1347.90  369.92
   1  13  17 1579.04  357.32
  -1  13  17 1662.39  477.28
  -1 -13 -17 1746.36  456.11
   1 -13  17 1597.49  365.73
   1  13 -17 1485.14  354.73
  -1  13 -18 1244.35  524.69
   1  13  18  450.89  303.27
  -1 -13  18  296.05  494.20
   1  13 -18 1225.72  505.15
   1 -13  18  626.66  311.47
  -1 -13 -18  421.61  372.23
  -1  13  18 1127.55  424.96
  -1 -13  1912865.50 1355.14
   1  13  1912335.09  970.75
  -1  13 -1915948.61 1503.78
   1  13 -1913383.40 1279.33
  -1  13  1911627.06 1132.02
  -1 -13 -1911356.45 1075.39
   1 -13  1911134.93 1274.51
  -1  13 -20  680.75  452.59
  -1 -13  20  325.52  266.03
   1 -13  20  312.34  431.73
  -1 -13 -20  331.90  325.66
   1  13 -20  241.56  428.38
  -1  13  20 -156.51  214.15
  -1  13 -21 9959.15 1279.16
  -1 -13  2111218.35 1042.14
  -1 -13 -21 8007.81  984.49
   1 -13  21 9281.14 1171.45
   1  13 -2110515.78 1208.48
  -1  13  21 7236.85  940.34
  -1 -13  22 2855.58  536.93
  -1  13 -22 3314.85  832.84
  -1  13  22 1920.92  643.04
   1 -13  22 4302.15  605.75
   1  13 -22 5020.36  873.95
  -1 -13 -22 3632.37  505.21
  -1 -13  23 2203.41  508.67
  -1  13 -23 1836.17  786.46
  -1  13  23 3285.45  712.01
   1  13 -23 3235.15  526.16
   1 -13  23 2760.92  511.27
  -1 -13 -23 2179.51  649.46
  -1  13 -24  198.13  365.10
  -1 -13  24  733.11  362.19
   1 -13  24    4.12  357.28
  -1  13  24  627.31  281.56
   1  13 -24  -62.68  369.58
  -1 -13  25 2726.35  819.18
  -1  13 -25 2923.80  551.28
   1  13 -25   18.78  784.15
   1 -13  25 -141.74  526.43
  -1  13  25 2667.01  457.67
  -1 -13  26   58.15  612.46
  -1  13 -26  675.60  385.14
  -1  13  26  356.85  469.22
   1 -13  26   25.88  370.38
   1  13 -26    3.05  587.78
  -1  13 -27 1097.89  627.68
  -1 -13  27  160.17  601.20
   1  13 -27   36.86  597.30
   1 -13  27  -28.33  359.66
  -1 -14   013822.29  779.55
   1 -14   013710.21 1000.94
  -1  14   012598.41  863.48
   1  14   013460.12  947.78
   1  14   113727.05  807.83
  -1  14  -114780.44  978.97
   1 -14  -115350.05 1076.74
  -1 -14   112911.17  941.42
   1 -14   113503.32  983.63
  -1 -14  -114030.86  914.03
   1  14  -112321.97  754.61
  -1  14   113559.85  885.41
  -1 -14   226707.06 1543.19
   1  14   225896.53 1484.78
  -1  14  -225465.52 1493.92
   1 -14  -225096.22 1350.70
  -1  14   226241.25 1276.40
   1 -14   226210.61 1390.27
   1  14  -224554.15 1478.84
  -1 -14  -226150.07 1462.63
   1  14   3  138.08  165.83
  -1 -14   3  239.32  173.20
   1 -14  -3  673.56  317.69
  -1  14  -3  148.50  169.45
   1  14  -3  285.45  170.26
  -1 -14  -3  431.51  251.27
  -1  14   3  159.39  208.14
   1 -14   3  459.22  296.26
  -1 -14   4  592.35  366.46
  -1  14  -4  830.97  354.77
   1 -14  -4 1140.84  387.12
   1  14   4 1157.00  219.34
   1 -14   4 1010.22  248.70
  -1  14   4 1153.25  291.38
  -1 -14  -4 1177.42  200.89
   1  14  -4  734.21  225.30
   1 -14  -5  652.84  245.60
  -1  14  -5 1001.29  346.93
  -1 -14   5  864.79  372.77
   1  14   5  803.49  347.97
   1 -14   5  906.19  248.78
  -1  14   5  620.28  274.23
   1  14  -5  843.96  244.68
  -1 -14  -5 1017.18  303.54
  -1  14  -6 8706.82  784.62
  -1 -14   6 8484.77  801.55
   1  14   6 9824.44  802.00
   1 -14  -610637.31  710.19
  -1 -14  -611251.57  800.50
   1  14  -6 7942.31  587.94
   1 -14   610495.73  702.54
  -1  14   611159.94  585.69
  -1 -14   7 5922.57  667.92
   1 -14  -7 5813.40  727.03
   1  14   7 5943.70  623.52
  -1  14  -7 5806.51  661.18
  -1 -14  -7 5667.75  427.61
   1  14  -7 5499.34  495.26
   1 -14   7 5682.50  674.35
  -1  14   7 6334.85  534.03
  -1 -14   8  815.93  387.90
  -1  14  -8  772.72  405.24
   1 -14  -8 1416.80  429.69
   1  14   8  501.48  214.61
   1  14  -8 1192.02  255.64
   1 -14   8  792.21  254.59
  -1 -14  -8 1130.94  330.48
  -1  14   8 1340.39  277.85
   1  14   9 2737.92  326.41
   1 -14  -9 2565.81  356.14
  -1  14  -9 2110.44  340.98
  -1 -14   9 2228.45  508.03
   1  14  -9 2354.06  352.99
   1 -14   9 1307.90  312.23
  -1 -14  -9 1719.41  418.92
  -1  14   9 2636.21  357.32
   1  14  1015006.90 1084.90
  -1  14 -1014071.70 1164.09
   1 -14 -1015207.07 1036.94
  -1 -14  1014855.51  991.85
  -1 -14 -1013349.19  828.71
   1  14 -1012938.28 1083.27
   1 -14  1015157.08 1013.28
  -1  14  1015301.72  938.44
  -1  14 -1117329.30 1154.21
   1 -14 -1119553.00 1500.90
   1  14  1119279.96 1328.51
  -1 -14  1117013.65 1338.34
  -1 -14 -1121725.63 1341.69
   1  14 -1120216.26 1431.89
  -1  14  1119623.92 1010.79
   1 -14  1119822.13 1403.81
   1  14  12 8613.84  679.08
  -1  14 -12 8136.40  903.86
  -1 -14  12 8351.99  919.56
   1 -14 -12 7704.36  626.98
   1  14 -12 7734.74  661.09
   1 -14  12 8631.49  886.10
  -1 -14 -1210210.32  883.04
  -1  14  12 9262.58  838.57
   1  14  13 1733.89  338.60
  -1 -14  13 2398.82  337.04
   1 -14 -13 1136.73  310.12
  -1  14 -13 1361.48  322.63
  -1 -14 -13  742.14  258.77
   1 -14  13 1728.96  321.61
  -1  14  13  780.22  270.16
   1  14 -13  870.70  470.96
  -1  14 -1416680.41 1405.04
   1  14  1417538.75 1114.52
  -1 -14  1416653.13 1408.94
   1 -14 -1415830.86 1022.82
  -1 -14 -1417042.00 1295.34
   1 -14  1414818.06 1293.06
   1  14 -1415886.64 1085.86
  -1  14  1415794.29 1219.10
   1  14  15 2110.71  382.10
  -1  14 -15 2323.45  616.33
   1 -14 -15 1696.19  330.46
  -1 -14  15 2145.25  575.99
  -1 -14 -15 1092.28  483.76
   1 -14  15 2361.86  407.52
  -1  14  15 2778.87  355.61
   1  14 -15 2868.58  590.69
  -1  14 -16 9986.24  891.01
   1 -14 -16 7874.62  685.86
   1  14  16 8657.99  748.76
  -1 -14  16 9068.12  819.04
   1 -14  1610069.52 1053.49
  -1  14  16 9400.10  919.65
   1  14 -1610059.68 1054.42
  -1 -14 -16 8820.84  733.23
  -1 -14  17  539.59  301.86
  -1  14 -17  795.51  312.94
   1  14  17  643.75  292.34
   1  14 -17  783.65  310.35
   1 -14  17 1118.48  319.94
  -1 -14 -17  536.58  379.00
  -1  14  17  441.51  251.26
  -1  14 -1811294.65  997.77
   1  14  18 8871.56  817.49
  -1 -14  1810172.16 1137.31
   1  14 -18 9716.07 1107.77
  -1 -14 -18 9828.33  991.42
  -1  14  1810018.51 1008.62
   1 -14  18 9813.23  881.14
  -1  14 -19 1075.56  562.36
  -1 -14  19 1441.78  548.11
  -1 -14 -19  437.83  391.97
   1 -14  19  522.94  512.11
   1  14 -19  335.78  508.53
  -1  14  19  411.93  412.45
  -1  14 -20 2726.75  741.32
  -1 -14  20 2483.52  725.69
  -1 -14 -20 1992.22  567.10
   1 -14  20 2627.15  715.92
   1  14 -20 2994.11  740.22
  -1  14  20 2327.23  391.13
  -1  14 -21  842.49  541.10
  -1 -14  21  228.20  522.39
  -1  14  21  155.89  411.48
   1  14 -21  561.41  328.69
  -1 -14 -21  397.03  402.54
   1 -14  21  636.04  535.36
  -1  14 -22  515.11  555.65
  -1 -14  22  222.39  523.90
  -1  14  22  327.29  426.54
  -1 -14 -22  589.91  412.63
   1 -14  22  713.60  329.17
   1  14 -22   21.86  323.52
  -1  14 -23 1814.33  848.58
  -1 -14  23 2503.92  847.79
  -1  14  23 3487.07  517.05
   1 -14  23 3277.95  568.00
   1  14 -23 3599.29  555.76
  -1  14 -24   23.98  309.31
  -1 -14  24  363.69  494.63
   1 -14  24   89.62  307.78
   1  14 -24   -4.60  301.69
  -1  14  24  236.20  386.62
  -1  14 -25 -257.18  276.84
  -1 -14  25  -10.47  451.66
   1 -14  25   -2.11  271.95
  -1  14  25  154.17  357.35
   1  14 -25   47.91  264.91
  -1  14 -26 3016.56  659.28
  -1 -14  26 2183.12  982.28
   1  14 -26 4067.28  649.51
   1 -14  26 3361.21  633.11
  -1 -15   0  632.19  332.40
   1  15   0  797.66  349.70
   1 -15   0  896.88  256.55
  -1  15   0 1214.90  318.04
  -1 -15   1 5679.08  450.80
   1  15   1 5089.57  430.01
   1 -15  -1 4735.42  637.77
  -1  15  -1 5423.71  565.74
   1 -15   1 5448.36  662.36
   1  15  -1 5966.49  630.01
  -1 -15  -1 5191.02  572.19
  -1  15   1 6606.65  457.73
  -1 -15   2 5099.27  612.22
   1  15   2 5315.35  588.53
  -1  15  -2 5260.44  582.03
   1 -15  -2 5210.96  464.15
   1  15  -2 4999.83  444.98
  -1 -15  -2 5122.50  569.89
   1 -15   2 5926.97  681.02
  -1  15   2 5790.55  552.99
   1  15   3 1435.18  405.87
  -1 -15   3 2299.12  435.06
  -1  15  -3 1483.15  270.64
   1 -15  -3 1932.02  446.65
   1  15  -3 2249.51  443.14
  -1  15   3 2049.85  349.69
   1 -15   3 2114.67  312.93
  -1 -15  -3 2130.19  391.39
   1  15   4 7135.08  520.97
  -1 -15   4 8202.25  585.77
   1 -15  -4 7839.22  779.95
  -1  15  -4 7510.58  713.21
   1  15  -4 7915.00  742.83
  -1 -15  -4 7832.98  670.10
   1 -15   4 8241.90  597.17
  -1  15   4 7301.47  592.63
   1  15   5 4066.85  538.56
  -1  15  -5 3752.75  552.80
   1 -15  -5 2529.13  387.60
  -1 -15   5 4026.64  588.77
   1  15  -5 3473.39  533.23
  -1 -15  -5 3872.84  477.07
   1 -15   5 2918.61  555.94
  -1  15   5 3679.46  416.73
   1  15   638339.68 2163.60
  -1 -15   640790.25 2357.62
   1 -15  -639318.92 2376.88
  -1  15  -637119.39 2194.59
  -1  15   638179.45 1834.27
   1  15  -637768.06 2202.77
  -1 -15  -640838.18 2184.25
   1 -15   636173.70 2194.64
  -1 -15   7 8271.49  821.32
   1  15   7 7636.66  576.31
  -1  15  -7 7885.30  598.62
   1 -15  -7 8933.18  868.81
  -1 -15  -7 7862.12  716.82
   1 -15   7 7766.05  830.09
   1  15  -7 8142.36  784.29
  -1  15   7 8637.40  657.56
   1  15   824643.55 1540.47
  -1 -15   823404.95 1590.88
  -1  15  -823767.44 1411.34
   1 -15  -825012.54 1461.82
  -1 -15  -826206.63 1364.26
   1  15  -823905.16 1573.20
   1 -15   823062.46 1568.14
  -1  15   826202.01 1419.24
  -1 -15   9 7302.06  618.04
   1 -15  -9 6731.35  829.60
  -1  15  -9 7745.63  838.16
   1  15   9 6972.37  728.69
   1  15  -9 7159.95  592.89
  -1 -15  -9 7352.48  695.41
  -1  15   9 7583.87  600.24
   1 -15   9 7804.04  611.01
  -1 -15  1018061.52 1200.98
  -1  15 -1019806.23 1462.49
   1  15  1019549.54 1133.83
   1 -15 -1019555.51 1468.58
  -1 -15 -1019573.36 1286.40
   1  15 -1019327.36 1204.37
   1 -15  1017080.21 1107.28
  -1  15  1020018.60 1163.29
   1 -15 -1125930.72 1574.50
  -1 -15  1125853.42 1759.95
   1  15  1126532.49 1494.80
  -1  15 -1125291.99 1562.57
   1  15 -1121512.71 1578.61
  -1 -15 -1126830.63 1651.38
   1 -15  1124578.43 1720.78
  -1  15  1125755.87 1447.86
   1  15  12 1333.88  217.53
  -1  15 -12 2125.27  516.80
  -1 -15  12  905.39  325.23
   1 -15 -12 1449.25  226.23
   1  15 -12 1253.42  303.95
  -1 -15 -12 1112.43  286.37
   1 -15  12 1137.99  473.28
  -1  15  12  978.60  292.13
  -1 -15  13 3298.41  659.29
  -1  15 -13 2575.23  630.15
   1  15  13 3053.71  440.34
   1 -15 -13 2659.23  413.58
   1  15 -13 2729.94  597.44
   1 -15  13 2916.58  420.81
  -1  15  13 3080.94  583.83
  -1 -15 -13 3105.07  569.17
  -1 -15  14 4958.93  591.23
   1  15  14 4169.67  393.59
  -1  15 -14 3790.64  526.10
  -1 -15 -14 4136.32  484.38
   1 -15  14 4241.27  725.67
  -1  15  14 4484.14  656.00
   1  15 -14 4711.38  538.58
   1  15  15  191.19  259.51
  -1 -15  15  695.79  426.63
  -1  15 -15  539.76  446.84
   1 -15 -15   98.73  226.64
  -1 -15 -15  -22.47  329.88
   1  15 -15  608.85  415.16
   1 -15  15  391.21  250.93
  -1  15  15  430.32  390.88
   1  15  16 1560.52  382.04
  -1 -15  16 1543.89  573.08
  -1  15 -16 2516.31  608.63
  -1 -15 -16 1125.56  472.03
   1  15 -16 1633.25  372.17
   1 -15  16 1448.63  594.59
  -1  15  16  770.27  492.40
   1  15  17 2092.43  424.64
  -1 -15  17 1691.19  421.93
  -1  15 -17 2578.54  463.10
   1  15 -17 2514.66  454.39
   1 -15  17 2669.70  437.54
  -1 -15 -17 1903.61  357.77
  -1  15  17 2491.09  572.42
  -1 -15  18 1604.02  406.30
  -1  15 -18 1993.85  410.79
  -1 -15 -18 1342.67  500.67
  -1  15  18 1850.98  544.64
   1  15 -18 2358.72  660.13
   1 -15  18 1840.04  450.29
  -1 -15  19 1050.63  560.22
  -1  15 -19  776.91  366.99
  -1 -15 -19  849.85  280.37
   1  15 -19  922.81  565.15
   1 -15  19  656.34  563.97
  -1  15  19  613.60  280.12
  -1  15 -20 6363.15 1029.63
  -1 -15 -20 6270.98  849.68
   1  15 -20 6290.97  733.63
   1 -15  20 6552.74 1004.49
  -1  15  20 4733.05  779.34
  -1  15 -21 1082.56  655.86
  -1 -15  21  854.81  622.39
  -1  15  21  980.90  509.02
   1  15 -21 1376.91  451.46
   1 -15  21 1227.10  413.36
  -1 -15 -21 1254.49  337.68
  -1 -15  22 4835.34  962.60
  -1  15 -22 5302.49 1034.02
   1  15 -22 6617.24  802.97
  -1  15  22 5280.37  634.89
   1 -15  22 5751.32  765.60
  -1 -15  23  731.53  654.99
  -1  15 -23 1259.82  661.00
   1  15 -23 1330.03  414.96
   1 -15  23  -27.89  393.57
  -1  15  23  761.29  498.09
  -1 -15  24 1602.64  733.28
  -1  15 -24 1745.21  550.50
   1  15 -24 1913.04  469.71
   1 -15  24  -24.13  453.15
  -1  15  24  678.87  580.55
  -1 -15  25  618.91  639.29
  -1  15 -25  480.16  427.10
   1 -15  25  -78.50  616.88
   1  15 -25  313.37  398.04
  -1  15 -26 1704.51  589.04
   1  15 -26 1830.95  574.15
   1 -15  26  -91.76  823.59
  -1 -16   0 1513.06  426.37
   1  16   0 2025.46  303.71
   1 -16   0 2181.15  508.21
  -1  16   0 1813.48  271.13
  -1 -16   127064.75 1475.21
   1  16   128044.63 1730.50
  -1  16  -127120.61 1599.91
   1 -16  -127164.42 1516.72
   1  16  -126682.05 1657.04
  -1 -16  -128158.23 1631.88
  -1  16   129240.55 1644.31
   1 -16   126056.26 1466.45
   1  16   217449.89 1010.83
  -1 -16   218555.24 1247.96
  -1  16  -218502.88 1218.49
   1 -16  -218257.19 1290.99
   1  16  -217605.82 1244.38
  -1 -16  -217087.56  980.71
   1 -16   216443.06 1026.38
  -1  16   218077.41 1134.01
   1  16   3 9166.30  772.01
  -1 -16   3 8790.50  796.47
  -1  16  -3 8159.18  596.80
   1 -16  -3 7257.70  596.17
   1  16  -3 6727.55  750.83
   1 -16   3 7835.57  811.42
  -1  16   3 7467.15  634.14
  -1 -16  -3 7065.07  676.02
   1  16   4 3259.17  375.61
  -1 -16   4 3063.76  383.27
   1 -16  -4 3410.09  582.42
  -1  16  -4 3292.34  378.44
  -1 -16  -4 3303.42  488.13
   1  16  -4 3051.89  362.27
  -1  16   4 3401.99  315.18
   1 -16   4 2852.36  549.50
  -1  16  -5 4907.84  633.43
   1  16   5 5054.44  599.93
   1 -16  -5 4530.61  476.03
  -1 -16   5 4462.55  652.87
  -1 -16  -5 5807.61  603.58
  -1  16   5 5212.62  391.81
   1 -16   5 6628.48  732.84
   1  16  -5 4934.34  479.32
   1  16   6 7854.03  587.67
  -1 -16   6 7581.91  831.16
  -1  16  -6 8854.99  707.75
   1 -16  -6 7713.41  856.41
  -1 -16  -6 9928.40  829.69
   1  16  -6 7644.32  634.67
  -1  16   6 9144.82  689.53
   1 -16   6 7421.11  841.44
   1  16   7 1248.43  406.87
   1 -16  -7 1411.29  313.46
  -1 -16   7  839.22  432.45
  -1  16  -7  736.37  277.22
   1  16  -7 1412.14  428.66
  -1 -16  -7 1038.28  370.50
   1 -16   7 1331.75  455.75
  -1  16   7  934.15  310.28
   1  16   8 7647.25  784.81
  -1 -16   8 7835.97  674.64
  -1  16  -8 8724.87  678.20
   1 -16  -8 7236.93  866.96
   1  16  -8 7228.30  816.72
  -1 -16  -8 7053.59  739.25
  -1  16   8 8964.33  694.79
   1 -16   8 7249.03  831.70
   1  16   9 4592.20  446.53
  -1  16  -9 3368.68  638.75
  -1 -16   9 4207.71  483.79
   1 -16  -9 5806.95  741.34
   1  16  -9 4299.77  649.78
   1 -16   9 4266.99  663.75
  -1  16   9 4387.75  506.20
  -1 -16  -9 4012.76  578.94
   1  16  10 2188.78  529.28
   1 -16 -10 2375.61  390.87
  -1  16 -10 2360.75  362.77
  -1 -16  10 2951.98  584.04
  -1 -16 -10 2438.30  501.13
   1  16 -10 2675.53  388.34
   1 -16  10 2167.66  375.42
  -1  16  10 2645.91  407.64
  -1 -16  11 3685.95  649.47
   1  16  11 3606.99  585.99
  -1  16 -11 3883.61  646.88
   1 -16 -11 3953.02  720.75
  -1 -16 -11 2849.35  365.80
  -1  16  11 3190.03  445.93
   1 -16  11 3966.11  466.67
   1  16 -11 4103.42  651.94
   1  16  1215087.82  999.84
  -1 -16  1216335.06 1154.85
  -1  16 -1216333.33 1166.35
   1 -16 -1215997.80 1159.96
   1  16 -1216645.20 1357.27
  -1 -16 -1216545.53 1030.64
   1 -16  1214416.47 1261.83
  -1  16  1217433.29 1101.22
   1  16  1323750.08 1455.84
   1 -16 -1323622.83 1450.99
  -1 -16  1321606.73 1697.60
  -1  16 -1322179.44 1763.97
  -1  16  1324031.58 1653.29
   1  16 -1322411.59 1688.72
  -1 -16 -1323267.86 1674.60
   1 -16  1321990.35 1441.81
  -1 -16  14 2717.44  420.51
   1  16  14 1955.39  431.77
  -1  16 -14 2304.29  428.21
   1 -16 -14 1565.66  384.62
   1  16 -14 1989.30  393.26
  -1 -16 -14 2101.61  535.34
   1 -16  14 1711.98  588.94
  -1  16  14 2187.37  578.05
  -1 -16  1515056.94 1174.41
   1  16  1515990.48  966.18
  -1  16 -1514366.35 1422.19
   1  16 -1513918.35 1300.21
  -1 -16 -1516055.75 1132.59
   1 -16  1515587.76 1146.52
  -1  16  1515546.07 1313.18
  -1 -16  16  956.00  545.44
  -1  16 -16  798.67  540.33
   1  16  16  747.47  351.27
  -1 -16 -16  513.25  416.60
  -1  16  16  964.18  310.08
   1 -16  16  318.01  512.11
   1  16 -16 1133.12  334.32
  -1 -16  17  574.97  384.42
  -1  16 -17 1369.13  568.38
   1  16 -17 1829.76  595.49
  -1 -16 -17 1032.23  458.60
   1 -16  17 1140.71  366.84
  -1  16  17 1481.26  503.71
  -1 -16  18  885.64  369.31
  -1  16 -18  972.26  362.77
  -1 -16 -18 1015.33  448.04
   1  16 -18  628.35  573.58
   1 -16  18 1102.99  565.08
  -1  16  18 1165.27  295.28
  -1 -16  19 4583.93  919.73
  -1  16 -19 4452.41  628.68
   1  16 -19 6588.05  992.94
  -1 -16 -19 5258.18  819.16
   1 -16  19 6239.64 1021.06
  -1  16  19 6532.63  864.26
  -1 -16  20 2002.62  720.10
  -1  16 -20  678.06  431.18
  -1 -16 -20 1449.96  527.44
   1  16 -20 2406.48  495.90
   1 -16  20 2688.66  738.51
  -1  16  20 1395.72  561.80
  -1  16 -21  509.56  610.17
  -1 -16  21  -52.23  590.43
   1  16 -21  517.31  384.13
  -1  16  21  770.61  291.49
   1 -16  21  842.81  374.10
  -1 -16  22  267.31  618.26
  -1  16 -22  130.66  623.32
   1  16 -22 1034.59  632.02
   1 -16  22  614.52  373.44
  -1  16  22  751.66  482.49
  -1 -16  23  991.39  630.47
  -1  16 -23  491.63  648.39
   1  16 -23  224.42  623.12
   1 -16  23  569.05  387.80
  -1  16  23  322.15  475.57
  -1 -16  24 2181.39  835.15
  -1  16 -24 1752.57  834.87
   1  16 -24 1263.93  793.79
   1 -16  24  925.33  788.53
  -1  16  24 1584.69  415.02
  -1 -16  25  577.28  694.51
  -1  16 -25  353.95  423.83
   1  16 -25  829.64  693.51
   1 -16  25  269.50  703.63
   1  17   0 3036.46  532.01
  -1 -17   0 2380.11  498.18
  -1  17   0 2987.43  340.86
   1 -17   0 2665.23  384.81
  -1 -17   1  405.41  227.34
   1  17   1  623.07  337.62
  -1  17  -1  315.79  336.62
   1 -17  -1  410.76  383.36
  -1 -17  -1  368.21  208.64
   1  17  -1  412.61  222.55
  -1  17   1  254.08  315.50
   1 -17   1  598.08  391.97
  -1 -17   2 5587.18  697.41
   1  17   2 4979.54  464.13
  -1  17  -2 6279.94  686.72
   1 -17  -2 5594.56  728.15
  -1 -17  -2 6320.55  659.96
   1  17  -2 7571.09  586.55
   1 -17   2 5740.41  761.06
  -1  17   2 6023.49  469.14
  -1 -17   3 1742.57  480.75
   1  17   3 1354.27  436.96
  -1  17  -3 1225.27  298.09
   1 -17  -3 1212.72  314.76
   1  17  -3 2325.86  344.92
   1 -17   3 1652.68  519.00
  -1 -17  -3 2203.83  443.54
  -1  17   3 1667.08  383.52
  -1 -17   412374.01  842.20
   1  17   410721.43  729.82
  -1  17  -410605.58  756.81
   1 -17  -413437.53 1115.16
   1 -17   411489.99  819.72
   1  17  -410795.88  974.15
  -1 -17  -411449.78  737.39
  -1  17   412272.20  887.80
  -1 -17   518223.94 1115.12
   1  17   516124.23 1181.32
  -1  17  -518242.23 1158.39
   1 -17  -517957.76 1151.16
  -1 -17  -517715.38 1206.82
   1  17  -517567.18 1084.02
   1 -17   518281.24 1140.35
  -1  17   515880.36 1062.11
   1  17   6 3942.15  403.58
  -1  17  -6 3837.09  441.84
  -1 -17   6 3592.21  443.83
   1 -17  -6 4058.08  695.68
  -1 -17  -6 2993.22  521.69
   1  17  -6 3954.45  434.67
   1 -17   6 3051.44  435.43
  -1  17   6 3618.28  466.17
   1  17   710686.82  918.13
  -1 -17   7 9186.33  714.06
  -1  17  -7 9595.25  744.29
   1 -17  -7 9218.95  742.27
   1  17  -7 8318.48  670.92
  -1 -17  -7 9083.22  802.47
  -1  17   7 8742.53  723.05
   1 -17   7 8201.11  672.27
   1  17   8 5902.19  723.81
  -1  17  -8 4794.10  750.70
  -1 -17   8 4931.91  517.93
   1 -17  -8 5000.98  798.38
  -1 -17  -8 5483.17  664.15
   1  17  -8 5313.40  705.21
   1 -17   8 5196.10  728.51
  -1  17   8 5550.46  578.78
  -1 -17   910931.19 1047.61
   1  17   911191.52  985.45
  -1  17  -910041.46 1009.15
   1 -17  -9 9590.45  803.53
  -1 -17  -910627.38  929.98
   1  17  -9 9786.78  984.69
   1 -17   910248.63 1013.86
  -1  17   910546.35  813.29
   1  17  10 1398.12  494.48
  -1 -17  10 1695.49  540.96
  -1  17 -10 1300.71  358.19
   1 -17 -10 1202.85  577.45
   1 -17  10 1378.28  523.72
  -1 -17 -10 2023.72  469.19
   1  17 -10 1830.98  335.99
  -1  17  10 1588.71  378.62
   1 -17 -11 5751.34  609.31
   1  17  11 5917.71  537.54
  -1 -17  11 5041.12  580.80
  -1  17 -11 4605.53  763.75
  -1 -17 -11 4562.40  668.51
   1  17 -11 4343.68  537.21
   1 -17  11 4146.87  519.61
  -1  17  11 4661.58  567.76
  -1 -17  1215135.84 1388.55
   1  17  1217243.27 1336.66
  -1  17 -1215158.94 1134.12
   1 -17 -1216996.14 1477.12
   1  17 -1216944.59 1392.19
  -1 -17 -1216302.50 1254.12
   1 -17  1215157.73 1341.63
  -1 -17  13  672.89  315.71
  -1  17 -13 1031.47  516.88
   1 -17 -13  702.95  333.01
   1  17  13  977.57  374.58
   1  17 -13  884.86  317.00
  -1 -17 -13  825.37  453.61
   1 -17  13  745.21  333.62
  -1  17  13 1433.37  492.31
  -1 -17  14 2073.64  653.41
   1  17  14  977.51  414.00
  -1  17 -14 1361.65  382.07
  -1 -17 -14 1669.32  350.50
   1  17 -14 2273.77  589.41
   1 -17  14 1851.00  599.58
  -1  17  14 1062.15  519.89
  -1 -17  15 1835.90  400.42
   1  17  15  971.86  408.86
  -1  17 -15 1000.37  384.86
  -1 -17 -15 1101.17  497.07
   1  17 -15 1185.83  570.90
   1 -17  15 1527.32  367.05
  -1  17  15 1163.28  531.40
  -1 -17  16 1967.01  723.96
  -1  17 -16 2161.21  726.74
  -1 -17 -16 2282.39  406.19
   1  17 -16 2977.50  475.72
   1 -17  16 3433.39  734.70
  -1  17  16 2874.12  634.83
  -1 -17  17 3829.25  842.51
  -1  17 -17 4789.14  859.79
  -1 -17 -17 3229.91  661.29
   1  17 -17 4441.74  831.29
   1 -17  17 3725.90  582.90
  -1  17  17 3238.44  488.10
  -1 -17  18 1309.39  372.42
  -1  17 -18  -49.02  354.35
  -1 -17 -18  889.98  463.38
   1  17 -18  986.02  594.32
   1 -17  18 1407.59  599.23
  -1  17  18 1017.34  482.76
  -1 -17  19 9006.29  919.81
  -1  17 -19 6060.21  751.01
   1  17 -19 9376.98  929.84
  -1 -17 -19 8888.02 1013.67
   1 -17  19 8646.02 1213.00
  -1  17  1910404.84 1111.69
  -1 -17  20 1204.83  647.14
  -1  17 -20  703.58  409.18
   1  17 -20 1269.90  444.12
   1 -17  20 1140.88  402.61
  -1  17  20 1167.47  544.63
  -1 -17  21 7357.56 1200.53
  -1  17 -21 8226.24 1265.33
   1  17 -21 7084.97 1209.22
   1 -17  21 8557.30  965.70
  -1  17  21 7438.77 1018.49
  -1 -17  22 1065.10  692.66
  -1  17 -22  446.28  651.97
   1 -17  22  798.79  419.99
   1  17 -22  925.07  670.47
  -1  17  22  560.60  512.68
  -1 -17  23 3462.80 1008.50
  -1  17 -23 5092.03 1064.12
   1  17 -23 4428.84 1094.30
   1 -17  23 3607.48 1041.34
  -1  17  23 3733.56  578.15
  -1 -17  24  992.07  730.36
  -1  17 -24  514.94  735.28
   1  17 -24  553.36  766.70
   1 -17  24 1142.64  738.22
   1  18   014191.23  922.40
  -1 -18   015082.45  966.60
   1 -18   014538.42 1183.43
  -1  18   013249.65 1046.10
   1  18   1 5098.06  492.96
  -1 -18   1 3939.44  652.58
  -1  18  -1 5227.98  659.65
   1 -18  -1 5926.14  731.08
  -1 -18  -1 4538.11  647.50
   1  18  -1 4031.08  632.36
   1 -18   1 4567.73  500.58
  -1  18   1 4871.31  445.58
  -1 -18   2  966.14  415.76
   1  18   2  606.57  396.37
   1 -18  -2  713.59  287.81
  -1  18  -2  902.58  243.57
  -1 -18  -2 1046.22  255.15
   1  18  -2 1027.63  419.76
   1 -18   2  697.58  276.15
  -1  18   2  534.80  352.92
   1 -18  -3 5415.55  728.95
   1  18   3 5186.96  668.37
  -1 -18   3 5593.35  526.93
  -1  18  -3 4834.67  469.01
  -1 -18  -3 4561.86  650.09
   1  18  -3 5529.88  735.48
  -1  18   3 5337.05  612.68
   1 -18   3 4780.82  507.46
  -1 -18   4 8820.40  695.42
   1 -18  -4 8789.04  935.38
  -1  18  -4 8113.70  642.26
   1  18   4 8845.49  633.18
  -1 -18  -4 8420.21  811.84
   1  18  -4 7089.28  834.22
  -1  18   4 8263.53  585.22
   1 -18   4 8637.51  677.50
   1  18   5 5273.28  666.42
  -1 -18   5 4958.77  531.74
   1 -18  -5 3995.81  497.20
  -1  18  -5 4953.12  493.62
  -1 -18  -5 4467.18  445.09
   1  18  -5 4367.11  660.25
   1 -18   5 4543.78  510.37
  -1  18   5 5522.89  600.18
   1  18   6 2659.60  363.30
  -1 -18   6 2791.38  405.42
   1 -18  -6 2973.53  649.55
  -1  18  -6 2640.44  371.41
  -1  18   6 3214.62  461.97
   1  18  -6 2110.72  580.78
  -1 -18  -6 2323.33  517.64
   1 -18   6 2960.38  434.14
   1 -18  -7 3559.60  472.76
   1  18   7 2947.37  568.61
  -1 -18   7 3820.37  472.80
  -1  18  -7 2401.00  414.09
  -1 -18  -7 3756.83  594.03
   1  18  -7 3597.60  625.32
   1 -18   7 2766.71  435.79
  -1  18   7 3357.00  485.91
  -1 -18   8 1397.43  334.65
  -1  18  -8  928.61  487.64
   1  18   8 1113.98  296.50
   1 -18  -8 1291.31  540.66
  -1 -18  -8 1118.13  453.55
   1  18  -8  594.74  319.41
  -1  18   8 1183.43  368.06
   1 -18   8 1372.17  329.36
   1  18   9  430.60  373.00
  -1 -18   9  155.02  420.36
   1 -18  -9  394.44  282.45
  -1  18  -9  561.98  416.80
  -1 -18  -9  493.79  371.45
   1  18  -9   24.26  403.46
   1 -18   9  272.58  415.19
  -1  18   9  344.49  307.92
   1  18  10   49.53  397.47
  -1 -18  10  444.73  454.08
  -1  18 -10  402.11  302.96
   1 -18 -10 1212.43  521.78
  -1 -18 -10 1134.06  434.61
   1  18 -10  210.71  425.07
  -1  18  10  648.35  329.62
   1 -18  10  525.33  466.16
   1  18  11 5255.53  762.23
  -1 -18  11 4986.26  599.24
  -1  18 -11 6049.09  851.52
   1 -18 -11 5227.51  611.60
  -1 -18 -11 4555.10  702.02
   1  18 -11 5057.34  550.86
   1 -18  11 4530.44  559.48
   1  18  12 7999.65  911.64
  -1 -18  12 7461.10  981.53
  -1  18 -12 6590.16  716.77
   1 -18 -12 8551.89 1056.74
   1  18 -12 7962.63  940.72
   1 -18  12 8278.47  979.84
  -1 -18 -12 7809.27  876.41
  -1 -18  13 3705.09  568.29
   1  18  13 5029.65  626.62
  -1  18 -13 3500.02  776.02
   1  18 -13 4249.98  560.52
  -1 -18 -13 4505.11  560.39
   1 -18  13 4698.19  811.98
  -1  18  13 5244.01  573.80
   1  18  1416782.32 1046.50
  -1 -18  1415533.00 1485.02
  -1  18 -1414907.62 1494.25
  -1  18  1418394.44 1471.22
   1 -18  1415771.22 1196.70
   1  18 -1416136.65 1489.03
  -1 -18 -1415125.70 1405.23
  -1 -18  15 2844.74  545.01
  -1  18 -15 3646.68  549.64
  -1 -18 -15 3243.36  498.62
   1  18 -15 3652.79  542.28
   1 -18  15 4234.04  792.01
  -1  18  15 4043.52  708.69
  -1 -18  16 3865.54  774.18
  -1  18 -16  -25.68  739.70
  -1  18  16 3769.72  708.53
  -1 -18 -16 3109.16  672.57
   1  18 -16 3568.49  752.08
   1 -18  16 4759.30  875.29
  -1 -18  17 1018.04  627.00
  -1  18 -17   15.38  642.35
  -1  18  17 1308.46  535.14
  -1 -18 -17 1267.99  526.29
   1  18 -17 1545.07  633.57
   1 -18  17 1532.76  404.97
  -1 -18  18 4618.50  656.94
  -1  18 -18 3255.79  572.67
   1  18 -18 6068.31  721.86
  -1 -18 -18 4905.34  790.09
  -1  18  18 4208.70  570.35
   1 -18  18 5026.83  998.04
  -1 -18  19  601.91  363.76
  -1  18 -19   18.32  334.53
   1  18 -19  577.15  360.85
   1 -18  19  773.34  581.99
  -1  18  19  322.58  477.11
  -1  18 -20    1.68  473.04
  -1 -18  20 1386.27  713.34
   1  18 -20 2849.83  769.37
   1 -18  20 2218.55  495.08
  -1  18  20 2078.40  613.58
  -1 -18  21   -2.79  577.39
  -1  18 -21 1186.91  610.80
   1  18 -21  705.80  592.81
  -1  18  21  103.09  296.97
   1 -18  21  455.47  357.17
  -1  18 -22   27.67  535.69
  -1 -18  22  239.63  551.67
   1  18 -22  180.74  533.51
  -1  18  22  334.64  416.69
   1 -18  22 -296.17  533.50
   1  18 -23  616.12  664.54
   1 -18  23  240.08  651.75
   1  19   0  908.84  416.84
  -1 -19   0  643.07  434.60
   1 -19   0  671.19  455.59
  -1  19   0  529.28  390.43
  -1  19  -1  342.85  220.24
  -1 -19   1  393.39  390.09
   1  19   1  120.06  361.21
   1 -19  -1  290.32  249.67
  -1 -19  -1  766.92  389.35
   1  19  -1  265.11  236.59
  -1  19   1  436.84  326.22
   1 -19   1  216.63  420.37
  -1 -19   2 1568.61  486.22
   1  19   2 1425.58  470.69
   1 -19  -2 1549.86  525.99
  -1  19  -2 1241.12  287.46
  -1 -19  -2  983.95  460.62
   1  19  -2 1154.32  315.03
  -1  19   2 1758.70  424.41
  -1 -19   3 5401.16  554.34
   1  19   3 7327.58  592.50
   1 -19  -3 5702.12  832.88
  -1  19  -3 5009.53  528.08
  -1  19   3 5437.52  661.33
   1  19  -3 4960.91  521.94
  -1 -19  -3 6158.72  535.63
   1 -19   3 5566.15  808.31
  -1 -19   4 9801.55  774.83
  -1  19  -4 9745.79  730.31
   1  19   410237.28  927.93
   1 -19  -4 9537.83  782.35
   1  19  -4 9432.96  750.61
  -1 -19  -4 9035.69  884.41
  -1  19   4 9584.61  822.31
   1 -19   4 9778.03  991.47
   1 -19  -5  259.47  445.17
  -1  19  -5  399.99  236.48
   1  19   5  125.32  378.60
  -1 -19   5  574.38  253.34
   1  19  -5  251.16  256.44
  -1 -19  -5  244.26  354.48
  -1  19   5  313.03  192.41
   1 -19   5  234.78  435.39
  -1  19  -618365.89 1246.91
  -1 -19   618081.96 1201.39
   1  19   619874.58 1219.53
   1 -19  -620892.52 1581.14
   1  19  -618516.98 1472.90
  -1 -19  -618201.75 1115.99
   1 -19   618900.12 1490.44
  -1  19   618790.09 1241.74
  -1 -19   7  842.30  354.78
   1  19   7 1913.27  498.48
  -1  19  -7 1176.92  339.91
   1 -19  -7 2470.28  394.28
   1  19  -7 1088.71  504.27
  -1 -19  -7  869.65  474.32
   1 -19   7  719.58  538.32
  -1  19   7 1360.20  404.63
  -1 -19   810163.85 1083.76
  -1  19  -8 9640.27 1036.14
   1  19   810534.63  826.59
   1 -19  -812119.16 1161.24
   1  19  -810175.80 1025.01
  -1 -19  -810723.47 1024.11
   1 -19   8 9284.32  806.56
  -1  19   811325.05  935.29
  -1 -19   9 1443.15  590.49
   1  19   9 1901.62  514.56
  -1  19  -9 1591.49  544.49
   1 -19  -9  918.41  360.85
  -1 -19  -9  885.74  491.87
   1 -19   9 1426.14  347.52
   1  19  -9 1411.31  350.53
  -1  19   9 1040.78  401.47
  -1 -19  10 1157.96  571.63
   1  19  10 1563.93  321.82
   1 -19 -10  982.58  591.65
  -1  19 -10 1185.41  353.40
  -1 -19 -10  792.04  490.58
   1  19 -10  771.16  518.02
   1 -19  10 1506.57  569.08
  -1  19  10  837.70  404.47
   1  19  11  445.71  443.49
  -1 -19  11  424.83  303.17
  -1  19 -11  322.05  462.22
   1 -19 -11  325.56  511.41
   1  19 -11  575.22  292.72
  -1 -19 -11  183.43  262.04
   1 -19  11  785.32  485.11
  -1 -19  12 2675.80  841.36
   1  19  12 4430.72  530.98
   1 -19 -12 4890.35  650.20
  -1  19 -12 4267.20  577.82
   1  19 -12 5169.68  819.11
  -1 -19 -12 4696.57  756.16
   1 -19  12 4480.24  565.33
  -1 -19  13   45.44  253.20
   1  19  13   89.86  182.74
  -1  19 -13  -30.75  418.74
   1  19 -13  340.28  392.92
  -1 -19 -13  117.33  232.57
  -1  19  13  -38.33  231.04
   1 -19  13  395.74  389.41
  -1 -19  14  978.86  642.13
  -1  19 -14 1142.20  613.97
  -1 -19 -14  756.24  535.99
   1  19 -14 1317.74  586.24
   1 -19  14  974.38  389.24
  -1  19  14 1508.59  380.26
  -1 -19  15 1674.00  472.98
  -1  19 -15 2305.23  494.48
  -1 -19 -15 1602.27  616.10
   1  19 -15 1905.18  465.03
   1 -19  15 2259.32  680.42
  -1  19  15 2327.72  688.05
  -1  19 -16  844.37  659.50
  -1 -19  16 1693.53  458.62
   1  19 -16 1839.22  671.98
  -1 -19 -16 1243.22  580.58
  -1  19  16 1826.99  399.70
   1 -19  16 2126.23  477.84
  -1  19 -17 -169.79  530.66
  -1 -19  17  364.37  563.24
  -1 -19 -17  325.32  447.09
   1  19 -17  270.50  535.16
   1 -19  17  897.54  375.32
  -1  19  17  397.26  482.65
  -1 -19  18 4261.84  897.42
  -1  19 -18 4237.81  612.98
  -1  19  18 2971.94  801.59
   1 -19  18 3568.48  930.86
   1  19 -18 4408.75  691.80
  -1  19 -19    5.54  365.67
  -1 -19  19 1089.09  381.53
   1  19 -19  399.79  614.15
  -1  19  19  628.07  323.71
   1 -19  19  656.61  622.48
  -1  19 -20 4030.47  652.50
  -1 -19  20 3932.63  713.16
   1  19 -20 6227.06 1113.93
  -1  19  20 5249.59  910.23
   1 -19  20 5921.58  820.00
  -1 -19  21  709.78  622.22
  -1  19 -21   16.94  596.06
   1 -19  21  533.24  663.61
   1  19 -21  564.17  622.01
  -1  19  21   92.02  479.32
   1 -19  22 4480.65 1181.78
   1  19 -22 6380.35 1224.80
  -1 -20   0  578.33  440.47
   1 -20   0  550.55  489.81
  -1  20   0  424.90  383.78
   1  20   0  557.54  417.34
  -1 -20   1 5399.00  755.57
   1  20   1 5878.30  547.06
  -1  20  -1 5499.66  554.10
   1 -20  -1 6173.62  814.20
  -1 -20  -1 5022.86  751.88
   1  20  -1 4971.61  744.25
   1 -20   1 5262.61  589.37
  -1  20   1 5830.88  712.31
  -1 -20   2 2987.39  426.11
   1  20   2 2195.62  379.24
   1 -20  -2 2845.38  642.39
  -1  20  -2 2027.10  536.95
   1  20  -2 1710.35  596.92
  -1 -20  -2 2065.00  572.83
   1 -20   2 2540.46  421.38
  -1  20   2 2270.35  344.12
   1  20   3 7591.02  871.95
  -1 -20   3 7978.92  707.37
  -1  20  -3 7476.70  851.39
   1 -20  -3 7637.44  718.72
   1  20  -3 7794.63  894.30
  -1  20   3 7191.76  775.46
   1 -20   3 7232.07  674.70
  -1 -20  -3 7523.38  872.99
   1  20   4 4606.85  688.56
  -1 -20   4 4129.75  499.11
  -1  20  -4 5039.36  719.89
   1 -20  -4 3826.50  556.63
   1 -20   4 4413.14  553.05
  -1 -20  -4 4561.76  678.44
   1  20  -4 4441.96  723.83
  -1  20   4 3582.38  408.93
   1 -20  -5 5517.00  889.59
  -1 -20   5 5694.69  595.69
   1  20   5 6545.87  608.93
  -1  20  -5 5728.35  570.54
  -1  20   5 6429.08  716.15
  -1 -20  -5 6502.61  782.36
   1  20  -5 5411.56  800.95
   1 -20   5 5098.39  580.32
   1  20   6  981.09  489.15
  -1 -20   6 1005.39  360.99
  -1  20  -6 1366.28  344.30
   1 -20  -6 1251.26  575.02
   1  20  -6 1129.34  355.25
  -1 -20  -6 1214.43  493.85
  -1  20   6  821.65  405.01
   1 -20   6  586.11  540.41
   1  20   7  963.18  478.13
  -1 -20   7  263.07  302.47
   1 -20  -7 1065.06  336.20
  -1  20  -7  268.51  455.81
   1 -20   7  748.80  511.80
   1  20  -7  517.66  308.58
  -1 -20  -7  915.53  290.57
  -1  20   7  655.40  255.79
   1  20   8 1592.90  339.82
  -1 -20   8  663.21  561.25
  -1  20  -8  445.35  518.10
   1 -20  -8 1285.41  609.15
  -1 -20  -8 1061.26  503.31
   1  20  -8  806.77  533.50
   1 -20   8 1192.36  570.53
  -1  20   8  679.54  430.83
   1 -20  -9 3531.51  830.48
   1  20   9 4384.72  722.20
  -1 -20   9 3375.48  746.52
  -1  20  -9 4528.81  541.38
  -1 -20  -9 3927.24  697.39
   1  20  -9 4405.92  748.41
  -1  20   9 3356.43  586.70
   1 -20   9 3156.88  503.30
   1  20  10 1059.12  342.25
  -1 -20  10 1430.06  363.64
  -1  20 -10  155.30  347.19
   1 -20 -10 1064.96  621.45
   1 -20  10  837.36  554.30
   1  20 -10 1126.80  334.24
  -1 -20 -10 1094.00  532.39
  -1 -20  11 4670.46  597.57
   1  20  11 3850.78  745.46
   1 -20 -11 3596.00  868.93
  -1  20 -11 2440.37  751.99
   1  20 -11 3821.06  761.99
  -1 -20 -11 4447.48  552.73
   1 -20  11 3912.58  780.74
   1  20  12 2070.29  394.33
  -1 -20  12 1644.27  682.73
   1 -20 -12 1239.32  448.41
  -1  20 -12 1391.74  422.07
   1  20 -12 1656.40  409.12
   1 -20  12 1869.03  426.99
  -1 -20  13 6406.12  762.18
  -1  20 -13 7162.79 1037.76
   1  20 -13 5769.78  931.26
   1 -20  13 7826.49 1050.98
  -1 -20  14 2037.75  710.28
  -1  20 -14 1150.26  700.94
  -1 -20 -14 1296.94  418.54
   1  20 -14 1586.49  425.89
  -1  20  14 3259.44  675.11
   1 -20  14 2093.61  460.08
  -1 -20  15 5746.49 1049.83
  -1  20 -15 7389.97  845.44
  -1 -20 -15 5962.10  975.01
   1  20 -15 5710.26  995.42
  -1  20  15 8403.03 1090.47
   1 -20  15 6048.76 1041.72
  -1 -20  16 2037.30  490.13
  -1  20 -16 2288.24  747.74
  -1  20  16 1532.57  674.77
  -1 -20 -16 1343.75  422.81
   1  20 -16 2007.79  706.00
   1 -20  16 2571.42  490.23
  -1 -20  17 3488.47  878.30
  -1  20 -17 3294.93  885.76
   1 -20  17 2750.02  867.21
   1  20 -17 3028.82  575.47
  -1  20  17 3405.23  537.91
  -1 -20  18 1190.58  716.89
  -1  20 -18 1132.17  433.63
   1  20 -18 1156.41  685.16
   1 -20  18 1548.69  704.59
  -1  20  18 1462.87  628.96
  -1 -20  19 1801.56  531.22
  -1  20 -19 2006.93  521.42
   1  20 -19 2271.33  797.19
   1 -20  19 1997.02  563.42
  -1  20  19 1302.69  700.81
  -1 -20  20  204.53  425.82
  -1  20 -20 1456.94  430.72
   1  20 -20  535.36  656.90
   1 -20  20  836.34  441.77
  -1  20  20  335.09  345.40
  -1 -21   0 3135.49  623.66
   1  21   0 2329.06  386.74
  -1  21   0 2055.72  358.42
   1 -21   0 2190.90  659.34
   1  21   1  598.59  449.88
  -1 -21   1  921.35  315.03
   1 -21  -1   31.96  302.58
  -1  21  -1  851.22  434.46
  -1 -21  -1  533.99  472.04
   1  21  -1  666.72  285.45
   1 -21   1  675.14  505.99
  -1  21   1  746.79  409.38
  -1 -21   2 1614.40  379.87
   1  21   2 1331.63  558.71
  -1  21  -2 1671.09  547.97
   1 -21  -2 1357.73  387.93
  -1 -21  -2 1519.68  548.78
   1  21  -2 1418.23  354.64
  -1  21   2 1329.10  488.40
   1 -21   2 1634.24  626.44
  -1  21  -310618.43 1056.88
   1  21   3 8901.87  973.77
  -1 -21   3 9862.78 1080.96
   1 -21  -3 8707.20  816.31
  -1 -21  -3 9179.07 1003.93
   1  21  -3 9332.53  788.16
  -1  21   3 9779.80  744.09
   1 -21   3 9041.30 1086.33
  -1 -21   4 2405.09  674.50
   1  21   4 2232.39  404.42
   1 -21  -4 2722.75  744.45
  -1  21  -4 2508.44  622.50
   1 -21   4 1948.84  694.30
  -1 -21  -4 2460.59  607.07
  -1  21   4 2884.26  544.35
   1  21  -4 2068.65  637.35
  -1 -21   535561.87 2439.86
   1  21   535931.26 2113.73
  -1  21  -536133.84 2379.80
   1 -21  -534247.70 2423.43
   1  21  -536376.03 2446.03
  -1 -21  -535564.39 2057.14
   1 -21   533436.05 2094.58
  -1  21   534714.80 1955.40
  -1 -21   6 2764.93  451.01
   1  21   6 2626.64  689.90
  -1  21  -6 2591.45  440.97
   1 -21  -6 3579.26  542.12
   1  21  -6 2376.16  697.99
  -1 -21  -6 3132.17  674.08
  -1  21   6 3637.71  577.09
   1 -21   6 2370.52  479.97
   1  21   715944.22 1404.32
  -1 -21   715624.90 1177.31
  -1  21  -714599.35 1402.93
   1 -21  -715900.58 1507.67
   1  21  -715394.79 1121.60
  -1 -21  -715226.38 1362.40
   1 -21   714233.03 1107.83
  -1  21   716313.13 1246.53
  -1 -21   8   63.07  497.78
   1  21   8  614.16  283.30
  -1  21  -8  294.91  477.09
   1 -21  -8  307.98  536.90
  -1 -21  -8  427.03  295.77
   1  21  -8  304.92  299.98
   1 -21   8  510.35  503.70
  -1 -21   914191.29 1444.16
   1  21   915168.80 1370.98
  -1  21  -914714.69 1176.53
   1 -21  -915357.90 1230.59
  -1 -21  -913959.47 1324.15
   1 -21   913627.64 1384.10
  -1 -21  10 1118.64  436.67
   1  21  10 1367.46  384.47
  -1  21 -10 1808.72  412.17
   1 -21 -10 1698.95  471.61
  -1 -21 -10 1436.44  622.92
   1  21 -10 1709.93  425.74
   1 -21  10 1977.82  424.26
  -1 -21  1116763.98 1626.68
   1  21  1115075.21 1423.96
  -1  21 -1113838.04 1490.28
   1 -21 -1114735.95 1584.85
   1  21 -1114582.56 1386.57
   1 -21  1115003.97 1508.35
  -1 -21  12 1223.14  703.80
   1 -21 -12 1949.63  511.58
   1  21  12 2034.59  669.27
  -1  21 -12 1607.32  456.30
   1  21 -12 1929.15  420.45
   1 -21  12 1783.43  442.36
  -1 -21  13  584.76  340.94
  -1  21 -13  327.59  517.47
  -1 -21 -13   18.34  283.62
   1  21 -13  261.63  487.66
   1 -21  13  988.58  505.45
  -1  21  13  -49.14  297.69
  -1 -21  14  145.78  487.88
  -1  21 -14   85.98  480.59
   1  21 -14  264.13  264.75
  -1 -21 -14  184.92  436.98
   1 -21  14 -100.74  277.16
  -1  21  14  195.93  466.85
  -1  21 -15  136.13  328.24
  -1 -21  15 -285.02  509.67
   1  21 -15  157.68  469.32
  -1 -21 -15   55.90  448.87
   1 -21  15  337.86  512.42
  -1  21  15  386.68  298.29
  -1 -21  16 1625.13  479.98
  -1  21 -16  643.66  759.57
   1  21 -16 1770.41  468.25
   1 -21  16 1627.81  464.09
  -1  21  16 1371.72  706.29
  -1 -21  17 1378.45  756.56
  -1  21 -17 1059.12  762.01
   1  21 -17 1470.75  464.14
   1 -21  17 2005.17  760.73
  -1  21  17 1438.81  677.97
  -1 -21  18 -215.56  586.69
  -1  21 -18  165.44  373.72
   1  21 -18  174.20  557.53
   1 -21  18  571.03  567.91
  -1  21  18  388.11  319.73
  -1 -21  19 1216.26  515.03
  -1  21 -19 1104.27  521.42
   1  21 -19 2255.66  785.57
   1 -21  19 1549.57  505.99
  -1  21  19 1163.02  697.85
  -1 -22   0 6010.69  648.26
   1  22   0 6104.48  856.89
   1 -22   0 7073.70  701.93
  -1  22   0 6311.46  828.75
   1  22   1 4274.08  769.97
  -1 -22   1 4917.29  847.91
  -1  22  -1 4124.68  729.72
   1 -22  -1 4413.59  851.67
   1  22  -1 4490.96  787.85
  -1 -22  -1 4698.02  550.83
   1 -22   1 4197.33  591.76
  -1  22   1 4919.89  525.72
  -1 -22   214540.82 1341.11
   1  22   212855.86  974.50
   1 -22  -212174.34 1300.36
  -1  22  -214788.86 1292.03
  -1 -22  -213655.70 1260.26
   1  22  -212650.28 1248.49
  -1  22   212746.76 1152.98
   1 -22   213008.34 1030.52
  -1 -22   3 6159.10  909.23
   1  22   3 6175.48  638.91
  -1  22  -3 5196.18  809.99
   1 -22  -3 4471.63  883.02
  -1  22   3 4425.01  726.87
  -1 -22  -3 5625.67  841.33
   1  22  -3 5190.26  854.35
   1 -22   3 4652.47  629.01
  -1 -22   412466.48 1288.04
   1  22   412140.65  930.79
  -1  22  -412559.22 1245.59
   1 -22  -412620.20 1337.39
  -1 -22  -412240.28  922.28
   1  22  -411934.97  963.06
  -1  22   412842.13  912.40
   1 -22   412608.00 1306.26
  -1 -22   5 1602.54  680.28
   1  22   5 2353.38  655.52
  -1  22  -5 1931.10  603.28
   1 -22  -5 1514.38  470.37
  -1 -22  -5 1407.71  636.96
   1  22  -5 2633.08  442.99
  -1  22   5 1766.64  533.07
   1 -22   5 1736.73  704.49
  -1 -22   6 1631.86  422.88
   1  22   6 1461.91  607.87
   1 -22  -6 1795.23  439.40
  -1  22  -6 1350.95  398.01
  -1 -22  -6 1120.46  377.62
   1  22  -6 1175.34  609.02
  -1  22   6 1850.57  329.16
   1 -22   6 1014.92  661.53
   1  22   7 2919.20  480.67
  -1 -22   7 1815.15  463.40
   1 -22  -7 2348.77  775.29
  -1  22  -7 2441.96  433.02
  -1 -22  -7 3472.95  742.30
   1  22  -7 1941.96  713.78
   1 -22   7 2725.65  488.25
   1  22   8 2537.10  694.96
  -1 -22   8 2482.26  718.24
   1 -22  -8 2194.75  786.57
  -1  22  -8 1574.56  687.34
   1 -22   8 1935.99  529.66
  -1 -22  -8 2607.00  462.77
   1  22  -8 2562.41  451.15
  -1 -22   9 6428.62  991.96
   1  22   9 4992.49  878.52
   1 -22  -9 7022.53  783.49
  -1  22  -9 5181.68  677.35
   1  22  -9 5535.00  908.70
  -1 -22  -9 5929.07  920.53
   1 -22   9 5064.99  956.78
   1  22  10 4116.82  581.97
  -1 -22  10 4162.43  625.06
   1 -22 -10 5240.42  969.40
  -1  22 -10 4327.32  863.29
   1  22 -10 4277.68  837.33
   1 -22  10 4508.55  613.15
   1  22  11 2105.33  706.75
  -1 -22  11 2467.85  781.00
  -1  22 -11 1985.28  737.02
   1 -22 -11 2728.52  864.48
   1  22 -11 1841.90  462.09
   1 -22  11 2291.06  485.19
  -1 -22  12 5254.47  996.94
   1  22  12 4765.40  904.19
   1 -22 -12 5751.59 1070.43
  -1  22 -12 3948.56  652.85
   1  22 -12 3651.90  849.81
   1 -22  12 5216.10  927.25
  -1 -22  13 3179.44  598.01
  -1  22 -13 2736.60  848.76
   1 -22 -13 3536.47  671.40
   1  22 -13 3893.77  579.34
   1 -22  13 3362.13  603.50
  -1 -22  14 2770.79  891.84
  -1  22 -14 4341.90  919.16
   1  22 -14 3681.50  831.88
  -1 -22 -14 3408.33  872.22
  -1  22  14 2928.38  901.56
   1 -22  14 2016.29  830.82
  -1 -22  15 2843.47  895.52
  -1  22 -15 2953.35  597.93
   1  22 -15 2657.56  796.63
   1 -22  15 2806.76  853.96
  -1  22  15 2450.49  574.08
  -1 -22  16 5471.74  788.03
  -1  22 -16 5308.63 1113.68
   1  22 -16 5954.38  768.87
   1 -22  16 4876.41  761.01
  -1  22  16 6267.80 1069.68
  -1 -22  17  158.78  726.30
  -1  22 -17 1263.21  749.10
   1  22 -17 1555.69  690.24
   1 -22  17  574.13  724.64
  -1  22  18 1535.69  747.41
   1  23   0  282.88  298.21
  -1 -23   0  663.05  505.66
  -1  23   0  528.65  444.83
   1 -23   0  279.69  539.96
   1  23   1 1826.68  632.23
  -1  23  -1 2433.59  630.23
   1 -23  -1 2669.02  742.34
  -1 -23  -1 2807.69  689.51
   1  23  -1 2249.38  657.61
  -1  23   1 1265.88  586.89
   1 -23   1 2016.87  756.13
  -1 -23   2 2045.13  703.73
   1  23   2 2131.59  660.00
  -1  23  -2 2061.88  644.39
   1 -23  -2 1552.44  740.06
  -1 -23  -2 2509.88  448.47
   1  23  -2 1850.26  645.51
  -1  23   2 2164.88  391.22
   1 -23   2 2438.61  749.59
  -1 -23   3  670.61  608.42
   1  23   3  657.04  563.11
  -1  23  -3  654.61  569.92
   1 -23  -3  658.78  415.40
   1  23  -3  691.57  583.47
  -1 -23  -3 1365.98  594.07
  -1  23   3 1150.89  337.43
   1 -23   3 1344.85  406.34
  -1 -23   411719.59 1297.62
   1  23   412692.05 1302.87
   1 -23  -413369.42 1108.61
  -1  23  -411035.27 1240.54
   1  23  -412825.57 1287.90
  -1 -23  -413400.54 1317.47
  -1  23   411689.17 1141.73
   1 -23   414038.10 1113.98
   1  23   5 2706.37  695.71
  -1 -23   5 2718.79  755.84
   1 -23  -5 1840.05  494.79
  -1  23  -5  896.35  655.90
   1  23  -5 2838.31  686.24
  -1 -23  -5 2057.37  455.51
  -1  23   5 2359.71  381.53
   1 -23   5 1721.26  469.60
   1  23   6 7269.33  734.65
  -1 -23   6 5799.87  981.00
  -1  23  -6 5564.91  673.00
   1 -23  -6 8402.80 1156.14
  -1 -23  -6 6311.07  962.12
   1  23  -6 6631.60  699.22
   1 -23   6 6762.45 1041.30
  -1 -23   7  788.72  367.01
   1  23   7  651.62  571.47
   1 -23  -7  789.34  661.84
  -1  23  -7 1143.93  367.04
  -1 -23  -7  373.96  361.65
   1  23  -7  463.96  588.73
   1 -23   7  727.72  609.56
   1  23   813644.87 1380.25
  -1 -23   813709.34 1447.42
   1 -23  -814589.06 1563.56
  -1  23  -811205.42 1288.19
   1  23  -811869.09 1332.97
   1 -23   812506.19 1085.96
  -1 -23   9  115.29  619.86
   1  23   9  373.08  575.54
  -1  23  -9  837.55  555.46
   1 -23  -9  665.43  432.02
   1  23  -9  805.00  372.54
   1 -23   9  751.42  614.59
   1  23  1013742.00 1124.56
  -1 -23  1012822.42 1170.48
  -1  23 -1013377.04 1197.62
   1 -23 -1012276.85 1558.41
   1  23 -1012003.48 1377.36
   1 -23  1012908.44 1474.76
  -1 -23  11 1285.57  675.09
   1  23  11  750.13  652.44
   1 -23 -11   57.57  746.20
  -1  23 -11  748.63  650.80
   1  23 -11  628.72  382.67
   1 -23  11 1436.60  430.32
  -1 -23  12  790.93  650.35
  -1  23 -12  721.36  393.86
   1  23  12  791.74  634.13
   1 -23 -12   57.13  455.27
   1  23 -12  607.10  590.03
   1 -23  12  684.09  636.98
  -1 -23  13 1207.46  630.17
   1 -23 -13  -85.28  417.08
  -1  23 -13  939.71  594.04
  -1 -23 -13  130.84  364.17
   1  23 -13  298.55  361.62
  -1  23  13 -108.99  351.48
   1 -23  13 1251.75  405.58
  -1 -23  14 -182.62  595.73
  -1  23 -14  471.82  584.03
   1  23 -14  412.41  529.34
   1 -23  14  365.97  559.04
  -1  23  14  139.64  592.91
  -1 -23  15  540.32  638.97
  -1  23 -15   70.88  371.33
   1  23 -15  453.93  352.01
  -1  23  15  189.16  609.02
   1 -23  15  422.82  383.18
  -1 -23  16  447.02  436.29
  -1  23 -16 -180.16  677.62
  -1  23  16  931.86  437.41
   1  24   0 2227.95  676.33
  -1 -24   0 2266.66  734.85
  -1  24   0 1867.26  637.77
   1 -24   0 1738.25  735.22
   1  24   1 4363.52  830.95
  -1 -24   1 4889.52  911.38
   1 -24  -1 4153.12  626.30
  -1  24  -1 4267.83  557.77
  -1 -24  -1 4781.27  863.51
   1  24  -1 4198.56  834.10
   1 -24   1 4835.57  944.63
  -1  24   1 4667.37  795.69
  -1 -24   2 4715.80  902.54
   1  24   2 4169.48  805.17
  -1  24  -2 4211.39  559.05
   1 -24  -2 5523.58  972.83
  -1 -24  -2 5106.56  894.60
   1  24  -2 3255.96  544.86
  -1  24   2 4241.80  775.66
   1 -24   2 3784.09  889.55
   1  24   3 1283.08  635.21
  -1 -24   3  976.57  661.40
  -1  24  -3 1136.44  400.35
   1 -24  -3  706.21  703.17
  -1 -24  -3 1046.30  419.97
   1  24  -3 1777.51  416.92
  -1  24   3 1577.60  586.45
   1 -24   3 1237.30  679.22
   1  24   4 3887.20  567.38
  -1 -24   4 3823.27  852.01
  -1  24  -4 3106.75  800.27
   1 -24  -4 3596.18  921.90
  -1 -24  -4 3278.88  559.95
   1  24  -4 3845.84  563.62
   1 -24   4 3517.37  905.42
  -1  24   4 3498.51  490.86
  -1 -24   5 4681.53  949.40
   1  24   5 5772.13  667.44
   1 -24  -5 5291.35 1041.71
  -1  24  -5 5154.86  912.01
  -1 -24  -5 4577.40  912.82
   1  24  -5 5462.49  940.95
   1 -24   5 4617.33 1001.64
   1  24   6 1007.16  599.99
  -1 -24   6  439.40  629.00
   1 -24  -6 1204.51  713.08
  -1  24  -6  315.57  597.63
   1  24  -6  329.57  574.09
  -1 -24  -6  769.77  615.97
   1 -24   6  931.88  402.84
  -1  24  -7 1322.97  425.92
   1  24   7 1466.02  663.89
  -1 -24   7 1412.43  465.79
   1 -24  -7 1370.29  508.37
   1  24  -7 1500.09  442.94
   1 -24   7 1292.99  721.44
  -1 -24   8  484.31  399.07
   1  24   8  360.97  597.35
  -1  24  -8  373.93  581.73
   1 -24  -8  832.27  453.99
   1  24  -8  806.27  618.34
   1 -24   8 1164.82  647.92
  -1 -24   9 -168.48  488.61
   1  24   9   33.01  281.47
  -1  24  -9  485.69  460.12
   1 -24  -9  619.42  563.60
   1  24  -9  162.89  462.56
   1 -24   9 -115.26  306.91
  -1 -24  10 4019.74  633.86
   1 -24 -10   44.73 1001.97
   1  24  10 3122.90  840.14
  -1  24 -10 2911.79  574.65
   1  24 -10 3676.83  591.68
   1 -24  10 3361.24  913.18
  -1 -24  11 1664.05  793.75
   1  24  11 -147.91  749.33
  -1  24 -11 1648.53  746.48
   1 -24 -11   84.26  924.94
   1  24 -11 1884.03  723.26
   1 -24  11 2394.09  540.61
  -1 -24  12 4818.40 1080.73
   1 -24 -12 4760.29  776.85
  -1  24 -12 4369.81  700.29
   1  24 -12 4225.18  672.14
   1 -24  12 4363.99 1042.62
  -1 -24  13 2287.03  594.86
  -1  24 -13 2789.83  846.92
   1  24 -13 2099.24  759.76
   1 -24  13 2802.44  845.53
  -1  24  13  -29.63  465.51
  -1 -24  14 2011.77  842.11
  -1  24 -14 1316.66  786.57
  -1  24  14  335.94  853.10
   1  25   0 1109.32  589.41
  -1 -25   0  -20.18  370.62
  -1  25   0  856.42  341.49
   1 -25   0 1001.86  664.63
   1  25   1   19.31  325.02
  -1 -25   1 -146.85  208.71
   1 -25  -1  171.01  373.83
  -1  25  -1   30.11  191.05
  -1 -25  -1  -42.23  198.51
   1  25  -1  178.83  324.50
   1 -25   1   94.16  359.24
  -1  25   1    5.06  177.86
   1  25   2 1094.92  644.51
  -1 -25   2  -33.62  417.10
   1 -25  -2 1616.71  759.60
  -1  25  -2 1867.03  425.73
   1  25  -2  791.58  653.28
  -1 -25  -2 1404.23  701.36
  -1  25   2 1490.06  592.57
   1 -25   2 1332.65  459.66
  -1 -25   3 5001.87  677.15
   1  25   3 3935.35  861.31
   1 -25  -3 4854.20 1047.79
  -1  25  -3 4059.72  609.74
   1 -25   3 4225.63  655.49
   1  25  -3 3853.22  896.84
  -1 -25  -3 4173.11  927.89
  -1  25   3 4414.65  828.29
  -1 -25   4  -46.68  259.15
   1  25   4  211.51  395.16
  -1  25  -4   87.38  245.14
   1 -25  -4  171.17  446.91
  -1 -25  -4    3.44  403.49
   1  25  -4 -156.06  236.25
   1 -25   4  224.11  437.86
   1  25   5 5297.02  990.62
   1 -25  -5 7004.22  828.46
  -1  25  -5 5615.56 1020.26
  -1 -25  -5 4617.56  703.08
   1  25  -5 5879.65  708.27
   1 -25   5 5155.91 1063.68
  -1 -25   6  -88.32  581.88
   1  25   6  410.59  532.22
   1 -25  -6  260.64  391.06
  -1  25  -6   68.75  526.44
   1  25  -6  692.20  543.58
   1 -25   6   21.82  587.08
  -1  25  -7 6151.36  781.64
   1  25   7 6323.08 1084.46
  -1 -25   7 8322.81 1224.76
   1 -25  -7 8008.75  926.47
   1  25  -7 7343.50 1122.89
   1 -25   7 6957.60  848.78
   1  25   8  434.10  366.06
  -1 -25   8  376.44  396.55
   1 -25  -8  884.36  742.05
  -1  25  -8  617.75  596.58
   1  25  -8  482.68  384.49
   1 -25   8  161.94  640.84
   1  25   9 8561.13  937.28
  -1 -25   910925.54 1444.15
   1 -25  -910143.60 1533.38
  -1  25  -9 9847.35 1335.05
   1  25  -911497.99 1381.91
   1 -25   910960.37 1459.72
  -1 -25  10  564.85  729.38
  -1  25 -10  953.01  425.24
   1 -25 -10  -15.10  822.43
   1  25 -10  560.32  431.19
   1 -25  10 1168.44  462.93
  -1 -25  11 3135.15  642.18
   1 -25 -11  -60.68 1085.49
  -1  25 -11 1330.98  924.45
   1  25 -11 4213.63  935.49
   1 -25  11 3091.90  956.73
  -1 -26   0  -95.85  701.97
   1  26   0 1192.78  668.61
  -1  26   0 1385.05  632.40
   1 -26   0  937.78  719.06
  -1 -26   1   13.72  740.07
   1  26   1 1619.35  710.39
  -1  26  -1 1211.85  682.40
   1 -26  -1 2203.04  525.78
   1  26  -1 1499.97  453.42
  -1 -26  -1 -143.53  755.14
   1 -26   1 1771.98  783.02
  -1  26   1 1063.78  647.72
   1  26   2 2353.02  820.11
  -1 -26   2    2.72  897.80
  -1  26  -2 3139.37  819.87
   1 -26  -2 3617.64  640.94
   1  26  -2 3005.02  548.52
  -1 -26  -2 3075.70  567.22
   1 -26   2 2403.30  923.61
  -1 -26   3  -19.21  340.69
   1  26   3  369.80  519.83
   1 -26  -3  236.94  368.26
  -1  26  -3  -30.27  489.34
  -1 -26  -3  129.81  341.64
   1  26  -3  435.74  510.29
   1 -26   3   48.36  568.60
   1  26   4  926.22  712.76
  -1 -26   4 1242.17  479.89
  -1  26  -4 1527.81  447.96
   1 -26  -4 1437.87  539.56
   1  26  -4 1157.23  733.58
   1 -26   4 1422.07  500.80
  -1 -26   5 1064.13  507.69
   1  26   5 2237.30  774.96
  -1  26  -5 1367.02  494.55
   1 -26  -5 2184.95  890.63
   1  26  -5 1612.99  754.04
   1 -26   5 1409.91  522.05
  -1 -26   6  110.21  631.10
   1  26   6  494.47  379.24
   1 -26  -6  643.08  729.58
  -1  26  -6   75.22  595.34
   1  26  -6  409.68  370.48
   1 -26   6   58.67  646.75
   1  26   7 2137.45  509.97
  -1 -26   7  430.74  828.89
  -1  26  -7 1443.47  779.06
   1 -26  -7 1730.85  938.20
   1  26  -7 1585.54  803.16
   1 -26   7 1338.82  862.40
  -1 -26   8  517.15  453.51
   1  26   8  431.59  678.11
   1 -26  -8  268.27  807.05
  -1  26  -8  847.52  430.46
   1  26  -8  444.98  653.51
  -2   0   112511.00  540.94
  -2   0  -115231.28  658.92
  -2   0   116331.84  782.96
  -2   0   115175.68  662.54
  -2   0   114676.93  648.50
  -2   0  -117142.88  854.62
   2   0   2278555.913918.42
   2   0  -2274723.513450.62
   2   0  -383922.46 3471.59
   2   0  -377369.30 3633.47
  -2   0  -384055.41 3491.13
  -2   0   386952.06 3581.93
   2   0   376514.54 3155.43
  -2   0   386704.98 3771.83
  -2   0  -390386.69 4151.01
   2   0   414072.63  604.67
  -2   0  -412934.61  797.85
  -2   0   414932.90  835.63
  -2   0   414677.78  627.59
  -2   0  -412605.95  505.82
   2   0  -413304.98  559.75
  -2   0   5  298.76   83.02
  -2   0   5  226.20  230.53
  -2   0  -5   10.98  130.02
  -2   0  -5  412.13   80.51
   2   0   5  396.63   86.53
   2   0  -5  115.81   93.96
  -2   0  -6   37.25   90.77
  -2   0   6  290.69  188.64
  -2   0  -6  -59.91  184.99
   2   0   6   23.47   71.11
  -2   0   6  128.79   90.51
   2   0  -6   24.99   68.82
  -2   0   7 8355.63  380.49
  -2   0  -7 8524.62  519.54
   2   0   7 7945.65  377.82
  -2   0   7 8899.40  647.07
   2   0  -7 8680.13  397.94
  -2   0  -7 7891.36  417.80
  -2   0  -8 9136.48  559.24
   2   0   8 9135.11  442.02
  -2   0   8 9439.81  438.32
   2   0  -8 9259.35  456.45
  -2   0   810273.90  602.95
  -2   0  -8 8224.91  421.12
  -2   0  -915733.95  754.42
   2   0   917064.31  765.12
  -2   0  -917658.41  947.08
  -2   0   916695.13  750.60
  -2   0   919159.55  968.11
   2   0  -916353.42  734.49
  -2   0 -10 7305.84  512.19
   2   0  10 9684.83  529.22
  -2   0  10 9241.21  490.47
   2   0 -1010593.12  548.39
  -2   0  1011681.48  823.55
  -2   0 -10 9608.15  653.52
   2   0 -1140958.57 1808.60
   2   0  1134617.19 1602.95
  -2   0  1138142.39 2062.70
  -2   0 -1138909.01 1972.43
  -2   0 -1241573.89 2195.30
   2   0  1246114.71 2146.86
  -2   0  1246494.17 2519.72
   2   0 -1248015.17 2187.15
   2   0 -13  260.17  140.17
  -2   0 -13  -43.92  249.93
   2   0  13  -28.02  144.68
  -2   0  13  181.53  261.36
  -2   0 -1426601.29 1689.11
   2   0  1427047.82 1413.51
  -2   0  1425730.53 1475.70
   2   0 -1429558.39 1442.09
   2   0  15  369.24  190.81
  -2   0 -15   49.67  297.40
  -2   0  15  268.25  198.38
   2   0 -15  149.41  169.47
  -2   0 -1618884.20 1191.85
   2   0  1619601.06 1121.49
  -2   0  1619305.99 1390.95
   2   0 -1620819.90 1149.31
  -2   0 -17 2037.40  346.28
  -2   0  17 1789.80  518.71
   2   0 -17 2128.99  343.52
   2   0  17 2747.15  391.25
   2   0  18  531.59  267.39
  -2   0  18  443.93  247.73
  -2   0 -18  555.94  364.67
   2   0 -18  139.28  228.53
  -2   0 -19 2029.90  608.13
   2   0  19 3356.32  483.40
  -2   0  19 2374.08  612.25
   2   0 -19 3116.47  478.00
  -2   0 -20 6298.66  658.74
   2   0  20 5068.46  614.64
  -2   0  20 4299.09  786.07
   2   0 -20 5788.36  649.17
   2   0 -21 2508.06  455.33
   2   0  21 1870.73  300.99
  -2   0  21 2160.37  415.90
  -2   0 -21 1579.32  393.76
   2   0  22  177.96  306.22
  -2   0  22  402.88  416.52
   2   0 -22  411.78  308.08
  -2   0 -22 -413.94  387.24
  -2   0 -23  -33.09  413.59
   2   0  23  274.57  327.55
  -2   0  23  332.85  419.98
   2   0 -23  111.67  193.92
   2   0  24   19.27  289.52
  -2   0 -24    1.19  222.23
   2   0 -24  -57.62  277.04
  -2   0  24  -52.39  212.94
  -2   0 -25 -288.45  415.51
   2   0  25  -19.14  210.23
  -2   0 -26 4495.64  942.21
   2   0  26 6318.79  917.02
  -2   0  26 6321.49  784.89
  -2   0  28    9.12  685.50
  -2   0 -28 1800.05  731.76
  -2   0 -29  802.63  561.67
  -2   0  29 -100.26  355.86
  -2   0 -30 -235.36  406.70
  -2   0  30 -194.68  650.28
  -2   0 -31  -99.41  580.55
  -2   0  31  -66.22  579.13
  -2  -1   048492.78 2038.47
   2  -1   054379.40 2311.20
   2   1   049422.11 2079.00
   2   1   054200.50 2227.57
  -2  -1   056037.88 2324.19
   2  -1   054707.18 2433.81
  -2   1   046484.62 1960.68
  -2   1   053465.59 2229.38
  -2  -1   1135628.3 5918.21
  -2  -1   1134355.7 5984.28
  -2   1  -1135576.0 5963.84
  -2   1  -1129185.6 5798.35
   2   1  -1128971.0 5672.90
  -2  -1  -1129540.2 6057.09
  -2  -1  -1130072.1 5830.71
   2   1  -1134069.2 5999.68
  -2   1   1129485.2 5708.82
   2  -1   1132236.1 5904.49
  -2   1   1140504.0 6121.25
   2  -1   1135221.6 6122.95
  -2   1   1125482.3 5583.62
  -2  -1  -1131115.2 5646.12
  -2  -1  -1128557.8 5626.48
  -2   1   1124214.3 5635.71
  -2  -1   2106552.6 4789.03
  -2  -1   2105309.9 4582.65
  -2   1  -296669.37 4251.33
  -2   1  -2103606.8 4609.77
  -2  -1  -2102642.2 4323.92
  -2  -1  -2104857.5 4620.45
   2   1  -2102555.1 4663.46
  -2  -1  -2106212.3 4333.35
   2  -1   2100409.3 4465.56
  -2   1   2105892.2 4389.24
  -2   1   2101567.3 4776.19
  -2   1   2110269.2 4675.55
   2   1  -2104317.1 4555.10
  -2  -1  -2106528.7 4976.10
  -2   1   2100294.3 4396.05
   2  -1   2103067.0 4478.51
  -2  -1   324162.98 1076.28
  -2   1  -326151.02 1279.45
  -2   1  -321391.83  879.33
   2   1   321877.39  836.67
  -2  -1   317913.02  742.45
   2  -1  -321379.68  836.67
  -2  -1  -323684.14 1238.17
   2   1  -319671.26  899.32
   2  -1   321897.23 1079.51
  -2   1   324136.85 1221.02
   2   1  -323062.14  974.16
  -2   1   319442.66  749.68
   2  -1   323562.55  976.73
   2   1   459501.35 2331.95
  -2  -1   463253.82 2685.91
  -2  -1   472278.27 3314.02
  -2   1  -474014.52 3075.88
  -2   1  -473630.45 3267.50
   2  -1  -468897.80 2752.20
  -2  -1  -477729.64 3665.70
   2  -1   472353.69 3001.29
  -2   1   474049.68 3444.25
   2   1  -475728.60 3142.64
  -2   1   472278.50 2844.70
  -2  -1  -466486.72 2570.22
   2   1   523628.66  888.89
  -2  -1   528545.94 1432.16
  -2   1  -526484.15 1287.11
  -2   1  -526331.20 1102.75
  -2  -1   526863.07 1120.34
   2  -1  -526747.33 1015.71
   2   1  -527271.04 1138.29
  -2  -1  -526761.36 1460.23
  -2  -1  -526334.56  983.01
  -2   1   527051.41 1008.77
   2  -1   526846.08 1117.63
  -2   1   528301.81 1445.98
   2   1   6  926.02   90.80
  -2  -1   6 1348.01  155.14
  -2   1  -6 1245.49  197.35
   2  -1  -6 1328.86  131.65
  -2  -1   6 1378.03  197.01
  -2   1  -6 1252.75  149.05
  -2  -1  -6 1447.46  191.12
  -2  -1  -6 1514.14  122.14
   2   1  -6 1601.45  170.44
   2  -1   6 1105.81  157.45
  -2   1   6 1325.53   93.30
  -2   1   6 1381.90  201.16
   2   1   7 6255.08  279.37
  -2  -1   7 7616.40  465.51
   2  -1  -7 6727.47  286.79
  -2   1  -7 6096.54  441.39
  -2  -1   7 7066.87  376.29
  -2   1  -7 6698.92  373.59
  -2  -1  -7 7280.61  576.62
   2  -1   7 7238.64  394.81
  -2   1   7 8466.60  617.50
  -2  -1  -7 7400.95  358.49
   2   1  -7 7863.70  405.31
  -2   1   7 7219.12  326.97
   2   1   824410.72 1001.60
  -2  -1   825231.53 1105.17
   2  -1  -825320.95 1064.83
  -2   1  -825471.99 1154.43
  -2  -1   824988.76 1238.57
  -2   1  -827890.73 1367.64
   2   1  -828594.87 1214.41
  -2  -1  -824287.38 1206.98
   2  -1   826683.58 1174.79
  -2  -1  -825735.00 1070.48
  -2   1   825329.48 1065.34
  -2   1   826613.93 1305.36
   2   1   916049.74  685.43
  -2  -1   917430.31 1044.94
   2  -1  -913681.35  590.53
  -2   1  -914193.84  728.96
  -2   1  -917010.84 1060.06
  -2  -1   914524.07  686.66
  -2  -1  -914866.09  683.21
   2   1  -915710.28  749.28
   2  -1   915849.59  777.12
  -2   1   914765.93  645.13
  -2   1   916042.48  859.50
  -2  -1  -915413.26 1000.23
   2   1  1019950.41  890.20
  -2  -1  1020720.92 1242.22
  -2   1 -1020274.60 1231.16
   2  -1 -1020957.34  955.23
  -2  -1 -1018297.05  871.21
   2  -1  1019265.19  931.75
  -2   1  1018955.94 1009.02
  -2   1  1017790.24  848.73
  -2  -1 -1021048.05 1266.22
   2   1 -1020264.60  939.20
  -2  -1  1142046.52 2104.24
   2   1  1144553.19 1934.41
   2  -1 -1133151.90 1485.67
  -2   1 -1139310.95 2166.87
   2  -1  1139069.07 1809.24
  -2  -1 -1133706.73 1615.05
   2   1 -1140426.85 1838.28
  -2   1  1136957.37 1645.12
  -2  -1 -1140664.77 2228.27
  -2   1  1142624.41 2260.26
   2   1  1215085.09  766.61
  -2  -1  1215172.31 1056.42
  -2   1 -1214356.25  866.55
   2  -1 -1213476.03  687.18
  -2  -1 -1213323.93 1024.85
   2  -1  1214826.15  801.52
  -2   1  1214941.14 1020.62
   2   1 -1214175.52  758.80
   2  -1 -13 7700.72  471.47
  -2  -1  13 7476.83  733.65
   2   1  13 8030.37  511.41
  -2   1 -13 7736.58  591.95
  -2  -1 -13 8052.63  758.77
   2   1 -13 8122.71  542.52
   2  -1  13 7474.31  512.60
  -2   1  13 7014.56  547.86
   2   1  1418897.18  998.37
   2  -1 -1416052.51  848.28
  -2   1 -1419013.15 1282.24
  -2  -1  1416845.07 1023.76
   2  -1  1418455.04 1022.04
  -2   1  1416374.25 1004.48
  -2  -1 -1419172.98 1312.24
   2   1 -1415562.75  878.12
   2   1  15 9503.53  651.63
  -2  -1  15 9104.02  865.43
  -2   1 -15 9285.83  725.13
   2  -1 -15 9099.88  608.85
  -2  -1 -15 9045.26  893.92
   2   1 -1510121.46  691.14
  -2   1  15 9724.03  706.01
   2  -1  15 9234.09  664.54
   2  -1 -16 6186.72  496.20
   2   1  16 6160.77  540.12
  -2  -1  16 5688.64  723.26
  -2   1 -16 6001.39  565.38
   2  -1  16 5685.51  522.26
  -2   1  16 4759.14  670.49
  -2  -1 -16 6127.48  731.41
   2   1 -16 5420.79  495.53
   2   1  17 9045.52  694.45
  -2  -1  17 8975.65  727.69
  -2   1 -17 9346.52  964.60
   2  -1 -17 8283.44  619.18
   2  -1  17 9284.71  726.10
  -2   1  17 8316.13  897.56
   2   1 -17 9987.93  725.77
  -2  -1 -17 8611.06  898.60
   2   1  18 9641.32  779.90
  -2  -1  18 9810.94 1002.17
   2  -1 -1810249.36  743.03
  -2   1 -1810362.94 1046.32
   2   1 -1810835.72  816.43
  -2  -1 -1810029.46  830.46
  -2   1  18 9856.03  985.80
   2  -1  1810464.31  856.88
  -2   1 -19 3574.17  506.88
   2  -1 -19 4005.09  490.55
   2   1  19 4008.70  515.27
  -2  -1  19 4246.64  526.03
  -2  -1 -19 4850.69  552.86
   2   1 -19 4452.51  536.64
   2  -1  19 4369.19  562.25
  -2   1  19 3457.94  470.81
   2   1  2012471.29  976.87
  -2  -1  2011425.03 1171.70
  -2   1 -2010893.16 1162.58
   2  -1 -2011580.04  865.72
  -2  -1 -2011389.35 1190.56
   2  -1  2012155.46 1005.31
   2   1 -2012692.37 1004.01
  -2   1  2012573.62 1003.38
   2   1  21 1456.46  479.65
  -2  -1  21 2448.41  646.66
   2  -1 -21 3054.18  472.84
  -2   1 -21 2428.58  469.65
  -2  -1 -21 2295.80  662.00
   2   1 -21 3816.02  565.22
   2  -1  21 3285.97  546.63
  -2   1  21 2297.89  706.17
  -2  -1  22 2525.54  476.00
   2  -1 -22 3048.95  561.35
   2   1  22 2959.51  542.77
   2   1 -22 3628.11  607.36
  -2  -1 -22 2717.19  689.40
  -2   1  22 3941.69  745.95
   2  -1  22 3510.58  605.29
   2  -1 -23 1116.44  443.95
   2   1  23 1538.38  441.00
  -2   1 -23 -375.36  557.67
   2   1 -23 1142.09  295.96
  -2  -1 -23  825.78  352.41
   2  -1  23  866.55  456.15
  -2   1  23 1044.38  367.94
   2   1  24 4018.93  690.30
  -2   1 -24 3368.96  531.44
  -2  -1  24 4557.81  644.51
   2   1 -24 5934.44  800.05
   2  -1  24 3981.93  719.36
  -2   1  24 3794.32  803.17
   2   1  25 1938.53  571.25
  -2   1 -25  -85.13  657.46
  -2  -1  25 2783.97  719.20
  -2  -1 -25  -52.13  674.34
   2   1 -25 2172.42  651.74
   2  -1  25 2272.87  395.17
  -2  -1  26 2204.24  760.79
  -2   1 -26  369.00  744.45
  -2  -1 -26  266.22  706.17
   2  -1  26 2974.01  649.15
  -2   1  26 2197.34  465.24
  -2  -1  27    4.94  287.11
  -2   1 -27 -113.22  298.14
  -2   1  27 1322.68  470.97
  -2  -1 -27 -211.47  294.90
  -2  -1  28 -207.49  476.60
  -2   1 -28  545.68  488.27
  -2  -1 -28    0.51  474.20
  -2   1  28  -51.57  481.50
  -2  -1  29  -86.07  363.93
  -2   1 -29  337.37  591.61
  -2  -1 -29 1094.89  584.00
  -2   1  29   72.81  360.10
  -2  -1  30  210.32  700.20
  -2   1 -30  855.19  429.93
  -2  -1 -30  428.40  410.99
  -2   1  30  101.73  703.96
  -2  -1  31 -108.79  545.85
  -2   1 -31  -83.62  536.59
  -2  -1 -31  -24.10  320.55
  -2   1  31   32.77  531.43
   2  -2   0 2179.08  193.96
  -2   2   0 3079.59  256.99
   2   2   0 3084.12  335.05
  -2  -2   0 2338.44  205.98
   2  -2   0 2620.82  218.90
  -2  -2   0 2091.25  169.67
   2   2   0 2149.36  174.47
  -2   2   0 2741.39  191.06
  -2  -2   1203603.7 9614.81
   2   2   1209177.3 9891.57
   2  -2  -1216409.5 9958.96
  -2   2  -1218249.710412.90
  -2   2  -1224637.110626.90
   2  -2  -1215608.910516.78
  -2   2   1196462.8 9475.51
   2   2  -1214895.210196.05
   2   2  -1203593.7 9634.50
  -2  -2  -1208820.710214.71
   2  -2   1205834.5 9806.84
  -2  -2   217464.95  856.68
  -2   2  -217522.75  793.59
  -2  -2   217919.60  831.42
  -2  -2  -216072.75  634.13
  -2  -2  -219160.56  735.58
   2   2  -216219.91  775.48
  -2   2   218739.81  723.95
   2   2  -217354.30  830.11
   2  -2   217496.36  759.10
  -2  -2  -217786.14  825.90
   2  -2   217778.91  747.33
  -2   2   215043.66  729.35
  -2  -2   332240.04 1531.27
  -2  -2   331904.01 1403.37
  -2   2  -332166.51 1533.99
  -2   2  -332174.32 1383.78
  -2  -2  -335471.75 1748.35
  -2  -2  -331507.32 1126.40
   2   2  -331275.89 1464.19
  -2   2   335999.57 1335.22
  -2   2   332687.22 1220.00
   2   2  -335892.53 1536.78
   2  -2   334878.57 1494.99
  -2   2   335815.01 1697.18
  -2  -2   414747.06  727.64
  -2   2  -413502.56  636.48
  -2  -2   413766.93  663.15
  -2   2  -412817.33  646.76
   2   2  -411736.50  524.74
  -2  -2  -412210.10  368.40
  -2   2   413313.56  465.95
  -2   2   413471.01  819.16
   2  -2   413041.64  644.50
  -2  -2  -411205.97  603.82
  -2  -2   510133.11  680.49
  -2   2  -5 9383.87  487.06
  -2   2  -5 9869.98  543.43
  -2  -2   5 9850.69  508.91
  -2  -2  -5 9105.39  285.56
  -2  -2  -5 9705.36  540.97
   2  -2   511103.72  543.59
   2   2  -510539.52  557.29
  -2   2   5 9334.42  514.34
   2   2   610303.97  365.23
  -2  -2   611591.96  575.83
   2  -2  -610528.58  361.90
  -2   2  -611349.31  568.04
  -2  -2   612677.14  691.42
  -2   2  -611468.38  749.73
  -2  -2  -610225.93  367.97
  -2  -2  -611302.03  615.74
   2   2  -611903.50  595.87
   2  -2   612826.57  626.80
  -2   2   610325.57  361.31
  -2   2   611409.54  596.17
  -2  -2   7 9009.01  673.15
  -2  -2   7 9261.63  506.30
   2   2   7 7755.25  322.97
  -2   2  -7 9316.31  498.12
  -2   2  -7 9014.30  553.30
  -2  -2  -7 7788.26  333.93
  -2  -2  -7 7735.50  632.33
  -2   2   7 8632.45  336.92
   2  -2   7 9870.42  534.18
   2   2  -7 9098.26  510.44
  -2   2   7 9521.56  669.66
  -2  -2   846661.71 2215.92
   2   2   842798.14 1719.28
  -2   2  -843186.74 2067.29
   2  -2  -837130.69 1476.55
  -2  -2  -840178.82 1663.84
  -2  -2  -846424.65 2364.55
   2  -2   847118.66 2086.93
  -2   2   844798.55 2112.95
   2   2  -843105.78 1952.57
  -2   2   843020.91 1692.67
  -2  -2   9 6578.04  590.68
   2   2   9 5271.57  284.46
   2  -2  -9 6275.14  314.35
  -2   2  -9 4230.54  517.90
  -2  -2  -9 4208.96  497.99
  -2   2   9 5842.94  305.59
   2  -2   9 5656.73  410.82
  -2   2   9 5722.85  543.84
   2   2  -9 6076.14  412.86
  -2  -2  -9 4198.56  252.00
   2   2  1051606.97 2147.19
  -2  -2  1053255.35 2565.71
  -2   2 -1048900.88 2396.70
   2  -2 -1054761.83 2266.64
  -2  -2 -1042272.37 1900.24
  -2   2  1043310.71 1744.86
  -2  -2 -1047447.16 2341.66
   2  -2  1045885.09 2026.63
   2   2 -1049432.43 2273.80
  -2   2  1049170.07 2505.04
  -2  -2  11 8128.67  741.46
   2  -2 -11 8303.18  426.96
   2   2  1110041.91  518.06
  -2   2 -11 7919.25  732.61
  -2  -2 -1110101.13  795.07
  -2   2  11 8494.51  392.85
   2  -2  11 9448.35  604.23
   2   2 -11 9117.30  496.14
  -2   2  11 9589.35  608.43
   2   2  12 9714.97  524.87
  -2  -2  1211416.54  729.21
   2  -2 -1210998.90  589.82
  -2   2 -1211183.09  888.06
   2   2 -1210910.27  645.58
   2  -2  1211099.12  658.62
  -2   2  12 8226.58  414.81
  -2   2  12 9540.58  648.03
  -2  -2 -1211053.06  852.75
   2   2  1350881.03 2331.90
  -2  -2  1348822.07 2660.40
  -2   2 -1347033.35 2427.08
   2  -2 -1339957.23 1815.74
   2  -2  1349533.19 2391.61
  -2  -2 -1344984.47 2555.29
  -2   2  1344472.94 2314.63
   2   2 -1340610.94 1885.89
   2   2  14  647.50  189.34
  -2  -2  14  581.80  242.41
   2  -2 -14  592.92  159.57
  -2   2 -14  814.80  346.48
   2   2 -14  497.11  226.31
  -2  -2 -14  733.21  346.14
   2  -2  14  878.16  155.40
  -2   2  14 1003.01  223.44
   2   2  1511014.66  693.66
  -2  -2  1511566.12  978.65
  -2   2 -1511669.46  833.87
   2  -2 -1510345.49  621.96
  -2  -2 -1511395.26  800.00
  -2   2  1510081.38  719.47
   2  -2  1510943.97  729.67
   2   2 -1512266.31  792.04
   2   2  16  294.95  194.35
  -2  -2  16  505.90  226.99
  -2   2 -16  -69.97  324.07
   2  -2 -16  503.65  242.94
   2   2 -16  391.94  227.72
  -2  -2 -16  400.70  338.44
  -2   2  16  500.12  207.29
   2  -2  16  254.63  158.46
   2   2  17 8076.67  613.53
  -2  -2  17 7030.16  800.32
   2  -2 -17 8428.11  609.12
  -2   2 -17 7535.13  690.03
   2   2 -17 7145.80  480.85
  -2  -2 -17 7126.59  800.34
   2  -2  17 6918.01  622.15
  -2   2  17 6799.50  631.19
   2   2  18 3823.48  459.62
  -2  -2  18 2942.08  446.25
  -2   2 -18 3174.08  629.97
   2  -2 -18 3801.85  542.78
  -2  -2 -18 3937.40  663.75
   2   2 -18 3259.42  481.52
  -2   2  18 2968.87  618.84
   2  -2  18 3778.70  490.04
  -2  -2  1913737.94 1214.05
  -2   2 -1911631.59 1163.83
   2  -2 -1912084.74  864.36
   2   2  1912095.19  893.40
  -2   2  1912424.24 1149.65
   2  -2  1912687.20 1012.33
   2   2 -1913023.95  986.50
   2   2  20 1167.12  240.78
   2  -2 -20 1336.72  344.81
  -2  -2  20 1409.63  344.20
  -2   2 -20 1676.82  380.68
  -2  -2 -20 1527.50  531.70
   2  -2  20 1276.71  426.69
  -2   2  20 1802.54  562.72
   2   2 -20 1175.11  386.49
  -2  -2  21 -139.83  411.18
   2  -2 -21   28.30  258.38
   2   2  21  458.14  272.61
  -2   2 -21  587.49  404.41
   2   2 -21  498.58  309.13
  -2  -2 -21  221.36  240.02
  -2   2  21 -114.97  231.03
   2  -2  21  431.07  317.19
   2   2  22 2324.14  535.77
  -2  -2  22 3172.96  699.47
  -2   2 -22 3307.44  499.60
   2  -2 -22 3378.45  524.50
  -2  -2 -22 1711.61  433.85
  -2   2  22 3567.37  512.82
   2   2 -22 3600.05  594.65
   2   2  23 1773.09  326.38
  -2  -2  23 1662.41  645.83
   2  -2 -23 1588.45  463.93
  -2   2 -23  249.90  585.42
  -2  -2 -23 1203.44  396.33
   2   2 -23 1726.64  501.93
   2  -2  23 1956.37  505.32
  -2  -2  24  814.40  645.89
   2   2  24 1286.54  466.39
  -2   2 -24 -369.79  605.43
   2   2 -24 1532.57  347.81
  -2  -2 -24 1391.17  626.84
  -2   2  24 1427.37  636.69
   2  -2  24 1800.33  537.54
  -2   2 -25 3893.07  584.11
  -2  -2  25 4932.65  698.16
   2   2 -25 5796.11  885.30
  -2  -2 -25 1570.44  861.34
   2  -2  25 4223.16  549.02
  -2  -2  26 3257.29  815.41
  -2   2 -26   32.71  764.42
  -2  -2 -26 -475.57  757.08
   2   2 -26 2489.37  769.74
  -2   2  26 2840.04  521.45
   2  -2  26 3496.71  662.57
  -2  -2  27 5667.13  748.63
  -2   2 -27 6892.97  884.18
  -2  -2 -27 4721.59  695.71
  -2   2  27 6379.55 1094.23
   2  -2  27 7021.47  979.31
  -2  -2  28  333.86  434.78
  -2   2 -28  419.94  424.33
  -2  -2 -28 -658.56  405.99
  -2   2  28  -79.37  403.21
  -2   2 -29 3233.60  739.99
  -2  -2  29   91.70  462.79
  -2  -2 -29 1240.18  687.85
  -2   2  29 -280.17  445.25
  -2  -2  30   80.88  552.70
  -2   2 -30   32.48  333.73
  -2  -2 -30  239.09  545.43
  -2  -2  31 -297.58  404.36
  -2   2 -31   73.50  660.16
  -2  -2 -31  647.97  382.85
  -2   2  31 -136.06  609.95
   2   3   0  841.28  119.23
   2  -3   0  636.50  128.08
   2   3   0 1170.87  243.70
   2  -3   0  994.88  173.59
  -2   3   0 1109.92  162.71
  -2   3   0  534.85  125.58
  -2  -3   0  541.98  133.79
   2   3   1 1353.54  278.68
   2   3   1  977.29  104.58
  -2   3  -1  927.73  134.99
   2  -3  -1 1225.90  304.07
  -2   3  -1  683.77  192.06
  -2  -3   1 1563.91  200.16
   2  -3  -1 1107.62  127.16
   2   3  -1  353.49  137.00
  -2  -3  -1  969.53  122.73
   2  -3   1  739.16  104.85
   2  -3   1  863.38  242.60
  -2   3   1  836.18  127.63
   2   3  -1  816.28  235.77
  -2   3  -294211.37 4183.66
   2   3   2102264.8 4763.11
  -2  -3   2106621.0 4795.08
   2  -3  -297463.31 4023.46
  -2   3  -2103391.1 4582.37
  -2  -3   298076.13 4469.39
   2  -3  -2101221.0 4831.62
   2   3  -295755.22 4200.39
  -2  -3  -2103807.5 4197.04
   2   3  -292221.67 4122.34
  -2   3   2102763.0 4181.68
   2  -3   2102060.4 4602.69
   2  -3   292966.39 4204.73
  -2   3  -3 4470.03  330.74
   2  -3  -3 3652.45  171.23
   2  -3  -3 3691.43  313.16
   2   3   3 4097.72  323.36
  -2  -3   3 3857.28  392.00
  -2   3  -3 4023.72  287.18
   2   3  -3 3818.82  252.40
   2  -3   3 4401.30  370.03
   2   3  -3 2919.64  215.86
  -2   3   3 4030.04  178.82
  -2   3  -4  433.69  161.39
  -2   3  -4  323.02  226.78
  -2  -3   4  611.87  240.33
   2   3  -4  562.58  204.36
  -2   3   4  389.14  258.62
   2  -3   4  801.53  195.10
  -2   3   4  456.80   34.12
  -2  -3  -4  715.43  163.60
  -2  -3   538268.61 1903.53
  -2   3  -536867.94 1872.75
  -2  -3  -535102.05 1616.13
   2   3  -537059.29 1678.66
  -2   3   535846.32 1616.95
   2  -3   535860.46 1612.94
  -2   3  -629408.03 1457.14
  -2  -3   631245.68 1666.58
   2   3  -631417.68 1476.37
  -2  -3  -629538.73 1426.05
  -2   3   630293.64 1405.36
   2  -3   633993.09 1531.36
  -2  -3   7 6656.74  590.41
  -2   3  -7 6794.06  562.83
  -2  -3  -7 6375.47  423.31
  -2   3   7 6827.60  578.64
   2   3  -7 7124.33  458.48
   2  -3   7 5662.58  326.74
   2   3   8 7269.61  321.82
  -2   3  -8 6682.87  593.79
  -2  -3   8 7221.83  493.92
  -2  -3  -8 6798.02  582.10
   2   3  -8 7729.00  505.12
  -2  -3  -8 6201.02  294.69
  -2   3   8 7395.19  599.60
   2  -3   8 6907.05  475.53
  -2   3   8 6682.16  251.48
   2   3   921378.13  876.95
   2  -3  -918808.64  737.25
  -2   3  -920707.61 1092.96
  -2  -3   920853.24 1242.93
  -2  -3  -920718.92 1221.55
   2   3  -917014.02  812.27
  -2   3   919838.07  756.62
  -2   3   920022.39 1020.01
  -2  -3  -919303.96  818.07
   2  -3   919316.89  880.14
   2   3  1040321.85 1679.91
  -2  -3  1039545.05 2151.81
   2  -3 -1036341.64 1501.32
  -2   3 -1041914.05 2304.14
  -2  -3 -1033199.72 1458.71
  -2  -3 -1038837.15 1925.04
   2   3 -1044257.52 2069.40
   2  -3  1043087.32 2044.47
  -2   3  1036607.04 1485.69
  -2   3  1039891.80 2108.47
  -2   3 -11 4884.34  406.56
   2  -3 -11 4276.20  269.98
  -2  -3  11 5620.97  452.65
   2   3  11 4421.78  322.83
  -2  -3 -11 3560.29  295.81
  -2  -3 -11 3634.18  488.73
   2   3 -11 3798.50  274.75
  -2   3  11 3629.28  217.27
  -2   3  11 4520.77  522.31
   2  -3  11 4536.43  398.22
   2  -3 -1217608.35  784.73
  -2  -3  1220116.28 1287.06
   2   3  1219879.92  920.62
  -2   3 -1219719.20 1292.60
  -2  -3 -1219169.50 1226.38
  -2  -3 -1215226.41  787.01
   2   3 -1215911.98  806.27
   2  -3  1219005.27  923.73
  -2   3  1216148.71  745.82
  -2   3  1218257.64 1004.86
  -2  -3  13 1139.18  351.49
   2   3  13  535.84  167.09
   2  -3 -13  715.36  172.97
  -2   3 -13  684.93  212.41
  -2  -3 -13  742.95  322.70
   2   3 -13  704.76  242.32
   2  -3  13  777.23  237.52
  -2   3  13  450.96  111.24
  -2   3  13  657.44  215.54
   2   3  14 4174.01  361.08
  -2  -3  14 4378.68  458.46
   2  -3 -14 4638.01  330.78
  -2   3 -14 5122.20  609.59
  -2  -3 -14 4666.40  446.18
   2   3 -14 5288.71  465.99
   2  -3  14 5658.83  490.11
  -2   3  14 4201.17  554.95
  -2  -3  15 4342.94  648.30
  -2   3 -15 4241.65  484.44
   2  -3 -15 4932.43  369.33
   2   3  15 5501.96  426.60
   2   3 -15 6161.50  510.39
   2  -3  15 5744.88  402.56
  -2   3  15 5488.58  646.74
  -2  -3 -15 6006.40  521.55
   2   3  16 1336.22  241.57
  -2  -3  16 1497.25  293.36
  -2   3 -16 1143.00  407.20
   2  -3 -16 1117.15  212.69
  -2  -3 -16 1189.80  277.03
   2   3 -16 1581.29  331.32
   2  -3  16 1410.97  327.65
  -2   3  16 1113.16  439.51
   2   3  17 6487.65  556.19
  -2  -3  17 7056.55  800.16
   2  -3 -17 7640.94  543.41
  -2   3 -17 7588.29  660.82
  -2  -3 -17 6242.28  613.84
   2   3 -17 6434.04  474.45
  -2   3  17 6416.92  753.38
   2  -3  17 5457.34  439.34
  -2   3 -18 2912.18  634.31
   2   3  18 2999.07  406.40
  -2  -3  18 3369.85  645.44
   2  -3 -18 2524.82  372.18
   2  -3  18 2645.43  448.57
  -2  -3 -18 2854.67  405.20
   2   3 -18 3305.87  470.93
  -2   3  18 2267.23  562.78
   2   3  1913357.64  948.93
   2  -3 -1912909.38  925.31
  -2  -3  1912471.87  983.61
  -2   3 -1910960.75  921.89
   2   3 -1914605.61 1061.50
  -2  -3 -1910436.24  908.30
   2  -3  1911551.57  979.35
  -2   3  1911266.27  926.14
  -2  -3  20 2948.49  644.88
   2   3  20 2402.45  402.14
   2  -3 -20 2166.17  376.40
  -2   3 -20 2128.12  567.32
   2  -3  20 1991.77  461.55
   2   3 -20 2678.13  494.60
  -2  -3 -20 1787.67  383.32
  -2   3  20 2119.24  404.07
   2   3  21 3491.51  535.25
  -2  -3  21 4004.63  568.66
  -2   3 -21 3043.13  518.21
   2  -3 -21 4167.15  567.50
   2   3 -21 4453.90  656.70
  -2  -3 -21 3595.95  521.12
   2  -3  21 4066.23  622.97
  -2   3  21 4628.63  544.61
  -2  -3  22 1441.91  665.69
   2   3  22 1956.79  446.60
   2  -3 -22 1557.71  451.46
  -2   3 -22 2327.18  678.71
   2   3 -22 1395.32  497.42
  -2  -3 -22 2157.20  653.56
  -2   3  22 2318.04  609.69
   2  -3  22 2118.36  516.16
  -2  -3  23 8337.45  879.84
   2   3  23 8648.73  910.98
  -2   3 -23 8682.06  916.57
   2   3 -2310591.06 1070.72
  -2  -3 -23 6901.71 1026.26
   2  -3  23 7966.26  965.79
  -2   3 -24  -31.35  739.89
  -2  -3  24 5288.15  895.28
  -2   3  24 3867.30  777.58
   2   3 -24 4753.90  739.93
  -2  -3 -24  621.28  717.65
   2  -3  24 3642.64  678.92
  -2  -3  25 6839.30  812.41
  -2   3 -25 6865.66  873.83
   2   3 -25 6727.89  730.59
  -2  -3 -25 3516.55  961.19
  -2   3  25 5472.86  709.69
   2  -3  25 6144.24  674.33
  -2   3 -26 2703.44  853.57
  -2  -3 -26 2506.84  541.36
  -2   3  26 2074.61  514.06
   2  -3  26 2401.65  689.13
   2   3 -26 2520.35  746.54
  -2  -3  27 3177.39  548.97
  -2   3 -27 2291.20  515.98
  -2  -3 -27 -154.66  484.06
  -2   3  27 2732.91  824.34
   2  -3  27 1810.35  710.29
  -2   3 -28  510.31  667.85
  -2  -3  28 -142.70  669.23
  -2  -3 -28  530.19  643.05
   2  -3  28 1056.81  620.26
  -2   3  28 1359.08  652.14
  -2  -3  29   80.72  400.17
  -2   3 -29 1411.26  660.59
  -2  -3 -29  355.11  600.19
  -2   3  29  258.74  377.15
  -2  -3  30   22.26  634.21
  -2   3 -30  501.84  401.56
  -2  -3 -30  745.21  605.10
  -2   3  30 -171.84  374.15
  -2  -4   021826.13  946.22
   2   4   019003.02  822.26
  -2   4   022353.11  973.09
   2  -4   021912.81 1146.11
   2  -4   019936.37  866.29
   2   4   020911.62 1079.96
   2   4   1  177.30  122.30
   2   4   1   99.05   75.89
  -2  -4   1  137.73  134.06
   2  -4  -1  384.05  239.65
   2  -4  -1   81.74   80.53
  -2   4  -1  407.06  140.19
   2   4  -1  499.84  199.00
  -2  -4  -1  349.51  120.05
   2   4  -1   68.84  105.87
  -2   4   1  197.50   89.91
   2  -4   1  535.06  207.49
   2  -4   1  292.81  116.50
   2  -4  -2 8289.79  391.77
   2   4   2 9388.00  495.05
  -2  -4   2 9032.46  449.95
  -2   4  -2 9907.52  498.22
   2  -4  -2 8632.03  672.73
   2   4   2 8860.20  376.94
   2   4  -2 9318.20  586.04
  -2  -4  -2 9257.49  410.41
   2   4  -2 8182.87  475.21
   2  -4   2 8250.69  416.98
   2  -4   2 8789.07  591.03
  -2   4   2 9186.31  421.62
   2   4   3 6960.00  571.92
  -2  -4   3 7781.42  522.60
   2   4   3 6937.62  267.44
   2  -4  -3 7616.81  626.85
   2  -4  -3 6959.90  288.43
  -2   4  -3 6874.17  514.10
  -2  -4  -3 6810.77  265.61
   2   4  -3 8172.58  520.52
  -2   4   3 7706.54  317.79
   2  -4   3 7404.54  511.49
   2   4   4 3842.72  291.50
  -2  -4   4 3421.81  364.64
   2  -4  -4 2842.35  312.38
  -2   4  -4 3481.71  364.24
   2   4  -4 3084.04  239.49
   2  -4   4 2675.12  332.88
  -2  -4   5 6872.92  538.22
  -2   4  -5 6688.66  536.14
  -2  -4  -5 6372.21  574.87
   2   4  -5 6685.32  468.01
   2  -4   5 7000.16  515.72
  -2   4   5 7355.76  449.26
  -2  -4   612258.15  709.44
  -2   4  -613038.82  827.60
   2   4  -611672.25  576.45
  -2  -4  -612419.72  863.92
   2  -4   612187.12  592.42
  -2   4   614117.35  919.48
   2   4   738198.00 1385.02
  -2  -4   740085.19 1937.02
  -2   4  -741913.53 2115.73
   2   4  -738074.82 1685.48
  -2  -4  -746138.59 2342.72
  -2   4   740104.72 1887.33
   2  -4   744626.14 2064.05
  -2  -4   8  602.33  191.34
   2   4   8  649.77   85.16
   2   4   8  448.48   78.84
  -2   4  -8  -20.59  270.68
   2   4  -8  890.91  241.18
  -2  -4  -8  493.61  289.09
   2  -4   8  478.39  136.48
  -2   4   8  735.07  176.63
   2   4   922662.69  960.57
   2   4   925145.14  982.81
  -2   4  -925355.99 1456.39
   2  -4  -920470.15  757.00
  -2  -4   926384.15 1347.57
  -2  -4  -924630.05 1278.02
   2   4  -926188.94 1319.28
  -2   4   925597.42 1472.40
   2  -4   927375.06 1349.74
  -2  -4  10 6628.97  508.89
   2   4  10 6954.60  358.27
   2  -4 -10 6107.45  293.09
  -2   4 -10 6154.81  505.52
  -2  -4 -10 6704.27  624.24
   2   4 -10 7549.22  555.71
   2  -4  10 7401.14  568.16
  -2   4  10 8495.63  666.33
  -2  -4  1121814.15 1340.18
   2   4  1120502.88  968.64
  -2   4 -1121076.74 1333.49
  -2  -4 -1119896.45 1127.54
   2   4 -1117579.04  885.02
  -2  -4 -1116974.13  834.35
   2  -4  1120787.66 1119.23
  -2   4  1120893.61 1241.30
  -2   4  1119122.27  815.99
   2   4  1221073.49 1013.68
  -2  -4  1221153.02 1347.54
   2  -4 -1219679.04  837.39
  -2   4 -1219440.88 1306.14
   2   4 -1217873.59  898.07
  -2  -4 -1221215.06 1319.92
   2  -4  1219945.41 1100.24
  -2   4  1220601.78 1106.14
  -2   4  1219250.92  858.01
  -2  -4  13 3954.40  545.09
   2   4  13 3834.59  297.51
  -2   4 -13 3944.96  400.24
   2  -4 -13 3266.62  230.97
  -2  -4 -13 3738.37  367.84
   2   4 -13 3588.80  397.48
  -2   4  13 3524.99  507.05
  -2   4  13 2937.97  250.91
   2  -4  13 4244.35  436.08
   2   4  1415363.50  883.05
  -2  -4  1413874.61  891.28
  -2   4 -1416276.22 1153.58
   2  -4 -1414451.42  707.62
   2   4 -1415306.20  929.52
  -2  -4 -1414692.69  932.38
   2  -4  1415800.35  947.65
  -2   4  1414643.11 1046.18
  -2   4  1411949.93  635.64
   2   4  15 5416.38  417.96
  -2   4 -15 4981.02  659.25
   2  -4 -15 4768.76  354.68
  -2  -4  15 4591.90  643.81
  -2  -4 -15 4908.52  620.47
   2   4 -15 5641.03  522.93
  -2   4  15 5837.75  640.25
   2  -4  15 4881.26  505.79
   2   4  16 8371.95  591.99
  -2  -4  16 9325.75  911.47
   2  -4 -16 8568.04  554.15
  -2   4 -16 8550.42  693.70
   2   4 -16 8477.70  704.04
  -2  -4 -16 8280.84  852.02
  -2   4  16 9205.19  841.54
   2  -4  16 8594.70  700.91
  -2  -4  17  983.95  307.59
   2   4  17 1862.83  292.29
  -2   4 -17  950.93  480.86
   2  -4 -17 1324.65  241.52
   2   4 -17 1484.50  236.42
  -2  -4 -17 1537.72  432.10
   2  -4  17 1758.15  379.58
  -2   4  17 1264.75  459.08
  -2  -4  1813543.93 1223.05
   2   4  1814289.52  942.78
  -2   4 -1813816.26 1040.87
   2  -4 -1816168.45 1067.24
   2   4 -1814988.33 1051.99
  -2  -4 -1815560.78 1322.10
   2  -4  1811822.44  809.00
  -2   4  1813538.91 1148.21
  -2  -4  19  943.62  494.30
   2   4  19  632.11  298.96
  -2   4 -19  439.82  474.03
   2  -4 -19  744.97  261.41
  -2  -4 -19  790.24  477.40
   2   4 -19 1159.88  412.28
   2  -4  19 2004.16  299.50
  -2   4  19 1049.76  442.84
  -2  -4  20 2732.67  466.65
   2   4  20 2941.93  462.08
  -2   4 -20 3107.39  650.85
   2  -4 -20 3754.60  463.85
  -2  -4 -20 2657.78  658.19
   2  -4  20 3332.89  555.91
  -2   4  20 2542.62  640.42
  -2  -4  21 5310.62  886.61
  -2   4 -21 5860.80  691.11
   2   4  21 6811.30  720.89
   2  -4 -21 7018.20  686.93
  -2  -4 -21 5521.22  879.90
   2   4 -21 7043.27  804.83
   2  -4  21 6460.82  780.86
  -2   4  21 6129.40  863.87
  -2  -4  22  359.77  278.61
   2   4  22  124.44  282.97
  -2   4 -22  478.41  445.37
  -2  -4 -22  195.58  423.85
   2   4 -22  376.43  353.33
  -2   4  22  711.87  420.49
   2  -4  22 -134.90  369.28
  -2  -4  23 2915.25  749.05
   2   4  23 3562.15  580.06
  -2   4 -23 2880.37  541.49
  -2  -4 -23  471.79  698.90
   2  -4  23 3853.03  681.78
  -2   4  23 3384.57  746.14
  -2  -4  24 3739.21  885.09
  -2   4 -24 3357.73  841.81
   2   4 -24 4201.27  747.68
  -2  -4 -24 1429.75  745.74
  -2   4  24 3005.90  524.31
   2  -4  24 4564.22  768.25
  -2  -4  25 3962.21  688.49
  -2   4 -25 5011.54  739.97
   2   4 -25 5238.52  888.44
  -2  -4 -25 5644.07  969.92
  -2   4  25 4541.02  655.07
   2  -4  25 4617.24  599.52
  -2  -4  26 6035.00 1108.91
  -2   4 -26 6299.13 1128.04
   2   4 -26 6438.78  744.64
  -2  -4 -26 6305.59  812.84
  -2   4  26 5744.40  755.34
   2  -4  26 5283.36  684.65
  -2   4 -27  876.64  422.45
  -2  -4  27 -195.09  433.64
   2   4 -27 1599.45  613.09
  -2  -4 -27 1261.04  419.65
   2  -4  27 1256.08  616.89
  -2   4  27 1102.95  669.24
  -2  -4  28  -27.89  963.91
  -2   4 -28 2754.01  932.01
  -2  -4 -28 4602.06  702.05
   2  -4  28 3404.64  902.28
  -2   4  28 3914.21  915.22
  -2  -4  29  126.81  398.62
  -2   4 -29 1588.45  677.42
  -2  -4 -29  584.13  614.67
  -2   4  29   80.84  628.00
  -2  -4  30 -218.76  678.84
  -2   4 -30 1451.83  698.40
  -2  -4 -30 1282.02  636.65
  -2   4  30 -428.06  421.66
  -2  -5   010275.85  498.67
   2   5   011927.92  726.17
   2  -5   010282.65  560.88
  -2   5   011469.26  592.64
   2  -5   010470.30  524.97
   2   5   010668.56  528.58
   2   5   1 9898.72  538.57
   2   5   1 9323.11  442.69
  -2  -5   111714.26  629.95
  -2   5  -111797.21  633.04
   2  -5  -110109.32  731.55
   2  -5  -1 9758.16  459.29
  -2  -5  -110286.05  482.41
   2   5  -1 9966.63  537.65
   2   5  -111016.88  546.04
   2  -5   110061.98  532.66
   2  -5   1 9938.50  532.00
  -2   5   110186.40  499.73
   2   5   2 4926.18  283.35
   2   5   2 4586.86  338.39
   2  -5  -2 5980.50  541.63
   2  -5  -2 4737.30  247.17
  -2   5  -2 5131.77  411.10
  -2  -5   2 5395.27  410.86
  -2  -5  -2 5277.59  261.02
   2   5  -2 5797.90  473.09
  -2   5   2 6187.41  349.84
   2  -5   2 5363.26  481.90
   2   5  -2 4460.30  340.56
   2   5   3 6404.43  535.98
  -2  -5   3 6297.05  467.83
   2   5   3 5987.37  277.89
   2  -5  -3 5862.24  408.03
   2  -5  -3 6225.38  280.69
  -2   5  -3 4845.83  424.85
  -2  -5  -3 5790.53  271.84
  -2   5   3 6444.08  306.42
   2  -5   3 5058.22  462.93
   2   5  -3 5375.36  342.64
  -2  -5   4 9065.57  613.32
   2   5   4 8665.39  645.57
   2   5   4 8705.19  332.30
  -2   5  -4 8236.76  462.02
   2  -5  -4 9496.62  352.62
   2  -5  -4 9757.13  720.91
  -2  -5  -4 8800.26  339.05
   2   5  -4 8702.30  589.94
   2  -5   4 7642.38  440.99
  -2   5   4 9136.58  344.84
   2   5   5 4414.85  326.12
  -2  -5   5 3788.47  405.49
   2  -5  -5 4625.90  369.63
  -2   5  -5 3973.98  415.78
   2   5  -5 4412.97  410.57
  -2  -5  -5 3540.61  155.57
  -2   5   5 3501.45  128.75
   2  -5   5 4351.26  410.41
   2   5   640079.10 1421.74
   2   5   636398.18 1331.26
  -2  -5   646643.50 2281.51
  -2   5  -643177.16 2181.65
   2   5  -644412.68 2078.10
  -2  -5  -644607.70 2291.50
  -2   5   638166.68 1808.78
   2  -5   643442.03 2049.35
   2   5   710370.57  384.54
  -2  -5   7 9432.57  571.30
   2   5   7 8481.34  330.31
  -2   5  -7 9726.57  586.14
  -2  -5  -710128.98  740.62
   2   5  -710106.42  655.97
   2  -5   710445.34  675.64
  -2   5   7 9793.17  579.48
  -2  -5   8 7300.85  627.48
   2   5   8 7984.61  346.10
   2   5   8 6861.38  303.17
  -2   5  -8 6723.38  479.95
  -2  -5  -8 8174.97  518.45
  -2   5   8 8318.62  509.04
   2  -5   8 7855.87  559.87
   2   5  -8 8924.63  612.42
  -2  -5   9 7142.73  637.83
   2   5   9 6609.95  342.46
  -2   5  -9 6098.01  496.39
   2   5   9 7566.60  380.31
   2   5  -9 7957.65  593.99
  -2  -5  -9 7376.94  511.37
   2  -5   9 7548.71  583.32
  -2   5   9 9173.23  695.09
   2   5  10 3907.16  245.64
   2   5  10 3835.72  229.96
  -2  -5  10 4702.88  546.42
  -2   5 -10 4517.75  537.43
  -2  -5 -10 4593.89  513.28
   2  -5  10 5236.60  349.51
  -2   5  10 5918.98  417.97
   2   5 -10 4847.49  335.66
   2   5  1125906.55 1210.70
   2   5  1124236.46 1057.83
  -2  -5  1130507.80 1760.41
   2  -5 -1127156.23 1109.86
  -2   5 -1128833.99 1729.90
   2   5 -1125049.33 1256.76
  -2  -5 -1129104.09 1504.31
  -2   5  1130391.21 1697.94
   2  -5  1129025.35 1523.72
   2   5  12 4767.67  321.71
   2   5  12 6401.93  376.55
  -2  -5  12 6124.45  641.76
   2  -5 -12 5284.90  316.46
  -2   5 -12 6021.25  645.66
  -2  -5 -12 5313.80  595.66
   2   5 -12 5097.01  354.38
   2  -5  12 6279.70  521.67
  -2   5  12 5889.04  455.49
  -2  -5  1324324.10 1555.46
  -2   5 -1321549.24 1295.07
   2   5  1322842.64 1094.06
   2   5 -1323261.56 1187.27
  -2  -5 -1324784.85 1353.32
  -2   5  1324598.81 1482.81
   2  -5  1323578.32 1326.07
   2   5  14 2535.18  322.49
  -2  -5  14 3096.81  390.79
   2  -5 -14 2848.84  238.35
  -2   5 -14 2694.13  362.33
   2  -5 -14 1688.26  203.23
  -2  -5 -14 2544.28  475.53
   2   5 -14 3146.77  416.44
   2  -5  14 2476.05  279.48
  -2   5  14 2436.86  328.58
   2   5  1512279.79  736.03
  -2  -5  1511241.85  820.27
  -2   5 -1511485.93 1034.27
   2  -5 -1512402.50  732.36
   2   5 -1512406.58  857.52
  -2  -5 -1511771.63 1020.39
  -2   5  1510866.27  754.38
  -2  -5  16 3985.70  624.20
   2   5  16 4312.51  398.25
  -2   5 -16 3288.38  611.64
   2  -5 -16 3484.24  318.02
  -2  -5 -16 3578.20  425.09
   2   5 -16 4115.54  499.11
  -2   5  16 4446.64  451.83
   2  -5  16 3190.14  341.76
  -2  -5  17 2192.87  576.27
   2   5  17 2110.03  331.68
   2  -5 -17 2330.50  297.87
  -2   5 -17 2869.33  395.39
   2   5 -17 2456.43  306.33
  -2  -5 -17 2284.47  381.33
   2  -5  17 1975.53  437.38
  -2   5  17 2107.01  494.08
   2   5  1815233.83  999.97
  -2  -5  1816562.43 1203.76
  -2   5 -1818180.92 1470.08
   2  -5 -1816549.64  980.30
  -2  -5 -1815342.75 1305.08
   2   5 -1818529.98 1228.68
   2  -5  1813641.62 1092.01
  -2   5  1816529.60 1324.88
  -2  -5  19 3001.86  427.23
   2   5  19 1643.15  378.62
  -2   5 -19 1965.20  593.34
   2  -5 -19 2008.73  341.91
  -2  -5 -19 1585.36  586.38
   2   5 -19 2270.46  481.88
  -2   5  19 2320.49  577.63
   2  -5  19 2759.73  345.95
   2   5  20 5187.55  553.64
  -2   5 -20 5323.05  611.03
   2  -5 -20 5620.64  578.29
   2   5 -20 5924.97  716.03
  -2  -5 -20 4554.01  819.65
   2  -5  20 5298.94  548.90
  -2   5  20 3713.07  713.18
   2   5  21 1978.32  391.60
  -2  -5  21 2188.62  426.72
  -2   5 -21 1699.01  640.61
  -2  -5 -21 1484.32  554.47
   2   5 -21 1960.60  513.87
   2  -5  21 1962.36  515.35
  -2   5  21 2065.78  558.87
  -2  -5  22 9186.66  878.72
   2   5  22 7951.69  794.06
  -2   5 -22 9269.15  908.13
  -2  -5 -22 7393.28 1016.91
   2   5 -2210561.96 1003.68
  -2   5  22 7899.86 1014.88
   2  -5  22 7993.34  938.84
  -2  -5  23 6182.09 1001.43
  -2   5 -23 8066.22 1129.89
   2   5 -23 9052.03  969.15
  -2  -5 -23 5447.37  962.59
   2  -5  23 6408.63  861.40
  -2   5  23 6011.76  708.45
  -2  -5  24 9870.06 1003.89
  -2   5 -2411348.26 1359.84
  -2  -5 -24 7711.71 1150.77
   2   5 -2411093.68 1182.00
   2  -5  24 9203.46 1071.51
  -2   5  24 7673.97  821.77
  -2  -5  25 5671.54  998.80
  -2   5 -25 4667.39 1011.81
   2   5 -25 6845.90  973.90
  -2  -5 -25 5258.66  929.57
  -2   5  25 4128.24  622.39
   2  -5  25 4867.67  642.40
  -2  -5  26 3131.26  806.96
  -2   5 -26 2664.88  827.99
   2   5 -26 2867.77  772.36
   2  -5  26 2057.40  454.59
  -2   5  26 2178.00  759.05
  -2  -5 -26 1844.29  529.01
  -2  -5  27  886.35  645.40
  -2   5 -27  658.04  397.06
   2   5 -27  520.16  571.19
  -2  -5 -27  332.38  380.17
   2  -5  27  213.26  566.96
  -2   5  27 1094.92  615.76
  -2  -5  28   35.24  720.41
  -2   5 -28  902.31  734.66
   2   5 -28 1396.81  416.57
  -2  -5 -28  801.14  422.40
  -2   5  28 1179.77  688.25
   2  -5  28  861.07  661.13
  -2  -5  29 -183.51  348.44
  -2   5 -29  145.42  347.80
   2  -5  29  209.27  521.52
  -2   5  29  401.79  527.92
  -2  -5 -29  336.39  522.44
  -2  -5  30 -428.60  635.58
  -2   5 -30  116.02  623.60
  -2  -5 -30   27.10  560.36
  -2   5  30  426.51  361.36
  -2  -6   0  863.42  178.57
   2   6   0  784.03  257.41
   2   6   0  464.88  132.93
   2  -6   0  626.20  143.90
  -2   6   0  982.25  120.10
   2  -6   0  484.19  174.98
   2   6   142113.11 1808.33
  -2  -6   147198.19 2087.75
   2   6   147063.16 2249.68
  -2   6  -146856.07 2000.91
   2  -6  -144124.53 1878.91
   2  -6  -144383.29 2234.24
   2   6  -140058.49 1850.49
   2   6  -147734.75 2103.76
  -2  -6  -148627.81 2038.63
  -2   6   150169.95 2093.64
   2  -6   145290.48 2214.33
   2   6   2 3116.64  202.87
  -2  -6   2 3705.50  341.57
   2   6   2 2621.99  265.09
  -2   6  -2 3327.21  339.03
   2  -6  -2 3864.07  328.90
   2  -6  -2 3180.44  212.45
  -2  -6  -2 3119.12  221.24
   2   6  -2 4029.94  416.01
  -2   6   2 2892.69  215.50
   2  -6   2 3771.93  298.36
   2   6   3 8671.78  382.97
  -2  -6   3 8643.25  478.02
   2   6   3 9758.72  692.15
  -2   6  -3 9736.47  613.90
   2  -6  -3 8267.95  369.71
   2  -6  -3 8922.05  733.72
   2   6  -3 8272.81  610.55
  -2  -6  -3 9081.52  438.55
   2  -6   3 9143.91  636.35
  -2   6   3 8422.23  424.65
  -2  -6   4 7570.13  554.66
   2   6   4 5294.28  280.16
  -2   6  -4 6796.43  527.11
   2  -6  -4 6785.73  648.90
   2  -6  -4 6261.78  303.46
   2   6   4 5587.01  406.16
   2   6  -4 7412.43  556.66
  -2  -6  -4 5491.85  292.60
   2  -6   4 7236.13  426.02
  -2   6   4 5905.90  289.16
   2   6   520621.53  784.00
   2   6   523498.27 1148.37
  -2  -6   525760.08 1240.78
  -2   6  -523815.25 1291.84
   2  -6  -525611.63 1289.93
   2  -6  -523519.21  885.53
  -2  -6  -524460.36  956.45
   2   6  -524441.91 1285.68
   2  -6   523370.72 1090.35
  -2   6   522375.07  816.83
  -2  -6   618032.47  954.72
   2   6   616101.08  621.97
   2   6   616812.34  886.25
  -2   6  -616217.60  872.70
   2  -6  -615806.85  886.92
   2  -6  -614970.33  547.85
   2   6  -617271.61  987.58
   2  -6   616471.60  816.32
  -2   6   614546.91  506.74
   2   6   713321.69  537.68
   2   6   715436.22  595.47
  -2   6  -714075.08  801.81
   2  -6  -713858.16  483.79
   2  -6  -713460.58  460.45
  -2  -6   714992.55  952.01
  -2  -6  -716185.10 1048.97
   2  -6   717808.21 1003.17
  -2   6   716539.71  861.00
   2   6  -716120.55  919.34
  -2  -6   8 2757.48  423.20
   2   6   8 2339.13  172.48
   2   6   8 2672.93  178.05
  -2   6  -8 1906.81  393.06
  -2  -6  -8 2289.23  424.24
   2   6  -8 3698.96  407.90
   2  -6   8 2959.91  383.57
  -2   6   8 2877.46  300.59
   2   6   9 6766.68  346.47
  -2  -6   9 7110.76  491.43
   2   6   9 5285.44  270.59
   2  -6  -9 5919.96  251.78
  -2   6  -9 6566.38  636.32
   2   6  -9 6447.86  416.84
  -2  -6  -9 6267.96  465.08
   2  -6   9 6490.87  419.52
  -2   6   9 6249.29  599.87
   2   6  1015037.59  714.71
  -2  -6  1017631.21 1172.82
   2   6  1017786.77  789.98
   2  -6 -1016064.38  636.94
  -2   6 -1017439.81 1151.95
  -2  -6 -1017222.56 1143.76
   2   6 -1017319.96 1021.76
   2  -6  1014811.05  791.63
  -2   6  1017187.86 1112.34
  -2  -6  1117055.23 1189.06
   2   6  1119398.63  920.92
   2   6  1115211.29  789.69
   2  -6 -1116685.04  730.25
  -2   6  1118692.54 1034.16
  -2  -6 -1118159.25 1191.86
   2   6 -1119585.12 1131.10
   2  -6  1118307.60 1093.40
   2   6  12 5321.04  342.68
   2   6  12 6257.26  413.57
  -2  -6  12 7255.97  684.14
   2  -6 -12 6175.80  308.57
  -2   6 -12 7035.96  711.33
   2   6 -12 6501.28  566.03
   2  -6  12 7003.68  584.86
  -2   6  12 7698.57  662.76
  -2  -6 -12 5999.23  479.24
  -2  -6  1323649.87 1544.56
   2   6  1321256.23 1027.27
   2  -6 -1320633.22  902.61
  -2   6 -1321891.73 1508.36
  -2  -6 -1321962.19 1448.48
   2   6 -1320040.99 1075.43
  -2   6  1321610.82 1210.19
   2  -6  1321955.54 1162.05
   2   6  14 1146.43  182.49
  -2  -6  14 1482.19  422.95
   2  -6 -14  992.80  152.68
  -2   6 -14  770.11  247.42
   2   6 -14 1317.14  323.57
  -2  -6 -14  994.88  243.39
   2  -6  14 1624.00  333.78
  -2   6  14 1165.97  389.53
   2   6  1526868.88 1433.70
  -2  -6  1527416.81 1630.57
  -2   6 -1526698.86 1584.93
   2  -6 -1526633.24 1282.01
   2   6 -1526482.56 1526.99
  -2  -6 -1526895.61 1713.79
   2  -6  1525117.54 1503.34
  -2   6  1527271.74 1680.97
  -2  -6  16  741.15  267.55
   2   6  16  837.68  271.38
  -2   6 -16 1231.45  433.92
   2  -6 -16  704.61  212.84
  -2  -6 -16  776.54  372.85
   2   6 -16 1124.23  345.92
   2  -6  16 1164.79  337.68
  -2   6  16  931.77  375.04
   2   6  1719707.28 1116.13
  -2  -6  1720123.89 1340.26
   2  -6 -1721865.51 1145.99
  -2   6 -1718585.83 1490.21
  -2  -6 -1720429.48 1498.22
   2   6 -1719678.45 1124.89
   2  -6  1720982.56 1398.73
  -2   6  1720576.66 1294.29
   2   6  18 3143.08  392.46
  -2  -6  18 3278.35  628.82
  -2   6 -18 2860.69  449.53
   2  -6 -18 3329.69  375.81
  -2  -6 -18 2907.68  435.50
   2   6 -18 2887.94  519.59
   2  -6  18 3248.36  537.22
  -2   6  18 2774.00  417.61
  -2  -6  19 4092.72  704.04
   2   6  19 4051.28  481.33
  -2   6 -19 3650.52  505.29
   2  -6 -19 2884.10  398.47
  -2  -6 -19 3344.37  471.75
   2   6 -19 4853.91  626.04
   2  -6  19 3951.32  604.21
  -2   6  19 3995.72  498.40
   2   6  20 4916.36  576.42
  -2  -6  20 4951.96  628.89
  -2   6 -20 5576.58  867.68
   2   6 -20 5990.20  727.08
  -2  -6 -20 5460.67  631.95
  -2   6  20 6446.02  627.20
   2  -6  20 5083.96  541.03
  -2  -6  21 2977.58  461.29
  -2   6 -21 1827.27  413.36
   2   6  21 1769.15  405.84
  -2  -6 -21 2082.61  624.01
   2   6 -21 1694.32  551.98
   2  -6  21 3058.68  414.04
  -2   6  21 2692.35  421.18
  -2  -6  22 2266.30  762.74
  -2   6 -22 2991.74  543.76
   2   6 -22 3517.72  473.96
  -2  -6 -22 2007.61  667.23
  -2   6  22 3454.06  500.93
   2  -6  22 4425.88  698.78
  -2  -6  23  208.37  308.60
  -2   6 -23  542.37  511.51
  -2  -6 -23  762.78  476.41
   2   6 -23  496.31  264.92
  -2   6  23  178.15  289.47
   2  -6  23  314.74  417.25
  -2  -6  24 3573.48  620.56
  -2   6 -24 4481.48  672.89
  -2  -6 -24 4330.20  852.79
   2   6 -24 4020.92  770.67
  -2   6  24 3464.44  587.01
   2  -6  24 4906.39  803.73
  -2  -6  25 2385.78  802.09
  -2   6 -25 2948.70  833.40
   2   6 -25 4206.58  780.58
  -2  -6 -25 2119.07  781.26
   2  -6  25 2401.96  477.68
  -2   6  25 2896.59  510.55
  -2  -6  26  374.24  359.44
  -2   6 -26  692.70  578.14
   2   6 -26  428.99  502.60
   2  -6  26  498.39  333.55
  -2   6  26  227.88  537.96
  -2  -6 -26 -140.33  520.26
  -2  -6  27 4363.66 1032.33
  -2   6 -27 4887.36  988.71
  -2  -6 -27 2318.80  633.90
   2   6 -27 5317.56  984.46
   2  -6  27 3993.15  614.91
  -2   6  27 4396.35  896.02
  -2  -6  28 1526.27  768.88
  -2   6 -28   69.31  729.67
  -2  -6 -28 1180.89  430.32
   2   6 -28 1369.13  689.36
   2  -6  28 1303.42  699.91
  -2   6  28  509.38  674.00
  -2  -6  29 -108.81  622.97
  -2   6 -29 3515.93  637.33
  -2  -6 -29 3312.36  584.06
   2  -6  29 -267.61  899.74
  -2   6  29 3609.87  893.11
  -2  -6  30  -48.23  550.82
  -2   6 -30 -288.07  548.92
  -2  -6 -30  164.39  297.51
  -2   6  30   54.12  508.53
  -2  -7   0 3068.98  207.31
  -2   7   0 2973.08  306.11
   2  -7   0 2791.83  283.72
   2   7   0 3238.58  408.52
   2   7   1 7249.20  595.96
   2   7   1 6503.79  403.93
  -2  -7   1 6515.21  477.22
   2  -7  -1 7831.96  680.28
  -2   7  -1 7134.19  525.46
   2  -7  -1 6538.88  400.86
   2   7  -1 6176.66  409.92
  -2   7   1 7990.75  466.86
   2  -7   1 7967.88  644.17
  -2  -7  -1 7852.68  449.05
  -2  -7   215722.62  743.53
   2   7   214281.98  736.79
   2   7   213616.91  642.08
   2  -7  -214035.13  701.79
   2  -7  -218170.79 1089.88
  -2   7  -216113.99  901.20
  -2  -7  -215211.63  686.10
   2   7  -215098.29  759.87
  -2   7   215754.35  794.88
   2   7   357820.17 2432.35
  -2  -7   361893.44 2932.08
   2   7   357497.29 2668.51
  -2   7  -361647.96 2956.53
   2  -7  -358551.93 2789.53
   2  -7  -361024.35 2570.35
  -2  -7  -357020.41 2382.07
   2  -7   359218.00 2911.41
  -2   7   360292.27 2492.88
   2   7  -355579.76 2548.73
   2   7   442595.04 1767.77
   2   7   447430.68 2403.18
  -2  -7   450268.86 2311.39
  -2   7  -450711.80 2503.62
   2  -7  -445246.40 2202.99
   2  -7  -448890.83 2036.65
   2   7  -446449.86 2176.33
  -2  -7  -449054.61 1978.01
  -2   7   449532.64 2021.07
   2  -7   448500.45 2406.53
   2   7   5 8288.22  404.33
  -2  -7   5 8035.59  619.70
   2   7   5 8643.64  688.04
   2  -7  -5 7904.52  703.31
   2  -7  -5 8154.71  385.01
  -2   7  -5 7295.64  596.07
   2   7  -5 8519.29  646.66
  -2  -7  -5 8366.47  422.82
   2  -7   5 7469.66  611.98
  -2   7   5 9030.59  402.49
  -2  -7   6 2165.21  248.46
   2   7   6 3073.88  427.27
   2   7   6 1852.97  157.89
   2  -7  -6 1546.44  423.13
   2  -7  -6 1901.74  141.94
  -2   7  -6 2135.94  252.87
   2   7  -6 2243.61  370.40
  -2  -7  -6 1843.61  191.51
  -2   7   6 1692.54  134.37
   2  -7   6 1665.32  355.11
   2   7   711885.27  481.47
  -2  -7   712949.89  732.45
  -2   7  -714031.58  928.21
   2  -7  -713555.80  522.83
   2   7   713116.13  561.35
  -2  -7  -710452.00  638.24
   2   7  -713379.08  721.53
   2  -7   713982.63  732.39
   2   7   8 1216.87  119.46
   2   7   8 1490.92  152.94
  -2  -7   8 1439.93  341.69
   2  -7  -8 1435.71  106.55
   2  -7  -8 1373.27   96.17
  -2   7  -8 1622.70  236.42
   2   7  -8 1441.88  326.99
  -2  -7  -8 1469.96  365.27
  -2   7   8 2045.42  368.07
   2  -7   8  922.47  330.30
  -2  -7   925196.91 1476.45
   2   7   924870.69 1100.01
   2   7   924125.02  980.81
   2  -7  -923798.72  920.84
  -2   7  -924193.39 1468.78
  -2  -7  -926253.82 1490.70
   2   7  -925082.74 1380.61
  -2   7   925235.76 1286.24
   2  -7   924056.29 1190.54
  -2  -7  10 1502.22  237.07
   2   7  10 1366.96  141.35
   2   7  10 1328.49  131.14
   2  -7 -10 1018.97  103.60
  -2   7 -10 1380.02  348.52
   2  -7 -10 1148.63  116.08
  -2  -7 -10 1543.84  253.52
   2   7 -10 1775.81  333.03
  -2   7  10 1462.16  353.96
   2  -7  10 1310.76  215.73
   2   7  11 3769.69  248.04
   2   7  11 3675.57  297.97
  -2   7 -11 3838.44  534.15
  -2  -7  11 4746.88  554.66
   2  -7 -11 3708.81  239.80
   2   7 -11 4773.62  486.39
  -2  -7 -11 3614.56  507.79
  -2   7  11 5073.83  543.12
   2  -7  11 4173.01  463.85
   2   7  12 8069.91  489.95
  -2  -7  12 7880.53  759.36
   2   7  12 5863.40  391.95
  -2   7 -12 7688.05  767.00
   2   7 -12 8332.35  675.84
  -2  -7 -12 7465.40  709.25
  -2   7  12 7352.65  528.85
   2  -7  12 7799.42  520.89
  -2  -7  13 3865.42  578.08
  -2   7 -13 3844.43  571.41
   2   7  13 4191.20  370.54
  -2  -7 -13 3882.92  401.08
   2   7 -13 3479.37  337.28
   2  -7  13 5624.84  412.93
  -2   7  13 4882.14  600.25
  -2  -7  14 4619.24  641.85
   2   7  14 4174.38  347.99
  -2   7 -14 4319.41  631.77
   2  -7 -14 4328.90  347.31
  -2  -7 -14 4336.98  569.28
   2   7 -14 4854.24  527.43
   2  -7  14 4808.69  534.58
  -2   7  14 4379.03  585.44
  -2  -7  15 2554.01  534.74
   2   7  15 2555.97  338.30
   2  -7 -15 2195.12  236.98
  -2   7 -15 2073.04  513.24
   2   7 -15 3042.83  459.19
  -2  -7 -15 2833.25  490.36
   2  -7  15 2366.30  464.36
  -2   7  15 2286.28  333.37
   2   7  1620598.39 1156.40
  -2  -7  1620978.95 1575.11
  -2   7 -1620749.39 1371.83
   2  -7 -1620616.86 1109.36
   2   7 -1622265.55 1417.90
  -2  -7 -1620913.05 1348.68
   2  -7  1621923.76 1463.91
  -2   7  1621367.13 1522.58
  -2  -7  17 3501.89  642.48
   2   7  17 4073.78  423.23
  -2   7 -17 3075.24  459.87
   2  -7 -17 3557.07  349.84
   2   7 -17 3150.79  520.10
  -2  -7 -17 3206.34  561.74
   2  -7  17 2718.99  365.50
  -2   7  17 3828.77  607.36
   2   7  18  544.10  221.34
  -2  -7  18  881.53  282.93
  -2   7 -18 1054.16  447.05
  -2  -7 -18  390.91  402.23
   2  -7  18  527.66  372.74
  -2   7  18  405.47  397.62
   2   7 -18  148.12  348.93
   2   7  19 6752.64  606.13
  -2  -7  19 7290.97  758.60
  -2   7 -19 6821.78  950.00
  -2  -7 -19 7238.51  697.22
   2   7 -19 7538.90  793.07
   2  -7  19 6984.39  802.36
  -2   7  19 6474.69  638.97
   2   7  20  363.54  248.80
  -2  -7  20  244.63  454.78
  -2   7 -20  779.79  285.81
   2   7 -20  507.36  240.50
  -2  -7 -20  142.48  243.80
   2  -7  20  450.48  249.29
  -2   7  20  540.71  256.05
  -2  -7  21 3993.46  770.07
  -2   7 -21 3642.02  554.18
   2   7 -21 3340.81  442.72
  -2  -7 -21 3154.13  504.13
  -2   7  21 3809.31  513.31
   2  -7  21 3921.12  495.62
  -2  -7  22 1184.66  399.74
  -2   7 -22 1074.87  604.61
  -2  -7 -22 1637.06  585.76
   2   7 -22 1539.43  334.33
   2  -7  22  703.36  527.09
  -2   7  22 1578.47  357.59
  -2  -7  23 1448.16  443.20
  -2   7 -23 2059.48  683.24
   2   7 -23 1879.23  375.21
  -2  -7 -23 1440.21  594.29
   2  -7  23 1691.64  598.52
  -2   7  23 1724.31  395.77
  -2  -7  24 2104.90  739.93
  -2   7 -24 1878.11  515.39
   2   7 -24 2654.77  427.47
  -2  -7 -24 2222.99  654.10
  -2   7  24 1932.89  428.71
   2  -7  24 2304.62  678.89
  -2  -7  25 7643.27 1190.77
  -2   7 -25 9085.81 1350.08
  -2  -7 -25 7926.64 1178.44
   2   7 -2511166.11  974.69
   2  -7  25 8050.60 1133.76
  -2   7  25 7585.33  831.15
  -2  -7  26 2572.25  542.85
  -2   7 -26 1952.69  510.82
   2   7 -26 3092.76  545.12
  -2  -7 -26 1062.45  732.18
   2  -7  26 2924.65  762.03
  -2   7  26 1330.41  477.25
  -2  -7  27 -129.05  534.13
  -2   7 -27   97.74  529.97
  -2  -7 -27    5.22  483.43
   2   7 -27  562.76  498.67
   2  -7  27   91.25  325.58
  -2   7  27  230.09  472.41
  -2  -7  28  -91.63  703.01
  -2   7 -28 -266.95  705.70
  -2  -7 -28  709.17  615.07
   2   7 -28 1881.83  682.24
   2  -7  28  573.07  422.04
  -2   7  28  917.34  646.24
  -2  -7  29 -143.74  366.99
  -2   7 -29   34.82  365.25
  -2  -7 -29  292.98  321.33
   2   7 -29 -206.25  537.59
   2  -7  29  407.39  537.70
  -2   7  29  316.28  539.01
  -2  -8   040610.13 1875.53
   2  -8   038133.32 2003.63
  -2   8   042130.13 1964.86
   2   8   039121.57 1997.09
   2   8   115633.59  948.89
  -2  -8   116705.48  765.75
  -2   8  -116470.83  900.99
   2  -8  -116623.20 1042.68
   2   8  -112783.46  857.46
  -2   8   116630.02  816.56
   2  -8   114534.74  948.25
  -2  -8  -115614.31  783.05
   2   8   212738.80  683.02
   2   8   211925.86  610.87
  -2  -8   213378.35  660.68
   2  -8  -213997.03  929.24
  -2   8  -213832.40  805.78
   2  -8  -212115.27  614.69
  -2  -8  -213120.34  633.70
  -2   8   212009.54  620.86
   2  -8   212987.26  868.03
   2   8  -212781.41  842.43
   2   8   3 7017.03  455.72
   2   8   3 6192.96  424.07
  -2  -8   3 7895.45  463.94
   2  -8  -3 5460.89  336.70
   2  -8  -3 6488.82  477.34
  -2   8  -3 8136.85  492.18
   2   8  -3 7313.51  454.97
  -2  -8  -3 7373.15  408.63
  -2   8   3 6395.68  374.69
   2  -8   3 8637.93  669.26
   2   8   4 2181.57  191.20
  -2  -8   4 1566.28  336.40
   2  -8  -4 2512.07  293.95
  -2   8  -4 1587.87  241.23
   2  -8  -4 2143.30  189.76
   2   8   4 2116.41  249.13
  -2  -8  -4 1630.08  184.22
   2   8  -4 1802.05  251.14
  -2   8   4 1784.86  168.56
   2  -8   4 1735.09  412.52
  -2  -8   542821.31 2181.29
   2   8   538756.73 1882.07
   2   8   537797.51 1627.10
  -2   8  -540511.55 1959.43
   2  -8  -538915.23 1636.49
   2  -8  -538688.19 1943.96
  -2  -8  -540751.04 1768.20
   2   8  -542917.03 2205.21
   2  -8   542316.07 2149.65
  -2   8   539368.79 1579.31
   2   8   6 6287.36  332.34
  -2  -8   6 7681.21  656.90
  -2   8  -6 7319.02  620.45
   2  -8  -6 6248.18  493.35
   2   8   6 6520.21  463.60
  -2  -8  -6 7103.39  422.42
   2   8  -6 7508.63  476.15
   2  -8   6 7575.55  486.65
  -2   8   6 7147.67  358.54
   2   8   7 4826.95  387.73
   2   8   7 4307.93  243.70
  -2  -8   7 4792.79  530.19
   2  -8  -7 4901.00  422.23
   2  -8  -7 4310.82  222.68
  -2   8  -7 4354.61  512.74
  -2  -8  -7 4718.96  276.78
   2   8  -7 5224.65  510.20
   2  -8   7 5163.39  522.40
  -2   8   7 4848.10  228.43
   2   8   8 1324.50  162.68
  -2  -8   8  871.32  229.92
   2   8   8 1483.94  170.86
  -2   8  -8 1011.17  225.59
   2  -8  -8  957.49  123.89
   2  -8  -8 1301.22  135.26
   2   8  -8 1660.47  357.35
  -2  -8  -8 1409.94  235.12
  -2   8   8 1396.52  250.42
   2  -8   8 1669.26  236.22
   2   8   9 4986.02  303.69
  -2  -8   9 5383.90  582.50
   2   8   9 5842.26  347.87
   2  -8  -9 4804.46  259.38
   2  -8  -9 4914.29  269.54
  -2   8  -9 4740.27  425.77
  -2  -8  -9 5856.29  463.32
   2   8  -9 5728.46  417.76
   2  -8   9 6288.87  432.51
  -2   8   9 5108.20  568.18
   2   8  10 7023.31  366.55
   2   8  10 6075.78  405.16
  -2  -8  10 7040.15  526.39
  -2   8 -10 6328.40  654.83
  -2  -8 -10 7076.64  663.31
   2  -8  10 7259.95  620.37
  -2   8  10 6246.06  627.10
   2   8 -10 6821.87  457.12
   2   8  11 1572.20  177.27
  -2  -8  11 2040.56  429.21
   2   8  11 1684.15  165.25
  -2   8 -11 2040.69  415.92
   2  -8 -11 1371.55  120.07
  -2  -8 -11 1505.52  376.52
   2   8 -11 2375.45  374.61
  -2   8  11 2182.81  271.77
   2  -8  11 1996.94  397.95
   2   8  12 7481.04  483.08
  -2  -8  1210519.39  891.34
   2   8  12 9521.93  552.62
  -2   8 -12 9429.30  839.75
   2  -8 -12 9223.01  457.70
  -2  -8 -12 8522.46  646.70
   2   8 -1211275.69  831.43
  -2   8  1210955.31  869.57
   2  -8  12 8869.14  590.38
  -2  -8  13 3361.47  542.74
   2   8  13 3559.33  277.02
   2  -8 -13 3274.28  273.82
  -2   8 -13 3013.55  553.47
   2  -8 -13 2796.72  238.28
  -2  -8 -13 3314.48  518.63
   2   8 -13 4708.24  519.93
   2  -8  13 3759.15  349.59
  -2   8  13 3447.90  376.09
   2   8  1428645.34 1403.74
  -2  -8  1427871.56 1795.26
  -2   8 -1429935.58 1938.65
   2  -8 -1427050.74 1255.88
  -2  -8 -1427339.66 1564.01
   2   8 -1426082.32 1421.95
   2  -8  1427433.50 1618.55
  -2   8  1427426.89 1757.62
  -2  -8  15 1401.75  434.46
   2   8  15  925.61  184.00
  -2   8 -15 1236.25  414.88
   2  -8 -15  564.56  190.19
  -2  -8 -15  718.84  353.92
   2   8 -15  659.93  358.19
  -2   8  15  872.59  380.42
   2  -8  15  622.15  226.19
  -2  -8  1626002.11 1804.00
   2   8  1625780.89 1420.35
  -2   8 -1621887.30 1691.82
   2  -8 -1623881.24 1226.79
  -2  -8 -1623635.66 1676.23
   2   8 -1623583.62 1322.54
  -2   8  1625116.95 1475.58
   2  -8  1623300.69 1528.49
  -2  -8  17 1822.26  539.30
   2   8  17 1509.28  262.91
  -2   8 -17 1561.69  511.62
   2  -8 -17 1421.59  223.78
  -2  -8 -17 1710.32  332.85
   2   8 -17 1225.26  437.46
   2  -8  17 1782.02  306.27
  -2   8  17 1559.31  474.77
   2   8  1816032.37 1042.94
  -2  -8  1814811.12 1346.06
  -2   8 -1817147.16 1475.54
  -2  -8 -1815782.48 1342.79
   2   8 -1815503.90 1219.53
  -2   8  1815537.54 1309.73
   2  -8  1816409.92 1261.50
   2   8  19 5725.59  554.88
  -2  -8  19 5260.56  869.30
  -2   8 -19 5047.67  631.57
  -2  -8 -19 4630.31  780.92
   2   8 -19 7194.90  590.30
  -2   8  19 4448.20  742.78
   2  -8  19 5671.10  760.97
  -2  -8  20 1073.62  462.04
  -2   8 -20  608.66  284.34
  -2  -8 -20  -17.75  239.81
   2   8 -20  153.83  247.35
  -2   8  20  499.90  407.40
   2  -8  20  573.29  265.04
  -2  -8  21 2253.48  437.18
  -2   8 -21 1667.65  677.73
   2   8 -21 2865.71  606.22
   2  -8  21 2388.46  412.28
  -2   8  21 2425.46  415.70
  -2  -8  22   -4.93  248.89
  -2   8 -22  368.28  409.71
  -2  -8 -22  465.40  235.80
   2   8 -22  286.78  355.63
  -2   8  22 -236.92  230.34
   2  -8  22  -29.64  358.04
  -2  -8  23 1797.01  711.24
  -2   8 -23 1579.35  432.60
  -2  -8 -23 1909.46  650.46
   2   8 -23 3127.84  655.44
   2  -8  23 2531.91  644.18
  -2   8  23 1963.38  416.69
  -2  -8  24 3281.70  903.10
  -2   8 -24 2581.08  874.13
  -2  -8 -24 3296.07  744.42
   2   8 -24 3861.60  799.52
  -2   8  24 3196.94  524.01
   2  -8  24 3033.46  787.55
  -2  -8  25  -60.14  485.72
  -2   8 -25 1439.23  715.83
   2   8 -25 4396.43  739.98
  -2  -8 -25 1858.21  679.20
  -2   8  25 2029.96  472.06
   2  -8  25 3242.13  728.91
  -2  -8  26 3962.55  662.54
  -2   8 -26 3098.46  628.09
  -2  -8 -26 3210.30  914.79
   2   8 -26 5452.46  680.43
  -2   8  26 5800.83  700.41
   2  -8  26 5576.89  990.35
  -2  -8  27 -156.93  641.90
  -2   8 -27   75.20  638.17
  -2  -8 -27 1010.05  556.95
  -2   8  27  -23.98  342.38
   2  -8  27  560.70  592.65
   2   8 -27  855.64  380.41
  -2  -8  28 3636.74  656.89
  -2   8 -28 -364.29  967.63
   2   8 -28 4345.69  690.74
  -2  -8 -28 2074.82  821.66
   2  -8  28 2934.75  593.74
  -2   8  28 3008.00  835.41
  -2  -8  29   12.11  425.77
  -2   8 -29  -21.19  423.22
  -2  -8 -29  288.15  568.41
   2   8 -29  209.61  614.07
   2  -8  29  776.87  387.85
   2   9   010151.29  767.16
  -2  -9   010490.78  666.74
  -2   9   010052.56  646.63
   2  -9   0 9626.36  593.55
   2   9   121809.61 1108.26
  -2  -9   125079.04 1280.95
  -2   9  -124557.45 1301.86
   2  -9  -121305.49 1124.95
  -2  -9  -123261.27 1151.54
   2  -9   122438.25 1156.14
  -2   9   126452.05 1282.28
   2   9  -124158.21 1362.52
  -2  -9   221801.71 1182.90
   2   9   220779.76 1037.92
  -2   9  -219468.82  972.51
   2  -9  -219664.36 1054.41
  -2  -9  -220398.40  973.19
   2   9  -219972.70 1218.14
  -2   9   221608.93 1022.32
   2  -9   220251.85 1233.25
  -2  -9   333813.40 1738.12
   2   9   330617.69 1490.66
  -2   9  -332782.87 1718.62
   2  -9  -331183.94 1573.36
   2   9  -330660.40 1487.59
   2  -9   331675.16 1706.09
  -2   9   333257.31 1462.29
  -2  -9  -331696.56 1432.10
  -2  -9   438695.03 1826.74
   2   9   434592.71 1565.87
   2   9   434423.13 1681.95
   2  -9  -437240.68 1877.09
  -2   9  -438069.39 1958.29
   2  -9  -432659.13 1454.87
   2   9  -438718.54 2007.63
  -2  -9  -437934.99 1635.89
   2  -9   435526.39 1891.65
  -2   9   436693.57 1560.23
  -2  -9   5 1465.44  328.51
   2   9   5  984.92  240.89
   2   9   5 1466.89  174.52
   2  -9  -5 1020.01  251.18
  -2   9  -5 1139.16  345.42
   2  -9  -5 1451.06  168.05
  -2  -9  -5 1500.12  244.13
   2   9  -5 1100.79  359.10
  -2   9   5  770.97  186.15
   2  -9   5 2038.21  250.05
   2   9   631347.18 1417.21
   2   9   634071.17 1694.64
  -2  -9   635660.37 1953.13
   2  -9  -632415.73 1410.98
   2  -9  -634173.98 1778.40
  -2   9  -636014.12 2046.96
   2   9  -635162.48 1920.15
  -2  -9  -636406.75 1656.26
  -2   9   635392.15 1453.14
   2  -9   638164.89 2007.61
  -2  -9   724066.84 1251.47
   2   9   718754.65  833.92
   2   9   723338.95 1388.38
   2  -9  -722147.47  995.84
  -2   9  -722317.57 1360.55
   2  -9  -721712.16 1440.97
   2   9  -721522.46 1114.39
  -2   9   721458.52  893.97
   2  -9   719980.14 1059.94
  -2  -9  -721913.17 1070.90
   2   9   810344.12  814.77
   2   9   8 8302.97  422.61
  -2  -9   8 9737.87  622.41
   2  -9  -810134.45  872.21
  -2   9  -8 9903.96  794.16
   2  -9  -8 9949.81  497.97
  -2  -9  -810072.88  517.95
   2   9  -810347.63  627.05
   2  -9   810102.53  618.75
  -2   9   8 9820.72  422.89
  -2  -9   9 2799.40  457.56
   2   9   9 2926.09  210.10
   2   9   9 2263.30  201.86
   2  -9  -9 2400.36  165.67
   2  -9  -9 2167.43  152.36
  -2   9  -9 2713.07  311.60
  -2  -9  -9 2438.87  443.06
   2   9  -9 2316.69  293.16
   2  -9   9 2741.77  423.80
  -2   9   9 3058.88  457.92
   2   9  10 5266.45  350.49
   2   9  10 4575.65  357.02
  -2  -9  10 5032.75  441.53
   2  -9 -10 3535.88  227.34
  -2   9 -10 4912.81  582.02
   2  -9 -10 4177.77  271.75
  -2  -9 -10 4483.60  537.67
   2   9 -10 4713.39  385.06
  -2   9  10 4340.39  412.40
   2  -9  10 4779.29  530.67
   2   9  1111528.31  575.60
  -2  -9  1111923.71  927.03
  -2   9 -1111378.83  908.76
   2  -9 -11 8931.22  482.92
  -2  -9 -1112567.18  784.53
   2   9 -1110938.00  660.96
  -2   9  1110615.19  867.99
   2  -9  1111764.72  843.21
  -2  -9  12 4193.97  580.79
   2   9  12 3999.33  292.41
  -2   9 -12 3411.22  408.04
  -2  -9 -12 4210.07  569.01
   2   9 -12 3785.73  382.27
   2  -9  12 4177.53  401.42
  -2   9  12 4181.47  403.52
  -2  -9  13 5683.39  549.84
   2   9  13 5876.02  388.28
   2  -9 -13 5486.79  385.92
  -2   9 -13 5948.59  553.11
  -2  -9 -13 5884.38  526.35
   2   9 -13 5938.94  632.98
  -2   9  13 6371.83  691.21
   2  -9  13 5583.77  473.46
   2   9  14 5200.90  394.62
  -2  -9  14 5322.81  530.74
   2  -9 -14 4690.88  369.71
  -2   9 -14 4606.26  494.18
  -2  -9 -14 5574.04  642.14
   2   9 -14 4279.54  434.43
   2  -9  14 4490.11  589.60
  -2   9  14 6758.83  551.99
   2   9  15 7163.45  536.27
  -2  -9  15 8509.52  702.31
   2  -9 -15 7125.57  539.78
  -2   9 -15 5953.26  634.18
  -2  -9 -15 7578.24  658.12
   2   9 -15 9320.72  869.78
   2  -9  15 8577.82  623.85
  -2   9  15 6836.10  784.68
  -2  -9  16  251.20  226.70
   2   9  16   93.73  161.74
  -2   9 -16  145.19  212.72
   2  -9 -16  134.08  157.17
  -2  -9 -16   16.67  310.37
   2   9 -16  103.00  189.64
  -2   9  16  679.30  212.14
   2  -9  16   50.90  316.89
   2   9  17 6367.72  541.52
  -2  -9  17 6203.98  642.59
  -2   9 -17 6788.42  691.98
  -2  -9 -17 7034.43  653.48
   2   9 -17 7032.40  767.27
   2  -9  17 6715.61  590.36
  -2   9  17 6446.10  620.07
   2   9  18 2119.27  342.30
  -2  -9  18 2925.45  448.66
  -2   9 -18 2530.03  440.52
  -2  -9 -18 1839.51  540.87
   2   9 -18 2179.91  558.15
  -2   9  18 3277.45  571.92
   2  -9  18 2003.28  560.93
  -2  -9  19 3984.89  561.96
  -2   9 -19 4159.16  745.84
  -2  -9 -19 4559.33  702.81
   2   9 -19 3611.78  457.98
   2  -9  19 3668.50  666.69
  -2   9  19 2794.57  654.66
  -2  -9  20 1035.35  371.71
  -2   9 -20 1203.24  549.85
  -2  -9 -20 -132.72  453.30
   2   9 -20  810.63  468.38
  -2   9  20  890.18  481.34
   2  -9  20 1160.67  312.58
  -2  -9  21 3072.03  511.16
  -2   9 -21 2920.64  766.35
   2   9 -21 3827.37  687.56
   2  -9  21 3180.74  693.60
  -2   9  21 3330.68  502.08
  -2  -9  22 1716.29  611.89
  -2   9 -22 1468.78  397.28
  -2  -9 -22   -6.04  513.07
   2   9 -22 1242.69  529.35
  -2   9  22 1068.48  341.26
   2  -9  22 1179.54  548.36
  -2  -9  23  204.51  556.79
  -2   9 -23  704.51  348.61
   2   9 -23  -48.83  491.36
  -2  -9 -23  362.54  512.23
   2  -9  23  707.17  530.62
  -2   9  23  820.90  314.10
  -2  -9  24  235.38  779.75
  -2   9 -24 2826.19  757.15
  -2  -9 -24 1747.28  685.37
   2   9 -24 2553.16  731.02
   2  -9  24 2058.44  733.95
  -2   9  24 3114.61  490.53
  -2   9 -25 3258.91  859.85
  -2  -9 -25  894.41  723.28
   2   9 -25 4736.38  877.45
   2  -9  25 5235.68  926.97
  -2   9  25 2805.77  525.08
  -2  -9  26   -8.05  854.59
  -2   9 -26 2362.60  578.14
   2   9 -26 3889.97  850.34
  -2  -9 -26 2510.42  784.32
   2  -9  26 3816.30  888.56
  -2   9  26 2804.15  510.82
  -2  -9  27  114.46  720.75
  -2   9 -27 1072.51  743.30
  -2  -9 -27  553.74  625.67
   2   9 -27  722.07  643.13
   2  -9  27  650.46  655.26
  -2   9  27 1421.90  413.28
  -2  -9  28  177.29  363.84
  -2   9 -28 -121.71  611.35
   2   9 -28  501.70  547.17
  -2  -9 -28    4.45  496.71
  -2   9  28  200.31  314.02
   2  -9  28  166.62  548.68
  -2  -9  29  133.32  463.24
  -2   9 -29  -11.33  483.07
   2   9 -29  868.71  458.31
  -2  -9 -29  143.54  635.20
   2  -9  29 1152.38  455.11
  -2   9  29  848.18  403.40
  -2 -10   0 5214.28  430.27
   2  10   0 4642.11  371.93
  -2  10   0 5077.60  417.96
   2 -10   0 5064.83  417.82
   2  10   128262.96 1551.23
  -2 -10   130565.73 1540.17
  -2  10  -128443.15 1345.50
   2 -10  -129470.60 1663.53
  -2 -10  -130761.59 1468.73
   2  10  -126990.32 1375.74
   2 -10   128155.75 1424.82
  -2  10   130422.53 1456.30
  -2 -10   215639.77  940.74
   2  10   215906.45  997.33
  -2  10  -216850.00  853.90
   2 -10  -215458.53 1072.58
   2  10  -215690.94 1026.77
  -2 -10  -216696.52  871.16
   2 -10   216036.02 1036.65
  -2  10   214864.41  692.12
   2  10   329462.11 1633.94
  -2 -10   329619.98 1604.15
  -2  10  -328746.69 1577.95
   2 -10  -329279.06 1744.23
  -2 -10  -328737.74 1345.57
   2  10  -326211.18 1361.48
   2 -10   331664.83 1758.03
  -2  10   328848.79 1332.80
   2  10   413751.97  961.62
  -2 -10   414802.43  819.10
  -2  10  -415504.76  989.01
   2 -10  -414589.49 1072.60
  -2 -10  -415456.20  766.12
   2  10  -415516.24 1023.33
   2 -10   415559.26  856.25
  -2  10   414129.43  704.13
  -2 -10   5 2392.40  282.73
   2  10   5 2225.18  282.84
  -2  10  -5 1502.69  376.06
   2 -10  -5 2315.46  309.35
   2  10  -5 2116.74  278.32
  -2 -10  -5 2104.01  238.81
   2 -10   5 2225.09  455.63
  -2  10   5 2327.04  267.48
  -2 -10   622386.01 1374.40
   2  10   623466.73 1228.96
  -2  10  -622507.10 1408.81
   2 -10  -620909.80  994.82
   2 -10  -623002.99 1280.67
  -2 -10  -621568.15 1026.54
   2  10  -623842.88 1434.69
   2 -10   623518.14 1233.34
  -2  10   623963.03 1026.06
  -2 -10   7 1430.74  237.01
   2  10   7 1612.52  422.63
  -2  10  -7 1122.13  365.81
   2 -10  -7  833.50  456.09
   2 -10  -7  980.47  202.11
  -2 -10  -7 1228.67  201.45
   2  10  -7 1195.59  375.58
   2 -10   7 1212.02  255.42
  -2  10   7 1528.53  164.16
   2  10   8 8908.21  781.85
  -2 -10   8 8689.30  596.06
  -2  10  -8 8007.40  605.62
   2 -10  -8 7416.23  462.73
   2 -10  -8 8551.92  828.02
  -2 -10  -8 8909.78  501.49
   2  10  -8 7633.19  712.56
   2 -10   8 9261.51  772.84
  -2  10   8 8870.94  435.34
  -2 -10   9 3857.36  534.41
  -2  10  -9 3250.97  550.97
   2 -10  -9 3189.94  235.50
   2  10  -9 4951.12  548.69
   2 -10   9 4961.20  560.15
  -2 -10  10 5392.85  488.71
   2  10  10 5012.47  322.40
  -2  10 -10 4502.71  607.09
   2 -10 -10 4347.92  284.06
   2 -10 -10 4807.58  335.01
   2  10 -10 5048.89  592.10
  -2 -10 -10 5717.25  494.87
   2 -10  10 5061.05  592.48
  -2  10  10 5840.27  477.07
  -2 -10  11 7274.75  742.49
   2  10  11 5944.80  376.82
  -2  10 -11 6698.99  557.48
   2 -10 -11 5433.20  380.49
   2 -10 -11 6643.28  365.83
   2  10 -11 7853.78  687.18
  -2 -10 -11 6674.20  528.81
   2 -10  11 7793.16  692.51
  -2  10  11 6595.70  670.88
  -2 -10  12 1239.31  298.23
   2  10  12 1092.71  181.33
  -2  10 -12  909.70  461.63
   2 -10 -12 1212.25  146.15
  -2 -10 -12 1628.93  393.04
   2 -10  12 1318.03  391.56
  -2  10  12 1763.66  276.42
   2  10 -12 1208.50  251.10
  -2 -10  1313433.68  939.70
   2  10  1313976.22  749.19
  -2  10 -1314668.41 1196.31
   2 -10 -1312921.90  666.71
   2  10 -1314339.45 1076.59
  -2 -10 -1313663.66  941.90
   2 -10  1313940.94  872.59
  -2  10  1313493.51 1064.14
  -2 -10  14 5871.89  736.28
   2  10  14 5548.24  457.11
  -2  10 -14 4865.53  719.51
   2 -10 -14 4937.05  348.38
  -2 -10 -14 4853.85  672.18
   2  10 -14 5455.38  645.19
   2 -10  14 5614.43  653.02
  -2  10  14 5844.19  511.08
   2  10  1515070.09  851.66
  -2 -10  1514438.62 1248.77
  -2  10 -1515459.18 1268.48
   2 -10 -1514054.30  819.98
   2  10 -1515897.29  984.18
  -2 -10 -1514741.32 1024.47
   2 -10  1515745.38 1173.49
  -2  10  1516743.64 1249.65
   2  10  16 7142.82  534.07
  -2 -10  16 7484.08  880.79
  -2  10 -16 6703.87  893.31
  -2 -10 -16 7009.36  834.08
   2  10 -16 8233.27  844.87
   2 -10  16 8459.77  845.58
  -2  10  16 7101.36  815.66
   2  10  17 3311.56  458.90
  -2 -10  17 3208.36  649.17
  -2  10 -17 3409.88  641.81
   2  10 -17 3745.66  614.76
  -2 -10 -17 2954.75  577.91
   2 -10  17 3890.66  435.52
  -2  10  17 2240.91  398.60
  -2 -10  1813502.56 1343.46
  -2  10 -1814616.82 1429.23
  -2 -10 -1813795.54 1081.03
   2  10 -1815945.28 1088.79
   2 -10  1816172.18 1338.24
  -2  10  1814546.27 1294.73
  -2 -10  19 5269.42  912.77
  -2  10 -19 8141.20 1036.08
  -2 -10 -19 6102.15  887.55
   2  10 -19 8372.73  914.79
   2 -10  19 6718.33  642.08
  -2  10  19 5408.82  837.32
  -2 -10  20 4179.73  832.74
  -2  10 -20 4972.80  893.72
   2  10 -20 5233.48  766.27
   2 -10  20 4258.00  531.89
  -2  10  20 3693.51  717.05
  -2 -10  21  292.88  503.82
  -2  10 -21  -79.90  296.88
  -2 -10 -21  -15.97  253.86
   2  10 -21 1031.07  454.91
   2 -10  21  746.50  446.65
  -2  10  21  906.43  298.08
  -2 -10  22 2367.94  670.71
  -2  10 -22 1354.99  473.12
  -2 -10 -22 -132.15  550.91
   2  10 -22 1624.27  597.68
   2 -10  22 2233.04  611.69
  -2  10  22 1590.14  369.35
  -2 -10  23  855.01  577.70
  -2  10 -23  764.31  597.50
  -2 -10 -23 -105.71  482.88
   2  10 -23  884.04  520.27
   2 -10  23  600.27  537.26
  -2  10  23  724.22  337.23
  -2 -10  24 -319.77  471.42
  -2  10 -24 1638.23  714.16
  -2 -10 -24  616.37  631.73
   2  10 -24 2643.29  667.59
   2 -10  24 3602.87  762.87
  -2  10  24 2312.08  666.03
  -2 -10  25  372.66  483.29
  -2  10 -25 1894.04  748.06
  -2 -10 -25 1682.12  634.49
   2  10 -25 3070.80  722.70
   2 -10  25 1456.33  751.97
  -2  10  25 2689.97  682.84
  -2 -10  26  -20.46  732.16
  -2  10 -26 1805.68  474.83
  -2 -10 -26  738.94  591.49
   2  10 -26  871.34  642.08
   2 -10  26  687.30  636.31
  -2  10  26  724.33  596.95
  -2 -10  27  116.09  750.85
  -2  10 -27 1806.07  773.37
   2  10 -27 1129.04  701.76
  -2 -10 -27  592.91  625.05
   2 -10  27 1305.10  695.52
  -2  10  27 1095.00  655.53
  -2 -10  28 -456.84  361.06
  -2  10 -28  253.74  600.07
  -2 -10 -28  294.59  497.13
   2  10 -28  988.93  555.83
   2 -10  28  305.22  550.82
  -2  10  28  244.78  521.00
  -2 -11   027080.28 1435.86
   2  11   026917.06 1562.02
  -2  11   026650.69 1406.62
   2 -11   026087.42 1575.24
  -2 -11   115688.60  827.28
   2  11   119386.42 1195.14
  -2  11  -117317.98 1038.06
   2 -11  -117103.73 1181.93
   2  11  -115994.36  896.48
  -2 -11  -117018.11  974.50
   2 -11   116897.06  945.71
  -2  11   117623.26  998.12
   2  11   212945.17  744.39
  -2 -11   211389.03  790.45
  -2  11  -211932.69  682.81
   2 -11  -211334.04  724.59
  -2 -11  -212111.57  712.40
   2  11  -211555.66  884.19
   2 -11   213115.93  953.98
  -2  11   212637.32  728.49
   2  11   3 2023.94  258.88
  -2 -11   3 2515.62  373.64
  -2  11  -3 2117.96  377.04
   2 -11  -3 2924.35  319.01
   2  11  -3 1903.17  268.54
  -2 -11  -3 2199.68  283.30
   2 -11   3 2232.05  294.76
  -2  11   3 2423.72  266.36
  -2 -11   4 7247.08  498.62
   2  11   4 7574.31  657.63
  -2  11  -4 6933.46  620.57
   2 -11  -4 6160.55  667.77
  -2 -11  -4 6601.96  467.63
   2  11  -4 6600.95  629.01
   2 -11   4 7320.64  667.34
  -2  11   4 6593.75  432.99
   2  11   516936.34 1091.68
  -2  11  -516556.36 1081.00
   2 -11  -516499.00 1165.07
  -2 -11   517218.07 1081.87
   2  11  -517585.02 1126.42
  -2 -11  -517558.19  878.29
   2 -11   516973.78  946.89
  -2  11   516066.58  777.45
  -2 -11   6 3400.61  467.59
   2  11   6 3522.42  354.74
  -2  11  -6 3118.87  471.55
   2 -11  -6 2219.70  505.05
   2  11  -6 2796.25  319.79
  -2 -11  -6 3164.35  303.59
   2 -11   6 2649.34  471.00
  -2  11   6 2794.94  245.70
   2  11   724362.17 1306.48
  -2 -11   725484.11 1532.65
  -2  11  -726057.08 1554.55
   2 -11  -723294.62 1326.38
   2  11  -722420.47 1201.55
  -2 -11  -726491.01 1271.41
   2 -11   723444.99 1423.57
  -2  11   725064.62 1110.69
   2  11   813678.58 1007.80
  -2 -11   815083.66  937.99
  -2  11  -813846.22  885.02
   2 -11  -813924.47 1116.50
  -2 -11  -813833.28  757.18
   2  11  -814430.25  847.34
   2 -11   813474.73  996.67
  -2  11   814493.90  686.35
   2  11   913565.11  991.60
  -2 -11   913690.04 1017.88
  -2  11  -911399.07  927.86
   2 -11  -912322.73 1049.02
  -2 -11  -912404.31  687.99
   2  11  -910735.91  698.22
   2 -11   911736.77  917.21
  -2  11   912433.37  601.19
  -2 -11  10 3686.31  604.04
   2  11  10 4988.84  412.78
  -2  11 -10 3658.75  422.56
   2 -11 -10 5226.88  372.98
  -2 -11 -10 5447.45  482.74
   2  11 -10 4776.94  433.07
   2 -11  10 4565.75  583.61
  -2  11  10 5285.61  452.79
   2  11  1110766.97  595.55
  -2 -11  11 9894.51  714.95
  -2  11 -11 9024.09  892.11
   2 -11 -1110100.50  581.15
  -2 -11 -1111096.70  958.03
   2  11 -11 9800.59  848.79
   2 -11  1111399.98  924.07
  -2  11  1111309.44  922.86
   2  11  12 9143.02  543.19
  -2 -11  12 9152.44  873.29
  -2  11 -1210104.24  953.88
   2 -11 -12 8848.74  501.20
  -2 -11 -12 9669.16  882.05
   2  11 -1210301.03  872.57
   2 -11  12 9644.23  870.23
  -2  11  12 8838.84  661.72
   2  11  13 5131.60  454.62
  -2 -11  13 4371.53  683.86
  -2  11 -13 4982.97  541.58
   2 -11 -13 5003.53  379.81
  -2 -11 -13 5346.94  515.40
   2  11 -13 5667.75  516.37
   2 -11  13 4832.60  463.31
  -2  11  13 5174.45  687.92
   2  11  14 3540.86  328.04
  -2 -11  14 3724.95  475.52
  -2  11 -14 4099.75  496.80
   2 -11 -14 2950.87  272.80
  -2 -11 -14 3591.47  593.50
   2  11 -14 3863.98  575.62
   2 -11  14 2901.77  560.39
  -2  11  14 3859.88  432.86
   2  11  15 1339.10  320.52
  -2 -11  15 1925.45  350.96
  -2  11 -15 2641.69  422.00
  -2 -11 -15 1772.06  337.81
   2  11 -15 1868.26  328.77
   2 -11  15 2126.45  508.02
  -2  11  15 1411.84  501.85
   2  11  16 5576.11  470.44
  -2 -11  16 5868.09  610.89
  -2  11 -16 4684.48  802.24
  -2 -11 -16 4613.35  728.55
   2  11 -16 6767.01  765.04
   2 -11  16 4663.08  512.94
  -2  11  16 6119.58  762.99
  -2 -11  17 4083.09  717.45
  -2  11 -17 4318.86  759.37
  -2 -11 -17 3775.45  675.96
   2  11 -17 5189.16  520.76
   2 -11  17 3413.03  666.18
  -2  11  17 4312.79  513.61
  -2 -11  18 7958.00  989.25
  -2  11 -18 6097.70  988.60
  -2 -11 -18 6508.49  691.43
   2  11 -18 7580.10  925.75
   2 -11  18 7464.44  883.66
  -2  11  18 8377.93  944.50
  -2 -11  19 4477.97  837.39
  -2  11 -19 4157.81  616.68
  -2 -11 -19 4955.40  766.45
   2  11 -19 5272.71  751.38
   2 -11  19 4690.86  570.63
  -2  11  19 3556.94  712.86
  -2 -11  20 1089.35  586.99
  -2  11 -20  924.36  352.47
  -2 -11 -20  -70.16  483.87
   2  11 -20 1728.31  548.87
   2 -11  20 1455.14  338.03
  -2  11  20 1243.23  329.02
  -2 -11  21 8869.29 1147.31
  -2  11 -21 8920.21  938.38
  -2 -11 -21 5403.32  582.20
   2  11 -21 9734.40 1055.57
   2 -11  21 8240.88 1062.46
  -2  11  21 6602.08  705.51
  -2 -11  22 2086.20  528.52
  -2  11 -22 2760.85  533.25
  -2 -11 -22 2199.70  630.71
   2  11 -22 2486.09  456.34
   2 -11  22 2652.32  707.61
  -2  11  22 2383.16  460.97
  -2  11 -23 3553.93  849.95
  -2 -11 -23 2241.71  730.47
   2  11 -23 4062.00  584.93
   2 -11  23 4617.04  847.60
  -2  11  23 3612.49  750.32
  -2 -11  24  -88.39  436.86
  -2  11 -24  501.23  650.36
  -2 -11 -24 1908.48  608.76
   2  11 -24 1207.78  382.76
   2 -11  24 2164.70  659.86
  -2  11  24  924.25  593.82
  -2 -11  25  525.29  726.50
  -2  11 -25  813.76  449.03
  -2 -11 -25 1671.18  621.54
   2  11 -25 1848.63  433.26
   2 -11  25   -6.93  664.43
  -2  11  25 1250.75  627.68
  -2 -11  26    6.59  629.58
  -2  11 -26  583.04  400.01
  -2 -11 -26  707.20  348.95
   2  11 -26  282.12  364.56
   2 -11  26   29.72  619.01
  -2  11  26  934.43  549.74
  -2 -11  27   54.54  676.52
  -2  11 -27  523.35  681.85
  -2 -11 -27  160.87  339.99
   2  11 -27  687.56  387.19
   2 -11  27 1109.41  638.57
  -2  11  27  379.82  567.68
  -2 -11  28 -165.56  540.27
  -2  11 -28 1605.52  850.84
   2  11 -28 1315.44  777.44
   2 -11  28 2426.96  816.69
  -2  11  28 2045.68  743.76
  -2 -12   068071.56 3305.13
   2  12   063896.42 3308.60
  -2  12   064144.63 3192.78
   2 -12   060540.71 3213.35
  -2 -12   1 9144.95  653.66
   2  12   1 8422.51  556.99
  -2  12  -1 8507.25  633.10
   2 -12  -1 9618.40  802.51
  -2 -12  -1 9076.46  509.17
   2  12  -1 8058.31  552.75
   2 -12   1 8933.64  605.74
  -2  12   1 9574.58  644.81
   2  12   217624.32  953.48
  -2 -12   217121.53 1046.51
  -2  12  -215885.95 1017.51
   2 -12  -217271.55 1005.45
   2  12  -218984.52 1197.92
  -2 -12  -219828.62 1059.72
   2 -12   217664.54 1174.30
  -2  12   219489.79 1028.08
  -2 -12   3 3820.34  471.28
   2  12   3 3744.58  512.99
  -2  12  -3 4131.16  481.29
   2 -12  -3 4509.79  573.70
  -2 -12  -3 3966.34  373.38
   2  12  -3 3976.33  498.54
   2 -12   3 3360.56  363.72
  -2  12   3 3765.82  351.88
   2  12   4 9081.43  596.82
  -2 -12   4 9110.55  709.57
  -2  12  -4 8734.37  569.48
   2 -12  -4 8015.39  601.37
  -2 -12  -4 9182.69  594.59
   2  12  -4 9059.57  598.68
   2 -12   4 9192.33  784.58
  -2  12   4 9321.94  552.89
  -2 -12   5 4381.02  536.94
   2  12   5 4781.65  410.24
  -2  12  -5 3845.50  383.55
   2 -12  -5 4394.50  449.84
  -2 -12  -5 5048.36  416.27
   2  12  -5 4865.95  572.96
   2 -12   5 5276.47  600.56
  -2  12   5 4654.70  362.38
   2  12   6 3640.98  497.91
  -2 -12   6 2647.82  472.80
  -2  12  -6 2699.54  335.98
   2 -12  -6 3001.03  549.65
  -2 -12  -6 3169.49  329.04
   2  12  -6 3145.74  481.43
   2 -12   6 3281.01  349.74
  -2  12   6 2937.48  270.37
  -2 -12   7 4306.68  553.23
   2  12   7 3648.67  372.63
  -2  12  -7 3665.73  554.11
   2 -12  -7 3935.38  626.11
  -2 -12  -7 4465.37  485.60
   2  12  -7 4067.21  546.73
   2 -12   7 3639.65  396.76
  -2  12   7 4219.64  318.00
   2  12   8 2816.77  348.62
  -2 -12   8 2766.53  497.73
  -2  12  -8 2706.10  517.10
   2 -12  -8 2928.00  391.92
  -2 -12  -8 2935.11  338.87
   2  12  -8 3283.69  517.61
   2 -12   8 3764.27  382.59
  -2  12   8 3318.49  281.03
  -2 -12   926426.52 1534.71
   2  12   926317.72 1660.04
  -2  12  -925444.05 1506.67
   2 -12  -928832.78 1903.64
  -2 -12  -927157.29 1394.74
   2  12  -925854.69 1593.05
   2 -12   927226.20 1497.42
  -2  12   927460.40 1267.11
   2  12  10 3076.26  393.14
  -2 -12  10 4640.39  637.00
  -2  12 -10 4121.22  618.68
   2 -12 -10 3997.17  473.55
   2  12 -10 4104.39  420.32
   2 -12  10 4354.02  445.57
  -2  12  10 4316.24  316.27
  -2 -12  1111978.32 1019.39
   2  12  1110861.11  619.94
  -2  12 -1111393.04  800.45
   2 -12 -1111115.18  607.96
  -2 -12 -1112237.82  829.81
   2  12 -11 9848.28  707.98
   2 -12  11 9665.00  705.87
  -2  12  1110514.36  926.78
   2  12  1213596.44  756.70
  -2 -12  1214855.18 1176.38
  -2  12 -1213628.08  974.99
   2 -12 -1212808.16  714.15
  -2 -12 -1212927.53 1090.21
   2  12 -1213762.00 1057.18
   2 -12  1213740.99 1099.14
  -2  12  1213626.13 1093.61
  -2 -12  13  905.00  303.93
   2  12  13 1110.70  269.04
  -2  12 -13 1277.54  477.64
   2 -12 -13  907.66  210.55
  -2 -12 -13 1402.39  281.49
   2  12 -13 1091.24  415.77
   2 -12  13  812.34  438.38
  -2  12  13 1209.12  453.46
   2  12  14 5531.37  447.64
  -2 -12  14 7112.82  835.33
  -2  12 -14 5507.82  811.90
  -2 -12 -14 5143.10  719.21
   2  12 -14 6792.65  580.12
   2 -12  14 6501.63  565.09
  -2  12  14 6621.31  577.58
   2  12  15 2905.01  406.36
  -2 -12  15 3110.39  616.88
  -2  12 -15 2662.50  465.80
  -2 -12 -15 3586.45  442.62
   2  12 -15 2112.79  560.82
   2 -12  15 3122.07  587.50
  -2  12  15 2296.49  594.98
  -2 -12  16  991.58  555.43
  -2  12 -16 1158.86  346.13
  -2 -12 -16  709.11  482.10
   2  12 -16 2119.17  503.83
   2 -12  16 1176.65  310.04
  -2  12  16 2010.91  337.43
  -2 -12  17 1507.15  365.64
  -2  12 -17 1769.32  397.54
  -2 -12 -17 1139.85  310.10
   2  12 -17 2283.03  363.90
   2 -12  17 2039.83  569.46
  -2  12  17 2078.94  364.59
  -2 -12  18 8037.53  784.76
  -2  12 -18 7057.38  764.19
  -2 -12 -18 7783.42  931.53
   2  12 -1810323.91 1056.25
   2 -12  18 9066.21  984.85
  -2  12  18 6459.77  885.05
  -2 -12  19 1105.71  423.27
  -2  12 -19 2133.96  419.30
  -2 -12 -19 1751.99  545.15
   2  12 -19 2371.99  646.75
   2 -12  19 1938.99  386.59
  -2  12  19 2427.55  583.83
  -2 -12  20 5465.31  700.47
  -2  12 -20 5879.52  703.12
  -2 -12 -20 4966.47  604.60
   2  12 -20 5787.34  630.63
   2 -12  20 5908.55  868.48
  -2  12  20 4101.91  573.65
  -2 -12  21 2890.46  553.42
  -2  12 -21 3682.36  593.69
   2  12 -21 3499.58  528.84
  -2 -12 -21 2323.45  704.46
   2 -12  21 3467.58  762.03
  -2  12  21 2505.43  487.68
  -2 -12  22 -448.21  329.33
  -2  12 -22  642.17  525.38
  -2 -12 -22  195.11  455.88
   2  12 -22  551.60  313.28
   2 -12  22 1152.41  512.31
  -2  12  22  843.08  463.41
  -2 -12  23  157.86  422.54
  -2  12 -23 1221.73  678.48
  -2 -12 -23 1624.39  599.29
   2  12 -23 1978.58  669.29
   2 -12  23 1902.04  656.27
  -2  12  23 1630.22  595.40
  -2 -12  24 -122.23  479.47
  -2  12 -24  418.60  489.30
  -2 -12 -24  186.88  253.34
   2  12 -24 -118.02  454.39
   2 -12  24   95.85  273.12
  -2  12  24  124.60  424.30
  -2 -12  25 -190.67  614.00
  -2  12 -25  379.41  380.01
  -2 -12 -25 1012.94  355.00
   2  12 -25 1080.53  607.66
   2 -12  25  -29.52  350.33
  -2  12  25  366.96  514.59
  -2 -12  26  747.16  729.25
  -2  12 -26  871.72  470.87
  -2 -12 -26 1344.06  638.61
   2  12 -26 1892.45  715.84
   2 -12  26   59.02  448.51
  -2  12  26 1294.98  634.09
  -2 -12  27  477.04  647.83
  -2  12 -27  792.21  678.65
   2  12 -27 -169.61  622.78
   2 -12  27  457.17  396.84
  -2  12  27  246.70  554.47
  -2 -13   0  504.33  186.05
   2  13   0  920.73  364.64
  -2  13   0 1008.78  292.03
   2 -13   0 1587.66  401.48
   2  13   1 5824.36  447.18
  -2 -13   1 5225.63  394.22
  -2  13  -1 4599.58  372.44
   2 -13  -1 5423.16  469.31
  -2 -13  -1 5131.38  487.24
   2  13  -1 4919.19  438.87
   2 -13   1 5642.48  482.57
  -2  13   1 5982.23  516.22
   2  13   2 4601.17  542.16
  -2 -13   2 3606.75  474.83
  -2  13  -2 3486.95  459.66
   2 -13  -2 5719.66  627.84
   2  13  -2 3546.17  368.32
  -2 -13  -2 4420.82  428.14
   2 -13   2 4564.66  578.94
  -2  13   2 3791.39  384.64
  -2 -13   3 4514.70  492.27
   2  13   3 4025.57  367.19
  -2  13  -3 4076.05  359.01
   2 -13  -3 3471.43  567.20
   2  13  -3 3630.51  510.26
  -2 -13  -3 3269.60  275.93
   2 -13   3 3328.31  556.43
  -2  13   3 3239.96  362.63
   2  13   410953.69  854.76
  -2 -13   411047.37  837.36
  -2  13  -411905.75  856.39
   2 -13  -4 9417.05  684.55
  -2 -13  -410157.76  661.87
   2  13  -411673.52  865.50
   2 -13   4 8250.53  613.04
  -2  13   410493.94  641.46
   2  13   5 3281.73  524.70
  -2 -13   5 3146.25  338.40
  -2  13  -5 2436.46  440.24
   2 -13  -5 1751.94  518.89
  -2 -13  -5 2706.66  328.89
   2  13  -5 2510.13  332.25
   2 -13   5 2419.80  335.56
  -2  13   5 2995.32  310.79
   2  13   615422.51  935.86
  -2 -13   616906.55 1001.25
  -2  13  -618005.68 1219.20
   2 -13  -616518.85 1035.62
  -2 -13  -618010.46  971.55
   2  13  -617158.93  981.05
   2 -13   616697.66 1162.87
  -2  13   617210.55  890.95
   2  13   7 3968.87  562.54
  -2 -13   7 3681.17  390.76
  -2  13  -7 3243.33  397.49
   2 -13  -7 4073.05  650.60
  -2 -13  -7 4438.98  399.13
   2  13  -7 3575.98  386.75
   2 -13   7 4010.62  585.66
  -2  13   7 4634.51  358.08
   2  13   827973.42 1735.54
  -2 -13   827268.01 1745.78
  -2  13  -828444.96 1826.34
   2 -13  -825842.92 1811.46
  -2 -13  -829565.55 1509.16
   2  13  -825895.67 1446.91
   2 -13   829121.77 1747.33
  -2  13   828219.21 1361.31
   2  13   9 5104.87  485.64
  -2 -13   9 5157.18  678.66
  -2  13  -9 4856.44  698.20
   2 -13  -9 4811.59  542.97
  -2 -13  -9 5781.95  479.46
   2  13  -9 5131.56  632.47
   2 -13   9 6586.02  730.47
  -2  13   9 6311.21  441.88
   2  13  10 7730.43  790.39
  -2 -13  10 6140.97  567.61
  -2  13 -10 7448.11  646.42
   2 -13 -10 6409.15  843.44
  -2 -13 -10 7204.33  541.50
   2  13 -10 7379.81  762.18
   2 -13  10 6248.47  533.66
  -2  13  10 8428.48  557.43
   2  13  1112294.62  723.45
  -2 -13  1111456.59 1062.56
  -2  13 -1110570.03 1033.45
   2 -13 -1111290.21  660.16
  -2 -13 -1113150.12  889.01
   2  13 -1111996.84 1003.83
   2 -13  11 9698.21  738.93
  -2  13  1112080.21  846.03
   2  13  12 7971.81  536.85
  -2 -13  12 6546.82  632.99
  -2  13 -12 7435.90  853.79
   2 -13 -12 6473.62  455.25
  -2 -13 -12 6341.11  814.79
   2  13 -12 6001.19  568.23
   2 -13  12 7672.24  804.05
  -2  13  12 8661.10  885.70
   2  13  13   76.87  117.44
  -2 -13  13  346.19  269.22
  -2  13 -13 -418.56  166.13
   2 -13 -13  -14.77   89.54
   2  13 -13  117.52  244.41
  -2 -13 -13  -82.28  246.34
   2 -13  13   -9.65  243.86
  -2  13  13   78.90  158.11
   2  13  14  900.33  249.27
  -2 -13  14 2218.07  345.56
  -2  13 -14 1605.22  537.47
   2  13 -14 1546.88  316.27
  -2 -13 -14  935.13  485.72
   2 -13  14 1179.73  310.33
  -2  13  14 1429.57  494.75
   2  13  15 2886.27  354.30
  -2 -13  15 2697.62  453.04
  -2  13 -15 2124.22  665.06
  -2 -13 -15 2922.73  421.76
   2  13 -15 3363.33  609.12
   2 -13  15 4548.70  665.51
  -2  13  15 3494.03  614.90
  -2 -13  16  853.82  535.61
  -2  13 -16 1104.99  549.30
  -2 -13 -16 1022.55  479.49
   2  13 -16 1739.52  345.93
   2 -13  16 1247.19  330.78
  -2  13  16 1455.09  327.21
  -2 -13  17 1445.28  554.78
  -2  13 -17 1328.10  544.56
   2  13 -17  913.59  510.42
  -2 -13 -17  959.72  314.19
   2 -13  17  742.24  513.57
  -2  13  17 1124.68  499.35
  -2 -13  18 3332.83  726.42
  -2  13 -18 3230.56  759.28
   2  13 -18 3155.61  683.09
  -2 -13 -18 2957.47  626.62
   2 -13  18 3842.32  528.27
  -2  13  18 3124.21  657.52
  -2 -13  19  185.14  508.13
  -2  13 -19  569.62  488.04
  -2 -13 -19  805.75  434.09
   2  13 -19  833.02  308.87
   2 -13  19   42.21  283.28
  -2  13  19  454.93  277.33
  -2 -13  2012748.68 1149.61
  -2  13 -2012174.75 1389.10
  -2 -13 -2010413.08  948.52
   2  13 -2012175.47  995.46
   2 -13  2013216.08 1342.00
  -2  13  2012053.27 1232.37
  -2 -13  21  641.13  365.68
  -2  13 -21  944.70  596.39
   2  13 -21 1611.75  580.77
  -2 -13 -21  640.53  502.87
   2 -13  21 1795.01  582.04
  -2  13  21  461.35  513.81
  -2 -13  22 5311.48  731.77
  -2  13 -22 4391.71  942.71
  -2 -13 -22 5239.48  893.29
   2  13 -22 8776.47 1074.03
   2 -13  22 7809.42  803.72
  -2  13  22 3123.28  839.92
  -2 -13  23 1226.79  704.11
  -2  13 -23  698.50  696.69
  -2 -13 -23 1767.73  435.00
   2  13 -23 1182.60  694.18
   2 -13  23 1497.33  465.96
  -2  13  23 2304.33  645.59
  -2 -13  24 1109.12  740.09
  -2  13 -24 2371.44  790.03
  -2 -13 -24 2025.50  661.95
   2  13 -24 1306.81  782.69
   2 -13  24 1932.94  507.21
  -2  13  24 1445.75  409.15
  -2 -13  25  352.75  603.30
  -2  13 -25  377.01  383.47
  -2 -13 -25  436.89  501.18
   2  13 -25  506.34  604.90
   2 -13  25  649.33  378.32
  -2  13  25  139.04  316.43
  -2 -13  26   19.44  658.94
  -2  13 -26  721.46  419.04
   2  13 -26  390.37  635.32
   2 -13  26  510.86  391.62
  -2  13  26  264.30  333.21
   2  13 -27 1096.30  740.93
   2 -13  27  748.48  463.35
  -2  13  27  608.70  394.59
  -2 -14   0 1154.69  341.69
   2  14   0 1529.70  418.78
  -2  14   0 1523.14  225.72
   2 -14   0 1459.51  442.80
   2  14   120096.32 1130.58
  -2 -14   121896.16 1298.05
  -2  14  -121571.90 1278.23
   2 -14  -120031.55 1172.22
  -2 -14  -123746.80 1315.76
   2  14  -120921.06 1363.48
   2 -14   122641.61 1479.36
  -2  14   123617.07 1302.90
  -2 -14   2 5162.27  572.69
   2  14   2 5405.52  602.26
  -2  14  -2 4596.83  542.49
   2 -14  -2 5329.95  671.34
  -2 -14  -2 5651.39  511.43
   2  14  -2 5136.36  452.48
   2 -14   2 5272.31  484.55
  -2  14   2 5199.14  484.58
   2  14   3 5551.19  457.85
  -2 -14   3 4784.13  551.84
  -2  14  -3 6195.81  568.06
   2 -14  -3 5639.48  481.17
  -2 -14  -3 5564.96  503.12
   2  14  -3 4965.53  450.34
   2 -14   3 5508.66  477.33
  -2  14   3 4579.30  331.70
  -2 -14   4 1815.49  269.55
   2  14   4 2362.69  452.16
  -2  14  -4 2467.36  432.63
   2 -14  -4 1437.54  487.24
  -2 -14  -4 1720.88  216.44
   2  14  -4 2031.93  455.86
   2 -14   4 2704.35  471.15
  -2  14   4 1852.18  296.02
  -2 -14   5 1548.86  392.04
   2  14   5 1505.62  267.76
  -2  14  -5 1543.53  274.33
   2 -14  -5 1505.77  474.99
   2  14  -5 1461.23  419.63
  -2 -14  -5 1418.30  295.31
   2 -14   5 1001.66  435.83
  -2  14   5 1121.78  261.67
  -2 -14   6 5985.02  678.86
   2  14   6 6884.99  697.32
  -2  14  -6 4480.06  621.77
   2 -14  -6 5779.80  737.07
  -2 -14  -6 6405.69  520.07
   2  14  -6 4934.67  660.32
   2 -14   6 5792.20  682.45
  -2  14   6 5455.36  442.46
   2  14   7 8000.64  627.24
  -2 -14   7 8894.95  892.31
  -2  14  -7 8819.42  872.66
   2 -14  -7 8665.13  926.80
  -2 -14  -7 9831.67  682.40
   2  14  -7 9234.45  837.23
   2 -14   7 9717.86  909.35
  -2  14   7 9354.31  595.78
  -2 -14   812228.17 1059.09
   2  14   812140.89 1027.34
  -2  14  -812140.74 1034.30
   2 -14  -812442.12  894.98
   2  14  -811843.89  980.86
  -2 -14  -812476.14  831.46
   2 -14   812840.20 1060.73
  -2  14   811716.97  704.15
   2  14   9  318.87  341.09
  -2 -14   9  111.49  218.62
  -2  14  -9   -5.71  224.17
   2 -14  -9  299.95  396.83
   2  14  -9  238.94  209.91
  -2 -14  -9  381.03  237.91
   2 -14   9 -118.73  333.17
  -2  14   9  433.82  182.63
  -2 -14  1025989.23 1789.25
   2  14  1026944.23 1554.48
  -2  14 -1025978.90 1834.93
   2 -14 -1025445.68 1611.35
  -2 -14 -1028264.85 1555.28
   2  14 -1027290.13 1574.48
   2 -14  1025860.86 1762.01
  -2  14  1027329.06 1381.79
  -2 -14  11 7424.89  851.81
  -2  14 -11 8090.84  699.92
   2  14 -11 6986.24  781.82
   2 -14  11 6930.70  814.78
  -2 -14  12 3673.37  656.92
   2  14  12 4229.06  389.64
  -2  14 -12 3752.41  694.05
   2 -14 -12 4103.95  355.03
  -2 -14 -12 4040.94  480.99
   2  14 -12 4362.24  645.45
   2 -14  12 3851.05  459.40
  -2  14  12 4449.46  473.80
   2  14  13 3920.60  393.91
  -2 -14  13 3277.93  496.02
  -2  14 -13 3848.93  729.32
   2  14 -13 4487.37  474.87
  -2 -14 -13 4054.21  673.92
   2 -14  13 4907.36  686.97
  -2  14  13 4243.97  673.72
   2  14  14 2119.41  304.38
  -2 -14  14 1561.68  601.50
  -2  14 -14 2211.02  426.47
  -2 -14 -14 1569.86  364.58
   2  14 -14 2367.29  558.14
   2 -14  14 2393.96  573.45
  -2  14  14 1916.94  548.51
  -2 -14  15 3730.33  518.67
  -2  14 -15 2493.52  482.67
  -2 -14 -15 3418.74  665.97
   2  14 -15 4177.55  492.95
   2 -14  15 3613.96  689.60
  -2  14  15 3568.70  487.45
  -2 -14  16 2821.66  493.38
  -2  14 -16 3403.78  753.71
  -2 -14 -16 3654.71  512.71
   2  14 -16 3148.33  647.44
   2 -14  16 3698.04  686.10
  -2  14  16 2972.98  639.93
  -2 -14  17 8428.37 1141.68
  -2  14 -1711679.30 1266.91
  -2 -14 -17 8298.35 1012.46
   2  14 -17 9333.90 1057.27
   2 -14  1710764.85 1111.55
  -2  14  17 9793.49 1040.68
  -2 -14  18  909.24  610.54
  -2  14 -18  504.22  574.69
  -2 -14 -18 1052.20  478.90
   2  14 -18 1008.67  353.17
   2 -14  18 1357.22  375.31
  -2  14  18 1061.82  316.91
  -2 -14  19 1644.22  669.52
  -2  14 -19 2035.24  699.49
  -2 -14 -19 2301.35  438.95
   2  14 -19 2274.28  437.56
   2 -14  19 2083.75  647.92
  -2  14  19 2384.53  614.98
  -2 -14  20   50.47  494.64
  -2  14 -20  314.15  501.44
  -2 -14 -20  411.92  426.82
   2  14 -20  560.07  495.25
   2 -14  20    1.84  477.71
  -2  14  20  380.28  430.87
  -2 -14  21  572.74  661.52
  -2  14 -21 1442.71  682.72
  -2 -14 -21 1757.18  583.74
   2  14 -21 1331.64  659.59
   2 -14  21 1505.67  437.55
  -2  14  21 1571.31  568.50
  -2 -14  22 1856.45  844.81
  -2  14 -22 3019.83  855.06
  -2 -14 -22 3555.49  580.35
   2  14 -22 5113.98  910.69
   2 -14  22 3907.21  610.97
  -2  14  22 3527.22  550.46
  -2 -14  23   18.87  542.03
  -2  14 -23  634.70  554.74
  -2 -14 -23   25.50  443.23
   2  14 -23 -167.27  525.29
   2 -14  23  553.45  335.11
  -2  14  23  197.84  282.33
  -2 -14  24 1066.25  730.37
  -2  14 -24 1093.35  743.43
  -2 -14 -24  717.96  618.40
   2  14 -24 1936.39  514.25
   2 -14  24 1472.22  722.35
  -2  14  24  868.47  614.88
  -2 -14  25  737.11  795.70
  -2  14 -25 1255.88  517.82
  -2 -14 -25 1041.56  676.30
   2  14 -25 2124.95  520.42
   2 -14  25 2023.50  797.91
  -2  14  25 1402.63  664.94
  -2  14 -26 -415.16  333.66
   2  14 -26  654.79  334.77
   2 -14  26  -59.15  522.55
  -2  14  26   -1.25  452.07
   2  15   0 4499.62  448.58
  -2 -15   0 4420.75  544.46
  -2  15   0 4219.57  514.93
   2 -15   0 4899.74  480.86
   2  15   1 5603.20  480.69
  -2 -15   1 5949.28  604.79
  -2  15  -1 6158.62  599.15
   2 -15  -1 5946.63  713.71
   2  15  -1 5552.43  641.72
  -2 -15  -1 4891.38  404.62
   2 -15   1 4954.15  682.67
  -2  15   1 5194.96  394.68
   2  15   210401.66  889.31
  -2 -15   210543.98  697.09
  -2  15  -210610.13  714.29
   2 -15  -210461.32  990.18
   2  15  -210307.35  900.44
  -2 -15  -211208.58  823.09
   2 -15   210779.90  981.05
  -2  15   211538.37  811.07
   2  15   3 3566.61  400.75
  -2 -15   3 3508.40  544.94
  -2  15  -3 2694.84  476.18
   2 -15  -3 3691.30  426.04
  -2 -15  -3 4160.66  456.93
   2  15  -3 3448.56  386.27
   2 -15   3 3940.99  417.32
  -2  15   3 3605.25  416.17
   2  15   4 3267.82  523.99
  -2 -15   4 2951.14  519.65
  -2  15  -4 3764.97  531.32
   2 -15  -4 3987.45  630.15
   2  15  -4 3245.77  374.96
  -2 -15  -4 3326.97  429.88
   2 -15   4 2751.83  375.13
  -2  15   4 3476.89  394.39
   2  15   521449.27 1249.75
  -2 -15   521736.66 1256.30
  -2  15  -520495.10 1357.37
   2 -15  -521542.42 1329.14
   2  15  -521716.35 1265.68
  -2 -15  -519678.36 1159.95
   2 -15   519381.68 1163.43
  -2  15   521599.68 1179.32
   2  15   6 5028.52  659.01
  -2 -15   6 3943.04  422.78
  -2  15  -6 5145.67  638.42
   2 -15  -6 4624.86  723.55
  -2 -15  -6 5195.77  512.39
   2  15  -6 4456.83  456.69
   2 -15   6 4263.13  459.46
  -2  15   6 4939.42  442.94
  -2 -15   715009.33  987.96
   2  15   715315.36  978.53
  -2  15  -715430.00 1012.72
   2 -15  -714831.32 1009.98
  -2 -15  -715328.43  960.07
   2  15  -713776.44  901.10
   2 -15   716204.39 1005.00
  -2  15   715653.00  889.83
   2  15   8  289.78  373.32
  -2 -15   8  644.37  250.31
  -2  15  -8  469.36  245.25
   2 -15  -8  747.07  456.05
   2  15  -8  362.63  380.58
  -2 -15  -8  559.04  278.43
   2 -15   8  211.94  243.94
  -2  15   8  617.28  216.90
  -2 -15   9 6212.79  771.45
   2  15   9 6746.38  768.40
  -2  15  -9 7017.32  800.31
   2 -15  -9 6180.42  633.93
   2  15  -9 5641.41  713.41
  -2 -15  -9 6371.34  591.40
   2 -15   9 5407.12  558.41
  -2  15   9 5966.92  496.22
   2  15  10 9506.24  913.92
  -2 -15  10 7941.45  933.05
  -2  15 -10 8113.12  710.32
   2 -15 -10 9505.32 1069.63
  -2 -15 -10 9347.94  713.85
   2  15 -10 9109.52  893.32
   2 -15  10 9488.91  946.07
   2  15  1110387.64  977.58
  -2 -15  11 9502.48  816.50
  -2  15 -11 9068.41 1007.71
   2 -15 -11 8727.44 1050.44
   2  15 -11 9652.57  744.90
  -2 -15 -11 8953.98  714.05
   2 -15  1110833.34 1011.16
   2  15  1219438.16 1115.89
  -2 -15  1219066.50 1564.47
  -2  15 -1218579.99 1315.59
   2  15 -1219353.25 1492.35
  -2 -15 -1221331.50 1631.49
   2 -15  1218964.16 1231.43
  -2  15  1221825.80 1612.96
  -2 -15  13 2030.12  605.68
   2  15  13 2224.52  335.50
  -2  15 -13 2140.67  616.10
   2  15 -13 1639.45  363.06
  -2 -15 -13 1868.68  374.31
   2 -15  13 2066.77  374.56
  -2  15  13 1898.57  566.51
  -2 -15  14 3117.95  478.87
  -2  15 -14 3572.53  735.51
  -2 -15 -14 2743.43  687.56
   2  15 -14 3884.03  697.93
   2 -15  14 5030.89  723.77
  -2  15  14 3434.25  492.38
  -2 -15  15  706.27  650.18
  -2  15 -15 2344.53  487.61
   2  15 -15 2162.93  400.56
  -2 -15 -15 2551.04  602.93
   2 -15  15 2520.97  406.49
  -2  15  15 2981.16  671.92
  -2 -15  16 1262.65  593.25
  -2  15 -16 1575.58  398.07
   2  15 -16 1448.22  560.63
  -2 -15 -16 1551.91  557.38
   2 -15  16  967.53  564.17
  -2  15  16 1797.13  534.80
  -2 -15  17  320.76  317.71
  -2  15 -17   19.41  300.71
   2  15 -17  580.03  282.02
  -2 -15 -17  293.46  422.61
   2 -15  17  447.01  316.39
  -2  15  17  788.83  316.80
  -2 -15  18  950.32  389.77
  -2  15 -18  967.80  588.00
   2  15 -18  530.37  333.56
  -2 -15 -18  896.17  313.63
   2 -15  18  528.76  344.26
  -2  15  18 1465.60  536.04
  -2 -15  19 6207.93 1037.58
  -2  15 -19 6548.43 1090.90
  -2 -15 -19 5631.99  869.15
   2  15 -19 7841.89 1033.89
   2 -15  19 6023.72  982.84
  -2  15  19 7840.10  977.08
  -2 -15  20  947.17  669.89
  -2  15 -20  617.60  658.76
  -2 -15 -20 1366.42  564.53
   2  15 -20 1476.73  650.31
   2 -15  20 1958.90  641.26
  -2  15  20 1528.88  378.19
  -2 -15  21  749.38  802.47
  -2  15 -21 2464.87  925.22
   2  15 -21 4592.17  587.46
  -2 -15 -21 2384.25  447.66
   2 -15  21 4031.18  591.24
  -2  15  21 2922.44  502.39
  -2 -15  22  388.67  693.58
  -2  15 -22 1539.02  721.66
  -2 -15 -22  641.83  562.56
   2  15 -22 1759.91  461.92
   2 -15  22 1815.62  460.34
  -2  15  22 2036.09  613.17
  -2 -15  23  744.89  837.78
  -2  15 -23 2162.85  841.33
   2  15 -23 3338.03  574.59
  -2 -15 -23 1940.55  713.41
   2 -15  23 2487.81  850.07
  -2  15  23 1800.08  682.62
  -2 -15  24  392.65  711.99
  -2  15 -24  834.53  458.34
  -2 -15 -24  972.06  392.44
   2  15 -24 1589.49  450.25
   2 -15  24 1172.47  712.15
  -2  15  24  346.96  593.93
  -2 -15  25  514.66  651.38
  -2  15 -25  210.07  409.63
   2  15 -25  275.44  414.67
   2 -15  25  725.50  682.54
  -2  15  25  838.78  555.69
   2 -16   016968.56 1074.75
  -2 -16   017883.07 1179.56
   2  16   017124.93 1042.53
  -2  16   016821.50 1108.30
  -2  16  -1 2996.43  457.15
   2  16   1 3012.35  530.20
  -2 -16   1 2289.97  457.82
   2 -16  -1 2109.48  515.31
   2  16  -1 2504.48  521.56
  -2 -16  -1 2485.27  294.97
  -2  16   1 2564.96  280.33
   2 -16   1 2024.78  359.16
  -2 -16   217494.19 1186.05
   2  16   217350.81 1219.83
  -2  16  -216300.70 1137.86
   2 -16  -215598.05 1257.60
   2  16  -215608.17 1179.88
  -2 -16  -215692.29  893.03
   2 -16   216351.05 1251.12
  -2  16   214263.53  960.38
  -2 -16   3 7984.69  757.73
   2  16   3 8110.42  601.99
  -2  16  -3 7650.93  594.23
   2 -16  -3 8394.68  661.19
   2  16  -3 8526.54  822.78
  -2 -16  -3 8282.42  551.74
   2 -16   3 7673.16  854.13
  -2  16   3 8018.19  651.73
  -2 -16   4 8200.61  814.79
   2  16   4 7895.44  811.40
  -2  16  -4 8205.04  648.58
   2 -16  -4 8923.46  926.04
  -2 -16  -4 8876.92  574.07
   2  16  -4 8578.42  846.31
   2 -16   4 7897.70  858.64
  -2  16   4 8857.86  665.12
  -2 -16   511399.90  990.98
   2  16   510638.61  961.86
  -2  16  -511449.77  810.63
   2 -16  -511413.71  893.22
  -2 -16  -511038.09  816.63
   2  16  -511621.71 1006.39
   2 -16   510666.99  982.29
  -2  16   5 9847.93  587.69
   2  16   6  745.49  277.65
  -2 -16   6  901.16  442.72
  -2  16  -6 1317.11  264.04
   2 -16  -6 1080.81  492.85
  -2 -16  -6  473.42  325.73
   2  16  -6 1200.55  443.37
   2 -16   6 1211.04  464.64
  -2  16   6 1258.44  290.37
  -2 -16   7 2297.57  543.98
   2  16   7 3051.65  560.02
  -2  16  -7 1794.93  338.79
   2 -16  -7 2089.85  611.70
  -2 -16  -7 2870.58  434.42
   2  16  -7 1496.07  533.96
   2 -16   7 2040.67  549.31
  -2  16   7 2737.36  344.60
   2 -16  -8 5046.12  600.27
  -2 -16   8 5254.56  719.04
   2  16   8 6672.27  601.52
  -2  16  -8 5656.65  759.39
  -2  16   8 5797.48  505.97
   2  16  -8 4582.75  494.65
  -2 -16  -8 6212.67  607.07
   2 -16   8 6024.99  758.64
  -2  16  -9 5747.68  587.48
   2  16   9 5752.13  747.60
  -2 -16   9 6637.03  801.27
   2 -16  -9 6012.15  906.90
  -2 -16  -9 6033.39  601.97
   2  16  -9 5728.50  573.14
   2 -16   9 6987.60  805.58
  -2  16   9 6003.99  514.03
   2 -16 -10  785.85  338.99
  -2  16 -10  471.20  439.81
   2  16  10  703.79  279.29
  -2 -16  10  203.07  287.57
   2  16 -10  799.33  435.67
  -2 -16 -10 1006.22  326.18
   2 -16  10 1304.74  304.35
   2  16  11 4817.67  727.43
  -2 -16  11 4498.16  718.75
  -2  16 -11 3534.17  711.67
   2 -16 -11 4579.07  824.83
   2  16 -11 3660.47  665.15
   2 -16  11 3914.96  705.71
   2  16  12 8557.73  650.95
  -2 -16  12 8719.81  815.18
  -2  16 -12 7153.61  982.20
  -2  16  12 9213.39  769.83
   2  16 -12 9316.70  771.46
  -2 -16 -12 9496.49  831.32
   2 -16  12 8599.16  975.33
  -2 -16  13 8601.62 1039.99
  -2  16 -13 8067.94  778.99
   2  16 -13 9586.34  992.84
  -2 -16 -13 8062.47 1015.37
   2 -16  13 7852.60  722.39
  -2  16  13 8868.15  770.86
  -2 -16  14 6199.19  711.50
  -2  16 -14 5900.40  938.13
  -2  16  14 7691.97  947.40
  -2 -16 -14 6868.99  940.94
   2  16 -14 6967.36  662.43
   2 -16  14 5821.97  870.73
  -2 -16  15 2909.18  770.12
  -2  16 -15 2943.69  748.52
   2  16 -15 3118.89  687.47
  -2  16  15 3642.20  495.44
  -2 -16 -15 1903.23  655.86
   2 -16  15 2766.88  466.34
  -2 -16  16 2821.90  767.27
  -2  16 -16 3867.22  606.03
  -2  16  16 3618.89  555.65
  -2 -16 -16 3393.35  710.51
   2  16 -16 4068.52  545.25
   2 -16  16 5225.97  828.43
  -2 -16  17 2452.10  700.84
  -2  16 -17 1886.23  471.59
  -2  16  17 2607.94  678.57
   2  16 -17 2305.88  451.21
  -2 -16 -17 2099.02  438.11
   2 -16  17 1720.32  448.42
  -2 -16  18 1973.39  513.12
  -2  16 -18 1937.39  521.89
  -2  16  18 3483.30  719.77
   2  16 -18 4539.98  763.64
  -2 -16 -18 1296.01  631.76
   2 -16  18 3086.64  734.67
  -2 -16  19 3680.74  654.96
  -2  16 -19 3444.02 1000.51
  -2  16  19 5060.52  650.36
   2  16 -19 7023.63  977.08
  -2 -16 -19 6143.58  913.09
   2 -16  19 6348.45  990.69
  -2 -16  20  914.00  664.48
  -2  16 -20  819.50  685.65
  -2  16  20 1191.79  575.43
  -2 -16 -20 1210.07  369.70
   2  16 -20 1174.55  421.06
   2 -16  20 1230.73  421.60
  -2 -16  21  822.18  713.07
  -2  16 -21 1096.01  731.42
  -2  16  21 1077.04  586.92
  -2 -16 -21  996.15  608.27
   2  16 -21 1604.64  441.16
   2 -16  21 1840.22  464.04
  -2 -16  22 -170.74  480.32
  -2  16 -22 -192.74  484.76
  -2  16  22 -220.10  394.41
   2  16 -22  241.28  480.78
  -2 -16 -22   66.69  397.82
   2 -16  22 -224.44  463.85
  -2 -16  23  287.44  658.49
  -2  16 -23  426.48  656.10
   2  16 -23 1020.31  647.40
  -2 -16 -23  786.23  369.28
   2 -16  23 1031.25  684.69
  -2  16  23  360.95  337.62
  -2 -16  24  -90.12  633.30
  -2  16 -24  418.26  398.22
   2  16 -24  130.21  611.31
   2 -16  24  207.81  642.25
  -2  16  24  657.48  328.42
   2 -17   0 3178.41  588.78
   2  17   0 2438.64  358.11
  -2 -17   0 2532.60  499.63
  -2  17   0 2077.12  461.89
  -2  17  -1 9032.80  671.91
   2  17   1 9351.88  904.58
  -2 -17   110102.34  905.29
   2 -17  -1 8204.74  930.14
  -2  17   1 9340.49  629.88
   2 -17   1 9787.57  757.06
   2  17  -1 7952.65  675.87
  -2 -17  -111163.95  718.63
   2 -17  -2  464.16  242.79
   2  17   2  -54.56  320.85
  -2 -17   2  385.18  327.68
  -2  17  -2  442.99  320.16
  -2  17   2  192.41  255.82
   2 -17   2  238.74  234.87
  -2 -17  -2  241.67  288.30
   2  17  -2 -102.36  202.74
  -2  17  -3 2971.83  544.06
   2 -17  -3 2390.22  413.70
   2  17   3 3744.18  414.92
  -2 -17   3 3277.96  391.76
  -2  17   3 3361.64  476.53
   2 -17   3 3288.12  423.18
   2  17  -3 2859.11  395.19
  -2 -17  -3 3495.55  491.19
   2 -17  -4 1669.11  570.38
  -2  17  -4 1824.30  472.25
   2  17   4 2076.69  510.31
  -2 -17   4 2085.02  471.60
  -2  17   4 1546.38  350.52
  -2 -17  -4 1338.48  392.28
   2  17  -4 1701.28  329.72
   2 -17   4 1352.93  339.76
  -2  17  -5 1055.19  471.51
   2 -17  -5 1581.15  379.95
   2  17   5 1359.48  499.50
  -2 -17   5 1416.50  502.19
  -2  17   5 2104.53  344.65
   2 -17   5 1967.86  349.58
  -2 -17  -5 1315.09  382.81
   2  17  -5 1950.97  332.62
   2 -17  -6 8136.09  721.52
  -2  17  -6 6275.28  765.84
   2  17   6 8263.14  661.56
  -2 -17   6 7783.66  864.86
  -2  17   6 6895.14  594.61
   2 -17   6 6979.33  631.97
   2  17  -6 8174.16  652.94
  -2 -17  -6 8268.70  708.75
   2 -17  -7 1440.45  600.20
   2  17   7 1736.28  544.21
  -2 -17   7 2262.14  535.86
  -2  17  -7  673.36  491.50
  -2  17   7 2016.47  339.37
  -2 -17  -7 2458.18  425.23
   2  17  -7 1750.79  335.24
   2 -17   7 2173.41  377.71
   2 -17  -8 4143.97  557.14
   2  17   8 4823.48  690.85
  -2 -17   8 4338.46  506.95
  -2  17  -8 4615.66  714.57
  -2  17   8 4663.76  476.18
   2 -17   8 3340.88  466.57
   2  17  -8 5066.62  699.27
  -2 -17  -8 5063.63  574.85
  -2  17  -9  893.65  277.82
   2 -17  -9  488.34  501.06
   2  17   9  639.98  274.86
  -2 -17   9  257.73  269.86
   2 -17   9 -200.51  427.98
  -2 -17  -9  631.22  334.39
   2  17  -9  358.10  420.65
   2 -17 -10 4630.44  895.31
  -2  17 -10 5596.00  859.74
  -2 -17  10 6692.33  854.08
   2  17  10 6568.51  833.71
   2  17 -10 7418.68  670.47
   2 -17  10 7498.83  883.42
   2 -17 -11 8514.94  827.14
   2  17  11 9188.55  804.00
  -2 -17  11 8625.90 1035.52
  -2  17 -11 6814.66  710.84
   2 -17  11 7284.69  691.10
   2  17 -11 7827.87  901.53
  -2  17 -12  553.46  442.54
  -2 -17  12  311.79  441.35
   2 -17  12  511.12  428.67
  -2  17  12  148.93  256.81
   2  17 -12  378.16  403.83
  -2 -17 -12   78.96  266.93
  -2  17 -13 8548.88  837.79
  -2 -17  13 7824.96 1085.44
   2 -17  13 8123.52  998.60
  -2  17  13 9775.04 1083.41
   2  17 -13 8325.73  998.81
  -2 -17 -13 8926.89  858.29
  -2  17 -14 5025.96  678.42
  -2 -17  14 5212.17  931.23
  -2  17  14 6016.01  672.05
   2 -17  14 5088.14  627.90
   2  17 -14 5026.63  820.31
  -2 -17 -14 5969.78  895.32
  -2  17 -15 8009.95 1161.68
  -2 -17  15 8668.87  934.97
   2 -17  15 7900.52 1031.25
   2  17 -15 7834.06 1020.10
  -2 -17 -1510260.76 1136.54
  -2  17  15 8278.79 1088.38
  -2  17 -16  400.96  462.81
  -2 -17  16  179.07  458.65
  -2  17  16  167.16  415.05
   2 -17  16  -45.94  433.29
  -2 -17 -16  227.05  249.88
   2  17 -16    2.76  260.03
  -2  17 -17  -25.66  483.99
  -2 -17  17 2678.61  778.87
  -2  17  17 3403.75  494.13
   2 -17  17 2952.68  492.36
   2  17 -17 2730.11  708.91
  -2 -17 -17  692.17  665.32
  -2  17 -18 4245.28  630.63
  -2 -17  18 6130.02 1009.74
  -2  17  18 5128.67  925.81
   2 -17  18 6465.56 1035.89
   2  17 -18 5778.10  944.03
  -2 -17 -18 5220.00  643.53
  -2  17 -19 -176.45  351.36
  -2 -17  19  705.03  375.75
  -2  17  19  407.46  527.04
   2 -17  19 1197.36  401.25
  -2 -17 -19  354.63  477.70
   2  17 -19  413.78  361.45
  -2 -17  20 6606.04  832.02
  -2  17 -20 5712.09  728.34
  -2  17  20 5340.21  941.35
   2 -17  20 7204.26  866.40
   2  17 -20 8015.70 1145.79
  -2 -17 -20 5607.07  947.52
  -2 -17  21  998.10  413.45
  -2  17 -21 -155.12  637.43
  -2  17  21  672.10  326.10
  -2 -17 -21  224.78  312.39
   2 -17  21  362.52  602.31
   2  17 -21 1035.00  592.68
  -2  17 -22 -113.65  923.37
  -2 -17  22 4578.09  992.21
  -2  17  22 4357.55  813.50
   2  17 -22 2164.88  964.39
  -2 -17 -22 3678.55  843.81
   2 -17  22 6538.33 1064.72
  -2 -17  23  150.01  635.10
  -2  17 -23  174.81  375.28
   2 -17  23 1191.02  650.54
  -2  17  23    1.38  525.64
   2  17 -23  577.19  614.51
  -2  18   0 1369.72  401.78
  -2 -18   0 2280.80  459.34
   2  18   0 1268.20  475.87
  -2  18  -1 2006.60  314.08
   2 -18  -1 2136.37  365.14
  -2 -18   1 1448.19  475.72
   2  18   1 1589.18  505.52
  -2  18   1 1921.10  425.15
   2  18  -1 2797.47  543.75
  -2 -18  -1 2142.18  472.01
  -2  18  -2 1630.43  469.32
   2 -18  -2 2053.04  386.83
  -2 -18   2 2366.18  536.00
   2  18   2 2025.39  336.19
  -2  18   2 2897.06  467.18
   2 -18   2 2505.21  604.22
   2  18  -2 3342.96  549.00
  -2 -18  -2 1936.24  467.69
   2 -18  -3 3770.37  680.47
  -2  18  -3 2936.17  561.48
  -2 -18   3 2991.36  389.87
   2  18   3 3634.81  422.73
   2 -18   3 3529.20  662.24
  -2  18   3 2800.89  476.15
  -2 -18  -3 3319.82  533.54
   2  18  -3 2921.11  585.67
   2 -18  -4 1192.70  603.40
  -2  18  -4 1727.63  504.18
  -2 -18   4 2375.53  361.88
   2  18   4 2143.93  535.61
   2 -18   4 2270.10  592.91
  -2  18   4 1976.21  275.96
   2  18  -4 2357.35  534.48
  -2 -18  -4 1810.20  294.30
  -2  18  -5 3574.16  624.78
   2 -18  -5 2820.51  483.63
  -2 -18   5 3517.74  645.74
   2  18   5 4573.58  678.69
  -2  18   5 4133.21  361.70
   2  18  -5 4256.09  646.31
  -2 -18  -5 3784.80  385.20
  -2  18  -6 1240.88  468.06
   2 -18  -6  921.28  342.82
  -2 -18   6 1156.44  481.01
   2  18   6 1022.65  320.59
  -2  18   6  965.13  331.35
  -2 -18  -6  780.52  236.13
   2  18  -6  381.29  484.63
   2 -18  -7  599.04  516.12
  -2  18  -7  210.74  441.82
  -2 -18   7  682.59  289.96
   2  18   7  869.44  448.20
   2 -18   7 1085.08  497.69
  -2  18   7  620.11  285.48
  -2 -18  -7  600.03  223.19
   2  18  -7  760.63  450.96
   2 -18  -8 1875.41  644.37
  -2  18  -8 1800.85  365.77
   2  18   8 1753.21  534.94
  -2 -18   8 1705.76  357.76
   2 -18   8 1243.28  351.09
  -2 -18  -8 1700.49  430.22
   2  18  -8 1314.72  351.35
   2 -18  -9  162.54  252.43
   2  18   9  -44.08  196.26
  -2 -18   9  283.49  343.94
  -2  18  -9  -67.79  324.77
   2 -18   9  106.20  201.74
   2  18  -9  -73.33  323.56
   2 -18 -10 2338.62  733.25
  -2  18 -10 2535.13  620.50
  -2 -18  10 2111.52  642.68
   2  18  10 1642.02  621.03
   2 -18  10 1713.56  586.74
   2  18 -10 2169.48  574.52
   2 -18 -11 -146.93  505.25
  -2  18 -11  175.38  462.09
   2  18  11  201.44  453.93
  -2 -18  11  498.79  275.91
   2 -18  11  536.50  477.00
   2  18 -11  525.62  280.40
   2 -18 -12 3226.78  582.60
  -2 -18  12 2506.87  734.12
  -2  18 -12 3554.21  787.93
   2  18  12 3422.98  513.87
   2 -18  12 3949.85  535.87
   2  18 -12 4454.41  736.60
  -2  18 -13 6459.64 1015.45
  -2 -18  13 7856.37  800.12
  -2  18  13 8080.60 1043.85
   2 -18  13 7290.24  969.03
   2  18 -13 7589.66  707.25
  -2 -18 -13 7863.29 1042.17
  -2  18 -14  402.51  318.60
  -2 -18  14  561.31  506.57
   2 -18  14  229.99  308.83
  -2 -18 -14  266.90  293.84
   2  18 -14  470.55  473.77
  -2  18  14  540.84  510.18
  -2  18 -15 3204.42  851.17
  -2 -18  15 3999.36  635.10
  -2  18  15 4628.55  581.22
   2 -18  15 3466.57  784.43
  -2 -18 -15 2830.70  795.43
   2  18 -15 4246.03  550.27
  -2  18 -16  105.36  728.03
  -2 -18  16 2959.09  519.35
   2 -18  16 3327.90  537.68
  -2  18  16 3254.09  760.13
   2  18 -16 2095.85  690.17
  -2 -18 -16 1337.91  667.03
  -2  18 -17  -98.75  749.08
  -2 -18  17 2523.32  760.98
   2 -18  17 2958.49  759.50
  -2  18  17 2212.42  757.86
   2  18 -17 3858.90  742.18
  -2 -18 -17 2291.40  488.85
  -2  18 -18 -277.54  370.71
  -2 -18  18  717.40  592.68
  -2  18  18  601.74  530.02
   2 -18  18 1021.76  562.88
   2  18 -18  814.47  359.45
  -2 -18 -18  561.53  520.59
  -2  18 -19 3665.62  608.19
  -2 -18  19 2038.37  619.78
  -2  18  19 3675.78  580.87
   2 -18  19 4352.90  643.07
  -2 -18 -19 3006.39  775.05
   2  18 -19 5641.96  934.66
  -2  18 -20 -267.69  486.79
  -2 -18  20 2335.21  543.11
   2 -18  20 2937.95  803.79
  -2  18  20 1819.26  701.03
   2  18 -20 1900.22  773.13
  -2 -18 -20 1995.24  445.25
  -2  18 -21    1.53  391.06
  -2 -18  21 1027.13  456.12
  -2  18  21  364.91  562.03
   2 -18  21  700.27  662.71
   2  18 -21 1042.27  633.64
  -2 -18 -21  592.02  533.15
  -2  18 -22   79.68  394.70
  -2 -18  22 1081.48  428.02
  -2  18  22  105.85  564.98
   2 -18  22  850.81  674.76
   2  18 -22  534.53  390.62
  -2  19   0  776.59  355.88
  -2 -19   0  288.17  237.83
   2 -19   0  813.95  294.91
   2  19   0  245.49  422.72
   2 -19  -1  294.20  211.37
  -2  19  -1  -93.70  160.77
   2  19   1 -100.72  187.83
  -2 -19   1  -10.34  299.81
   2 -19   1   58.53  212.43
  -2  19   1  179.68  255.87
   2  19  -1  279.81  312.11
  -2 -19  -1   72.24  291.77
  -2 -19   2 3173.80  605.54
  -2  19  -2 2097.03  541.81
   2 -19  -2 3043.49  694.19
   2  19   2 3418.32  458.20
   2 -19   2 3531.21  460.67
  -2  19   2 2937.92  511.33
   2  19  -2 3008.41  619.38
  -2 -19  -2 3352.40  574.32
  -2  19  -3 6743.40  764.53
   2 -19  -3 6523.91  862.23
  -2 -19   3 6074.41  563.70
   2  19   3 5093.74  528.03
  -2  19   3 5309.61  608.97
   2 -19   3 5240.05  588.51
   2  19  -3 5875.72  778.46
  -2 -19  -3 6102.64  686.87
  -2  19  -4 1415.01  516.36
   2 -19  -4 1879.41  633.23
  -2 -19   4 1940.91  363.73
   2  19   4 2524.24  594.06
   2 -19   4 2371.48  398.41
  -2  19   4 1539.41  422.35
  -2 -19  -4 1825.45  486.58
   2  19  -4 2289.06  396.12
  -2  19  -513730.44 1201.30
   2 -19  -512675.13 1021.62
   2  19   513625.99 1210.33
  -2 -19   515270.41 1050.06
   2 -19   514061.30 1017.52
  -2  19   514810.08 1027.02
  -2 -19  -513722.87 1046.91
   2  19  -512894.71  950.53
  -2  19  -6  369.13  447.58
   2 -19  -6  942.96  345.10
   2  19   6  861.12  317.80
  -2 -19   6  533.63  297.95
  -2  19   6  759.08  329.42
   2 -19   6  265.21  303.92
  -2 -19  -6  623.09  380.01
   2  19  -6  782.84  295.63
  -2  19  -712014.33  927.81
   2 -19  -713030.86 1297.80
   2  19   713512.00 1219.39
  -2 -19   711347.46  935.62
   2 -19   712455.48 1177.85
   2  19  -711086.75 1134.08
  -2 -19  -713483.62 1058.21
   2 -19  -8  846.30  596.40
  -2  19  -8 1160.72  341.21
  -2 -19   8  471.36  501.79
   2  19   8 1214.56  526.36
   2 -19   8  864.59  528.65
   2  19  -8  460.44  493.60
   2 -19  -9 3302.65  532.19
  -2  19  -9 3915.40  727.92
   2  19   9 2835.35  451.45
  -2 -19   9 1145.34  684.57
   2 -19   9 3015.84  706.52
   2  19  -9 3709.83  462.62
  -2  19 -10  212.58  277.00
   2 -19 -10  621.10  552.47
   2  19  10  514.01  310.06
  -2 -19  10  534.53  293.22
   2 -19  10  233.16  287.48
   2  19 -10  404.62  275.09
   2 -19 -11 1986.62  741.72
  -2  19 -11 1736.39  631.42
   2  19  11 1743.70  650.81
  -2 -19  11 1607.52  647.12
   2 -19  11 1793.85  646.11
   2  19 -11 1452.15  620.76
  -2  19 -12  782.10  347.62
   2 -19 -12  832.65  408.71
  -2 -19  12  707.74  577.86
   2  19  12  882.42  354.59
   2 -19  12 1257.31  566.72
   2  19 -12  984.77  335.85
  -2  19 -13 3887.25  860.37
  -2 -19  13 3110.03  582.77
  -2  19  13 4488.66  588.22
   2 -19  13 3786.95  558.49
  -2 -19 -13 3714.66  844.64
   2  19 -13 4007.53  784.47
  -2  19 -14 3676.41  603.68
  -2 -19  14 5813.26 1002.55
   2 -19  14 6038.30  960.17
  -2  19  14 7936.25 1039.28
  -2 -19 -14 5108.61  950.04
   2  19 -14 6573.82  701.69
  -2  19 -15  149.69  397.68
  -2 -19  15 1508.47  626.05
   2  19 -15 1919.00  598.53
  -2  19  15  865.74  619.27
   2 -19  15 1618.05  604.79
  -2 -19 -15  758.24  376.39
  -2  19 -16 -209.20  662.63
  -2  19  16 1266.77  448.88
   2 -19  16 1422.70  437.79
   2  19 -16 3302.20  649.07
  -2 -19 -16 1033.90  622.11
  -2  19 -17   62.39  520.15
  -2 -19  17  -24.63  511.77
  -2  19  17  -47.53  477.56
   2 -19  17   58.78  490.58
  -2 -19 -17  195.49  455.96
   2  19 -17  350.93  310.53
  -2  19 -18   -5.49  385.43
  -2 -19  18  492.04  632.93
   2 -19  18  813.46  387.63
  -2  19  18  615.27  563.87
   2  19 -18  884.37  575.27
  -2 -19 -18  934.62  366.98
  -2  19 -19 3917.78  669.28
  -2 -19  19 5713.31 1107.15
  -2  19  19 5255.41  973.19
   2 -19  19 6191.96 1089.69
  -2 -19 -19 4254.06  876.41
   2  19 -19 5596.50 1047.77
  -2  19 -20 -104.87  325.95
  -2 -19  20 -233.70  329.91
  -2  19  20  401.01  296.56
   2 -19  20  565.33  530.91
  -2 -19 -20  -43.39  434.80
   2  19 -20  564.63  512.08
  -2  19 -21   27.64  603.74
  -2 -19  21 4062.00  697.76
   2 -19  21 2940.92  972.66
  -2  19  21 3208.75  547.27
   2  19 -21 4376.04  677.88
  -2  20   0  544.67  406.89
   2 -20   0  885.37  512.74
   2  20   0 1014.41  293.81
  -2 -20   0  608.27  286.24
  -2  20  -1  443.75  245.08
   2 -20  -1  409.35  496.66
  -2 -20   1  781.69  445.06
   2  20   1  783.39  295.96
  -2  20   1  557.22  377.89
  -2 -20  -1  601.40  438.16
   2 -20   1  421.04  501.11
   2  20  -1  550.76  278.74
   2 -20  -2 5026.92  819.11
  -2  20  -2 4471.81  672.08
   2  20   2 4074.12  729.10
  -2 -20   2 4324.73  700.29
   2 -20   2 5206.11  805.81
  -2  20   2 4183.66  434.97
  -2 -20  -2 4535.93  660.99
   2  20  -2 4345.93  513.69
   2 -20  -3 2256.23  690.16
  -2  20  -3 2294.56  554.49
   2  20   3 2573.20  617.48
  -2 -20   3 2183.94  623.90
   2 -20   3 2869.32  676.40
  -2  20   3 2849.48  510.59
  -2 -20  -3 2813.22  563.61
   2  20  -3 3031.47  441.86
   2 -20  -4 6804.42  999.83
  -2  20  -4 6179.15  847.41
   2  20   4 7442.19  899.76
  -2 -20   4 8224.74  738.24
  -2  20   4 6356.05  726.36
   2 -20   4 6833.54  942.87
  -2 -20  -4 7851.81  611.67
   2  20  -4 5748.36  873.60
  -2  20  -5 4830.98  784.63
   2 -20  -5 5967.32  693.23
   2  20   5 5436.46  854.93
  -2 -20   5 5299.31  594.51
  -2  20   5 4855.13  461.48
  -2 -20  -5 5295.88  696.35
   2  20  -5 5413.84  833.30
  -2  20  -6 2843.51  675.31
   2 -20  -6 3063.30  794.91
   2  20   6 2542.33  453.56
  -2 -20   6 2875.46  461.61
   2 -20   6 2785.91  723.21
  -2 -20  -6 2323.08  564.70
   2  20  -6 2462.11  670.30
  -2  20  -7 6208.73  672.52
   2 -20  -7 6781.30 1020.87
  -2 -20   7 5932.70  899.25
   2  20   7 7394.71  937.59
   2 -20   7 7197.51  733.35
   2  20  -7 5852.81  664.79
  -2  20  -8  164.89  450.79
   2 -20  -8  700.99  531.56
  -2 -20   8  656.84  472.91
   2  20   8  163.21  458.31
   2 -20   8  262.79  303.97
   2  20  -8  164.89  273.63
   2 -20  -9 1373.28  433.97
  -2  20  -9  688.55  568.00
   2  20   9 1234.47  570.24
  -2 -20   9  804.51  569.69
   2 -20   9  769.88  556.25
   2  20  -9  986.73  550.40
  -2  20 -10 3953.85  560.02
   2 -20 -10 3577.90  607.49
  -2 -20  10 3826.59  574.85
   2  20  10 4049.63  546.05
   2 -20  10 4481.49  816.50
   2  20 -10 3445.99  514.06
  -2  20 -11 3063.20  838.40
   2 -20 -11 2824.19  929.08
  -2 -20  11 2965.41  816.23
   2  20  11 3660.10  804.82
   2 -20  11 3779.87  556.70
   2  20 -11 3260.93  708.53
   2 -20 -12 2433.50  846.29
  -2  20 -12 1832.72  463.92
   2  20  12 1519.92  694.30
  -2 -20  12 2086.74  486.91
   2 -20  12 2367.63  697.96
   2  20 -12 2409.89  661.90
  -2  20 -13  484.02  532.01
  -2 -20  13   18.60  527.71
   2 -20  13  682.73  318.06
  -2  20  13 -194.14  346.15
  -2 -20 -13  447.91  336.36
   2  20 -13  707.49  492.67
  -2  20 -14  -79.28  748.97
  -2 -20  14 2720.44  542.76
   2 -20  14 2163.86  733.39
  -2  20  14 4195.41  818.17
   2  20 -14 2282.13  448.45
  -2 -20 -14 2184.65  769.12
  -2 -20  15 2060.30  888.80
  -2  20  15 3886.14  890.52
   2 -20  15 3040.98  559.81
  -2 -20 -15 2802.22  828.90
   2  20 -15 3263.16  771.62
  -2 -20  16 3403.88  672.08
  -2  20  16 6587.14 1089.64
   2 -20  16 6622.13 1044.94
   2  20 -16 5924.83  687.80
  -2 -20 -16 5639.96  775.72
  -2  20 -17 -158.02  819.64
   2 -20  17 2723.77  534.76
  -2  20  17 3016.99  544.01
   2  20 -17 2598.09  786.17
  -2 -20 -17 1799.72  774.05
  -2  20 -18  -31.58  816.80
  -2 -20  18 2408.07  840.07
  -2  20  18 2002.75  510.98
  -2 -20 -18 2292.88  730.64
   2 -20  18 1837.32  538.34
   2  20 -18 2577.44  754.22
  -2  20 -19  -61.40  340.65
  -2 -20  19   66.62  544.17
  -2  20  19  234.76  514.04
   2 -20  19  259.98  544.68
   2  20 -19  232.52  305.17
  -2 -20 -19  158.29  284.55
  -2 -20  20  533.41  482.02
  -2  20  20  569.88  698.59
   2 -20  20 1116.82  759.50
   2  20 -20 1448.20  454.10
   2 -21   0  210.70  313.47
  -2  21   0   10.66  147.76
   2  21   0    8.35  279.56
  -2 -21   0 -168.28  269.44
  -2 -21   1  264.44  440.76
   2 -21  -1  205.39  497.65
  -2  21  -1  343.32  403.11
   2  21   1  731.12  454.39
   2 -21   1  657.73  486.98
  -2  21   1  324.27  376.28
  -2 -21  -1  340.41  425.44
   2  21  -1  446.09  444.32
  -2  21  -2  530.45  399.00
   2 -21  -2 1073.43  520.83
   2  21   2  710.76  453.36
  -2 -21   2  404.95  449.91
   2 -21   2  214.56  479.26
  -2  21   2  116.78  361.27
   2  21  -2  208.02  444.92
  -2 -21  -2  236.64  410.58
  -2  21  -3 5774.66  815.41
   2 -21  -3 6560.07  711.91
   2  21   3 7453.44  917.79
  -2 -21   3 6023.03  645.23
   2 -21   3 6781.14  967.39
  -2  21   3 5783.33  750.58
   2  21  -3 5308.64  837.74
  -2 -21  -3 6212.27  586.10
  -2  21  -417505.48 1450.12
   2 -21  -416636.73 1276.36
  -2 -21   418790.83 1303.34
   2  21   417239.56 1465.87
   2 -21   417132.29 1230.01
  -2  21   417286.82 1093.26
  -2 -21  -416727.33 1347.87
   2  21  -419195.91 1524.90
   2 -21  -5 4451.41  651.74
  -2  21  -5 3333.58  733.97
  -2 -21   5 4694.47  578.84
   2  21   5 5106.47  597.55
   2 -21   5 4036.61  570.25
  -2 -21  -5 3607.31  672.95
   2  21  -5 3735.44  529.03
   2 -21  -615034.46 1470.59
  -2  21  -613242.75 1038.09
   2  21   613723.16 1052.26
  -2 -21   614335.35 1356.49
   2 -21   612573.00 1283.37
   2  21  -612086.29  965.88
   2 -21  -7  595.18  559.04
  -2  21  -7  418.93  290.26
  -2 -21   7  253.80  495.16
   2  21   7  354.38  494.42
   2 -21   7  233.75  510.71
   2  21  -7  286.19  475.58
   2 -21  -8 9318.27 1271.45
  -2  21  -8 6965.47 1012.51
  -2 -21   8 7990.20 1105.05
   2  21   8 9207.07 1091.77
   2 -21   8 8277.28 1095.94
   2  21  -8 8744.17 1037.34
  -2  21  -9 1333.00  653.52
   2 -21  -9 1631.92  480.09
   2  21   9 1161.02  646.77
  -2 -21   9 1326.57  655.19
   2 -21   9 1750.57  435.45
   2  21  -9 1845.01  423.49
  -2  21 -10 2311.56  492.27
   2 -21 -10 2921.84  586.56
   2  21  10 2983.98  516.32
  -2 -21  10 2398.56  544.06
   2 -21  10 3445.74  755.73
   2  21 -10 2864.04  731.79
  -2  21 -11 2587.58  763.22
   2 -21 -11 2842.16  893.47
   2  21  11 2537.26  741.01
  -2 -21  11 1149.30  769.70
   2 -21  11 2181.52  734.16
   2  21 -11 2034.49  461.29
   2 -21 -12 1309.64  817.97
  -2  21 -12 1328.94  478.15
   2  21  12  921.04  690.03
  -2 -21  12 1855.95  466.42
   2 -21  12 1865.17  416.85
   2  21 -12 1565.12  649.26
  -2  21 -13 1124.65  742.80
  -2 -21  13 1383.41  742.98
   2 -21  13 2042.80  736.67
  -2  21  13 2802.73  525.41
   2  21 -13 2083.11  446.31
  -2 -21 -13 1645.29  494.81
  -2  21 -14  635.30  679.13
  -2 -21  14 1321.75  456.26
   2 -21  14  975.80  402.28
  -2  21  14 1022.62  487.13
  -2 -21 -14 1083.02  688.72
   2  21 -14 1149.03  622.39
  -2  21 -15 1566.56  559.97
  -2 -21  15 3048.53  964.99
  -2  21  15 4207.65  963.49
   2 -21  15 5216.30  942.99
   2  21 -15 3866.42  579.89
  -2 -21 -15 2666.10  897.00
  -2  21 -16 1913.69  799.95
  -2 -21  16 1509.55  801.33
   2 -21  16 2322.17  753.92
  -2  21  16  352.89  813.38
   2  21 -16 2032.87  730.14
  -2 -21 -16 1466.52  460.09
  -2  21 -17  238.94  603.71
  -2 -21  17 -111.87  382.17
   2 -21  17  251.96  361.69
  -2  21  17  956.47  648.49
  -2 -21 -17  673.71  350.85
   2  21 -17  624.67  574.48
  -2  21 -18  -96.22  598.48
  -2 -21  18 -267.00  628.14
   2 -21  18  489.12  595.34
  -2  21  18  371.11  376.34
  -2 -21 -18  906.73  557.04
   2  21 -18  199.20  349.69
  -2  21  19  212.20  363.67
   2 -22   0 2172.55  472.77
  -2  22   0 2437.89  409.42
   2  22   0 2534.30  450.07
  -2 -22   0 3206.68  682.54
  -2  22  -1 5602.06  777.86
   2  22   1 4981.61  597.92
   2 -22  -1 4818.68  630.24
  -2 -22   1 4328.19  791.68
  -2  22   1 4486.24  707.35
   2 -22   1 4292.51  599.00
   2  22  -1 4954.82  571.70
  -2 -22  -1 5013.86  558.02
  -2  22  -2 5192.40  773.61
   2 -22  -2 5181.71  668.91
   2  22   2 4089.33  575.25
  -2 -22   2 5113.34  841.11
   2 -22   2 4882.67  613.04
  -2  22   2 5235.87  717.76
   2  22  -2 5012.77  582.20
  -2 -22  -2 5246.59  781.80
   2 -22  -310435.44  982.73
  -2 -22   311668.39  947.34
   2  22   311772.04  950.23
   2 -22   311848.29 1288.27
  -2  22   311446.96  845.63
   2  22  -310856.25  880.59
  -2 -22  -311271.83 1097.95
   2 -22  -4 6257.37 1036.08
  -2  22  -4 5875.90  863.89
  -2 -22   4 5351.78  652.73
   2  22   4 5991.27  671.29
   2  22  -4 6094.68  954.08
  -2 -22  -4 5573.88  841.56
  -2  22  -5 4466.36  820.13
   2 -22  -5 5184.42 1004.86
  -2 -22   5 4798.18  634.21
   2  22   5 5828.77  663.99
   2  22  -5 4049.34  831.14
  -2  22  -6  870.32  393.01
   2 -22  -6 1622.53  757.51
  -2 -22   6 1828.48  634.83
   2  22   6 2105.35  637.18
   2 -22   6 1252.56  677.92
   2  22  -6 1427.12  640.45
   2 -22  -7  927.42  693.46
  -2  22  -7  507.49  552.66
  -2 -22   7  617.97  603.95
   2  22   7  836.14  625.66
   2 -22   7  845.25  396.13
   2  22  -7 1343.46  380.71
  -2  22  -8 2511.47  814.84
   2 -22  -8 4126.47  999.04
   2  22   8 3298.33  857.78
  -2 -22   8 3226.82  870.69
   2 -22   8 5249.06  893.79
   2  22  -8 3977.33  806.81
   2 -22  -9 5362.98  716.21
  -2  22  -9 4431.19  646.32
  -2 -22   9 5161.19  688.39
   2  22   9 6317.67  962.12
   2 -22   9 4774.47  944.22
   2  22  -9 4888.13  841.51
   2 -22 -10 3393.71  648.40
  -2  22 -10 3031.64  849.96
   2  22  10 3984.07  591.02
  -2 -22  10 2802.88  879.64
   2 -22  10 3393.93  589.30
   2  22 -10 3517.70  572.03
   2 -22 -11  189.82 1015.22
  -2  22 -11 3417.09  878.73
   2  22  11 4154.68  877.81
  -2 -22  11 4298.43  937.96
   2 -22  11 3105.04  871.77
   2  22 -11 5052.37  871.64
   2 -22 -12 -317.44  870.82
  -2  22 -12  991.12  757.97
   2  22  12 1627.66  741.83
  -2 -22  12 1764.72  489.86
   2  22 -12 2721.79  469.76
   2 -22  12 1879.75  475.36
  -2  22 -13  541.84  449.79
  -2 -22  13 1126.46  701.88
  -2  22  13  928.80  485.61
   2 -22  13 1775.28  653.53
   2  22 -13  968.45  634.70
  -2 -22 -13  793.14  431.80
  -2  22 -14  318.59  743.42
  -2 -22  14 1553.65  533.08
  -2 -22 -14 1019.87  485.42
   2 -22  14 2039.50  488.32
  -2  22  14 1962.09  550.28
   2  22 -14 1492.44  447.67
  -2  22 -15 2428.94  662.67
  -2 -22  15 3228.84 1008.68
  -2  22  15 4617.54  740.78
   2 -22  15 3471.07  883.58
   2  22 -15 3244.11  867.55
  -2 -22 -15 3274.66  944.07
  -2  22 -16  341.87  415.60
  -2 -22  16  256.42  668.78
  -2  22  16  740.02  744.83
   2 -22  16  778.55  413.53
   2  22 -16  580.69  622.97
  -2 -22 -16  412.16  656.90
  -2  22 -17 2008.82  942.08
  -2 -22  17 2170.61  666.77
  -2  22  17 2904.50 1038.05
  -2 -22 -17 2884.71  582.88
  -2  23   0 4938.95  783.95
   2  23   0 4304.26  855.68
  -2 -23   0 4983.66  843.56
  -2  23  -1  457.79  471.03
   2 -23  -1  753.88  608.37
  -2 -23   1  675.64  529.91
   2  23   1  730.47  334.09
  -2  23   1  238.24  267.23
  -2 -23  -1  357.44  492.84
   2  23  -1  499.96  522.85
  -2  23  -2 1386.44  611.72
   2 -23  -2 2148.31  755.24
  -2 -23   2 1926.60  448.42
   2  23   2 2887.45  485.00
  -2  23   2 2072.43  597.27
   2 -23   2 1885.67  756.25
   2  23  -2 1629.96  678.81
  -2 -23  -2 1565.63  435.28
   2 -23  -3 4700.22  942.78
  -2  23  -3 2914.54  740.20
   2  23   3 3849.22  555.43
  -2 -23   3 3209.13  537.80
   2 -23   3 4450.76  908.14
   2  23  -3 4136.42  817.69
  -2 -23  -3 3617.27  749.27
  -2  23  -4 2573.46  702.88
   2 -23  -4 2963.41  872.06
   2  23   4 3111.28  774.95
  -2 -23   4 2899.00  518.73
   2 -23   4 2239.89  520.69
   2  23  -4 3379.79  777.86
   2 -23  -5 7174.43 1172.07
  -2  23  -5 7336.55  991.63
  -2 -23   5 6805.74  777.41
   2  23   5 6964.45 1060.71
   2 -23   5 7537.02  799.02
   2  23  -5 8757.23  795.01
  -2  23  -6 1091.05  394.92
   2 -23  -6 2413.18  809.15
  -2 -23   6 1941.30  704.30
   2  23   6 1823.04  665.51
   2 -23   6 1289.13  718.46
   2  23  -6 1666.49  687.63
   2 -23  -7 7034.88 1190.27
  -2  23  -7 5466.38  995.88
  -2 -23   7 6874.28 1050.89
   2  23   7 5059.74  963.72
   2 -23   7 7305.40 1090.55
   2  23  -7 6589.82 1004.75
   2 -23  -8  314.68  351.72
  -2  23  -8  -58.56  458.25
   2  23   8  356.63  472.41
  -2 -23   8  332.81  482.27
   2 -23   8  426.30  315.52
   2  23  -8 -289.65  265.90
  -2  23  -9 6785.81  753.40
   2 -23  -9 4782.84  761.29
   2  23   9 6404.33  725.17
  -2 -23   9 5613.34  750.41
   2 -23   9 7392.49 1086.80
   2  23  -9 6055.01  980.27
  -2  23 -10 1079.46  661.06
   2 -23 -10  296.54  489.09
   2  23  10  124.48  402.10
  -2 -23  10 2114.28  680.70
   2 -23  10 1606.74  685.44
   2  23 -10 1348.84  610.96
   2 -23 -11  274.59 1011.36
  -2 -23  11 3283.25  894.51
  -2  23 -11 2107.08  827.67
   2  23  11  128.23  872.93
   2 -23  11 3591.06  575.38
   2  23 -11 3061.10  544.04
   2 -23 -12  -76.07  882.21
  -2  23 -12 2141.12  769.16
  -2 -23  12 1721.20  504.68
   2  23  12  -30.86  722.41
   2 -23  12 1040.63  727.87
   2  23 -12 1067.24  696.40
  -2  23 -13  465.16  373.42
  -2 -23  13  433.44  614.23
   2 -23  13  300.50  353.40
  -2  23  13  527.59  408.77
  -2 -23 -13 -142.96  375.71
   2  23 -13 -106.23  543.43
  -2  23 -14   37.07  667.09
  -2 -23  14  219.69  431.81
  -2  23  14  622.79  471.23
   2 -23  14  379.48  622.09
  -2 -23 -14  358.18  433.54
   2  23 -14  801.90  379.45
  -2  23 -15   15.20  372.18
  -2 -23  15  194.87  612.14
  -2  23  15  240.12  419.68
  -2 -23 -15  574.68  624.60
  -2  24   0 4819.55  802.84
   2 -24   0 5026.64  691.62
  -2 -24   0 4760.94  911.93
   2  24   0 4914.24  889.13
   2 -24  -1 2551.87  528.99
  -2  24  -1 2485.36  660.54
   2  24   1 2187.64  743.26
  -2 -24   1 1275.89  473.90
   2 -24   1 3358.79  526.52
  -2 -24  -1 1973.21  714.69
   2  24  -1 2229.29  735.20
   2 -24  -2 1354.67  764.39
  -2  24  -2  966.10  610.06
   2  24   2  790.68  657.24
  -2 -24   2 1570.68  436.93
   2 -24   2 1820.58  467.01
  -2 -24  -2  954.12  631.62
   2  24  -2 1332.44  405.63
  -2  24  -3 3134.62  842.48
   2 -24  -3 5674.77 1065.37
  -2 -24   3 5327.03  662.41
   2  24   3 1571.44  874.97
   2 -24   3 5312.05  973.96
   2  24  -3 4153.83  596.36
   2 -24  -4 4204.96  986.75
  -2  24  -4 2860.90  780.35
   2  24   4 2080.01  840.69
  -2 -24   4 3763.88  577.89
   2 -24   4 4333.75  958.96
   2  24  -4 3836.12  835.76
   2 -24  -5 2214.77  543.28
  -2  24  -5  -18.92  680.89
  -2 -24   5 1975.84  464.83
   2  24   5 2271.79  759.54
   2 -24   5 3047.89  827.86
   2  24  -5 2243.80  753.60
   2 -24  -6 1121.96  466.93
   2  24   6  563.77  634.47
  -2 -24   6 -123.05  614.79
   2 -24   6  953.80  429.90
   2  24  -6  889.72  412.58
  -2  24  -7 -209.49  662.43
   2 -24  -7 1851.12  533.78
   2  24   7 1352.17  708.53
  -2 -24   7 -108.10  731.79
   2 -24   7 1638.75  760.13
   2  24  -7 1783.67  437.84
   2 -24  -8  505.00  449.24
  -2  24  -8  697.44  568.88
  -2 -24   8 -291.24  595.66
   2  24   8  322.06  374.45
   2 -24   8  592.85  652.80
   2  24  -8  835.66  576.85
  -2  24  -9  968.78  427.15
   2 -24  -9  220.42  521.00
   2  24   9  110.91  410.40
  -2 -24   9 1665.19  460.67
   2 -24   9 1048.61  437.09
   2  24  -9  796.23  432.72
   2 -24 -10 -114.56  817.40
  -2  24 -10 1014.79  675.55
   2  24  10 -279.28  698.66
  -2 -24  10 1357.56  704.51
   2 -24  10 1162.35  697.47
   2  24 -10 1088.84  643.15
  -2  24 -11 2334.14  554.28
   2 -24 -11   83.49 1014.45
  -2 -24  11 2714.84  861.94
   2  24  11 -163.43  846.26
   2 -24  11 1299.09  526.39
   2  24 -11 3132.94  547.35
   2 -24 -12   17.75  849.83
  -2  24 -12  750.65  714.28
   2  24  12 -127.80  739.15
  -2 -24  12 1582.62  756.33
   2 -24  12  856.73  691.13
   2  24 -12 1414.22  678.86
  -2  24 -13  143.60  391.32
  -2 -24  13  314.65  658.58
  -2  24  13  176.69  463.08
  -2 -24 -13  742.10  443.84
   2 -25   0  617.11  594.22
   2  25   0  305.67  328.09
  -2 -25   0  -25.74  308.94
  -2  25  -1  299.15  518.62
   2 -25  -1  943.03  658.96
   2  25   1  556.74  358.70
  -2 -25   1   23.77  364.52
   2 -25   1  508.01  623.57
   2  25  -1  694.69  573.36
  -2  25  -2 2244.60  810.04
   2 -25  -2 4038.82  647.65
  -2 -25   2 2962.61  573.16
   2  25   2 3281.84  575.43
   2 -25   2 3167.79  921.96
   2  25  -2 3582.38  854.73
  -2  25  -3  455.10  581.16
   2 -25  -3  747.88  459.43
   2  25   3  189.00  365.50
  -2 -25   3  768.43  413.29
   2 -25   3  746.54  422.11
   2  25  -3  823.42  600.61
  -2  25  -4 1840.74  756.46
   2 -25  -4 2637.44  593.83
   2  25   4 2360.76  545.10
  -2 -25   4 2081.90  524.15
   2 -25   4 2498.67  591.72
   2  25  -4 3064.10  533.96
   2 -25  -5 1663.35  540.23
  -2  25  -5 1335.10  679.46
   2  25   5 1123.11  473.98
   2 -25   5  649.10  777.52
   2  25  -5 1330.00  470.97
   2 -25  -6 8242.46 1010.22
  -2  25  -6 6355.61  755.04
   2  25   6 7301.02  850.72
  -2 -25   6 7167.57 1186.43
   2 -25   610171.45 1326.93
   2  25  -6 8049.07 1177.80
   2 -25  -7   -8.73  643.11
  -2  25  -7  -51.20  494.17
   2  25   7  507.83  346.99
  -2 -25   7  -37.62  547.56
   2 -25   7   54.73  340.21
   2  25  -7   75.53  505.89
   2 -25  -8 7009.90 1265.35
  -2  25  -8 -141.94  970.23
  -2 -25   8  -63.94 1056.19
   2  25   8 6429.62  802.10
   2 -25   8 6175.87  789.32
   2  25  -8 6222.65  735.32
   2 -25  -9  -39.70  631.33
  -2  25  -9 -141.34  313.97
   2  25   9  -20.63  521.06
  -2 -25   9 -156.60  336.51
   2 -25   9  936.35  551.16
   2  25  -9  609.23  488.50
  -2  25 -10  899.65  705.19
   2 -25 -10   14.40  827.25
  -2 -25  10 1297.79  738.08
   2  25  10  129.21  741.50
   2 -26   0 3185.05  976.64
   2  26   0 2187.52  851.25
   2 -26  -1 1492.86  887.09
  -2 -26   1   27.96  786.64
   2  26   1 1124.38  735.35
   2 -26   1 2124.13  543.40
   2  26  -1 1897.44  747.50
   2 -26  -2  108.78  647.84
  -2  26  -2  382.03  532.38
  -2 -26   2   50.25  586.58
   2  26   2  449.61  576.97
   2 -26   2  472.11  383.32
   2  26  -2   15.59  336.01
   2 -26  -3 2195.19  955.02
  -2  26  -3 1747.93  756.41
   2  26   3 1506.96  792.44
  -2 -26   3 2206.34  861.12
   2 -26   3 2254.00  857.98
   2  26  -3 1549.24  500.41
  -2  26  -4  553.82  756.57
   2 -26  -4 2498.62  950.85
  -2 -26   4 1537.82  513.48
   2  26   4 2087.27  834.41
   2 -26   4 1294.96  850.59
   2  26  -4 1535.23  761.17
   2 -26  -5 1123.00  826.73
  -2  26  -5  419.17  672.99
  -2 -26   5  634.60  453.30
   2  26   5  852.52  716.75
   2 -26   5  814.83  458.09
   2  26  -5 1340.66  683.64
  -2  26  -6 1600.01  538.22
   2 -26  -6 1483.30  997.26
  -2 -26   6 2737.53  915.50
   2  26   6 3548.29  915.57
  -3   0   0  156.41   73.57
  -3   0   0    0.02   80.79
  -3   0   0  118.55  146.72
  -3   0   1139575.6 6476.44
  -3   0  -1131468.8 6138.30
  -3   0  -1135267.7 6210.30
  -3   0   1129010.3 5804.50
  -3   0  -1140881.9 6384.87
  -3   0  -2 9785.54  500.68
  -3   0  -210814.74  539.13
  -3   0  -210676.02  687.78
  -3   0   2 9815.43  510.34
  -3   0   2 9813.92  508.32
  -3   0   211020.79  565.69
  -3   0  -3  272.85  220.49
   3   0   3   94.90  161.27
  -3   0   3  116.43  100.62
  -3   0   3  446.00  195.26
   3   0  -3  223.94   82.44
  -3   0  -418421.31 1059.18
   3   0   418718.71  802.80
  -3   0   420133.28  960.26
   3   0  -418794.83  846.63
  -3   0   416881.80  761.56
  -3   0  -417393.15  745.21
  -3   0   5 3175.65  211.21
  -3   0  -5 3081.09  192.80
  -3   0  -5 2553.35  265.55
   3   0   5 2934.89  207.98
  -3   0   5 2106.37  364.13
   3   0  -5 3198.22  236.40
  -3   0  -611990.14  556.99
  -3   0  -611267.99  672.94
   3   0   612028.34  581.35
  -3   0   612148.69  797.94
  -3   0   611167.65  517.06
   3   0  -611919.64  545.97
  -3   0  -7 2543.10  173.41
   3   0   7 2897.43  193.98
  -3   0   7 2323.90  414.55
  -3   0   7 2617.33  234.22
   3   0  -7 2230.35  194.15
  -3   0  -7 2554.27  418.47
  -3   0  -850699.73 2698.55
  -3   0  -848507.58 2089.81
   3   0   853802.14 2291.43
  -3   0   852162.95 2711.55
   3   0  -851199.27 2144.33
  -3   0   853280.56 2346.12
  -3   0   9 5263.86  572.96
  -3   0  -9 5365.79  593.71
  -3   0  -9 4814.79  327.50
   3   0   9 4931.83  294.61
  -3   0   9 5158.95  289.55
   3   0  -9 5888.28  313.42
  -3   0 -10 3170.97  234.20
  -3   0 -10 3658.14  497.05
   3   0  10 3232.98  231.92
  -3   0  10 3679.45  495.95
  -3   0  10 3132.11  222.19
   3   0 -10 4027.86  309.01
  -3   0 -11 3167.49  506.67
  -3   0 -11 2546.48  230.85
   3   0  11 3309.93  248.95
  -3   0  11 3891.16  368.61
   3   0 -11 3183.32  235.65
  -3   0 -1212447.92  838.06
   3   0  1213424.68  674.01
  -3   0  1213549.48  845.13
   3   0 -1211608.94  584.77
  -3   0 -1338893.19 2154.92
   3   0  1339200.19 1935.87
  -3   0  1340180.24 2130.12
   3   0 -1336768.80 1664.80
   3   0 -14 1336.01  196.20
  -3   0 -14 1224.72  299.08
   3   0  14 1389.83  224.71
  -3   0  14 1653.54  452.41
  -3   0 -15 1694.55  466.55
   3   0  15 1469.10  241.64
  -3   0  15 1261.06  445.00
   3   0 -15 1517.90  220.10
   3   0  16 2434.23  327.24
  -3   0  16 2529.88  378.82
   3   0 -16 2625.44  304.42
  -3   0 -16 1811.85  540.49
  -3   0 -17  704.61  292.42
   3   0  17  604.32  247.17
  -3   0  17 1042.78  447.11
   3   0 -17 1050.57  230.54
  -3   0 -1811362.81  972.33
   3   0  1811175.08  834.78
  -3   0  18 8540.39 1007.34
   3   0 -1810212.24  742.40
  -3   0 -1910413.87 1169.09
   3   0  1911472.71  740.73
  -3   0  1910030.39  876.65
   3   0 -1912809.21  885.69
  -3   0 -20 9475.04 1152.76
   3   0  20 9230.39  863.10
  -3   0  20 9033.09  858.82
   3   0 -20 9877.37  814.05
  -3   0 -21 2816.76  459.98
   3   0  21 1999.96  443.58
  -3   0  21 1056.31  674.71
   3   0 -21 1522.50  397.26
  -3   0 -22  862.37  377.31
   3   0  22 1145.31  406.33
  -3   0  22  881.97  353.82
  -3   0 -23 1317.99  667.14
  -3   0  23 1887.94  432.97
  -3   0 -24 1702.10  718.58
  -3   0 -25  164.25  327.75
  -3   0  25  615.87  364.17
  -3   0  26  913.33  672.95
  -3   0 -26  707.49  657.49
  -3   0 -28  844.47  406.63
  -3   0  28   62.08  387.24
  -3   0 -29  -82.05  573.90
  -3   0  29 -161.88  581.97
  -3   0 -30  -68.88  479.68
  -3   0  30   95.80  486.06
  -3  -1   0165439.6 7934.76
  -3  -1   0191540.5 9011.27
  -3  -1   0199001.2 9564.41
  -3   1   0195152.8 9271.55
  -3   1   0184997.5 8658.12
  -3  -1   186250.02 3797.44
  -3   1  -186244.91 3854.15
  -3  -1  -190961.60 3993.92
  -3  -1  -181475.74 3693.59
  -3  -1  -188991.27 4217.80
   3   1  -186762.92 3857.60
   3  -1   189249.93 4080.42
  -3   1   187153.89 3945.64
  -3   1   191316.30 4043.27
  -3   1   190675.30 4173.71
  -3   1  -241362.45 2023.11
  -3  -1   243351.83 2015.83
  -3  -1  -243459.71 1827.21
  -3  -1  -239623.47 1720.87
  -3  -1  -243038.32 2112.53
   3   1  -244020.61 2011.71
   3  -1   243071.25 1947.10
  -3   1   242642.27 1838.68
  -3   1   242936.82 1869.51
  -3   1   244976.20 2133.72
  -3  -1   314732.88  819.98
  -3   1  -312676.69  614.12
  -3   1  -313314.93  793.70
  -3  -1  -312020.29  532.70
  -3  -1  -311123.36  508.03
  -3  -1  -310785.37  601.61
   3   1  -312643.48  653.89
   3  -1   312185.97  621.44
  -3   1   312588.05  642.14
  -3   1   311792.15  547.33
  -3   1   311387.52  547.21
  -3  -1   410028.20  689.10
  -3  -1   410659.17  545.95
  -3   1  -410340.16  500.03
  -3   1  -411317.19  615.56
  -3  -1  -4 9638.38  423.70
  -3  -1  -4 9838.72  457.21
  -3  -1  -4 9637.73  692.55
   3   1  -410468.53  556.96
   3  -1   410507.68  542.53
  -3   1   410953.25  708.42
  -3   1   4 9703.99  447.89
  -3   1   410335.03  476.51
  -3   1  -5  293.85  156.49
   3   1   5  427.93   83.14
  -3  -1   5  332.95  243.00
  -3  -1   5  284.02  122.46
  -3   1  -5  162.65  113.67
   3  -1  -5  314.98   97.14
  -3  -1  -5  573.51   74.93
  -3  -1  -5  583.51  158.46
   3   1  -5  462.72  146.56
   3  -1   5  666.13  144.50
  -3   1   5  989.40  276.91
  -3   1   5  559.67  121.13
  -3  -1   6 9821.26  718.23
   3   1   610280.60  452.08
  -3  -1   610780.96  546.26
  -3   1  -610561.34  506.54
  -3   1  -610172.94  611.66
   3  -1  -610460.83  449.03
  -3  -1  -610081.43  421.34
  -3  -1  -610912.57  767.03
   3   1  -611315.28  553.52
   3  -1   610883.74  596.89
  -3   1   611859.56  530.73
  -3   1   610816.11  751.13
  -3  -1   716536.74 1031.12
  -3  -1   716941.98  852.20
  -3   1  -715066.48  697.65
   3  -1  -716812.97  678.52
  -3   1  -716303.47  905.43
  -3  -1  -716654.60  678.10
  -3  -1  -716787.98 1075.16
   3   1  -717854.26  804.79
   3  -1   716367.51  746.09
  -3   1   716662.46  883.79
  -3   1   717159.91  718.15
   3   1   811203.06  470.34
  -3  -1   811745.71  708.45
  -3   1  -811610.89  738.90
  -3   1  -811997.03  587.17
   3  -1  -812148.31  506.88
  -3  -1  -813350.05  577.04
  -3  -1  -812481.23  739.57
   3   1  -814769.27  683.55
   3  -1   814080.99  658.72
  -3   1   814130.02  780.54
  -3   1   812896.10  572.58
   3   1   9 5451.91  274.83
  -3   1  -9 6141.04  657.59
   3  -1  -9 6069.40  293.88
  -3  -1   9 6510.72  485.80
  -3  -1  -9 6246.52  301.02
   3   1  -9 5212.83  342.30
   3  -1   9 7274.85  391.50
  -3   1   9 6937.69  481.23
  -3   1   9 5767.01  285.00
  -3  -1  -9 6270.74  474.01
   3  -1 -1020699.66  898.70
  -3  -1  1022047.70 1345.96
  -3   1 -1019938.62 1327.55
  -3  -1 -1016993.75  822.40
  -3  -1 -1019094.92 1253.60
   3   1 -1021086.49  954.16
   3  -1  1019909.49  929.90
  -3   1  1019651.54 1095.12
  -3   1  1018064.59  777.17
   3   1  11 6155.78  330.84
  -3  -1  11 5731.08  618.81
  -3   1 -11 7008.68  712.41
   3  -1 -11 6486.94  365.03
  -3  -1 -11 6623.99  676.45
  -3  -1 -11 4907.91  316.73
   3   1 -11 6332.97  376.97
   3  -1  11 5660.21  443.67
  -3   1  11 5307.59  331.42
  -3   1  11 5825.43  494.44
   3   1  1212466.84  674.41
  -3  -1  1212039.04  803.86
  -3   1 -1212759.35  874.96
   3  -1 -1212310.75  610.73
  -3  -1 -1212117.06  987.17
  -3  -1 -12 9234.75  542.50
   3   1 -1212411.39  634.08
   3  -1  1212592.05  682.12
  -3   1  1212015.35  783.32
  -3  -1  1325365.54 1655.22
   3  -1 -1325422.66 1187.57
   3   1  1326631.02 1319.52
  -3   1 -1324026.26 1415.85
  -3  -1 -1328456.96 1594.56
   3   1 -1322597.69 1126.52
   3  -1  1325782.95 1268.11
  -3   1  1324878.07 1425.63
  -3  -1  14 6453.38  743.07
   3  -1 -14 4646.88  316.98
   3   1  14 5850.31  409.87
  -3   1 -14 5582.55  726.14
  -3  -1 -14 6057.53  571.54
   3   1 -14 6251.58  434.77
   3  -1  14 6256.27  483.06
  -3   1  14 5088.87  496.44
  -3  -1  15 9110.85  709.46
   3   1  15 8792.29  576.59
  -3   1 -15 9111.97  886.26
   3  -1 -15 8562.53  507.23
  -3  -1 -15 8057.86  712.13
   3   1 -15 6597.01  489.60
   3  -1  15 8620.20  601.73
  -3   1  15 8984.08  840.74
  -3  -1  16 6914.40  843.30
  -3   1 -16 8414.29  729.05
   3  -1 -16 7899.81  513.75
  -3  -1 -16 8796.91  744.34
   3   1 -16 7871.51  559.66
   3  -1  16 9321.74  656.55
  -3   1  16 6582.03  819.27
  -3  -1  17 2095.53  577.82
   3   1  17 2639.14  322.26
  -3   1 -17 1741.36  533.07
   3  -1 -17 2208.63  287.52
  -3  -1 -17 1582.01  515.09
   3   1 -17 2212.06  323.07
   3  -1  17 1804.22  327.80
  -3   1  17 3518.52  618.37
  -3   1 -18 3932.19  742.45
   3   1  18 3809.46  457.42
  -3  -1  18 2734.47  461.69
   3  -1 -18 4486.04  500.69
  -3  -1 -18 4704.99  752.53
   3   1 -18 3925.95  454.45
   3  -1  18 4446.57  511.61
  -3   1  18 3072.51  476.90
   3  -1 -19 7880.41  638.94
   3   1  19 6587.67  627.15
  -3  -1  19 7535.28  982.06
  -3   1 -19 8258.70  813.46
  -3  -1 -19 7710.86  991.65
   3   1 -19 8839.45  710.99
   3  -1  19 7190.62  666.43
  -3   1  19 7286.14  928.84
   3   1  20 1528.88  366.51
  -3  -1  20 2153.09  612.83
  -3   1 -20 1427.32  605.61
   3  -1 -20 1801.50  334.67
   3   1 -20 2363.23  380.71
   3  -1  20 1303.86  413.78
  -3   1  20 1556.16  569.99
  -3  -1 -20 1855.38  378.04
   3   1  21 7435.33  765.53
  -3   1 -21 6320.88  990.43
  -3  -1  21 5926.09  721.25
  -3   1  21 7182.37  950.19
  -3  -1 -21 6084.08  714.28
   3   1 -21 8311.45  769.43
   3  -1  21 6563.67  748.94
  -3   1 -22 1760.11  450.86
  -3  -1  22 2015.58  652.18
  -3  -1 -22 1967.77  654.44
   3   1 -22 2162.85  465.26
   3  -1  22 2030.05  485.81
  -3   1  22 1330.77  413.98
  -3   1 -23 1653.14  645.77
  -3  -1  23 1811.88  439.51
  -3  -1 -23 1136.30  631.62
   3  -1  23 1089.69  465.15
  -3   1  23 1102.60  670.02
  -3  -1  24  332.84  534.80
  -3   1 -24  716.91  549.76
  -3  -1 -24  306.62  347.65
  -3  -1  25 3863.13  869.49
  -3   1 -25   48.34  543.76
  -3  -1 -25 2483.39  580.88
  -3   1  25 4082.76  609.08
  -3  -1  26 2011.90  531.74
  -3   1 -26 1549.20  749.23
  -3  -1 -26 1066.70  739.00
  -3  -1  27  659.36  604.10
  -3   1 -27  468.63  591.83
  -3   1  27  317.45  600.84
  -3  -1 -27 -191.60  588.19
  -3  -1  28  992.25  453.12
  -3   1 -28  700.47  440.55
  -3  -1 -28 1003.19  441.88
  -3   1  28  -34.71  461.92
  -3  -1  29 -138.97  714.74
  -3   1 -29  963.60  710.87
  -3  -1 -29 1658.83  714.36
  -3   1  29 -333.41  678.44
  -3  -1  30 -122.24  682.35
  -3   1 -30  304.79  675.80
  -3  -1 -30  751.31  668.06
  -3   1  30    3.97  661.47
   3  -2   058664.81 2806.09
   3   2   057284.98 2532.27
   3   2   058525.55 2621.14
  -3   2   060753.12 2702.19
   3  -2   056383.30 2568.34
  -3  -2   061946.12 2687.41
  -3  -2   1  863.72  170.68
  -3   2  -1  490.42  186.57
   3   2  -1  689.35  232.09
  -3   2   1  499.45  133.71
  -3  -2  -1  491.44  145.03
  -3  -2  -1  621.25  129.41
  -3  -2  -1  655.61  247.31
   3   2  -1  336.43   95.43
   3  -2   1  791.29  147.98
  -3   2   1  806.21  141.54
  -3   2   1  946.47  153.43
  -3  -2   224952.05 1201.85
  -3   2  -223681.14 1200.09
  -3  -2  -224580.99 1059.00
  -3  -2  -223437.09 1055.57
  -3  -2  -224044.15 1275.31
   3   2  -224111.69 1176.68
   3  -2   222423.13 1098.22
  -3   2   222845.68 1005.94
  -3   2   222713.04 1057.79
  -3   2   224677.86 1070.01
  -3   2  -3 3752.32  384.96
  -3  -2   3 3605.93  353.66
  -3  -2  -3 3280.56  187.93
  -3  -2  -3 3130.65  218.91
  -3  -2  -3 2915.10  262.05
   3   2  -3 3805.43  330.47
   3  -2   3 3062.61  300.30
  -3   2   3 3383.63  269.77
  -3   2   3 3491.08  265.23
  -3   2   3 3079.68  208.81
  -3  -2   4 2992.03  360.67
  -3   2  -4 2509.77  367.29
  -3  -2  -4 2764.95  169.90
  -3  -2  -4 2672.55  172.17
  -3  -2  -4 3113.34  287.82
   3   2  -4 2944.96  287.54
   3  -2   4 3211.35  289.61
  -3   2   4 3487.26  410.24
  -3   2   4 2658.22  166.21
  -3   2   4 3072.29  219.28
  -3  -2   510310.89  585.33
  -3   2  -510998.98  764.97
  -3  -2  -510692.35  415.15
  -3   2   510298.77  748.76
  -3  -2  -510911.52  775.47
   3   2  -511756.30  608.69
   3  -2   511765.45  611.50
  -3   2   511335.33  458.98
  -3   2   5 8952.54  386.15
  -3  -2   6 3534.42  422.94
  -3   2  -6 3767.64  331.93
  -3   2   6 2897.13  168.54
  -3  -2  -6 3471.49  145.60
  -3  -2  -6 3279.09  320.20
   3   2  -6 2728.08  199.86
   3  -2   6 4479.54  323.92
  -3   2   6 4259.52  344.47
  -3   2   6 3565.76  197.93
  -3  -2  -6 3057.16  135.08
  -3  -2   724473.64 1374.98
   3  -2  -719882.98  747.09
  -3   2  -724907.90 1414.04
  -3  -2  -719012.32  694.52
  -3  -2  -720528.34 1262.88
   3   2  -723921.06 1091.06
   3  -2   722059.31 1013.19
  -3   2   717985.19  700.07
  -3   2   720583.64 1233.83
  -3  -2   8  327.51  199.75
  -3   2  -8  697.12  323.35
   3  -2  -8  331.50   77.80
   3   2   8  618.31   64.64
  -3  -2  -8  576.01  315.50
  -3  -2  -8  647.87   72.54
   3   2  -8 1004.06  187.41
   3  -2   8  881.09  186.83
  -3   2   8  762.23   77.93
  -3   2   8  390.98  289.93
  -3  -2   915939.19 1041.59
   3   2   913923.17  558.74
  -3   2  -913416.99  819.38
   3  -2  -912905.45  509.71
  -3   2   914375.12  830.15
  -3  -2  -913110.67  544.30
  -3  -2  -913872.52  826.07
   3   2  -911017.96  540.66
   3  -2   913108.82  674.41
  -3   2   912491.89  505.67
  -3  -2  10 7791.71  552.82
  -3   2 -10 7241.49  550.14
   3  -2 -10 6988.16  319.49
  -3  -2 -10 6783.72  522.71
   3   2 -10 6788.54  429.98
   3  -2  10 7448.34  450.16
  -3   2  10 7078.88  309.42
  -3   2  10 7426.22  514.57
  -3  -2 -10 5983.75  316.23
  -3  -2  11 1257.44  363.85
  -3   2 -11 1007.40  344.69
   3   2  11  815.06   99.41
   3  -2 -11 1193.15  124.70
  -3  -2 -11  787.61  126.24
  -3  -2 -11  690.64  343.35
   3   2 -11 1286.09  195.96
   3  -2  11  806.92  196.39
  -3   2  11  735.83  111.88
  -3   2  11  877.80  216.09
  -3  -2  12 7404.16  572.84
  -3   2 -12 8541.30  635.78
   3  -2 -12 6461.19  307.51
  -3  -2 -12 7244.03  739.37
  -3  -2 -12 6792.27  409.11
   3   2 -12 9277.44  529.94
   3  -2  12 8869.65  534.53
  -3   2  12 7078.13  371.69
  -3   2  12 8406.09  595.00
  -3  -2  13 1395.10  391.02
   3   2  13 1285.54  180.42
  -3   2 -13 1084.70  381.76
   3  -2 -13 1034.70  143.69
  -3  -2 -13  626.98  160.79
   3   2 -13  862.98  219.86
   3  -2  13 1389.48  226.51
  -3   2  13  914.41  147.44
  -3   2  13  822.88  240.77
  -3  -2 -13  701.05  380.05
   3  -2 -1410615.24  529.13
   3   2  1412482.48  655.61
  -3  -2  1413769.98 1117.14
  -3   2 -1412035.11 1047.35
  -3  -2 -1413376.80 1066.50
   3   2 -1414257.68  789.65
   3  -2  1413742.53  810.25
  -3   2  1414109.08  940.78
   3   2  15 1442.99  200.20
  -3  -2  15 1660.89  287.07
   3  -2 -15 1155.34  198.49
  -3   2 -15  326.17  258.92
  -3  -2 -15  977.20  428.11
   3   2 -15  969.72  262.31
   3  -2  15  920.96  265.46
  -3   2  15 1288.36  280.58
   3   2  16 9839.99  624.82
  -3  -2  16 8449.43  926.10
  -3   2 -16 9855.42  986.84
   3  -2 -16 9037.78  525.39
  -3  -2 -1610197.97  998.50
   3   2 -1611505.22  716.45
   3  -2  1610424.96  728.72
  -3   2  16 8414.22  687.74
  -3  -2  17 3725.37  488.78
   3   2  17 3204.28  364.06
  -3   2 -17 3009.96  638.39
   3  -2 -17 3062.46  308.91
  -3  -2 -17 2480.39  654.88
   3   2 -17 3375.19  410.46
   3  -2  17 3052.79  415.06
  -3   2  17 2394.79  616.56
   3  -2 -18 3970.18  384.51
   3   2  18 3589.38  420.25
  -3  -2  18 3987.29  707.45
  -3   2 -18 3239.51  491.77
  -3  -2 -18 3174.07  478.75
   3   2 -18 3490.17  439.39
   3  -2  18 3807.31  493.44
  -3   2  18 2301.05  634.62
   3   2  19 8112.79  726.77
   3  -2 -19 8546.19  670.81
  -3   2 -1911355.98 1190.43
  -3  -2  1910081.31  930.52
   3   2 -19 9493.18  791.86
   3  -2  1910440.82  836.77
  -3   2  19 9571.57 1075.74
  -3  -2 -19 8053.53  808.07
   3   2  20  771.19  306.36
  -3  -2  20  874.05  534.53
  -3   2 -20 1392.24  342.45
  -3  -2 -20  690.84  321.93
   3   2 -20 1302.87  348.37
   3  -2  20 1137.10  382.24
  -3   2  20  853.45  315.92
  -3  -2  21 1522.32  400.79
  -3   2 -21 1678.29  602.24
  -3  -2 -21 1056.37  651.20
   3   2 -21 1424.15  388.03
   3  -2  21 3210.48  493.82
  -3   2  21 1266.58  396.95
  -3  -2  22 1356.68  621.18
  -3   2 -22 1961.42  636.36
  -3  -2 -22 1631.18  627.24
   3   2 -22 1344.93  432.50
   3  -2  22 1023.70  444.72
  -3   2  22 1304.89  608.12
  -3   2 -23 2527.80  551.69
  -3  -2  23 3879.97  813.69
  -3  -2 -23 3344.77  829.32
   3  -2  23 3238.41  668.05
  -3  -2  24 2093.56  464.13
  -3   2 -24  883.00  690.34
  -3  -2 -24 1309.77  426.63
  -3   2  24  816.15  405.24
  -3  -2  25 3139.54  889.79
  -3   2 -25 3389.77  643.39
  -3  -2 -25 2369.04  867.34
  -3   2  25 4199.80  668.10
  -3  -2  26  614.86  401.20
  -3   2 -26 1483.86  673.37
  -3  -2 -26  237.28  630.03
  -3  -2  27  714.79  793.28
  -3   2 -27 1706.61  789.24
  -3  -2 -27 2000.43  780.03
  -3   2  27 1597.17  771.72
  -3  -2  28 3880.07  697.67
  -3   2 -28 2527.28  623.00
  -3  -2 -28 2785.62  619.55
  -3   2  28 3292.50  630.67
  -3  -2  29  425.84  670.36
  -3   2 -29  475.31  664.39
  -3  -2 -29  461.35  394.58
  -3   2  29 -214.35  663.04
  -3  -2  30  157.26  587.87
  -3   2 -30  -87.45  355.69
  -3  -2 -30 -268.81  563.75
   3   3   0 5716.92  357.71
   3  -3   0 8145.02  608.79
   3  -3   0 6755.03  429.85
  -3   3   0 7853.66  465.32
   3   3   0 7931.09  600.78
  -3  -3   0 7047.60  429.17
   3   3   1 8555.36  632.51
   3   3   1 6520.46  358.87
  -3  -3   1 8015.90  486.46
   3  -3  -1 6776.56  382.87
   3  -3  -1 7639.63  474.44
  -3   3  -1 8742.87  544.42
  -3  -3  -1 8219.52  425.98
   3   3  -1 7763.21  547.13
   3   3  -1 6744.26  416.75
   3  -3   1 9524.99  626.93
  -3   3   1 8159.62  454.63
  -3  -3   2 1117.22  210.27
  -3   3  -2  733.58  214.99
   3  -3  -2  593.66   79.95
  -3  -3  -2  698.57  174.81
  -3  -3  -2 1184.05  155.53
   3   3  -2  688.54  138.84
   3  -3   2 1246.16  248.07
  -3   3   2 1035.51  152.61
  -3  -3   3  770.56  212.38
  -3   3  -3  416.78  232.33
  -3  -3  -3  497.03   97.18
  -3  -3  -3  497.48  261.36
  -3  -3  -3  671.81  103.33
   3   3  -3  525.68  216.28
   3  -3   3  793.58  135.24
  -3   3   3  671.07  113.93
  -3   3   3  728.62  272.12
  -3   3   3  520.64   94.29
  -3  -3   4  724.95  167.27
  -3   3  -4  729.37  171.48
  -3   3   4 1757.11  152.64
  -3  -3  -4 1065.88   76.45
  -3  -3  -4 1091.75   78.69
  -3  -3  -4 1161.80  310.77
   3   3  -4 1454.44  152.01
   3  -3   4 1376.38  244.81
  -3   3   4 1384.42  198.46
  -3   3   4 1296.14  127.94
  -3  -3   511496.66  787.60
  -3   3  -513707.24  863.31
  -3   3   512062.71  478.12
  -3  -3  -512425.39  691.81
   3   3  -511827.48  670.92
   3  -3   512320.36  703.07
  -3   3   512347.97  497.04
  -3   3   512403.76  682.22
  -3   3  -647909.52 2284.99
  -3  -3   648960.77 2476.81
  -3  -3  -644456.91 2403.84
   3   3  -648332.22 2232.67
   3  -3   646953.53 2166.64
  -3   3   646114.50 1717.25
  -3   3   647136.36 2437.33
  -3  -3   714180.20  801.07
  -3   3  -713734.15  955.66
  -3  -3  -714831.83  837.64
   3   3  -715222.78  799.75
   3  -3   714658.69  782.49
  -3   3   715033.24  818.37
  -3   3  -8 5348.37  431.86
  -3  -3   8 6228.89  602.51
   3   3  -8 6265.31  437.10
   3  -3   8 6140.87  438.19
  -3   3   8 6542.80  599.60
  -3  -3  -8 5724.79  600.13
  -3  -3   9 6741.20  496.20
   3  -3   9 6786.85  450.79
  -3  -3  -9 6540.59  501.17
   3   3  -9 6836.52  455.66
  -3   3   9 6623.14  633.14
  -3  -3  10 9630.61  806.61
  -3   3 -1011195.38  709.44
  -3  -3 -10 9646.78  648.03
   3   3 -10 9027.72  547.12
   3  -3  10 9386.80  564.20
  -3   3  10 9667.26  626.18
  -3   3  10 8153.05  283.58
  -3  -3  11 4555.58  435.02
  -3   3 -11 4569.53  572.50
  -3  -3 -11 4208.33  557.73
   3   3 -11 3885.65  362.31
   3  -3  11 4706.33  389.81
  -3   3  11 3819.41  378.63
   3  -3 -12  317.04   76.06
  -3   3 -12  516.56  211.44
  -3  -3  12  502.26  342.78
   3   3  12  381.16  103.63
  -3  -3 -12  282.16   92.15
  -3  -3 -12  518.31  318.65
   3   3 -12  732.96  214.04
   3  -3  12  615.94  201.81
  -3   3  12  597.44  307.59
  -3   3  12  462.48   73.18
   3   3  13 3060.62  279.64
  -3  -3  13 3499.60  568.22
  -3   3 -13 3179.83  549.82
   3   3 -13 3856.05  378.25
   3  -3  13 2969.13  357.41
  -3   3  13 2463.77  476.20
  -3  -3 -13 2849.60  530.61
   3   3  14 5330.21  336.12
  -3   3 -14 5944.74  549.89
  -3  -3  14 5108.86  515.58
  -3  -3 -14 6397.57  559.37
   3   3 -14 5565.31  469.98
   3  -3  14 5054.06  353.11
  -3   3  14 6292.08  701.99
  -3  -3  15 4551.94  658.02
  -3   3 -15 3809.99  676.73
   3  -3 -15 3958.96  296.53
   3   3  15 4070.24  382.37
  -3  -3 -15 4203.85  489.24
   3   3 -15 4526.07  434.92
   3  -3  15 4475.07  465.13
  -3   3  15 4076.17  632.61
  -3  -3  16 5417.44  562.86
   3  -3 -16 4405.43  301.82
   3   3  16 4852.20  461.26
  -3   3 -16 5091.78  751.85
  -3  -3 -16 5052.97  536.40
   3   3 -16 4444.15  351.19
   3  -3  16 5003.34  505.73
  -3   3  16 5709.79  711.05
  -3   3 -17 5993.86  860.90
   3   3  17 6845.14  523.66
  -3  -3  17 6274.36  845.36
   3  -3 -17 5821.36  403.02
  -3  -3 -17 6694.74  651.18
   3   3 -17 7150.48  600.00
   3  -3  17 6619.97  629.60
  -3   3  17 6869.41  837.48
   3   3  18 3861.55  427.09
  -3  -3  18 3369.98  476.46
  -3   3 -18 4299.48  741.38
   3  -3 -18 3341.27  340.22
  -3  -3 -18 4501.65  767.99
   3   3 -18 4124.24  503.22
   3  -3  18 3605.53  509.77
  -3   3  18 4623.73  543.58
  -3  -3  19 1219.29  590.72
  -3   3 -19 2214.01  413.35
   3   3  19 1741.86  357.78
  -3  -3 -19 2126.21  596.93
   3   3 -19 2740.58  425.34
   3  -3  19 1545.05  428.01
  -3   3  19 2661.86  399.16
  -3   3 -20 6854.50  988.81
  -3  -3  20 6761.02  744.38
  -3  -3 -20 5717.12  932.45
   3   3 -20 6722.00  694.42
   3  -3  20 7885.86  790.44
  -3   3  20 7862.80  789.71
  -3   3 -21 1222.70  365.67
  -3  -3  21  371.99  538.47
  -3  -3 -21  736.27  531.55
   3   3 -21 1082.47  385.95
   3  -3  21  664.24  390.97
  -3  -3  22 1194.74  382.07
  -3   3 -22 1113.88  610.12
   3   3 -22 1434.51  431.10
   3  -3  22 1068.56  300.62
  -3  -3 -22 1396.65  616.08
  -3  -3  23 1132.71  660.94
  -3   3 -23 1742.67  435.04
  -3  -3 -23 1661.94  461.51
   3   3 -23 1665.80  497.21
   3  -3  23 1491.93  359.84
  -3   3  23 2410.00  678.42
  -3   3 -24 4033.04  955.80
  -3  -3  24 3592.00  615.13
  -3  -3 -24 3640.78  637.03
   3  -3  24 4559.95  770.51
  -3   3  24 3837.00  602.21
  -3  -3  25  496.36  849.26
  -3   3 -25 3843.92  656.88
  -3  -3 -25 1558.10  813.84
  -3   3  25 3277.61  567.58
  -3  -3  26 4073.34  663.51
  -3   3 -26 -307.14  911.54
  -3   3  26 4786.20  916.27
  -3  -3 -26 2739.62  876.78
  -3  -3  27 6159.63 1129.62
  -3   3 -27 4992.51 1068.96
  -3  -3 -27 3160.20  989.36
  -3   3  27 5603.31 1073.84
  -3  -3  28 3141.40  653.96
  -3   3 -28 1748.19  571.61
  -3  -3 -28 1723.74  533.31
  -3   3  28 2053.99  555.82
  -3  -3  29 2015.59  872.23
  -3   3 -29 1488.58  810.40
  -3  -3 -29  667.39  488.51
  -3   3  29  913.58  492.77
  -3  -3  30  396.37  426.96
  -3   3 -30  414.00  443.49
  -3  -3 -30  298.70  686.45
  -3   3  30    3.30  690.13
   3   4   0 7184.68  409.21
   3   4   0 8556.55  630.69
   3  -4   0 7844.53  626.30
   3  -4   0 7051.81  422.71
  -3   4   0 8545.92  496.50
  -3  -4   0 8186.90  464.15
   3   4   112273.04  792.31
   3   4   110739.12  553.38
  -3  -4   112283.17  654.59
  -3   4  -111735.61  574.01
   3  -4  -111480.20  580.05
   3  -4  -111931.09  831.10
  -3  -4  -112417.21  588.54
   3   4  -110394.15  562.76
   3   4  -111602.21  592.73
   3  -4   112554.67  774.37
  -3   4   112667.27  616.07
   3   4   2 7711.87  350.67
   3   4   2 9176.17  692.50
   3  -4  -2 7928.31  519.91
   3  -4  -2 7340.43  438.35
  -3   4  -2 8514.19  490.00
  -3  -4   2 7565.87  522.09
  -3  -4  -2 8937.56  449.12
   3   4  -2 7747.14  444.84
   3  -4   2 8730.95  606.26
  -3   4   2 8636.84  459.44
   3   4   3 7197.12  471.95
  -3  -4   3 8146.14  464.32
  -3   4  -3 7963.17  568.39
   3  -4  -3 7223.24  493.25
   3  -4  -3 7186.69  341.88
  -3  -4  -3 7660.13  341.29
   3   4  -3 8441.33  557.85
   3  -4   3 7365.73  533.92
  -3   4   3 7987.37  355.91
  -3   4  -420949.87 1153.51
  -3  -4   421522.34 1167.67
  -3  -4  -419250.39 1006.77
   3   4  -419817.22 1027.19
   3  -4   420029.65  930.75
  -3   4   417905.85  726.45
  -3   4   418894.91  971.18
  -3  -4   5 2139.82  380.26
  -3   4  -5 1792.92  353.46
  -3  -4  -5 2642.75  279.65
   3   4  -5 2639.04  319.13
   3  -4   5 2282.05  314.53
  -3   4   5 1963.44  107.08
  -3   4   5 3492.54  427.41
  -3   4  -618571.15 1014.81
  -3  -4   618620.04 1009.02
   3   4  -619055.77  999.18
   3  -4   619988.41 1037.76
  -3   4   618886.14 1150.91
  -3  -4   7 3313.41  325.46
  -3   4  -7 2894.08  331.52
  -3  -4  -7 3597.37  340.40
   3   4  -7 3577.44  352.82
   3  -4   7 3579.65  362.40
  -3   4   7 3752.11  328.14
  -3   4  -8 3854.97  508.35
  -3  -4   8 3840.18  514.83
  -3  -4  -8 3681.99  502.16
   3   4  -8 4198.32  385.70
   3  -4   8 4442.81  376.52
  -3   4   8 4330.26  512.30
  -3  -4   9 2707.70  461.16
  -3   4  -9 2544.14  323.15
  -3  -4  -9 2645.95  309.57
   3   4  -9 2665.12  227.34
   3  -4   9 2895.64  319.56
  -3   4   9 2124.38  295.10
  -3  -4  1012665.57  959.77
  -3   4 -1013257.87 1013.51
  -3  -4 -1014049.34 1014.98
   3   4 -1013437.06  774.67
   3  -4  1013597.76  804.71
  -3   4  1013723.13  838.67
  -3  -4  11 7112.37  547.85
  -3   4 -11 5598.48  645.52
  -3  -4 -11 5447.58  640.33
   3   4 -11 5397.35  441.60
   3  -4  11 6207.39  480.81
  -3   4  11 6737.59  641.25
  -3  -4  12 3229.27  473.95
   3   4  12 1898.02  141.06
   3   4  12 1889.56  150.28
  -3   4 -12 2955.67  349.30
  -3  -4 -12 1836.46  288.48
   3   4 -12 2289.42  211.88
   3  -4  12 2568.36  329.56
  -3   4  12 2488.62  443.11
   3   4  1312986.27  635.81
  -3  -4  1315025.78 1161.90
  -3   4 -1313103.89 1105.68
  -3  -4 -1313855.92  914.92
   3   4 -1314993.62  880.93
   3  -4  1314569.19  877.96
  -3   4  1315012.02 1109.52
  -3   4 -14 1250.24  274.76
   3   4  14 1339.75  181.17
  -3  -4  14 1847.86  296.88
  -3  -4 -14 1603.02  399.74
   3   4 -14  909.16  288.92
   3  -4  14 1621.58  311.49
  -3   4  14 1560.31  301.37
   3   4  15 1710.78  245.80
  -3  -4  15 1724.85  527.57
  -3   4 -15 1874.84  549.60
  -3  -4 -15 2907.73  518.71
   3   4 -15 2554.78  254.30
   3  -4  15 2604.71  364.97
  -3   4  15 1703.74  316.45
   3   4  16  584.91  142.61
  -3  -4  16  560.47  383.09
   3  -4 -16  148.84  114.86
  -3   4 -16  185.19  250.37
  -3  -4 -16  395.76  365.45
   3   4 -16  577.25  265.21
   3  -4  16  701.61  272.74
  -3   4  16  557.21  237.45
   3   4  1711636.61  709.47
  -3  -4  17 9338.69  805.96
  -3   4 -1710678.36 1121.76
   3  -4 -17 9886.01  533.72
   3   4 -1712892.64  881.26
   3  -4  1712793.88  891.89
  -3   4  1711474.52  907.30
  -3  -4 -1710461.04 1106.20
  -3  -4  18 7061.01  882.92
  -3   4 -18 5600.07  858.88
  -3  -4 -18 7260.16  931.30
   3   4 -18 6869.56  647.29
   3  -4  18 7284.96  551.25
  -3   4  18 6393.49  682.37
  -3  -4  19 1167.18  349.75
  -3   4 -19 1477.22  559.34
  -3  -4 -19 1474.50  535.71
   3   4 -19 1265.41  251.95
   3  -4  19 1737.11  417.21
  -3   4  19 1509.73  527.46
  -3  -4  20 3356.42  739.96
  -3   4 -20 4106.71  790.17
  -3  -4 -20 3106.72  744.90
   3   4 -20 4656.13  603.74
   3  -4  20 4235.35  635.08
  -3   4  20 3880.15  742.33
  -3  -4  21 2068.50  411.24
  -3   4 -21 1696.86  609.82
  -3  -4 -21 1716.34  617.00
   3   4 -21 1632.87  437.74
   3  -4  21 1237.59  294.93
  -3   4 -2223014.47 2062.82
  -3  -4  2222497.42 1950.90
  -3  -4 -2222870.16 1731.21
   3   4 -2223630.26 1701.28
   3  -4  2225372.01 1837.53
  -3   4  2222099.80 1991.54
  -3  -4  23 1062.21  678.80
  -3   4 -23 1891.43  740.61
  -3  -4 -23 1405.66  418.61
   3   4 -23 1660.65  365.03
   3  -4  23 1629.67  561.37
  -3   4  23 1896.74  424.96
  -3   4 -24 5799.25 1093.03
  -3  -4  24 6354.58 1113.23
  -3  -4 -24 5444.03  755.97
   3   4 -24 7401.68  703.55
   3  -4  24 6446.64  978.05
  -3   4  24 5457.38  752.89
  -3  -4  25 3850.39  921.72
  -3   4 -25 -216.88  850.92
  -3  -4 -25 2428.84  868.54
   3  -4  25 4804.65  845.26
  -3   4  25 4443.85  618.75
  -3  -4  26 1925.15  530.48
  -3   4 -26 1719.05  530.25
  -3  -4 -26 1562.39  746.55
  -3   4  26 2180.79  787.39
  -3  -4  27  441.42  562.79
  -3   4 -27  -97.37  536.57
  -3  -4 -27  424.84  513.20
  -3   4  27 -251.19  528.24
  -3  -4  28  278.76  420.98
  -3   4 -28  745.70  408.06
  -3  -4 -28  137.79  643.96
  -3   4  28  351.93  661.61
  -3  -4  29 1488.13  877.74
  -3   4 -29 1006.02  869.53
  -3  -4 -29 1359.96  516.50
  -3   4  29 1704.18  535.57
  -3  -5   014162.22  765.51
   3   5   014258.59  878.93
  -3   5   013755.18  733.34
   3  -5   012574.18  684.64
   3   5   011483.74  594.40
   3   5   111087.53  530.21
   3   5   112582.78  822.09
  -3  -5   113998.07  738.50
  -3   5  -113778.17  756.59
   3  -5  -110868.18  563.13
   3  -5  -111026.06  638.57
  -3  -5  -111366.53  553.52
   3   5  -112579.97  817.56
   3  -5   112015.91  812.99
  -3   5   112172.03  623.74
   3   5   2 9178.48  418.17
  -3   5  -210194.62  637.05
   3  -5  -210354.41  612.60
   3   5   210837.99  770.57
   3  -5  -2 9234.37  454.49
  -3  -5   2 9832.80  613.19
  -3  -5  -2 9453.10  437.39
   3   5  -2 9659.35  653.22
   3  -5   210538.53  721.47
  -3   5   2 8671.95  444.87
   3   5   3 7642.32  349.21
   3  -5  -3 8293.19  551.81
   3   5   3 8089.94  673.35
  -3  -5   3 8889.60  512.00
  -3   5  -3 8353.84  590.87
   3  -5  -3 7326.66  398.23
  -3  -5  -3 9253.71  411.04
   3   5  -3 9215.31  634.78
   3  -5   3 8327.47  629.95
  -3   5   3 9299.80  405.80
   3   5   411341.91  400.02
   3   5   414681.34  796.07
  -3  -5   413407.09  818.14
  -3   5  -414246.61  867.16
   3  -5  -414790.96  818.80
   3  -5  -413130.76  499.09
  -3  -5  -411076.75  404.91
   3   5  -412953.39  791.37
   3  -5   412445.15  651.42
  -3   5   414759.97  576.54
  -3  -5   5 9687.10  590.35
  -3   5  -510243.18  743.93
  -3  -5  -5 8994.62  590.39
   3   5  -510029.59  657.11
   3  -5   5 8657.76  501.92
  -3   5   5 9578.54  726.61
  -3   5  -6 2254.47  397.72
  -3  -5   6 2780.10  279.64
  -3  -5  -6 2359.04  429.67
   3   5  -6 3112.98  361.64
   3  -5   6 2749.04  249.27
  -3   5   6 2680.87  416.19
  -3  -5   7 1928.91  263.27
  -3   5  -7 1084.69  246.91
  -3  -5  -7 1762.85  380.17
   3   5  -7 2006.23  221.11
   3  -5   7 2137.72  217.77
  -3   5   7 1668.36  250.93
  -3   5  -8 5451.64  448.88
  -3  -5   8 4854.29  402.32
  -3  -5  -8 5142.61  564.90
   3   5  -8 4957.54  449.38
   3  -5   8 5755.21  462.49
  -3   5   8 5668.60  572.73
  -3  -5   936912.14 1920.08
  -3   5  -933425.91 1945.97
  -3  -5  -934612.82 1993.88
   3   5  -933021.76 1664.56
   3  -5   934382.84 1721.45
  -3   5   935267.22 1790.27
  -3  -5  10 3798.57  390.76
  -3   5 -10 4326.30  577.92
  -3  -5 -10 4020.19  555.52
   3   5 -10 4394.17  425.01
   3  -5  10 3761.31  295.57
  -3   5  10 5963.39  600.11
  -3  -5  11 5224.82  488.95
  -3   5 -11 4905.77  630.33
  -3  -5 -11 5198.35  470.18
   3   5 -11 5537.99  480.79
   3  -5  11 5291.20  470.42
  -3   5  11 6432.67  625.83
  -3  -5  1221982.36 1498.36
  -3   5 -1223758.99 1404.21
  -3  -5 -1219532.31 1368.84
   3   5 -1220367.09 1019.77
   3  -5  1221377.88 1196.52
  -3   5  1219442.05 1141.11
   3   5  13 2608.51  192.21
   3   5  13 2956.21  198.29
  -3  -5  13 4080.82  587.60
  -3   5 -13 3404.71  576.94
  -3  -5 -13 3107.13  524.02
   3   5 -13 3420.62  295.57
   3  -5  13 3811.32  425.20
  -3   5  13 4274.74  409.20
  -3   5 -14 4055.72  615.98
  -3  -5  14 3563.53  448.05
  -3  -5 -14 3369.49  579.46
   3   5 -14 3725.26  453.83
   3  -5  14 4191.81  458.79
  -3   5  14 3434.14  557.32
   3   5  1511827.60  620.08
  -3  -5  1511635.89  886.40
  -3   5 -1511578.43  914.47
  -3  -5 -1512636.55  902.20
   3   5 -1512351.15  850.51
   3  -5  1513725.61  922.71
  -3   5  1513546.78 1109.52
   3   5  1610013.46  615.14
  -3   5 -1613198.01 1201.76
  -3  -5  1610260.79 1097.10
  -3  -5 -16 9769.35  847.86
   3   5 -1610670.28  829.18
   3  -5  1610716.16  692.91
  -3   5  16 9684.27  953.38
   3   5  17 6536.09  497.20
  -3  -5  17 5984.63  836.37
  -3   5 -17 6246.14  643.14
  -3   5  17 8416.29  912.79
  -3  -5 -17 5886.80  636.61
   3   5 -17 7381.83  673.57
   3  -5  17 6503.91  672.02
  -3   5 -18 1733.94  600.55
  -3  -5  18 1734.16  379.24
  -3  -5 -18 1811.48  377.02
   3   5 -18 2617.89  418.18
   3  -5  18 1651.00  431.33
  -3   5  18 1445.42  554.13
  -3  -5  19 3867.62  755.33
  -3   5 -19 4655.82  842.16
  -3  -5 -19 4257.48  596.02
   3   5 -19 6086.18  668.20
   3  -5  19 5081.26  645.74
  -3   5  19 4197.93  764.55
  -3  -5  20 1285.70  354.58
  -3   5 -20 1908.42  437.13
  -3  -5 -20  615.24  349.48
   3   5 -20 2025.17  445.51
   3  -5  20 2274.60  462.27
  -3   5  20 1927.10  572.28
  -3  -5  21 2935.55  510.98
  -3   5 -21 2837.71  744.90
  -3  -5 -21 2698.02  503.00
   3   5 -21 3440.46  588.13
   3  -5  21 2764.15  560.73
  -3   5  21 3458.28  671.10
  -3   5 -22  862.86  365.35
  -3  -5  22  937.47  592.26
  -3  -5 -22  689.57  331.66
   3   5 -22 1459.13  455.09
   3  -5  22  551.28  445.37
  -3   5  22  791.95  548.10
  -3  -5  23 7131.41  860.21
  -3   5 -23 7634.25 1202.58
  -3  -5 -23 7672.94  882.62
   3   5 -23 9771.70 1017.93
   3  -5  23 7551.34  969.93
  -3   5  23 6580.13  819.56
  -3  -5  24 4398.09  954.39
  -3   5 -24 4956.14  742.72
  -3  -5 -24 3999.21  706.95
   3   5 -24 7545.13  923.91
   3  -5  24 3966.47  801.45
  -3   5  24 4716.39  662.39
  -3  -5  25 1574.02  471.87
  -3   5 -25 1253.30  739.13
  -3  -5 -25 1616.95  717.60
   3  -5  25 1115.08  582.63
  -3   5  25 1556.70  464.91
  -3  -5  26 2011.93  826.15
  -3   5 -26 1382.14  552.17
  -3  -5 -26 1728.43  737.26
  -3   5  26 2580.49  754.44
  -3  -5  27 3188.89  928.85
  -3   5 -27 1126.51  920.77
  -3  -5 -27 1945.47  819.92
  -3   5  27 3061.51  846.25
  -3  -5  28 1555.67  554.25
  -3   5 -28 1846.28  562.03
  -3  -5 -28 1901.28  815.64
  -3   5  28 1265.37  836.07
  -3  -5  29  -32.94  726.99
  -3   5 -29  878.68  743.92
  -3  -5 -29  709.82  680.38
  -3   5  29  466.10  433.69
   3   6   023236.22 1129.84
   3   6   019605.42  933.43
  -3   6   024988.17 1164.68
   3  -6   021708.57 1300.08
  -3  -6   024763.32 1139.72
   3   6   1 1800.78  177.98
  -3  -6   1 2385.21  264.46
  -3   6  -1 2458.55  287.56
   3  -6  -1 2524.59  427.84
   3  -6  -1 1811.62  189.61
   3   6   1 2533.49  266.77
  -3  -6  -1 2240.73  207.14
   3  -6   1 2263.95  379.07
  -3   6   1 2670.52  242.07
   3   6  -1 2212.63  238.96
   3   6   2 6515.37  330.93
  -3  -6   2 7611.16  531.70
   3  -6  -2 6938.46  640.15
  -3   6  -2 7248.48  513.70
   3  -6  -2 6091.52  339.08
   3   6   2 7424.84  479.17
  -3  -6  -2 7114.81  361.37
   3   6  -2 6040.04  537.02
   3  -6   2 7609.48  592.55
  -3   6   2 6835.96  373.44
   3   6   329745.66 1650.45
   3   6   326036.81 1080.97
  -3  -6   327807.30 1452.18
  -3   6  -328202.17 1481.34
   3  -6  -326533.50 1155.79
   3  -6  -328864.90 1684.44
   3   6  -328378.85 1506.17
  -3  -6  -328151.89 1113.00
   3  -6   327892.12 1515.75
  -3   6   331220.75 1316.69
   3  -6  -415440.27 1094.01
   3   6   414328.89  558.98
   3   6   418124.49 1153.82
  -3  -6   415837.01  976.53
  -3   6  -415244.03  830.97
   3  -6  -414699.45  634.40
  -3  -6  -414436.69  573.94
   3   6  -417411.16 1024.33
   3  -6   418710.00 1081.90
  -3   6   415833.26  661.50
   3   6   5 9164.30  601.83
  -3  -6   5 8905.08  667.42
  -3   6  -5 8816.96  665.97
   3  -6  -5 8292.50  588.91
   3  -6  -5 7204.15  283.78
   3   6  -5 7800.97  468.18
  -3  -6   613964.87  940.52
  -3   6  -613345.39  907.97
  -3  -6  -613833.89  821.14
   3   6  -612151.88  664.25
  -3   6   613265.09  951.96
   3  -6   614291.61  872.11
  -3  -6   7 3476.72  454.58
  -3   6  -7 3551.52  470.81
  -3  -6  -7 3142.53  476.13
   3   6  -7 3654.98  399.13
  -3   6   7 3340.23  477.97
   3  -6   7 3096.42  277.95
  -3  -6   8 1291.93  374.24
  -3   6  -8 1040.05  357.97
   3   6  -8 1459.71  197.25
   3  -6   8  939.43  300.72
  -3   6   8 1504.17  235.40
  -3  -6  -8 1230.63  233.95
  -3  -6   9 9293.81  815.58
  -3   6  -910278.67  871.65
   3   6  -9 9415.31  660.92
  -3  -6  -910211.44  847.64
   3  -6   9 9477.87  681.74
  -3   6   910915.14  839.98
  -3  -6  10 4407.76  594.24
  -3   6 -10 4395.68  590.30
  -3  -6 -10 5692.98  469.02
   3   6 -10 5472.11  493.68
  -3   6  10 5239.95  437.89
   3  -6  10 5413.26  497.99
  -3  -6  1112618.43 1013.60
  -3   6 -1112641.16 1017.80
  -3  -6 -1111869.27  968.53
   3  -6  1111527.88  763.01
  -3   6  1111180.31  731.33
   3   6 -1112221.06  789.91
  -3  -6  12 5350.68  688.21
  -3   6 -12 4708.15  505.84
  -3  -6 -12 5789.35  649.19
   3   6 -12 5653.88  518.15
   3  -6  12 5539.08  411.36
  -3   6  12 6515.93  695.20
   3   6  13 1249.32  113.88
  -3  -6  13 1838.51  457.57
  -3   6 -13 1424.48  290.48
  -3  -6 -13 2235.17  308.01
   3  -6  13 1877.16  237.04
  -3   6  13 1670.17  443.61
   3   6 -13 2016.72  346.47
   3   6  14 4968.16  318.05
  -3  -6  14 6027.80  721.17
  -3   6 -14 4624.78  680.66
  -3  -6 -14 4872.72  674.63
   3   6 -14 5093.10  515.21
   3  -6  14 5032.72  529.01
  -3   6  14 5745.91  506.04
   3   6  15  275.06  140.37
  -3  -6  15  103.92  253.81
  -3   6 -15 1084.54  378.24
  -3  -6 -15  768.47  366.89
   3   6 -15  476.33  172.78
  -3   6  15  226.95  218.42
   3  -6  15  478.21  269.73
  -3  -6  1610379.30  847.30
  -3   6 -1610442.09  871.71
   3   6  16 9078.90  548.63
  -3  -6 -16 8925.34  980.44
   3   6 -1610621.32  810.89
   3  -6  1611464.33  837.78
  -3   6  16 9371.32  756.23
  -3  -6  17 4563.95  787.07
  -3   6 -17 5233.95  811.93
  -3  -6 -17 5937.82  602.12
   3  -6  17 5381.65  459.20
  -3   6  17 6396.68  792.21
   3   6 -17 6478.59  637.67
  -3  -6  18 4337.96  778.13
  -3   6 -18 4073.15  751.87
  -3  -6 -18 4280.78  554.58
   3   6 -18 4679.50  602.77
   3  -6  18 5527.13  660.73
  -3   6  18 3704.54  749.29
  -3  -6  19 3765.55  543.11
  -3   6 -19 4509.92  598.93
  -3  -6 -19 4914.50  619.81
  -3   6  19 4860.72  788.90
   3  -6  19 4988.19  657.36
   3   6 -19 4375.69  442.08
  -3  -6  20 2645.06  686.13
  -3   6 -20 2670.70  737.58
   3   6 -20 3236.41  558.87
   3  -6  20 3284.96  419.43
  -3   6  20 1914.28  627.31
  -3  -6  21 9431.91 1200.16
  -3   6 -21 9119.28  933.26
   3   6 -2111689.87 1060.44
  -3  -6 -21 9608.09  983.42
  -3   6  21 8878.72 1123.28
   3  -6  21 8898.25  987.87
  -3  -6  22  842.00  336.27
  -3   6 -22  120.65  522.58
  -3  -6 -22  436.74  323.50
   3   6 -22 1196.93  419.91
  -3   6  22  238.66  318.82
   3  -6  22  164.89  420.34
  -3  -6  23 7226.47 1145.28
  -3   6 -23 6918.83 1163.35
  -3  -6 -23 8567.75  921.58
   3   6 -23 7194.47  914.97
   3  -6  23 8088.47  948.66
  -3   6  23 7149.01  799.03
  -3  -6  24   53.89  444.06
  -3   6 -24  -23.38  273.48
  -3  -6 -24   93.07  264.40
   3   6 -24  162.99  233.46
   3  -6  24  394.42  365.15
  -3   6  24 -139.37  252.95
  -3  -6  25 1940.78  522.50
  -3   6 -25 1563.24  784.79
  -3  -6 -25 2248.78  518.86
   3   6 -25 2724.95  446.14
   3  -6  25 2185.37  677.57
  -3   6  25  -90.45  481.15
  -3  -6  26 2068.08  813.18
  -3   6 -26 2512.31  579.12
  -3  -6 -26 1113.84  746.57
   3  -6  26 3283.82  746.73
  -3   6  26 -124.62  754.25
  -3  -6  27  510.12  430.19
  -3   6 -27  691.92  700.97
  -3  -6 -27  426.12  622.78
  -3   6  27  885.99  626.06
  -3  -6  28 2149.56  893.27
  -3   6 -28 1890.05  584.60
  -3  -6 -28 1020.03  780.84
  -3   6  28 1535.70  794.21
  -3  -6  29 -163.09  685.52
  -3   6 -29  809.00  707.64
  -3  -6 -29  597.19  645.78
  -3   6  29  200.22  673.02
   3   7   0 4197.72  347.27
   3  -7   0 4690.42  543.23
  -3   7   0 4092.90  341.02
  -3  -7   0 3592.74  315.05
   3   7   130634.22 1511.87
   3   7   129395.98 1378.36
  -3  -7   135031.38 1673.01
   3  -7  -133781.84 1897.77
  -3   7  -134972.09 1710.11
   3   7  -131474.19 1530.38
  -3  -7  -137940.46 1646.15
   3  -7   136032.11 1942.78
  -3   7   136609.03 1632.35
   3   7   2 3733.01  507.31
   3   7   2 2877.79  220.58
  -3  -7   2 3078.34  351.56
   3  -7  -2 2645.33  224.61
  -3   7  -2 2528.36  336.26
   3  -7  -2 3451.55  344.49
  -3  -7  -2 3649.04  257.48
   3   7  -2 4633.77  476.51
   3  -7   2 3848.94  472.76
  -3   7   2 3607.77  277.42
   3   7   315604.52 1032.56
   3   7   314456.71  666.87
  -3  -7   315401.77  908.87
  -3   7  -317230.45  998.12
   3  -7  -313763.42  672.30
   3  -7  -315212.09  885.00
   3   7  -316197.93  972.81
  -3  -7  -315822.69  675.55
   3  -7   316447.93 1025.13
  -3   7   316902.03  796.05
   3   7   4 1941.83  130.44
  -3  -7   4 2117.86  234.75
  -3   7  -4 2108.14  249.05
   3  -7  -4 2184.69  178.23
   3  -7  -4 2316.19  312.43
   3   7   4 2289.43  297.52
  -3  -7  -4 2319.85  179.25
   3   7  -4 3153.95  273.36
   3  -7   4 1874.92  246.13
  -3   7   4 2569.08  194.87
   3   7   5 3230.61  475.01
   3   7   5 2339.94  133.08
  -3  -7   5 2707.25  274.39
  -3   7  -5 2920.51  415.57
   3  -7  -5 2772.52  504.98
   3  -7  -5 2597.24  155.01
   3   7  -5 4027.14  444.06
  -3   7   5 2470.82  155.95
   3  -7   5 3210.45  426.38
  -3  -7   6 5979.48  565.88
  -3   7  -6 5830.11  443.22
   3   7  -6 6112.66  413.22
   3  -7   6 6929.61  564.21
  -3  -7   710017.49  650.81
  -3   7  -711026.00  693.38
   3   7  -711187.37  752.17
  -3  -7  -710457.36  702.68
  -3   7   710904.48  685.93
   3  -7   710523.37  601.85
  -3  -7   8 2383.20  418.63
  -3   7  -8 2110.31  410.13
  -3  -7  -8 2198.77  412.75
   3   7  -8 1380.15  217.47
   3  -7   8 1873.16  333.20
  -3   7   8 1527.70  404.76
  -3  -7   9 3154.89  490.11
  -3   7  -9 2881.46  477.75
  -3  -7  -9 2869.70  486.30
   3   7  -9 3273.07  399.38
   3  -7   9 3053.59  281.97
  -3   7   9 3709.41  351.62
  -3  -7  10  830.34  367.60
  -3   7 -10 1421.57  358.46
  -3  -7 -10  868.63  346.74
   3   7 -10  815.70  296.44
   3  -7  10  822.06  311.03
  -3   7  10  903.37  365.30
  -3  -7  1113195.12 1053.94
  -3   7 -1113686.85 1113.34
   3   7 -1113875.24  878.16
  -3  -7 -1114006.34  893.56
  -3   7  1113852.05 1024.31
   3  -7  1113394.43  874.06
  -3  -7  12 5384.74  700.34
  -3   7 -12 5419.83  531.39
  -3  -7 -12 6208.35  686.40
   3   7 -12 6351.02  568.99
  -3   7  12 7263.47  571.82
   3  -7  12 6600.26  594.88
  -3  -7  13 7428.13  851.45
  -3   7 -13 9044.40  744.22
  -3  -7 -13 7413.67  812.19
   3  -7  13 8693.99  714.31
  -3   7  13 8820.46  859.29
   3   7 -13 8343.77  676.38
  -3  -7  14 8137.51  905.75
  -3   7 -14 9049.14  770.74
   3   7  14 8072.92  445.04
  -3  -7 -14 9054.22  731.85
   3   7 -14 7972.70  548.63
   3  -7  14 8223.02  728.19
  -3   7  14 8300.78  864.71
  -3  -7  1515762.09 1353.23
  -3   7 -1517015.16 1437.53
  -3  -7 -1515335.44 1283.62
   3  -7  1514176.15  885.65
  -3   7  1517882.21 1145.99
   3   7 -1516927.55 1120.23
  -3  -7  16 3816.91  664.68
  -3   7 -16 3182.06  671.04
  -3  -7 -16 3901.19  675.27
   3   7 -16 3541.58  529.46
  -3   7  16 3449.20  455.61
   3  -7  16 3446.38  521.27
  -3  -7  17 1583.07  355.73
  -3   7 -17 1224.12  325.12
  -3  -7 -17 1423.23  520.16
   3   7 -17 1252.23  410.30
  -3   7  17 1949.12  338.57
   3  -7  17 1485.32  289.52
  -3  -7  18 6382.67  716.51
  -3   7 -18 5994.46  714.78
  -3  -7 -18 7830.99  975.57
   3   7 -18 7840.92  771.50
   3  -7  18 6961.06  770.87
  -3   7  18 7515.55  734.68
  -3  -7  19 4324.86  807.86
  -3   7 -19 2034.51  722.15
  -3  -7 -19 2985.95  455.70
   3  -7  19 5069.38  487.58
  -3   7  19 3833.74  537.46
   3   7 -19 5435.75  657.09
  -3  -7  20 2339.46  698.64
  -3   7 -20 3692.94  729.65
   3   7 -20 3246.24  589.81
   3  -7  20 3167.17  598.45
  -3   7  20 2938.54  488.56
  -3  -7  21  966.52  346.02
  -3   7 -21  807.99  340.42
  -3  -7 -21  132.13  292.11
   3  -7  21 1140.18  426.96
  -3   7  21  353.22  316.07
   3   7 -21  659.84  260.39
  -3  -7  22  275.87  314.84
  -3   7 -22  562.53  538.29
  -3  -7 -22  813.66  321.31
   3   7 -22 1035.91  417.60
   3  -7  22  406.48  423.59
  -3   7  22 -195.56  301.32
  -3  -7  23 2416.12  734.70
  -3   7 -23 1785.27  466.67
   3   7 -23 3421.85  634.12
  -3  -7 -23 1114.85  445.38
   3  -7  23 2381.72  413.39
  -3   7  23 1934.30  434.03
  -3  -7  24 5057.21  759.28
  -3   7 -24 8006.54 1240.42
  -3  -7 -24 7089.42  854.79
   3   7 -24 9555.89 1124.71
   3  -7  24 7855.61  780.41
  -3   7  24 7567.91  811.90
  -3  -7  25 1129.08  460.33
  -3   7 -25 1644.48  746.51
  -3  -7 -25 1616.91  440.06
   3   7 -25 2155.86  660.78
   3  -7  25 1882.63  418.93
  -3   7  25 -251.48  449.73
  -3  -7  26   60.13  628.64
  -3   7 -26  762.01  389.93
  -3  -7 -26 -225.18  363.34
   3   7 -26  813.06  533.46
   3  -7  26  983.87  352.66
  -3   7  26   -0.31  379.94
  -3  -7  27 1969.45  577.32
  -3   7 -27  868.09  908.69
  -3  -7 -27 1801.12  518.62
   3  -7  27 3227.73  562.23
  -3   7  27 -221.78  802.91
  -3  -7  28 1141.39  813.29
  -3   7 -28 1192.76  532.29
  -3  -7 -28  923.58  727.46
  -3   7  28  998.12  735.07
  -3   7 -29  975.66  915.00
  -3  -7 -29 1189.08  800.19
  -3   7  29 1676.74  789.94
   3   8   0 6913.02  475.65
  -3   8   0 6452.82  468.26
   3  -8   0 7660.85  714.66
  -3  -8   0 6793.54  463.54
  -3  -8   115047.28  816.52
   3   8   114414.73  797.72
   3  -8  -113568.45  989.45
  -3   8  -115580.11  854.62
  -3  -8  -116061.45  797.50
   3   8  -113993.69  916.15
   3  -8   114491.59 1010.37
  -3   8   114904.27  780.88
   3   8   2 4380.50  299.45
   3   8   2 6542.93  600.58
  -3  -8   2 5225.42  442.10
   3  -8  -2 3942.23  335.71
   3  -8  -2 5709.51  452.65
  -3   8  -2 4375.55  430.35
  -3  -8  -2 5105.66  330.27
   3   8  -2 4511.87  499.66
  -3   8   2 5066.71  349.86
   3  -8   2 4648.99  395.70
   3   8   330891.31 1549.83
  -3  -8   330976.22 1596.01
   3  -8  -328634.36 1291.09
   3  -8  -331543.96 1626.91
  -3   8  -332083.10 1671.34
   3   8   328350.73 1254.40
  -3  -8  -329305.66 1235.97
   3   8  -329100.52 1435.21
  -3   8   330526.66 1315.62
   3  -8   331611.04 1716.13
   3   8   4 2018.75  187.06
   3   8   4 2212.64  282.45
  -3  -8   4 1950.99  341.17
   3  -8  -4 1759.84  150.41
   3  -8  -4 1925.16  470.93
  -3   8  -4 2143.34  346.95
  -3  -8  -4 1614.73  138.70
   3   8  -4 1868.32  383.10
  -3   8   4 1786.62  155.11
   3  -8   4 3342.75  438.97
  -3  -8   519788.60 1144.93
   3   8   518078.80  773.98
   3   8   519532.50 1233.24
   3  -8  -517238.02  730.88
  -3   8  -517779.87  958.37
   3  -8  -517286.43 1267.20
  -3  -8  -518173.62  757.57
   3   8  -518353.11  941.60
  -3   8   518023.35  749.84
   3  -8   517883.82  950.37
   3   8   619373.04 1065.35
   3   8   617913.85  711.30
  -3  -8   618011.40  995.80
  -3   8  -617104.47 1111.53
   3  -8  -617898.26 1076.47
  -3  -8  -616083.42  632.76
   3   8  -619120.29 1136.72
   3  -8   619357.82 1160.37
  -3   8   615948.80  616.91
  -3  -8   7  702.48  329.25
   3   8   7  738.03   60.54
   3   8   7  422.11   50.10
  -3   8  -7  489.40  312.78
  -3  -8  -7  540.39  202.92
   3   8  -7  678.31  290.18
   3  -8   7  497.58  187.04
  -3   8   7  258.58  211.51
  -3  -8   812435.28  776.27
  -3   8  -8 9588.77  681.85
  -3  -8  -813215.65  982.02
   3   8  -812052.77  705.01
   3  -8   811724.64  830.50
  -3   8   812271.53  754.43
  -3   8  -9 -326.02  286.68
  -3  -8   9  327.04  285.19
  -3  -8  -9  656.19  199.41
   3   8  -9  470.86  163.79
   3  -8   9  358.41  267.89
  -3   8   9  490.51  323.59
  -3  -8  10 1850.40  435.86
  -3   8 -10 1679.35  434.81
   3   8 -10 1656.16  238.61
   3  -8  10 2874.04  405.44
  -3   8  10 1700.96  280.99
  -3  -8 -10 2020.44  426.36
  -3  -8  11 1633.92  412.12
  -3   8 -11 1160.99  407.41
  -3  -8 -11  682.54  397.44
   3   8 -11 1331.13  217.96
   3  -8  11 1382.24  220.74
  -3   8  11 1350.69  416.45
  -3  -8  12 6358.60  741.40
  -3   8 -12 6179.95  754.31
  -3  -8 -12 5731.34  541.48
   3   8 -12 5891.97  436.41
   3  -8  12 6443.32  628.38
  -3   8  12 6963.69  542.61
  -3  -8  13 6112.03  571.34
  -3   8 -13 5604.17  753.09
   3   8 -13 5474.83  576.55
   3  -8  13 6494.71  619.22
  -3   8  13 6391.28  549.73
  -3  -8 -13 5124.42  725.26
  -3  -8  14  190.67  215.24
  -3   8 -14  428.92  216.84
  -3  -8 -14 -111.77  186.07
   3   8 -14  146.80  261.08
   3  -8  14  216.21  275.06
  -3   8  14 -116.43  316.94
  -3   8 -1526726.50 1690.96
  -3  -8  1527583.45 1932.48
  -3  -8 -1527248.76 1675.82
   3   8 -1526453.90 1622.58
   3  -8  1526306.58 1628.92
  -3   8  1526573.23 1838.47
  -3  -8  16 2322.26  596.80
  -3   8 -16 2938.89  429.15
  -3  -8 -16 2645.66  606.80
   3   8 -16 2507.46  506.10
  -3   8  16 3388.15  429.46
   3  -8  16 3160.47  521.91
  -3  -8  17 9384.28 1050.27
  -3   8 -1710273.41 1075.61
   3   8 -1710993.11  946.94
   3  -8  17 8924.97  882.27
  -3   8  1711363.01  902.14
  -3  -8 -17 8608.10  999.61
  -3  -8  18 2153.12  624.34
  -3   8 -18 1450.66  620.73
  -3  -8 -18 -173.42  539.25
   3   8 -18 2800.28  493.03
  -3   8  18 2478.44  383.61
   3  -8  18 2169.50  503.68
  -3  -8  19  -99.82  341.49
  -3   8 -19  106.17  208.30
  -3  -8 -19  -60.32  185.81
   3   8 -19   43.58  164.26
  -3   8  19 -153.33  199.05
   3  -8  19 -144.95  283.18
  -3  -8  20 5883.77  739.61
  -3   8 -20 6392.12  749.79
  -3  -8 -20 4832.90  593.10
   3   8 -20 8363.14  856.95
   3  -8  20 8003.44  884.88
  -3   8  20 7246.27  752.31
  -3   8 -21  568.13  513.17
  -3  -8  21  824.54  329.97
  -3  -8 -21 -108.56  302.89
   3   8 -21  954.63  439.33
   3  -8  21  434.62  416.51
  -3   8  21  682.72  307.65
  -3  -8  22  105.25  448.05
  -3   8 -22  746.25  485.87
  -3  -8 -22  -48.03  265.69
   3   8 -22  153.25  382.59
   3  -8  22  172.66  231.33
  -3   8  22  270.05  263.02
  -3   8 -23  311.87  337.24
  -3  -8  23  395.10  548.43
  -3  -8 -23  298.15  324.53
   3   8 -23  730.49  455.42
   3  -8  23  447.29  441.47
  -3   8  23   85.95  304.13
  -3  -8  24 4714.97  720.80
  -3   8 -24 3784.01 1080.56
  -3  -8 -24 6261.54  781.78
   3   8 -24 5421.64  657.91
   3  -8  24 4481.80  846.42
  -3   8  24 4821.44  688.33
  -3  -8  25  851.85  587.46
  -3   8 -25  139.36  591.43
  -3  -8 -25  471.76  333.23
   3   8 -25  565.26  312.25
  -3   8  25 -126.08  336.38
   3  -8  25  381.37  498.56
  -3  -8  26 2934.06  842.86
  -3   8 -26 2710.41  610.78
  -3  -8 -26 -321.62  452.93
   3   8 -26 3907.89  549.91
   3  -8  26 1748.02  696.78
  -3   8  26 -153.25  481.28
  -3  -8  27 6148.08  856.33
  -3   8 -27 4477.52 1055.84
  -3  -8 -27 4137.81  684.82
  -3   8  27 3931.88  668.86
   3  -8  27 5666.88 1011.44
  -3  -8  28  -87.70  557.94
  -3   8 -28   91.38  327.28
  -3  -8 -28  168.03  305.50
  -3   8  28  -78.31  507.34
   3   9   015056.75 1019.55
  -3   9   015448.70  863.10
   3  -9   013610.69  814.20
  -3  -9   014469.43  812.79
   3   9   1 9424.71  607.88
  -3  -9   110814.65  581.07
  -3   9  -110405.87  692.51
   3  -9  -110481.96  892.35
  -3  -9  -111010.36  623.05
   3   9  -1 9974.83  643.13
  -3   9   110330.72  620.50
   3  -9   111177.18  877.48
   3   9   226854.97 1564.22
  -3  -9   227886.91 1434.25
  -3   9  -228464.03 1527.30
   3  -9  -226394.03 1685.70
  -3   9   226528.26 1245.40
   3  -9   225982.28 1530.38
  -3  -9  -225744.47 1202.96
   3   9  -224504.58 1448.01
   3   9   3 1697.18  184.79
   3   9   3 2560.02  424.35
  -3  -9   3 1691.26  337.23
   3  -9  -3 1650.96  178.42
   3  -9  -3 1820.81  305.16
  -3   9  -3 2122.12  245.60
  -3  -9  -3 2514.99  213.48
   3   9  -3 3025.05  416.02
  -3   9   3 2422.25  227.18
   3  -9   3 2256.96  286.01
   3   9   416459.59  769.85
  -3  -9   419244.05 1132.36
   3  -9  -418332.08 1286.46
  -3   9  -418017.70 1093.87
   3  -9  -415824.21  757.79
   3   9   419201.49 1049.38
  -3  -9  -418857.66  822.20
   3   9  -419114.67 1144.95
   3  -9   420955.96 1282.18
  -3   9   418608.42  824.48
   3   9   5 5575.45  608.10
  -3  -9   5 5655.59  543.56
   3  -9  -5 4971.28  645.81
  -3   9  -5 4563.83  518.70
   3  -9  -5 4579.75  279.80
   3   9   5 4831.37  278.52
  -3  -9  -5 4758.61  260.89
   3   9  -5 5140.19  399.87
  -3   9   5 5089.20  265.60
   3  -9   5 5622.84  425.95
   3   9   6 6516.05  308.06
   3   9   6 7309.80  540.50
  -3  -9   6 7896.09  657.44
  -3   9  -6 6694.79  481.74
   3  -9  -6 6340.14  306.42
   3  -9  -6 7553.86  597.33
   3   9  -6 8489.32  661.13
  -3  -9  -6 6916.12  316.60
  -3   9   6 6191.41  280.75
   3  -9   6 7315.04  648.41
   3   9   715241.43  638.20
   3   9   716204.38 1124.81
  -3  -9   715215.86  888.32
   3  -9  -714760.89  566.42
  -3   9  -715970.56 1090.34
   3  -9  -715463.60 1172.66
  -3  -9  -712434.50  500.81
   3   9  -713989.80  947.21
   3  -9   714716.40  982.76
  -3   9   713878.63  539.14
   3   9   8  110.02   57.33
  -3  -9   8  688.14  262.87
  -3   9  -8   71.05  172.72
   3   9   8   94.07   66.65
  -3  -9  -8  186.27  299.83
   3  -9   8  389.89  163.80
  -3   9   8  433.81  180.25
   3   9  -8  312.63  156.40
   3   9   9 2644.11  151.66
  -3  -9   9 2863.30  338.66
  -3   9  -9 3357.09  521.12
   3   9   9 2768.89  140.76
  -3  -9  -9 2796.23  500.23
   3   9  -9 3265.01  314.16
   3  -9   9 3825.92  470.07
  -3   9   9 3791.61  539.83
  -3  -9  10 6546.98  692.81
  -3   9 -10 7321.33  743.77
   3   9 -10 6229.42  464.46
  -3   9  10 6149.91  525.62
   3  -9  10 7133.93  646.80
  -3  -9 -10 5653.85  687.42
  -3  -9  11 3483.25  596.28
  -3   9 -11 4107.55  599.75
  -3  -9 -11 3671.13  579.08
   3   9 -11 3969.89  502.40
   3  -9  11 3773.89  519.88
  -3   9  11 3484.20  567.31
  -3  -9  12 4822.78  490.23
  -3   9 -12 5927.85  742.25
  -3  -9 -12 5884.75  573.41
   3   9 -12 5758.55  615.61
   3  -9  12 5809.49  633.46
  -3   9  12 5356.94  692.44
  -3  -9  13 8647.34  744.50
  -3   9 -13 8000.49  918.75
  -3  -9 -1310437.68  984.40
   3   9 -1310419.35  819.57
   3  -9  1310008.47  691.69
  -3   9  1310671.94  778.49
  -3  -9  1428635.91 1844.10
  -3   9 -1429125.98 2088.10
   3   9 -1427385.61 1509.43
  -3   9  1430793.26 2057.56
   3  -9  1427892.43 1580.88
  -3  -9 -1430192.26 2075.94
  -3  -9  15 2571.16  415.42
  -3   9 -15 2370.00  598.30
  -3  -9 -15 2153.75  386.00
   3   9 -15 2710.65  501.95
  -3   9  15 2178.34  569.98
   3  -9  15 3050.42  504.94
  -3  -9  16 1841.93  380.40
  -3   9 -16 1714.75  595.70
   3   9 -16 2898.46  509.11
  -3  -9 -16 2616.87  568.67
   3  -9  16 2065.74  334.89
  -3   9  16 3467.63  606.48
  -3  -9  17 4116.62  587.36
  -3   9 -17 5235.68  649.47
  -3  -9 -17 8092.12  973.73
   3   9 -17 6666.60  762.40
  -3   9  17 7125.35  694.41
   3  -9  17 6528.64  746.07
  -3  -9  1818274.85 1346.84
  -3   9 -1819777.28 1459.61
   3   9 -1815383.16 1052.42
   3  -9  1817835.75 1197.20
  -3   9  1818922.36 1320.38
  -3  -9 -1818359.11 1581.83
  -3  -9  19 2725.41  488.56
  -3   9 -19 3012.16  503.76
   3   9 -19 3136.21  597.92
  -3   9  19 2616.09  458.58
   3  -9  19 2679.83  616.16
  -3  -9  20 1718.23  600.74
  -3   9 -20 1846.22  620.65
  -3  -9 -20   20.01  339.46
   3   9 -20 1834.45  520.26
   3  -9  20 1771.57  509.61
  -3   9  20 1647.81  396.99
  -3  -9  21  515.78  555.75
  -3   9 -21 1109.25  571.85
  -3  -9 -21  -57.53  321.63
   3   9 -21 1061.45  307.84
   3  -9  21  739.64  300.49
  -3   9  21 1487.42  530.44
  -3  -9  22  859.86  622.92
  -3   9 -22 1479.88  401.71
  -3  -9 -22 -226.44  337.64
   3  -9  22  978.56  518.77
  -3   9  22  975.42  541.10
   3   9 -22 1184.95  315.64
  -3  -9  23 1856.80  496.84
  -3   9 -23 1747.80  724.62
  -3  -9 -23   98.34  626.54
   3   9 -23 2158.10  633.53
  -3   9  23 2548.09  674.36
   3  -9  23 1676.01  616.56
  -3  -9  24 1645.49  749.99
  -3   9 -24  895.70  700.73
  -3  -9 -24 1703.28  695.94
   3   9 -24 1645.46  596.92
   3  -9  24 1072.80  620.83
  -3   9  24 1183.60  636.77
  -3  -9  25 2260.61  805.33
  -3   9 -25 1270.95  479.56
  -3  -9 -25  230.89  702.12
   3   9 -25 3725.96  729.59
   3  -9  25 1369.75  661.71
  -3   9  25 -278.57  689.72
  -3  -9  26 -148.24  746.07
  -3   9 -26 2195.36  750.78
  -3  -9 -26  -94.39  675.74
   3   9 -26 3488.45  730.87
  -3   9  26  103.06  435.61
   3  -9  26 1433.63  681.65
  -3  -9  27   63.30  422.34
  -3   9 -27  374.14  659.36
  -3  -9 -27 -304.23  610.68
   3   9 -27 1431.71  607.71
  -3   9  27  -38.32  401.26
   3  -9  27 1754.94  627.65
  -3  -9  28  173.23  682.13
  -3   9 -28  845.58  425.02
  -3  -9 -28   73.91  605.60
  -3   9  28   56.95  384.85
   3  10   027323.64 1407.31
   3 -10   028309.72 1694.52
  -3  10   029737.67 1363.34
  -3 -10   029518.53 1459.75
   3  10   1 9956.30  802.88
  -3 -10   110744.70  696.79
  -3  10  -110928.11  724.50
   3 -10  -110377.99  696.44
  -3 -10  -111015.56  648.83
   3 -10   1 9962.12  642.66
  -3  10   110281.17  631.93
   3  10  -110500.35  817.78
   3  10   214317.85  847.27
  -3 -10   214741.93  911.76
  -3  10  -213518.96  859.12
   3 -10  -214470.35 1101.59
  -3 -10  -213407.05  720.85
   3  10  -214132.15  795.76
   3 -10   213482.08  995.06
  -3  10   213323.68  722.97
   3  10   311648.04  898.86
  -3 -10   312107.96  699.29
  -3  10  -311756.36  817.32
   3 -10  -311728.39  991.88
  -3 -10  -3 9504.90  532.70
   3 -10   311803.42  758.85
  -3  10   310525.86  593.25
   3  10  -311932.12  882.04
   3  10   4 1587.09  253.17
  -3 -10   4  985.16  322.48
  -3  10  -4 1307.78  321.16
   3 -10  -4  851.61  142.28
   3 -10  -4 1945.34  297.52
  -3 -10  -4 1339.48  169.25
   3  10  -4 1852.33  264.35
   3 -10   4 1389.06  416.14
  -3  10   4 1173.62  169.26
   3  10   534515.12 1998.47
   3  10   529259.72 1388.61
  -3 -10   533691.66 1853.52
  -3  10  -534450.19 1909.15
   3 -10  -528048.24 1275.71
   3 -10  -534040.27 2078.60
  -3 -10  -532000.22 1385.97
   3 -10   528734.70 1523.72
  -3  10   532562.61 1374.93
   3  10  -532131.73 1637.81
   3  10   6 3328.59  363.09
   3  10   6 2468.62  205.39
  -3 -10   6 2278.80  414.79
  -3  10  -6 2068.64  287.30
   3 -10  -6 2667.92  219.48
   3 -10  -6 3328.71  412.09
  -3 -10  -6 2673.92  238.25
   3  10  -6 2993.97  476.21
   3 -10   6 3742.73  524.70
  -3  10   6 2557.11  214.50
   3  10   730431.47 1360.52
   3  10   732516.73 1980.62
  -3 -10   733909.01 1812.17
  -3  10  -732295.33 1891.68
   3 -10  -731207.81 2059.77
   3 -10  -729240.71 1209.83
   3  10  -734651.73 1925.33
  -3 -10  -732642.42 1379.31
   3 -10   735419.61 1963.78
  -3  10   730875.36 1188.91
   3  10   8 1004.62  136.49
   3  10   8  700.24  250.24
  -3 -10   8  854.47  356.57
  -3  10  -8  636.12  228.67
   3 -10  -8  747.09   83.69
   3 -10  -8 1045.24  292.68
  -3 -10  -8  784.63  100.20
  -3 -10  -8   67.17  222.09
   3  10  -8 1144.50  372.96
   3 -10   8  615.88  364.65
  -3  10   8  780.22   81.45
   3  10   911715.22  566.66
   3  10   911249.57  473.64
  -3 -10   912042.07  806.19
  -3  10  -912129.11  979.41
  -3 -10  -913000.17 1065.57
   3  10  -913404.40  954.70
   3 -10   912781.91  788.00
  -3  10   912790.74 1034.66
   3  10  10 4943.41  263.20
  -3 -10  10 5662.18  680.84
  -3  10 -10 5144.45  675.49
   3  10 -10 5759.33  595.24
   3 -10  10 4847.86  435.65
  -3  10  10 5779.86  499.00
  -3 -10 -10 5352.72  512.32
  -3 -10  1110971.61  817.26
  -3  10 -1111881.61 1042.47
   3  10 -1111458.80  881.90
  -3 -10 -1112444.18 1066.44
   3 -10  1112024.60  932.59
  -3  10  1111430.03  985.84
  -3 -10  1211572.45  834.99
  -3  10 -1210006.21  793.32
  -3 -10 -12 9018.14  730.36
   3  10 -1210272.95  826.29
   3 -10  12 8374.79  809.29
  -3  10  1210751.13  958.66
  -3 -10  13 8668.81  913.56
  -3  10 -13 7970.44  727.10
   3  10 -13 7691.78  577.02
  -3 -10 -13 7280.09  886.07
   3 -10  13 7916.44  768.20
  -3  10  13 8015.62  662.75
  -3 -10  14 6163.46  826.38
  -3  10 -14 6372.83  642.50
  -3 -10 -14 5905.91  802.61
   3  10 -14 7209.26  715.66
   3 -10  14 5482.29  681.78
  -3  10  14 5665.17  779.47
  -3 -10  15 1680.99  523.11
  -3  10 -15 1173.77  350.44
  -3 -10 -15 1399.36  334.61
   3 -10  15 1224.60  283.19
  -3  10  15  996.60  507.15
   3  10 -15 1454.82  433.60
  -3 -10  16 2719.12  661.52
  -3  10 -16 2891.41  455.37
  -3 -10 -16 3206.83  621.70
   3  10 -16 2623.32  546.35
   3 -10  16 3572.42  605.21
  -3  10  16 3094.81  632.42
  -3 -10  17 4982.02  831.00
  -3  10 -17 4436.53  629.18
  -3 -10 -17 4914.07  812.95
   3  10 -17 4205.37  481.00
   3 -10  17 5223.02  549.23
  -3  10  17 6512.89  656.23
  -3 -10  18 1643.56  604.97
  -3  10 -18 1390.31  610.91
  -3 -10 -18 1452.60  561.95
   3  10 -18 1004.35  505.70
   3 -10  18 1465.90  528.62
  -3  10  18 1558.76  394.62
  -3 -10  1913642.40 1489.02
  -3  10 -1914410.48 1523.51
   3  10 -1916442.24 1128.25
  -3 -10 -1916826.95 1291.97
   3 -10  1916737.27 1414.56
  -3  10  1915831.06 1456.13
  -3 -10  20 2234.00  750.04
  -3  10 -20 2821.24  762.88
   3  10 -20 2856.19  433.03
   3 -10  20 3150.81  464.06
  -3  10  20 2629.99  669.49
  -3 -10  21 3200.35  581.09
  -3  10 -21 3904.34  641.90
  -3 -10 -21  -37.90  732.97
   3 -10  21 5355.58  802.59
  -3  10  21 3602.03  762.52
   3  10 -21 5354.89  775.42
  -3 -10  22  420.35  220.21
  -3  10 -22 -335.88  209.09
  -3 -10 -22  -96.00  325.09
   3  10 -22   60.86  316.65
   3 -10  22   28.77  299.15
  -3  10  22   -1.57  320.99
  -3 -10  23 2387.24  509.42
  -3  10 -23 2089.52  748.63
   3  10 -23 2196.57  707.66
  -3 -10 -23   16.48  684.53
   3 -10  23 2061.65  673.18
  -3  10  23 2389.45  729.73
  -3 -10  24   24.01  547.64
  -3  10 -24  219.03  532.98
  -3 -10 -24  176.20  494.36
   3  10 -24  441.48  481.09
  -3  10  24 1067.88  509.44
   3 -10  24   18.71  289.59
  -3 -10  25 -124.79  697.60
  -3  10 -25 1193.04  440.00
  -3 -10 -25  122.25  646.74
   3  10 -25 1754.82  643.23
   3 -10  25 1170.97  417.90
  -3  10  25  618.70  629.48
  -3 -10  26  -78.25  360.06
  -3  10 -26  839.81  583.00
  -3 -10 -26  -81.44  516.97
   3  10 -26  205.55  515.29
   3 -10  26  415.03  321.84
  -3  10  26  -88.52  528.00
  -3 -10  27   27.73  390.56
  -3  10 -27  769.71  660.58
  -3 -10 -27 -196.55  573.96
   3  10 -27 1022.03  570.77
   3 -10  27  274.30  354.10
  -3  10  27 -176.93  577.67
   3  11   0 6306.85  696.38
  -3  11   0 6335.86  539.86
   3 -11   0 6262.39  520.54
  -3 -11   0 6620.40  549.52
   3  11   141176.51 2089.24
  -3 -11   142327.21 2166.89
  -3  11  -144600.59 2268.74
   3 -11  -141544.74 2436.19
   3 -11   142714.68 2397.56
  -3  11   143129.22 2117.09
   3  11  -139681.44 2039.89
  -3 -11  -142044.96 2059.28
   3  11   217075.08 1150.77
  -3 -11   216166.87 1004.79
  -3  11  -216637.23  929.96
   3 -11  -214896.86  941.12
  -3 -11  -215636.70  844.96
   3  11  -215811.37 1087.34
   3 -11   215572.48  937.18
  -3  11   215565.40  855.87
   3  11   3 4057.35  394.46
  -3 -11   3 3788.41  452.30
  -3  11  -3 3295.90  453.95
   3 -11  -3 4737.65  637.00
   3  11  -3 4393.51  545.14
   3 -11   3 4602.47  431.87
  -3  11   3 4649.18  361.36
  -3 -11  -3 4166.11  345.47
   3  11   4 2307.02  434.06
  -3 -11   4 2036.51  269.93
  -3  11  -4 2253.04  376.15
   3 -11  -4 1786.76  495.33
  -3 -11  -4 1586.33  209.78
   3  11  -4 1779.61  275.14
   3 -11   4 1664.97  453.31
  -3  11   4 2102.71  221.67
   3  11   5 4660.92  432.82
  -3 -11   5 4479.12  537.42
  -3  11  -5 4745.74  554.34
   3 -11  -5 5268.27  690.73
  -3 -11  -5 5574.77  347.50
   3 -11   5 4908.87  439.72
  -3  11   5 4930.64  307.43
   3  11  -5 4521.80  398.14
   3  11   6 2685.87  462.26
  -3 -11   6 2035.83  286.28
  -3  11  -6 2204.09  289.81
   3 -11  -6 1767.84  173.44
   3 -11  -6 1581.73  521.05
  -3 -11  -6 2100.66  200.90
   3  11  -6 2444.32  426.73
   3 -11   6 2142.87  296.36
  -3  11   6 1973.44  210.13
   3  11   710246.88  737.90
  -3 -11   711067.60  737.42
  -3  11  -7 9527.92  845.44
   3 -11  -710526.52 1007.19
   3 -11  -7 9703.21  519.21
  -3 -11  -710659.28  538.48
   3 -11   711051.52  882.93
  -3  11   710193.39  484.80
   3  11  -710646.78  846.89
   3  11   812010.73 1032.18
  -3 -11   812884.72 1005.91
  -3  11  -813122.01  842.86
   3 -11  -812626.32  915.49
   3 -11  -812335.44  592.92
  -3 -11  -811974.42  574.27
   3  11  -812086.77  905.91
   3 -11   811487.68  919.30
  -3  11   813144.76  592.67
   3  11   9 4637.24  281.85
  -3 -11   9 4122.36  618.89
  -3  11  -9 5049.89  651.62
   3 -11  -9 3781.92  200.93
   3  11  -9 4357.67  566.61
  -3 -11  -9 3811.80  450.96
   3 -11   9 4854.13  592.63
  -3  11   9 4551.18  443.72
   3  11  10 8518.91  415.28
  -3 -11  10 9595.65  912.14
  -3  11 -10 9690.56  913.69
  -3 -11 -1010251.13  972.00
   3  11 -10 9937.80  823.99
   3 -11  1010238.44  839.15
  -3  11  1010566.66  750.71
   3  11  11 9323.15  487.68
  -3 -11  11 9080.78  742.97
  -3  11 -1110342.82  804.01
  -3 -11 -1110318.88 1027.26
   3  11 -1110974.09  754.03
   3 -11  11 9925.08  863.84
  -3  11  11 9146.27  927.74
  -3 -11  12 4667.24  672.88
  -3  11 -12 3451.90  473.04
  -3 -11 -12 2936.14  433.08
   3  11 -12 4281.52  417.32
   3 -11  12 3842.76  431.01
  -3  11  12 4436.40  476.59
  -3 -11  1314025.46 1303.17
  -3  11 -1317684.39 1449.55
  -3 -11 -1316169.71 1365.70
   3 -11  1315197.33  966.38
  -3  11  1316411.29 1144.94
   3  11 -1315461.13 1132.92
  -3 -11  14 1655.50  370.64
  -3  11 -14 1927.27  559.08
  -3 -11 -14 2365.48  589.59
   3  11 -14 2324.09  346.64
   3 -11  14 1972.22  528.29
  -3  11  14 3012.61  577.89
  -3 -11  15 1577.23  373.76
  -3  11 -15 2451.92  574.02
   3  11 -15 2911.45  503.75
  -3 -11 -15 2191.39  365.07
   3 -11  15 1755.66  327.43
  -3  11  15 1240.40  545.79
  -3 -11  16 4434.05  571.15
  -3  11 -16 4851.05  818.87
  -3 -11 -16 4322.45  765.59
   3  11 -16 3751.22  443.55
   3 -11  16 5538.38  726.78
  -3  11  16 4669.58  571.41
  -3 -11  17 6695.60  759.71
  -3  11 -17 9741.51 1158.77
  -3 -11 -1710046.48 1069.05
   3 -11  17 9712.68  980.97
  -3  11  17 8396.19  797.07
   3  11 -17 8986.47  920.88
  -3 -11  18 3079.75  522.29
  -3  11 -18 3714.70  793.20
  -3 -11 -18 2672.56  693.84
   3  11 -18 3459.06  435.05
   3 -11  18 4134.93  702.38
  -3  11  18 4584.20  774.67
  -3 -11  19 6830.80  794.26
  -3  11 -19 9093.61  918.23
  -3 -11 -19 7321.59  803.42
   3  11 -19 9145.83  956.25
   3 -11  19 8362.79  758.96
  -3  11  19 8657.67 1064.42
  -3 -11  20 5151.43  703.69
  -3  11 -20 6481.00  799.36
  -3 -11 -20 6615.19  997.69
   3  11 -20 7276.94  896.42
   3 -11  20 6681.95  908.60
  -3  11  20 5431.71  895.60
  -3 -11  21  425.24  354.38
  -3  11 -21  441.11  355.23
   3  11 -21 1265.49  497.16
  -3 -11 -21  -70.00  480.89
   3 -11  21  906.11  508.17
  -3  11  21  341.45  511.67
  -3 -11  22 1497.68  739.55
  -3  11 -22 1443.13  713.92
  -3 -11 -22  100.64  671.71
   3  11 -22 2979.95  464.57
   3 -11  22 3739.76  501.80
  -3  11  22 1485.80  708.55
  -3 -11  23  494.72  557.58
  -3  11 -23  554.16  564.13
  -3 -11 -23  -60.74  494.64
   3  11 -23  154.35  305.44
   3 -11  23  595.55  310.90
  -3  11  23  462.62  505.79
  -3 -11  24 1537.61  786.37
  -3  11 -24 1533.15  770.75
  -3 -11 -24   -4.83  687.07
   3  11 -24 3052.35  743.65
   3 -11  24 2332.18  717.24
  -3  11  24 2437.33  713.08
  -3 -11  25   54.57  645.84
  -3  11 -25  684.44  400.30
  -3 -11 -25  150.13  592.16
   3  11 -25 1507.59  579.78
   3 -11  25  487.87  573.93
  -3  11  25 -205.12  562.33
  -3 -11  26  281.58  460.55
  -3  11 -26 1541.57  721.99
  -3 -11 -26 -205.53  647.65
   3  11 -26 1301.85  645.83
   3 -11  26 1216.77  639.04
  -3  11  26   25.26  628.43
  -3  11 -27  722.40  650.56
  -3 -11 -27 -243.32  348.81
   3  11 -27  947.16  566.06
   3 -11  27  403.51  585.82
  -3  11  27   -0.77  550.54
   3  12   0  371.78  169.93
  -3  12   0   29.45  189.27
   3 -12   0   68.13  187.01
  -3 -12   0   30.77  192.86
   3  12   115117.86 1077.11
  -3 -12   116394.46  989.74
   3 -12  -117009.69 1202.11
  -3  12  -116536.35  998.73
  -3 -12  -117247.08  966.12
   3  12  -114220.47  860.55
  -3  12   116374.21  934.12
   3  12   2 3806.87  381.77
  -3 -12   2 3374.75  427.78
  -3  12  -2 3513.07  350.49
   3 -12  -2 3288.72  579.58
  -3 -12  -2 4282.47  397.21
   3  12  -2 4035.04  539.17
  -3  12   2 3832.09  380.75
   3 -12   2 3495.17  400.92
   3  12   3 3456.75  526.42
  -3 -12   3 2808.38  425.63
  -3  12  -3 2661.90  434.33
   3 -12  -3 3290.20  580.67
   3  12  -3 3454.90  504.56
  -3 -12  -3 3894.38  349.97
  -3  12   3 3269.13  318.56
   3 -12   3 3434.45  386.68
   3  12   415086.04  925.76
  -3 -12   417460.96  994.51
  -3  12  -417283.72 1131.44
   3 -12  -416531.15 1271.35
  -3 -12  -416160.99  863.31
   3  12  -416295.54  961.37
   3 -12   417837.99 1264.48
  -3  12   416987.98  876.39
   3  12   5 2267.08  509.20
  -3 -12   5 2457.03  422.13
  -3  12  -5 1844.48  433.25
   3 -12  -5 2210.03  354.92
   3  12  -5 2140.02  313.16
  -3  12   5 2695.91  320.33
   3 -12   5 2158.19  483.02
  -3 -12  -5 2627.23  261.45
   3  12   6 8673.52  829.25
  -3 -12   6 9093.58  811.15
  -3  12  -6 8972.81  676.83
   3 -12  -6 7733.22  912.74
  -3 -12  -6 8996.61  520.27
   3  12  -6 9267.04  640.35
   3 -12   6 8641.62  638.26
  -3  12   6 9128.42  496.40
   3  12   7 1832.74  299.03
  -3 -12   7  954.12  282.24
  -3  12  -7 1089.94  397.17
   3 -12  -7 1628.56  318.90
  -3 -12  -7 1118.05  255.05
   3 -12   7 1000.15  282.00
  -3  12   7 1436.69  165.53
   3  12  -7  537.49  258.44
   3  12   814189.57 1142.01
  -3 -12   812632.03  859.26
  -3  12  -813371.04 1103.93
   3 -12  -814174.99 1221.37
  -3 -12  -813216.61  687.48
   3  12  -812105.85  810.42
  -3  12   813065.92  604.48
   3 -12   814252.19  912.68
   3  12   9  365.70  254.10
  -3 -12   9  353.36  338.49
  -3  12  -9  587.36  354.75
   3 -12  -9  -37.14  261.25
   3  12  -9  331.87  214.78
   3 -12   9  421.69  219.69
  -3 -12  -9  340.48  128.07
   3  12  1020427.71  983.99
  -3 -12  1020068.10 1284.98
  -3  12 -1019487.83 1303.67
  -3 -12 -1021267.36 1588.83
   3  12 -1020489.07 1218.46
  -3  12  1021062.45 1492.65
   3 -12  1019843.42 1207.36
  -3 -12  1122698.45 1638.62
  -3  12 -1121943.68 1630.72
   3  12 -1122782.25 1483.35
  -3 -12 -1122087.92 1425.48
  -3  12  1123796.32 1726.41
   3 -12  1122156.24 1473.17
  -3 -12  12 1145.05  521.00
  -3  12 -12 1851.01  542.93
  -3 -12 -12 1654.85  528.81
   3  12 -12 2401.19  483.90
   3 -12  12 1467.54  481.03
  -3  12  12 2325.47  387.15
  -3 -12  13 2650.31  418.83
  -3  12 -13 2212.40  441.46
  -3 -12 -13 3016.39  605.65
   3 -12  13 3115.97  544.78
  -3  12  13 3472.92  629.69
   3  12 -13 3375.34  383.70
  -3 -12  14 2106.43  565.65
  -3  12 -14  833.28  367.50
  -3 -12 -14 1239.61  338.90
   3  12 -14 2054.92  449.81
  -3  12  14 1434.67  526.82
   3 -12  14 1883.12  315.09
  -3 -12  15 1725.51  541.88
  -3  12 -15  877.54  340.31
  -3 -12 -15 1280.08  531.10
   3  12 -15  975.11  280.67
  -3  12  15 1534.14  514.65
   3 -12  15  910.30  462.75
  -3 -12  16 2040.74  597.26
  -3  12 -16 1393.28  406.33
  -3 -12 -16 1625.41  587.60
   3  12 -16 2859.36  540.75
   3 -12  16 1620.18  336.20
  -3  12  16 2473.51  395.83
  -3 -12  17 4864.31  832.74
  -3  12 -17 4779.05  673.02
  -3 -12 -17 4527.69  825.95
   3  12 -17 4068.82  509.38
   3 -12  17 4672.84  740.02
  -3  12  17 5065.26  811.41
  -3 -12  18 2047.40  678.19
  -3  12 -18 1429.39  462.23
  -3 -12 -18 1861.37  421.38
   3  12 -18 1936.31  586.20
   3 -12  18 2240.31  402.63
  -3  12  18 2508.34  629.88
  -3 -12  19 2985.46  751.41
  -3  12 -19 3169.59  554.11
  -3 -12 -19 2260.04  686.43
   3 -12  19 1535.64  649.63
  -3  12  19 2267.47  696.47
   3  12 -19 3131.16  650.13
  -3 -12  20 7615.34 1174.30
  -3  12 -20 8840.15 1017.33
   3  12 -20 9650.11  844.27
  -3  12  20 9877.82 1229.89
  -3 -12 -2010265.50 1203.06
   3 -12  2010562.57 1132.60
  -3 -12  21   91.18  603.00
  -3  12 -21  927.75  627.28
  -3 -12 -21   49.34  540.53
  -3  12  21  999.86  566.03
   3  12 -21 1084.26  550.18
   3 -12  21 1365.53  359.83
  -3 -12  22 2873.99  823.26
  -3  12 -22 2656.37  830.61
  -3 -12 -22    9.29  734.99
   3  12 -22 4467.78  782.66
   3 -12  22 3329.24  831.50
  -3  12  22 4099.08  579.38
  -3 -12  23 1066.63  557.40
  -3  12 -23 1131.89  558.42
  -3 -12 -23   42.63  283.98
   3 -12  23   16.83  495.41
  -3  12  23  104.02  298.45
   3  12 -23   49.28  487.49
  -3 -12  24 1470.17  785.26
  -3  12 -24 1131.09  499.42
  -3 -12 -24 1650.72  451.04
   3  12 -24 1798.89  688.74
   3 -12  24 2223.74  724.32
  -3  12  24 2088.00  455.90
  -3 -12  25  189.88  399.17
  -3  12 -25  585.92  418.37
  -3 -12 -25  444.68  362.78
   3  12 -25 1649.22  622.93
   3 -12  25  638.28  602.90
  -3  12  25  295.39  355.87
  -3 -12  26  -12.67  396.29
  -3  12 -26  896.34  653.03
  -3 -12 -26 -118.09  350.30
   3  12 -26 1016.79  586.26
   3 -12  26  407.95  581.86
  -3  12  26  467.51  346.20
   3  13   0 8532.47  620.08
   3 -13   0 9878.50  916.84
  -3  13   0 9962.73  611.07
  -3 -13   0 9222.83  686.04
  -3 -13   1 3765.80  473.11
  -3  13  -1 3413.65  439.60
   3  13   1 4681.92  594.82
   3 -13  -1 3697.06  436.67
  -3 -13  -1 3806.84  421.82
   3  13  -1 5026.05  606.55
  -3  13   1 3609.77  306.54
   3 -13   1 3560.52  587.64
  -3 -13   2 8412.08  698.52
   3  13   2 8422.34  823.67
  -3  13  -2 8219.43  570.31
   3 -13  -2 8601.43  875.88
  -3 -13  -2 8661.07  630.68
   3  13  -2 9023.49  792.38
  -3  13   2 8708.53  613.64
   3 -13   2 7545.05  609.28
  -3 -13   310224.45  656.31
  -3  13  -3 9757.36  775.86
   3  13   3 8828.35  643.01
   3 -13  -3 8553.76  694.18
  -3 -13  -310465.53  670.48
   3  13  -310140.69  841.09
  -3  13   310070.46  626.97
   3 -13   3 9470.37  688.95
   3  13   4 4697.41  639.18
  -3  13  -4 5057.26  588.82
   3 -13  -4 4718.21  703.36
  -3 -13   4 4409.77  558.25
  -3 -13  -4 5959.17  453.93
   3  13  -4 5760.17  471.97
   3 -13   4 4814.61  665.81
  -3  13   4 5311.05  413.61
  -3 -13   5 4391.09  562.36
   3 -13  -5 3853.20  653.79
  -3  13  -5 3656.16  556.23
   3  13   5 4939.10  463.99
  -3 -13  -5 4686.53  459.67
   3  13  -5 4296.15  419.12
  -3  13   5 4295.98  339.31
   3 -13   5 4762.67  650.75
   3  13   6 4569.17  450.06
  -3 -13   6 4399.07  575.00
  -3  13  -6 4398.77  609.78
   3 -13  -6 3867.50  475.07
  -3 -13  -6 3966.98  346.10
   3  13  -6 3839.71  404.63
  -3  13   6 4610.73  327.79
   3 -13   6 4442.48  621.92
   3  13   719294.19 1358.08
  -3 -13   718940.93 1320.33
  -3  13  -717730.37 1119.35
   3 -13  -719130.57 1507.15
  -3 -13  -719043.24  978.32
   3  13  -717508.77 1038.59
  -3  13   719268.02  926.39
   3 -13   718055.20 1293.11
   3  13   8 8778.12  695.07
   3 -13  -8 7301.98  701.22
  -3 -13   8 7673.96  652.43
  -3  13  -8 6953.77  795.83
  -3 -13  -8 9368.66  549.50
   3  13  -8 8156.30  607.88
   3 -13   8 9262.64  846.47
  -3 -13   9 3639.40  612.61
  -3  13  -9 3186.69  432.71
   3 -13  -9 4095.46  749.91
   3  13   9 3435.86  647.43
   3  13  -9 4383.75  610.17
   3 -13   9 5204.31  658.20
   3  13  1011437.98  582.22
  -3  13 -10 9192.70  998.77
  -3 -13  1011513.53 1085.95
  -3 -13 -1010774.32  886.18
   3  13 -1010301.24  959.07
   3 -13  1012142.87 1005.53
  -3  13  1010568.78  827.13
  -3 -13  11 1883.43  551.13
  -3  13 -11 1537.89  362.12
  -3 -13 -11 2208.36  390.85
   3  13 -11 2245.01  510.99
   3 -13  11 2031.01  352.44
  -3  13  11 2943.65  425.31
  -3 -13  12 6533.30  841.78
  -3  13 -12 6291.63  648.90
   3  13 -12 6197.70  547.11
  -3  13  12 6575.51  858.81
  -3 -13 -12 7835.46  936.84
   3 -13  12 7241.73  603.51
  -3 -13  13 2369.55  597.95
  -3  13 -13 2262.54  630.11
  -3 -13 -13 2600.46  423.54
   3  13 -13 2917.27  557.41
   3 -13  13 2341.77  558.96
  -3  13  13 2055.17  610.62
  -3 -13  14  800.98  304.83
  -3  13 -14 1077.72  479.39
  -3 -13 -14  515.28  292.48
   3  13 -14  729.82  278.57
   3 -13  14  221.79  429.18
  -3  13  14  907.45  319.42
  -3 -13  15 3745.28  522.18
  -3  13 -15 3613.81  760.75
  -3 -13 -15 2120.86  720.99
   3  13 -15 5239.41  693.66
  -3  13  15 3882.57  526.92
   3 -13  15 3490.39  461.77
  -3  13 -1610313.51 1214.84
  -3 -13  16 8262.56  841.39
   3  13 -16 9253.31  762.54
  -3  13  1611155.91 1173.02
   3 -13  16 8727.86  977.69
  -3 -13 -1610312.93 1147.34
  -3 -13  17 2657.04  748.08
  -3  13 -17 4718.45  835.05
  -3 -13 -17 3150.31  539.99
   3  13 -17 4550.12  701.23
   3 -13  17 3417.25  490.13
  -3  13  17 4700.79  800.52
  -3 -13  18 1706.11  667.53
  -3  13 -18 1445.06  665.84
  -3 -13 -18 1348.53  594.40
   3  13 -18 1712.02  382.36
   3 -13  18 2018.19  585.90
  -3  13  18 2166.01  636.23
  -3 -13  19 4382.85  913.89
  -3  13 -19 4837.94  965.48
  -3 -13 -19 3754.04  794.29
   3  13 -19 4861.95  541.77
  -3  13  19 4380.57  612.16
   3 -13  19 5050.83  843.65
  -3  13 -20  439.62  560.48
  -3 -13  20   45.22  539.07
  -3 -13 -20  361.22  483.11
   3  13 -20  230.84  494.31
  -3  13  20  849.70  316.37
   3 -13  20  592.20  322.43
  -3 -13  21 3495.27  924.97
  -3  13 -21 2476.84  888.89
  -3 -13 -21 5867.39  713.19
   3  13 -21 7087.11  973.90
  -3  13  21 7291.85  783.96
   3 -13  21 6886.57 1027.33
  -3 -13  22  907.87  506.69
  -3  13 -22  -50.62  482.63
  -3 -13 -22   19.88  259.10
   3  13 -22  298.10  283.01
  -3  13  22 -101.66  260.69
   3 -13  22  431.46  468.08
  -3 -13  23 2319.07  777.91
  -3  13 -23 1204.79  482.57
  -3 -13 -23 1524.89  673.27
   3  13 -23 2151.79  487.46
  -3  13  23 1459.94  669.51
   3 -13  23 2585.98  725.13
  -3 -13  24  667.59  417.59
  -3  13 -24  250.00  417.17
  -3 -13 -24  962.71  592.98
   3  13 -24  604.48  400.01
  -3  13  24 1339.99  609.22
   3 -13  24 1377.07  635.59
  -3 -13  25  282.13  386.35
  -3  13 -25  520.68  394.78
  -3 -13 -25  573.81  560.28
   3  13 -25  321.64  361.03
   3 -13  25  470.33  367.95
  -3  13  25  323.24  560.52
   3  13 -26  162.29  318.74
  -3  13  26  -16.94  507.21
   3 -13  26   72.75  329.71
  -3  14   027016.26 1518.72
   3 -14   027218.45 1761.98
  -3 -14   028905.70 1602.04
   3  14   025788.33 1427.89
   3  14   1 3656.84  398.52
  -3 -14   1 4144.39  475.60
  -3  14  -1 3584.51  337.09
   3 -14  -1 4139.14  450.70
  -3 -14  -1 3983.43  449.28
   3  14  -1 3407.51  558.41
  -3  14   1 3546.57  424.84
   3  14   2 3316.67  572.58
  -3 -14   2 3764.05  482.37
   3 -14  -2 3159.55  601.91
  -3  14  -2 3713.46  475.20
   3  14  -2 4082.70  575.17
  -3 -14  -2 4230.93  430.58
  -3  14   2 3471.98  401.13
   3  14   3 4296.85  596.42
  -3 -14   3 4074.83  525.84
   3 -14  -3 3230.57  640.19
  -3  14  -3 3237.27  513.00
  -3 -14  -3 4734.05  440.87
   3  14  -3 3367.93  539.90
   3 -14   3 3877.35  450.40
  -3  14   3 4247.16  408.84
   3  14   4 9432.36  710.27
  -3 -14   410468.52  852.87
   3 -14  -4 9820.63  782.59
  -3  14  -4 9532.09  826.44
   3  14  -4 9866.83  911.95
  -3 -14  -410575.58  711.29
  -3  14   4 9558.19  629.33
   3 -14   410009.47  746.14
   3  14   512830.26 1109.18
  -3 -14   512404.42  989.84
  -3  14  -511860.16  983.28
   3 -14  -511737.41 1127.19
  -3 -14  -512286.32  754.97
   3  14  -511074.72 1003.20
   3 -14   511649.88  827.90
  -3  14   512060.02  709.73
   3  14   6 6065.60  799.89
  -3 -14   6 5949.19  703.96
  -3  14  -6 5994.12  749.83
   3 -14  -6 5889.37  840.63
  -3  14   6 5981.87  535.93
   3 -14   6 6214.09  543.87
  -3 -14  -6 6209.34  466.75
   3  14  -6 7055.95  771.72
   3  14   716972.96 1143.80
  -3 -14   717226.80 1332.21
   3 -14  -717833.99 1256.15
  -3  14  -716481.97 1332.36
  -3 -14  -718728.98 1131.95
   3  14  -714041.94 1180.66
   3 -14   724828.98 1376.48
  -3  14   716600.87  876.28
   3  14   8 3939.86  709.92
  -3 -14   8 3716.40  639.91
  -3  14  -8 3124.75  429.84
   3 -14  -8 4682.08  781.62
   3  14  -8 4429.35  663.42
   3 -14   8 4495.94  478.28
   3  14   921602.42 1389.45
  -3 -14   921334.32 1375.11
   3 -14  -920624.63 1707.45
  -3  14  -920750.16 1599.62
   3  14  -922587.36 1569.03
   3 -14   919898.44 1264.36
   3  14  10 2301.49  363.51
  -3 -14  10 1995.94  569.66
   3 -14 -10 1753.89  424.36
  -3  14 -10 1748.92  368.00
  -3 -14 -10   94.92  324.42
   3 -14  10 1391.93  328.20
   3  14 -10 1560.76  336.10
  -3 -14  11 9284.71 1041.09
  -3  14 -11 9700.33 1045.17
  -3 -14 -1110326.12 1129.70
   3  14 -11 9574.22  735.89
  -3  14  1110502.55 1082.15
   3 -14  11 9744.05  947.61
  -3 -14  12 4503.54  780.08
  -3  14 -12 3968.15  719.25
   3  14 -12 3944.09  664.32
   3 -14  12 4140.71  696.44
  -3 -14 -12 3696.12  518.20
  -3  14  12 3911.75  687.62
  -3 -14  13 5571.06  667.09
  -3  14 -13 6688.51  699.32
  -3 -14 -13 8317.04  986.71
   3  14 -13 6109.74  583.28
   3 -14  13 7062.37  626.57
  -3  14  13 6998.85  681.60
  -3 -14  1420593.14 1786.50
  -3  14 -1423432.05 1606.75
   3  14 -1420268.75 1507.37
   3 -14  1419967.89 1546.98
  -3  14  1422074.85 1763.63
  -3 -14  15 1336.46  638.31
  -3  14 -15 1518.57  632.68
  -3 -14 -15 2034.41  623.06
   3  14 -15 2054.88  363.01
   3 -14  15 1829.97  586.28
  -3  14  15 1870.78  617.22
  -3 -14  16  614.54  383.74
  -3  14 -16  792.12  587.72
  -3 -14 -16  818.22  353.81
   3  14 -16 1737.28  504.58
   3 -14  16  844.70  499.71
  -3  14  16 1351.93  563.00
  -3 -14  17  356.49  301.87
  -3  14 -17  511.10  492.27
  -3 -14 -17  -97.80  439.39
   3  14 -17  -33.13  282.55
  -3  14  17  164.71  280.45
   3 -14  17  780.63  274.32
  -3 -14  18 2044.41  493.42
  -3  14 -18 1570.39  783.27
   3  14 -18 2693.40  655.64
  -3 -14 -18 1664.21  631.27
  -3  14  18 2189.57  474.63
   3 -14  18 2958.89  645.74
  -3 -14  19  558.65  401.45
  -3  14 -19  690.63  637.30
  -3 -14 -19 1473.04  578.13
   3  14 -19 1319.43  566.37
  -3  14  19 1366.99  407.57
   3 -14  19 1505.94  404.70
  -3 -14  20  600.54  429.56
  -3  14 -20  946.69  749.04
   3  14 -20 3017.30  459.56
  -3 -14 -20 1540.58  407.25
  -3  14  20 2385.49  683.48
   3 -14  20 1916.98  666.80
  -3 -14  21 2058.66  602.03
  -3  14 -21 1834.89  839.99
  -3 -14 -21 3440.43  787.37
   3  14 -21 3359.37  516.58
  -3  14  21 4038.79  754.34
   3 -14  21 3054.94  830.99
  -3 -14  22  840.29  373.53
  -3  14 -22  267.13  368.79
  -3 -14 -22   68.79  496.42
   3  14 -22  684.28  537.43
  -3  14  22  173.37  514.58
   3 -14  22  120.34  544.32
  -3 -14  23 1667.19  574.72
  -3  14 -23 1107.66  521.61
  -3 -14 -23 1001.73  695.65
   3  14 -23 2423.01  791.11
   3 -14  23 3292.31  556.86
  -3  14  23 1528.74  691.78
  -3 -14  24  403.37  363.33
  -3  14 -24   19.80  348.90
  -3 -14 -24   53.55  495.64
   3  14 -24   89.07  522.49
   3 -14  24  210.74  330.38
  -3  14  24  448.07  511.62
  -3 -14 -25 1207.89  469.57
   3  14 -25 1659.29  804.69
  -3  14  25 2998.91  778.56
   3 -14  25 1897.31  810.29
   3  15   0 1209.98  298.37
  -3 -15   0 1329.18  228.64
  -3  15   0 1597.79  352.76
   3 -15   0 1656.70  509.56
   3  15   110554.01  761.79
  -3 -15   110456.92  858.57
   3 -15  -110863.80  815.81
  -3  15  -110201.94  858.70
  -3 -15  -1 9501.10  605.34
   3  15  -111183.05  998.62
  -3  15   1 9963.29  645.16
   3  15   2 4923.90  699.12
  -3 -15   2 6194.83  652.32
  -3  15  -2 5898.82  628.47
   3 -15  -2 5811.83  554.58
   3  15  -2 4937.48  674.01
   3 -15   2 5612.93  749.10
  -3  15   2 5590.61  396.76
  -3 -15  -2 5283.84  521.61
   3  15   313750.68 1109.09
  -3 -15   312749.75  994.00
   3 -15  -311735.32 1144.99
  -3  15  -313643.57  878.93
  -3 -15  -313323.87  895.72
   3  15  -312289.35 1052.06
   3 -15   312418.81  877.74
  -3  15   312625.91  831.23
   3  15   4 6293.08  556.73
  -3 -15   4 6990.00  566.94
  -3  15  -4 5846.53  498.58
   3 -15  -4 5657.79  824.36
  -3 -15  -4 5892.42  509.15
  -3  15   4 5822.08  491.79
   3 -15   4 5912.36  552.38
  -3 -15   5 5053.64  650.84
   3  15   5 5003.82  492.18
  -3  15  -5 4153.44  443.90
   3 -15  -5 4243.74  518.03
  -3 -15  -5 4694.74  454.80
   3 -15   5 3925.32  469.39
  -3  15   5 4511.51  405.88
   3  15   6 3921.50  631.20
  -3 -15   6 3681.97  581.21
  -3  15  -6 4011.52  453.36
   3 -15  -6 3221.37  693.01
  -3 -15  -6 2868.77  375.92
   3  15  -6 3193.45  597.14
   3 -15   6 3363.12  431.11
  -3  15   6 3202.87  330.63
   3  15   7 4092.21  695.72
  -3 -15   7 3816.90  449.72
   3 -15  -7 4256.36  756.58
  -3  15  -7 3458.93  628.91
   3  15  -7 3327.30  592.06
  -3 -15  -7 3668.63  395.78
   3 -15   7 3187.92  435.26
   3  15   8 5556.40  592.56
  -3 -15   8 6993.38  611.12
   3 -15  -8 7016.35  696.11
  -3  15  -8 5834.07  794.78
   3  15  -8 5975.73  552.67
   3 -15   8 6727.15  783.31
  -3 -15   9 3134.53  597.97
  -3  15  -9 1716.57  384.05
   3  15   9 2830.30  629.91
   3 -15  -9 3601.73  725.10
   3  15  -9 4269.13  460.90
   3 -15   9 2997.24  590.33
   3  15  10 5923.01  841.36
  -3 -15  10 5868.00  814.11
   3 -15 -10 6229.39  930.15
  -3  15 -10 6432.60  834.54
   3  15 -10 5122.59  734.70
   3 -15  10 5292.82  776.79
  -3 -15  11 9943.34 1093.54
  -3  15 -1110144.39  884.45
   3  15 -1110761.69 1026.18
  -3 -15 -1110664.37  921.03
   3 -15  11 9755.71  804.32
  -3  15  1110363.13  860.14
  -3 -15  12  218.06  416.05
  -3  15 -12  395.53  267.65
  -3 -15 -12  483.73  447.52
   3  15 -12  169.92  249.97
   3 -15  12  241.66  260.60
  -3  15  12  264.04  272.54
  -3 -15  1311226.18 1250.64
  -3  15 -1311223.70 1302.68
   3  15 -1313058.49 1184.90
   3 -15  1310745.85 1116.68
  -3 -15 -1311394.22 1264.63
  -3  15  1312878.90 1311.85
  -3 -15  14 1370.42  397.03
  -3  15 -14 1484.20  625.97
  -3 -15 -14  761.47  350.22
   3  15 -14 1704.62  364.16
   3 -15  14 1529.99  375.81
  -3  15  14 1301.15  610.08
  -3 -15  15 4627.42  853.32
  -3  15 -15 4862.25  703.31
   3  15 -15 5974.33  807.74
  -3 -15 -15 5721.50  925.78
   3 -15  15 4818.35  791.50
  -3  15  15 4425.90  607.15
  -3 -15  16  279.83  544.62
  -3  15 -16  901.07  392.03
  -3 -15 -16  546.20  527.15
   3  15 -16 1280.02  322.59
   3 -15  16  334.74  317.64
  -3  15  16  685.01  338.70
  -3 -15  17 1992.78  758.34
  -3  15 -17 2470.82  557.37
  -3 -15 -17 2804.97  674.39
   3  15 -17 2417.07  684.78
  -3  15  17 3180.05  739.82
   3 -15  17 2093.06  662.76
  -3 -15  18 2219.11  555.54
  -3  15 -18 1773.48  531.32
  -3 -15 -18 2811.95  525.68
   3  15 -18 3817.66  714.56
  -3  15  18 2309.73  739.64
   3 -15  18 3287.96  511.09
  -3 -15  19 1328.80  476.59
  -3  15 -19 1063.37  483.21
   3  15 -19 2710.71  450.04
  -3 -15 -19 1771.42  671.54
  -3  15  19 2322.44  709.94
   3 -15  19 3072.13  737.86
  -3 -15  20 1929.54  520.79
  -3  15 -20 1415.53  482.27
  -3 -15 -20 2263.54  671.73
   3  15 -20 4294.17  722.70
   3 -15  20 -217.11  702.53
  -3  15  20 1974.93  659.59
  -3 -15  21  464.80  380.51
  -3  15 -21  394.89  377.07
  -3 -15 -21  660.61  504.01
   3  15 -21 1276.82  546.59
   3 -15  21  128.10  339.02
  -3  15  21  384.09  316.63
  -3 -15  22 1319.39  470.04
  -3  15 -22  277.08  427.92
  -3 -15 -22 1404.46  579.53
   3  15 -22 1841.43  667.82
  -3  15  22 1485.80  396.91
   3 -15  22 -160.57  399.97
  -3 -15  23  189.30  314.00
  -3  15 -23 -146.57  303.99
  -3 -15 -23   97.94  245.64
   3  15 -23  135.58  455.46
   3 -15  23   45.10  463.15
  -3  15  23   40.77  257.66
  -3 -15  24  132.20  394.67
  -3  15 -24   84.68  374.77
  -3 -15 -24  361.19  323.07
   3  15 -24  301.57  361.03
  -3  15  24  605.23  338.24
   3 -15  24 -167.25  593.16
  -3 -16   011677.97  897.15
   3  16   011503.38  808.66
  -3  16   011962.53  901.02
   3  16   1 7871.98  646.03
  -3 -16   1 8951.30  789.65
  -3  16  -110168.20  653.82
   3 -16  -1 8501.05  734.94
  -3 -16  -1 9152.68  741.61
   3  16  -1 8505.40  663.97
  -3  16   1 8686.92  710.03
   3  16   2 3655.01  447.28
  -3  16  -2 3959.35  548.76
   3 -16  -2 4030.63  486.27
  -3 -16   2 4006.66  407.97
  -3 -16  -2 3372.56  468.00
   3  16  -2 3571.79  609.29
  -3  16   2 2956.71  434.57
  -3 -16   3 4022.97  577.46
   3 -16  -3 4696.44  744.81
  -3  16  -3 2848.42  518.71
   3  16   3 3478.99  634.57
  -3 -16  -3 3993.75  465.10
   3  16  -3 3688.09  613.96
   3 -16   3 4659.76  707.55
  -3  16   3 4055.86  462.98
  -3 -16   4 9844.25  898.03
   3  16   4 8460.33  909.45
   3 -16  -410194.38 1072.13
  -3  16  -410359.31  928.34
  -3 -16  -4 9332.23  710.38
   3  16  -4 8109.29  853.34
   3 -16   4 8360.10  936.45
  -3  16   4 8059.83  640.89
   3  16   5  885.35  274.66
  -3 -16   5  665.15  383.95
   3 -16  -5  745.58  327.03
  -3  16  -5  444.14  378.26
  -3 -16  -5  355.50  275.53
   3  16  -5  540.09  436.99
   3 -16   5  716.24  469.42
  -3  16   5  259.78  226.57
  -3 -16   610894.18 1048.76
   3  16   611309.98  866.68
  -3  16  -6 9561.62  978.55
   3 -16  -611000.25  900.37
  -3 -16  -611926.37  832.80
   3  16  -610387.92  799.26
  -3 -16   7 1028.53  461.79
   3 -16  -7 1146.36  566.11
   3  16   7  974.91  506.26
  -3  16  -7  924.13  455.07
   3  16  -7 1058.36  334.98
   3 -16   7 1136.10  487.06
   3  16   810324.72 1068.59
  -3 -16   8 9471.81  992.82
  -3  16  -8 9279.94  791.19
   3 -16  -810730.65 1191.45
   3  16  -8 9767.45  791.21
   3 -16   8 9216.94  991.12
   3  16   9 4840.55  556.07
  -3 -16   9 6526.46  625.54
  -3  16  -9 4872.77  796.05
   3 -16  -9 5541.27  677.39
   3  16  -9 5217.35  771.31
   3 -16   9 5298.70  559.17
   3  16  1010810.85 1123.96
   3 -16 -1011684.71 1023.48
  -3 -16  1010009.30 1115.77
  -3  16 -1010712.30  939.40
   3  16 -1010517.81 1083.44
   3 -16  1011777.52  914.45
  -3 -16  11 4583.77  801.92
  -3  16 -11 4049.53  803.75
   3  16 -11 5777.81  573.47
   3 -16  11 4953.60  786.76
  -3 -16 -11 4157.00  578.77
  -3  16 -12 8941.75  874.77
  -3 -16  12 8856.08  910.92
  -3 -16 -1212638.69 1052.57
   3  16 -12 9930.39 1048.13
   3 -16  1211308.89 1127.95
  -3  16  1210721.71 1181.48
  -3 -16  13 4379.23  818.74
  -3  16 -13 4866.74  683.43
  -3 -16 -13 4775.49  867.20
   3  16 -13 4080.31  539.56
   3 -16  13 4906.07  553.02
  -3  16  13 4923.59  603.53
  -3 -16  14 1762.11  633.43
  -3  16 -14 1642.15  631.33
  -3 -16 -14  807.31  603.84
   3  16 -14 1937.71  602.18
   3 -16  14 1790.70  605.79
  -3  16  14 1248.95  405.99
  -3 -16  15 2522.75  508.43
  -3  16 -15 2913.06  758.23
  -3 -16 -15 2976.04  776.59
   3  16 -15 2963.56  447.65
  -3  16  15 2914.02  754.69
   3 -16  15 2306.35  451.68
  -3 -16  16  449.63  341.23
  -3  16 -16  549.06  558.54
  -3 -16 -16  643.44  333.66
   3  16 -16  477.75  504.72
   3 -16  16  224.40  506.17
  -3  16  16  795.62  524.94
  -3 -16  17  628.04  668.34
  -3  16 -17  825.21  449.03
  -3 -16 -17 1696.71  671.00
   3  16 -17 2424.83  410.72
   3 -16  17 1423.33  395.54
  -3  16  17 1744.04  662.27
  -3  16 -18 1405.10  497.79
  -3 -16  18 1468.28  751.61
  -3 -16 -18 1410.68  698.30
   3  16 -18 2641.95  450.72
  -3  16  18 3168.97  531.70
   3 -16  18 -177.33  693.36
  -3 -16  19 1014.41  676.59
  -3  16 -19 1469.76  449.74
  -3 -16 -19 1582.71  585.79
   3  16 -19 2368.31  602.84
   3 -16  19 -293.22  622.68
  -3  16  19 -188.10  404.28
  -3  16 -20 1718.65  585.43
  -3 -16  20 2753.00  938.61
  -3 -16 -20 2314.82  477.08
   3  16 -20 4665.36  827.70
  -3  16  20 3461.52  771.89
   3 -16  20 3159.23  539.92
  -3 -16  21  462.27  434.17
  -3  16 -21   13.74  376.71
  -3 -16 -21  446.12  319.97
   3  16 -21  908.45  354.23
  -3  16  21 1301.25  542.02
   3 -16  21   -5.07  356.96
  -3 -16  22 1793.03  613.99
  -3  16 -22 1187.66  553.37
  -3 -16 -22 2388.97  711.87
   3  16 -22 2567.01  514.48
   3 -16  22 -162.69  800.99
  -3  16  22 3086.40  743.79
  -3 -16  23  382.10  434.87
  -3  16 -23  551.42  420.74
  -3 -16 -23  514.92  544.40
   3  16 -23  700.53  602.13
  -3  16  23  215.86  569.04
   3 -16  23   24.05  611.59
  -3 -17   014756.75 1121.97
   3  17   012600.98  900.41
  -3  17   013374.77  853.77
   3 -17   013632.94  999.12
   3  17   1 2321.28  378.26
  -3 -17   1 2251.66  318.82
   3 -17  -1 2551.19  408.38
  -3  17  -1 2317.71  462.40
  -3  17   1  824.07  402.07
   3 -17   1 1874.99  593.20
   3  17  -1 2525.10  392.19
  -3 -17  -1 2809.18  466.82
   3  17   211870.04  873.57
  -3 -17   214678.30 1149.79
   3 -17  -212588.47  962.79
  -3  17  -215234.36  993.61
  -3 -17  -212360.31  933.59
   3  17  -212518.70  919.80
  -3  17   213127.03  963.32
   3 -17   213959.57 1232.51
   3  17   3 1431.76  515.55
  -3 -17   3 1928.84  307.73
  -3  17  -3  470.00  269.57
   3 -17  -3 1974.29  591.20
   3 -17   3 1222.20  548.61
  -3  17   3 1488.31  331.72
   3  17  -3 1554.99  332.56
  -3 -17  -3 1098.56  371.11
   3  17   4 5771.89  801.78
  -3 -17   4 6307.70  757.99
   3 -17  -4 6184.22  915.22
  -3  17  -4 6632.13  743.99
  -3 -17  -4 7049.31  628.99
   3  17  -4 6111.56  596.44
  -3  17   4 6365.32  584.76
   3 -17   4 7616.06  876.76
   3  17   5  279.79  427.42
  -3 -17   5  243.29  370.05
  -3  17  -5  295.77  385.19
   3 -17  -5  980.46  494.96
   3  17  -5  478.54  251.25
   3 -17   5  479.27  455.02
  -3 -17  -5  363.91  272.58
   3  17   6 1923.07  370.37
  -3 -17   6  908.99  510.15
   3 -17  -6 2455.14  418.24
  -3  17  -6  696.80  314.80
   3  17  -6 1884.39  335.67
   3 -17   6 1859.23  376.89
   3  17   715468.65 1095.04
  -3 -17   716207.50 1350.51
   3 -17  -716467.59 1214.16
  -3  17  -717442.64 1364.81
   3 -17   714739.18 1046.95
   3  17  -716782.66 1330.62
   3  17   8 1618.79  584.89
  -3 -17   8 1725.60  364.70
  -3  17  -8 1716.14  562.37
   3 -17  -8 1328.82  659.08
   3  17  -8 1840.24  544.42
   3 -17   8 2102.89  606.54
   3  17   9 3547.15  686.66
  -3 -17   9 2453.77  652.50
  -3  17  -9 1421.02  426.18
   3 -17  -9 3392.82  829.32
   3 -17   9 3653.81  679.52
   3  17  -9 4025.19  473.32
   3  17  10 5225.23  596.58
  -3 -17  10 5033.42  829.15
  -3  17 -10 4647.04  786.44
   3 -17 -10 4654.46  643.28
   3  17 -10 4603.49  533.89
   3 -17  10 4647.41  796.25
   3  17  11 2081.47  409.00
  -3 -17  11 2197.13  428.50
  -3  17 -11 2028.96  419.98
   3 -17 -11 1748.10  468.23
  -3 -17 -11   26.81  374.24
   3 -17  11 2158.05  404.41
   3  17 -11 2604.52  595.98
  -3 -17  12 4527.89  904.05
  -3  17 -12 6125.82  940.72
   3  17 -12 5667.90  619.46
  -3  17  12 6597.61  967.90
   3 -17  12 5966.51  882.64
  -3 -17 -12 6826.59 1003.31
  -3 -17  13  874.26  358.65
  -3  17 -13 1066.15  376.75
  -3 -17 -13  801.98  591.30
   3  17 -13  844.15  520.15
  -3  17  13  396.99  595.39
   3 -17  13 1263.84  551.28
  -3 -17  14 7816.93 1150.14
  -3  17 -14 6464.90  841.13
  -3 -17 -14 9659.50  976.52
   3  17 -14 7946.80  760.09
  -3  17  14 8477.53 1174.33
   3 -17  14 8545.37 1053.52
  -3 -17  15 1028.02  576.88
  -3  17 -15  498.10  551.68
  -3 -17 -15  119.51  517.15
   3 -17  15  478.27  528.84
  -3  17  15  303.10  339.52
   3  17 -15  498.97  520.42
  -3 -17  16 3313.39  606.74
  -3  17 -16 1619.19  902.72
   3  17 -16 4667.21  601.48
  -3  17  16 5348.80  710.50
   3 -17  16 5662.30  891.64
  -3 -17 -16 5204.71  923.70
  -3 -17  17 -130.15  334.68
  -3  17 -17  405.39  539.61
   3  17 -17 1250.50  482.97
  -3 -17 -17 1205.74  519.69
   3 -17  17  -57.13  314.96
  -3  17  17  -78.06  525.68
  -3 -17  18 2117.23  772.63
  -3  17 -18 1542.10  790.80
  -3 -17 -18 2174.09  472.27
   3  17 -18 2129.37  680.81
  -3  17  18  -15.45  721.19
   3 -17  18 -168.49  679.19
  -3 -17  19  619.39  651.09
  -3  17 -19 1173.73  447.27
  -3 -17 -19 1621.62  569.40
  -3  17  19 -168.77  591.82
   3 -17  19   -5.55  377.07
  -3 -17  20 1516.55  787.72
  -3  17 -20 1029.81  528.49
  -3 -17 -20 1527.43  651.60
   3  17 -20 2563.26  453.50
   3 -17  20  -22.69  448.15
  -3  17  20 2297.54  687.10
  -3 -17  21 3735.43 1071.65
  -3  17 -21 2231.01  650.40
  -3 -17 -21 2778.06  802.98
   3  17 -21 6999.69  976.59
   3 -17  21   32.84  929.24
  -3  17  21 3789.91  568.84
  -3 -17  22  329.41  664.49
  -3  17 -22  141.99  420.39
  -3 -17 -22  637.63  549.06
   3  17 -22  416.09  599.46
  -3  17  22  624.60  357.23
   3 -17  22   23.86  637.63
   3  18   0 2286.47  342.77
  -3  18   0 1432.04  423.86
   3 -18   0 1362.29  367.41
  -3 -18   0 1066.69  444.86
   3  18   1  768.01  275.44
  -3 -18   1  621.03  249.48
  -3  18  -1  708.65  365.45
   3 -18  -1  429.03  316.13
   3 -18   1  761.84  299.30
  -3  18   1  398.75  316.94
   3  18  -1  642.11  285.71
  -3 -18  -1  498.11  349.22
   3  18   2  -95.40  370.53
  -3 -18   2  202.72  334.09
  -3  18  -2  148.21  315.35
   3 -18  -2 -115.94  433.63
  -3 -18  -2  345.40  185.34
   3  18  -2  442.84  247.04
   3 -18   2   44.07  240.98
  -3  18   2  203.95  265.92
   3  18   3 7087.04  897.71
  -3 -18   3 7765.80  854.50
  -3  18  -3 7780.50  834.80
   3 -18  -3 6850.56  974.45
   3  18  -3 8436.13  718.08
  -3 -18  -3 7546.49  564.03
   3 -18   3 7833.08  684.96
  -3  18   3 8165.86  714.93
   3  18   4 3460.23  666.76
  -3 -18   4 3899.03  473.72
  -3  18  -4 3801.85  445.63
   3 -18  -4 3996.80  797.27
  -3 -18  -4 2844.12  331.62
   3  18  -4 3199.64  634.77
   3 -18   4 3038.79  464.79
   3  18   5 4792.70  754.92
  -3 -18   5 4618.83  515.07
  -3  18  -5 3679.60  661.51
   3 -18  -5 4850.37  869.41
   3 -18   5 4653.82  565.05
   3  18  -5 4316.62  707.45
  -3 -18   6 1282.95  333.40
  -3  18  -6 1285.14  506.39
   3 -18  -6 1143.18  419.26
   3  18   6 1481.35  370.36
   3  18  -6  911.41  516.29
   3 -18   6 1885.67  605.38
   3  18   7 5825.26  641.27
  -3 -18   7 5315.45  606.89
  -3  18  -7 5093.17  779.25
   3 -18  -7 6275.88  719.17
   3 -18   7 6386.23  862.73
   3  18  -7 5840.74  603.00
   3  18   8 1304.34  600.14
  -3 -18   8 1165.98  582.28
  -3  18  -8 1589.04  363.18
   3 -18  -8 1600.30  668.32
   3  18  -8 1096.19  327.80
   3 -18   8 1825.56  563.20
   3  18   9  243.42  437.02
  -3 -18   9 -154.66  422.19
  -3  18  -9  -14.61  423.95
   3 -18  -9  275.32  508.41
   3  18  -9  213.33  404.79
   3 -18   9  479.28  277.21
  -3 -18  10  270.35  291.93
  -3  18 -10  155.17  441.89
   3 -18 -10  310.48  558.45
   3  18  10  208.38  471.82
   3  18 -10  691.86  443.79
   3 -18  10  252.33  467.63
   3  18  11 4986.11  643.21
  -3 -18  11 4656.21  885.84
  -3  18 -11 5347.87  919.93
   3 -18 -11 5627.10  754.71
   3 -18  11 5670.33  881.98
   3  18 -11 5626.58  627.86
  -3 -18  12 2834.93  520.08
  -3  18 -12 3200.90  543.12
  -3 -18 -12 3585.16  814.08
   3  18 -12 2137.95  690.43
   3 -18  12 2841.05  482.64
  -3  18  12 3860.37  564.32
  -3 -18  13 -150.37  496.50
  -3  18 -13  328.44  497.72
   3  18 -13  377.58  285.64
  -3 -18 -13  300.21  525.99
   3 -18  13  156.14  470.15
  -3  18  13  259.33  519.14
  -3 -18  14 3251.82  610.64
  -3  18 -14 3791.29  637.74
   3  18 -14 4142.48  805.17
   3 -18  14 4773.07  582.63
  -3  18  14 5521.51  947.15
  -3 -18 -14 4021.89  924.10
  -3 -18  15   55.04  569.81
  -3  18 -15  -70.82  346.78
  -3 -18 -15  338.98  350.63
   3 -18  15  926.26  530.80
  -3  18  15 1207.13  599.50
   3  18 -15  652.45  322.16
  -3 -18  16 -311.74  669.16
  -3  18 -16  -83.77  661.67
  -3 -18 -16 1587.93  462.66
   3  18 -16 2171.90  621.32
   3 -18  16 1498.88  435.22
  -3  18  16 -121.27  691.93
  -3 -18  17 -129.97  293.26
  -3  18 -17 -180.08  452.25
  -3 -18 -17  -57.88  434.53
   3  18 -17 1571.57  427.60
   3 -18  17 -377.95  432.90
  -3  18  17 -180.55  301.76
  -3 -18  18 -102.26  411.55
  -3  18 -18  582.17  677.35
  -3 -18 -18 1262.35  609.00
   3  18 -18 2181.46  388.10
   3 -18  18 -144.46  386.70
  -3  18  18  -17.07  437.44
  -3 -18  19 3056.95  850.99
  -3  18 -19 1727.06  852.45
  -3 -18 -19 1869.61  712.67
   3  18 -19 5023.01  763.90
   3 -18  19  128.15  776.48
  -3  18  19 -143.60  503.91
  -3 -18  20 1284.55  812.27
  -3  18 -20 1650.46  808.07
  -3 -18 -20 1518.84  423.49
   3  18 -20  947.49  694.03
   3 -18  20 -102.59  718.00
  -3  18  20 -176.25  704.67
  -3 -18  21 2297.54  954.85
  -3  18 -21 1479.20  600.82
  -3 -18 -21 1905.33  759.23
   3  18 -21 3307.99  832.61
   3 -18  21  -32.82  829.43
  -3  18  21 2695.30  809.13
   3  19   0  131.46  343.60
  -3  19   0  -93.87  266.44
   3 -19   0 -196.73  372.36
  -3 -19   0  -61.35  281.15
   3  19   1 2045.43  542.13
  -3 -19   1  940.94  476.57
  -3  19  -1 1485.17  296.21
   3 -19  -1 1659.31  614.17
  -3 -19  -1 1026.58  446.88
   3  19  -1 1089.54  517.63
   3 -19   1 2258.10  630.07
  -3  19   1 1511.58  412.70
   3  19   2 2716.75  637.35
  -3 -19   2 2364.58  579.79
  -3  19  -2 3089.05  580.74
   3 -19  -2 2985.30  723.70
  -3 -19  -2 2962.17  381.61
   3  19  -2 3553.18  654.89
   3 -19   2 3746.25  697.95
  -3  19   2 2569.43  467.19
   3  19   3 2908.12  685.67
  -3 -19   3 3522.60  646.12
  -3  19  -3 2472.45  627.45
   3 -19  -3 3404.39  777.44
  -3 -19  -3 3045.45  552.98
   3  19  -3 3005.62  693.08
   3 -19   3 2666.12  752.85
   3  19   412144.78 1219.31
  -3 -19   414603.59 1260.24
  -3  19  -414085.49 1255.51
   3 -19  -415621.26 1501.00
   3  19  -413356.91 1204.38
   3  19   5 5623.56  856.48
  -3 -19   5 6273.99  850.96
  -3  19  -5 5320.45  808.40
   3 -19  -5 7391.02 1045.35
   3  19  -5 4881.04  777.44
   3  19   6 6646.72  918.73
  -3 -19   6 6156.50  894.23
  -3  19  -6 6614.97  884.43
   3 -19  -6 6296.70  732.63
   3 -19   6 7268.03  960.81
   3  19  -6 6766.35  643.23
   3  19   7  475.72  301.16
  -3 -19   7  429.79  457.70
  -3  19  -7  456.72  274.38
   3 -19  -7  524.19  347.31
   3  19  -7  182.69  287.95
   3 -19   7  608.67  306.45
   3  19   8 3421.16  517.36
  -3 -19   8 3156.09  727.66
  -3  19  -8 3062.08  493.96
   3 -19  -8 3118.55  560.42
   3 -19   8 3770.99  523.58
   3  19  -8 3803.78  698.73
  -3 -19   9  -16.41  264.43
  -3  19  -9  547.24  435.98
   3 -19  -9  467.31  546.22
   3  19   9  243.34  464.67
   3  19  -9  380.71  420.86
   3 -19   9   94.69  453.04
   3  19  10  691.96  833.51
  -3 -19  10 3581.50  797.84
  -3  19 -10 3892.42  570.92
   3 -19 -10 2924.46  891.22
   3  19 -10 3935.86  510.23
   3 -19  10 2936.55  762.71
   3  19  11 1574.46  678.98
  -3 -19  11 1526.36  639.26
  -3  19 -11  284.06  630.92
   3 -19 -11 1683.38  778.62
   3  19 -11 1818.95  592.90
   3 -19  11 1461.45  440.13
  -3 -19  12  702.96  380.71
  -3  19 -12 1100.54  367.20
  -3 -19 -12  826.15  396.20
   3 -19  12  223.55  565.15
  -3  19  12 1379.08  402.93
   3  19 -12  659.11  336.86
  -3 -19  13 1574.69  779.66
  -3  19 -13 1504.27  770.41
  -3 -19 -13 3238.73  853.20
   3  19 -13 2763.62  724.58
   3 -19  13 2981.08  521.37
  -3  19  13 3390.42  593.31
  -3 -19  14   22.18  555.17
  -3  19 -14  113.50  551.18
   3  19 -14  806.05  319.51
  -3 -19 -14  312.25  562.89
   3 -19  14  149.92  518.68
  -3  19  14   33.56  358.14
  -3  19 -15 3930.14  637.50
  -3 -19 -15  124.55  953.09
   3  19 -15 5818.53  925.33
   3 -19  15 5073.19  664.50
  -3  19  15 6306.26 1076.81
  -3  19 -16  -78.95  317.39
  -3 -19 -16  -14.91  520.66
   3  19 -16  818.10  486.39
   3 -19  16   40.04  495.91
  -3  19  16  349.87  568.85
  -3 -19  17 -464.45  647.70
  -3  19 -17 -275.69  620.26
  -3  19  17 -175.64  699.30
  -3 -19  18 -142.10  483.07
  -3  19 -18  -80.24  688.84
  -3 -19 -18 2322.61  683.18
   3  19 -18 2392.41  633.99
   3 -19  18  -18.10  659.58
  -3  19  18    3.23  729.69
  -3 -19  19   48.62  346.27
  -3  19 -19   28.53  574.67
  -3 -19 -19 1055.72  516.44
   3  19 -19  466.16  513.03
   3 -19  19  -17.07  531.12
  -3  19  19 -209.54  357.41
  -3 -19  20  166.47  590.53
  -3  19 -20  -88.01  583.51
  -3 -19 -20  782.01  519.25
   3  19 -20  496.93  339.55
   3 -19  20 -165.62  338.51
  -3  19  20  -91.50  339.68
   3  20   0 3297.49  699.03
  -3  20   0 3431.97  587.20
   3 -20   0 4786.52  795.18
  -3 -20   0 3177.31  621.96
  -3 -20   1  616.61  437.23
  -3  20  -1  402.03  241.37
   3 -20  -1  753.92  567.73
   3  20   1 1288.68  509.35
  -3 -20  -1  902.34  417.20
   3  20  -1  556.86  495.28
  -3  20   1  639.32  382.54
   3  20   2 1380.11  590.84
  -3  20  -2 2356.63  523.68
   3 -20  -2 1863.93  695.78
  -3 -20   2 1743.14  352.21
  -3 -20  -2 1235.71  482.38
   3  20  -2 1833.30  602.58
   3  20   310536.73 1131.65
  -3 -20   3 9429.74 1033.46
  -3  20  -3 8792.47  950.73
   3 -20  -3 9577.33 1186.17
   3  20  -3 8121.55  993.22
   3 -20   3 8442.03 1067.39
   3  20   4 4624.44  807.25
  -3  20  -4 3715.51  717.88
   3 -20  -4 4320.14  894.34
  -3 -20   4 4527.06  763.67
   3  20  -4 3661.44  507.78
   3 -20   4 3728.61  801.98
   3  20   5 4786.48  867.59
  -3 -20   5 4016.51  800.27
  -3  20  -5 3688.55  738.17
   3 -20  -5 5164.62  992.13
   3  20  -5 4272.73  551.38
   3 -20   5 4194.87  586.28
   3  20   610452.32 1217.28
  -3  20  -610201.27  912.18
   3 -20  -610966.95 1025.35
  -3 -20   6 9735.58 1191.29
   3  20  -611208.35 1162.90
   3 -20   610061.84  910.10
  -3 -20   7 3581.86  812.14
  -3  20  -7 4550.27  577.45
   3 -20  -7 4335.57  660.03
   3  20   7 3870.90  591.52
   3  20  -7 3119.02  757.01
   3 -20   7 5451.64  890.05
   3  20   8 3784.30  549.44
  -3  20  -8 2816.42  778.52
   3 -20  -8 3795.77  596.48
  -3 -20   8 3437.77  563.90
   3  20  -8 3987.55  536.78
   3 -20   8 3735.21  807.86
   3  20   9 1046.04  420.90
  -3 -20   9 1151.38  396.74
  -3  20  -9  205.56  577.75
   3 -20  -9 1397.34  482.92
   3  20  -9 1166.21  570.28
   3 -20   9 1541.51  432.83
   3  20  10 2927.54  842.19
  -3 -20  10 3332.45  822.73
  -3  20 -10 2910.61  806.98
   3 -20 -10 3186.55  967.84
   3  20 -10 4283.08  784.78
   3 -20  10 3693.80  795.52
  -3 -20  11 1524.65  456.67
  -3  20 -11 1650.09  730.24
   3 -20 -11  373.41  823.43
   3  20  11 2489.62  770.27
   3  20 -11 2896.98  457.88
   3 -20  11 1659.74  696.69
  -3  20 -12  233.90  667.03
  -3 -20  12  165.15  680.15
  -3 -20 -12 1993.38  482.91
   3  20 -12 1806.71  647.79
   3 -20  12 1652.79  433.20
  -3  20  12 1533.38  480.27
  -3 -20  13 2837.27  469.90
  -3  20 -13  -88.81  444.28
  -3 -20 -13 -122.65  471.50
   3  20 -13 2225.64  425.32
   3 -20  13  666.62  676.90
  -3  20  13 2320.74  776.61
  -3  20 -14  142.43  596.99
  -3 -20  14 -120.26  592.51
  -3 -20 -14   -6.49  644.04
   3  20 -14  484.59  546.09
   3 -20  14  279.65  359.96
  -3  20  14 1348.78  428.68
  -3 -20  15 3329.29  587.66
  -3  20 -15  -92.03  853.80
   3  20 -15 4102.10  595.69
   3 -20  15 2808.63  896.92
  -3  20  15 4602.91  722.17
  -3 -20 -15 -120.91  943.17
  -3  20 -16 -134.99  405.88
  -3 -20  16   44.80  642.65
  -3 -20 -16 1877.57  679.69
   3  20 -16  740.39  366.12
   3 -20  16  400.06  371.67
  -3  20  16  993.16  754.69
  -3 -20  17 -129.36  762.50
  -3  20 -17  -48.97  481.54
  -3 -20 -17 2186.53  763.99
   3  20 -17 1116.58  697.09
   3 -20  17 2229.87  512.21
  -3  20  17   68.36  881.42
  -3 -20  18 -159.94  679.70
  -3  20 -18   43.77  671.56
  -3 -20 -18  685.49  407.85
   3  20 -18 1261.50  412.39
   3 -20  18  -58.08  646.42
  -3  20  18 -232.22  753.31
  -3 -20  19 -136.64  334.01
  -3  20 -19  -62.07  530.10
  -3 -20 -19  344.19  298.32
   3  20 -19    0.76  304.25
   3 -20  19   54.99  310.48
  -3  20  19 -129.60  549.11
  -3  21   010155.22 1004.50
   3 -21   0 9337.38 1187.21
   3  21   0 9887.58 1096.82
  -3 -21   0 9767.81 1027.47
   3  21   1 1853.86  649.53
  -3 -21   1 2082.46  619.96
  -3  21  -1 1884.57  552.93
   3 -21  -1 2202.32  746.13
  -3 -21  -1 2431.09  394.02
   3  21  -1 1969.76  400.52
   3 -21   1 1400.54  700.09
   3  21   2 7612.62 1020.92
  -3 -21   2 7418.38  741.13
  -3  21  -2 6483.83  669.33
   3 -21  -2 7236.42 1098.39
   3 -21   2 6907.63  777.96
   3  21  -2 7786.78  766.39
  -3 -21   3 5098.07  814.09
  -3  21  -3 3338.08  504.32
   3 -21  -3 5539.98 1043.41
   3  21   3 4854.14  873.06
   3  21  -3 4871.74  572.49
   3 -21   3 5767.41  658.45
   3  21   4 7399.04  999.41
  -3 -21   4 5303.11  882.77
  -3  21  -4 5978.46  651.09
   3 -21  -4 7768.78 1157.62
   3 -21   4 5734.92  689.65
   3  21  -4 5272.17  871.83
   3  21   5 3257.29  802.58
  -3 -21   5 4383.15  814.79
  -3  21  -5 4527.54  565.11
   3 -21  -5 4449.02  652.13
   3  21  -5 3965.38  753.95
   3  21   6  777.79  371.74
  -3 -21   6 1139.64  560.20
  -3  21  -6  874.61  360.65
   3 -21  -6  579.25  416.59
   3  21  -6 1219.04  545.88
  -3 -21   7 5291.52  680.17
  -3  21  -7 5929.06  975.82
   3 -21  -7 9036.42  901.71
   3  21   7 6050.26  714.00
   3  21  -7 6406.04  698.60
   3 -21   7 6362.21  708.95
   3  21   8  109.10  276.80
  -3 -21   8   24.52  272.81
  -3  21  -8   68.09  428.09
   3 -21  -8 -110.65  329.04
   3  21  -8  317.98  419.46
   3 -21   8  262.13  284.93
   3  21   9 5498.76  702.02
  -3 -21   9 4983.50  939.11
  -3  21  -9 4410.34  644.65
   3 -21  -9 4258.98  698.77
   3  21  -9 4219.24  812.78
   3  21  10 2920.16  795.55
  -3 -21  10 1489.88  769.73
  -3  21 -10 1703.42  749.20
   3 -21 -10  135.20  910.02
   3  21 -10 2305.64  471.25
   3 -21  10 2926.12  505.38
   3  21  11 1648.52  723.88
  -3 -21  11 1553.45  464.80
  -3  21 -11 1271.73  437.87
   3 -21 -11  -70.21  828.72
   3  21 -11 2394.12  669.68
   3 -21  11 1744.85  731.84
  -3 -21  12 3389.14  889.61
  -3  21 -12  250.66  793.12
  -3 -21 -12  -66.65  591.25
   3 -21  12 4699.51  834.71
  -3  21  12 1797.15  536.05
   3  21 -12 3727.81  547.31
  -3 -21  13  -48.83  336.38
  -3  21 -13  177.68  322.87
  -3 -21 -13  -78.97  372.10
   3  21 -13  541.23  487.73
   3 -21  13  294.95  326.33
  -3  21  13  497.22  593.06
  -3 -21  14 2280.94  929.47
  -3  21 -14    0.53  871.35
  -3 -21 -14 3826.76  675.86
   3  21 -14 3451.35  581.38
   3 -21  14 3507.09  913.89
  -3  21  14 4335.58 1099.19
  -3 -21  15 -102.15  640.41
  -3  21 -15   13.04  644.31
  -3 -21 -15  966.24  707.24
   3  21 -15  467.98  585.30
   3 -21  15  656.16  614.62
  -3  21  15  708.43  495.90
  -3 -21  16 -110.82  467.63
  -3  21 -16   17.46  451.68
  -3 -21 -16 1175.45  783.65
   3  21 -16  861.21  682.69
   3 -21  16 1690.76  453.17
  -3  21  16 1254.27  593.19
  -3 -21  17  117.24  672.81
  -3  21 -17  208.46  411.35
  -3 -21 -17  539.01  707.62
   3  21 -17  926.34  400.14
   3 -21  17  380.30  644.07
  -3  21  17  112.29  507.80
   3 -22   0 6343.95  746.68
   3  22   0 7152.70  721.00
  -3  22  -1  777.60  438.35
   3 -22  -1  872.49  374.19
   3  22   1  261.41  318.37
  -3 -22   1  271.38  461.88
   3 -22   1  593.08  356.72
   3  22  -1  -62.17  290.71
  -3  22  -2 3331.45  486.51
   3 -22  -2 3259.48  578.92
   3  22   2 4082.62  585.09
  -3 -22   2 3031.70  511.46
   3 -22   2 4806.39  849.02
   3  22  -2 4457.85  823.63
   3 -22  -310690.98 1071.93
   3  22   311222.04  955.61
  -3 -22   3 9299.00  877.54
   3  22  -310811.31 1188.87
  -3  22  -4 1328.65  429.21
   3 -22  -4 3403.09  599.40
   3  22   4 2314.74  486.25
  -3 -22   4 1985.10  695.35
   3  22  -4 2770.70  729.20
  -3  22  -5 5618.15  654.30
   3 -22  -5 6908.85  809.26
   3  22   5 5801.18  694.92
  -3 -22   5 4017.33  631.90
   3 -22   5 4637.58  709.05
   3  22  -5 6261.81  688.64
  -3  22  -6 6292.38  953.33
   3 -22  -6 6906.45  856.33
   3  22   6 5338.84  702.77
  -3 -22   6 5418.38  717.34
   3 -22   6 7191.83  784.02
   3  22  -6 6409.50  716.19
  -3  22  -7 7557.30 1110.18
   3 -22  -7 7896.59  965.19
   3  22   7 8829.71  893.69
  -3 -22   7 8578.68  889.28
   3 -22   7 9397.52 1198.33
   3  22  -7 7740.37 1053.30
  -3  22  -8 1835.02  701.20
   3 -22  -8 -143.85  561.97
   3  22   8 2728.77  525.62
  -3 -22   8 1600.61  715.46
   3 -22   8 2206.62  758.29
   3  22  -8 1911.19  440.07
  -3  22  -9 4135.56  633.45
   3 -22  -9 4729.09  755.59
   3  22   9 4983.21  701.84
  -3 -22   9 2463.08  883.43
   3 -22   9 4513.41  656.06
   3  22  -9 5351.17  914.70
  -3 -22  10 2134.10  510.40
  -3  22 -10 1218.58  773.42
   3 -22 -10  -23.62  930.14
   3  22  10 2798.25  810.26
   3  22 -10 2182.71  713.50
   3 -22  10 2792.47  788.66
  -3 -22  11 2973.12  910.73
  -3  22 -11 3329.08  616.49
   3 -22 -11 -292.27 1029.19
   3  22  11 3198.85  913.76
   3  22 -11 3779.91  568.37
   3 -22  11 3205.50  583.65
  -3 -22  12 1795.03  715.85
  -3  22 -12 1325.18  686.76
   3  22 -12 2089.03  638.03
   3 -22  12 1854.33  692.21
  -3  22  12 -219.74  436.01
  -3 -22 -12   93.95  486.87
  -3 -22  13 1822.70  840.13
  -3  22 -13  991.02  813.07
   3  22 -13 2002.19  462.73
   3 -22  13 2295.04  541.78
  -3  22  13 1980.97  964.28
  -3 -22 -13   36.10  918.97
  -3 -22  14  960.94  764.30
  -3  22 -14  519.95  476.80
   3  22 -14 1450.61  682.07
   3 -22  14 2046.15  745.49
  -3  22  14 1407.18  902.30
  -3 -22 -14  974.92  534.67
  -3 -22  15 1202.81  823.57
  -3  22 -15  639.15  804.50
   3  22 -15 1513.44  759.59
   3 -22  15 1247.01  503.52
  -3  22  15 2315.99 1051.43
  -3 -22 -15 1549.20  606.57
   3 -23   0  675.82  612.56
   3  23   0  175.34  529.99
   3 -23  -1 7466.52 1212.60
   3  23   1 9434.21  899.59
   3  23  -1 8276.68 1131.63
   3 -23  -2  129.99  355.07
  -3  23  -2  520.66  429.40
  -3 -23   2   93.17  274.01
   3  23   2  280.10  312.57
   3  23  -2   66.49  475.00
  -3  23  -3 5647.49  667.53
   3 -23  -3 7722.41  924.35
   3  23   3 7769.45  823.95
  -3 -23   3 4853.34  673.90
   3 -23   3 6852.31  810.77
   3  23  -3 7837.22  824.85
  -3  23  -4 2636.78  501.39
   3 -23  -4 4373.55  672.69
  -3 -23   4 3604.87  577.55
   3  23   4 3695.01  597.15
   3 -23   4 3519.31  588.48
   3  23  -4 3662.70  556.84
  -3  23  -5  983.02  581.30
   3 -23  -5  870.38  470.95
   3  23   5  764.66  379.74
  -3 -23   5  409.74  360.53
   3 -23   5  765.12  665.37
   3  23  -5  720.18  580.74
  -3 -23   6 5052.48  704.46
  -3  23  -6 4436.76  904.39
   3 -23  -6 5331.42  786.95
   3  23   6 4493.60  674.02
   3 -23   6 4632.00  984.85
   3  23  -6 4801.51  908.42
  -3  23  -7  -85.48  529.22
   3 -23  -7 1031.55  437.40
   3  23   7  426.22  381.95
  -3 -23   7   40.96  560.57
   3 -23   7  300.54  367.91
   3  23  -7  368.79  337.02
  -3 -23   8  -14.80  687.19
  -3  23  -8 1104.89  436.66
   3 -23  -8   30.46  520.64
   3  23   8 1616.67  453.04
   3 -23   8 1787.10  469.33
   3  23  -8 1441.78  652.81
  -3  23  -9 2687.58  760.32
   3 -23  -9  150.54  563.34
   3  23   9 2193.43  790.79
  -3 -23   9 -139.21  749.33
   3 -23   9 1042.34  748.79
   3  23  -9 2220.75  485.35
  -3  23 -10 3155.19  923.13
   3 -23 -10   53.89 1102.07
   3  23  10 3766.94  971.66
  -3 -23  10 2668.75  586.33
   3 -23  10 4336.80  636.83
   3  23 -10 3973.25  875.18
  -3  23 -11 1128.66  778.81
   3 -23 -11 -173.03  917.55
   3  23  11  -73.03  828.90
  -3 -23  11 1463.82  769.70
   3 -23  11 1505.23  751.35
   3  23 -11 3061.71  720.16
  -3  23 -12 1024.83  690.09
  -3 -23  12  283.22  436.03
   3 -23  12 1041.61  410.35
  -3  23  12  202.55  445.53
  -3 -23 -12   -5.57  477.72
   3  23 -12  528.02  381.10
  -3  23 -13 1396.43  887.00
  -3 -23  13 1434.56  890.38
  -3  23  13 1367.40 1043.52
  -3 -23 -13 3643.93 1069.17
   3 -24   0 1226.30  738.75
   3  24   0  468.95  641.46
   3  24   1  599.94  668.04
   3 -24   1 1023.49  490.20
   3  24  -1 1675.66  428.74
   3  24   2 1199.75  746.34
   3 -24   2 1652.50  532.72
   3  24  -2 2126.10  468.28
   3 -24  -3 2656.04  976.96
  -3 -24   3 1876.50  505.80
   3  24   3 2641.30  849.05
   3 -24   3 3454.11  854.63
   3  24  -3 3791.58  801.32
   3 -24  -4  631.09  853.74
  -3  24  -4 1065.87  652.58
   3  24   4 2274.56  750.86
  -3 -24   4 1448.66  460.36
   3 -24   4  950.25  764.73
   3  24  -4 1329.59  691.11
   3 -24  -5 2174.81  949.78
  -3  24  -5  -58.44  724.22
   3  24   5 3283.58  856.85
  -3 -24   5 2971.75  529.71
   3 -24   5 2378.09  864.48
   3  24  -5 2410.13  528.33
   3 -24  -6 4568.20 1100.29
   3  24   6 3178.09  949.82
   3 -24   6 3517.83  643.66
   3  24  -6 3641.00  595.76
   3 -24  -7 4418.55 1034.26
  -3  24  -7  -72.16  784.41
   3  24   7 2990.07  873.65
  -3 -24   7 -312.70  864.52
   3 -24   7 3235.35  899.97
   3  24  -7 3749.38  810.84
   3 -24  -8 -109.47 1025.25
  -3  24  -8 -101.03  533.08
   3  24   8 4549.30  905.80
  -3 -24   8 -259.24  841.91
   3 -24   8 4427.56  925.98
   3  24  -8 4303.06  568.12
   3 -24  -9  261.84  766.91
  -3  24  -9  632.29  632.76
   3  24   9  470.33  652.12
  -3 -24   9  -61.99  400.02
   3 -24   9  656.29  397.59
   3  24  -9  237.10  568.42
  -3  24 -10 1248.61  445.09
   3 -24 -10  -88.48  879.90
   3  24  10 -140.16  765.01
  -3 -24  10  -78.89  733.55
   3 -24 -11 -142.73  624.73
  -3  24 -11   96.47  511.16
   3  24  11 -103.17  543.18
  -3 -24  11  -91.73  517.92
   3 -25   0 1595.32  599.81
   3  25   0 2486.09  551.36
   3 -25  -1 1136.39  474.74
   3  25   1  397.70  391.16
   3 -25   1  626.33  728.98
   3  25  -1  510.78  642.43
   3 -25  -2 2653.87  650.78
   3  25   2 3037.53  880.98
   3 -25   2 1672.93  939.06
   3  25  -2 2546.62  822.09
   3 -25  -3  757.66  836.20
   3  25   3  773.34  731.68
   3 -25   3 1584.05  799.69
   3  25  -3 1364.20  710.87
   3 -25  -4 1107.22  860.23
   3  25   4  679.71  732.68
   3 -25   4 1067.58  481.42
   3  25  -4 1015.37  437.78
   3 -25  -5 1534.86  983.32
  -3  25  -5 -109.49  744.15
   3  25   5 2252.22  841.23
   3 -25   5 2612.99  836.56
   3  25  -5 2625.52  791.38
  -3  25  -6  -94.33  579.64
   3 -25  -6  800.10  764.67
   3  25   6  893.29  663.26
  -3 -25   6  -91.65  387.37
   3  25  -6 1080.29  588.07
  -3  25  -7 3299.55  579.87
   3 -25  -7 3486.46 1099.59
   3  25   7 4481.88 1021.68
  -3 -25   7 -112.87  926.57
  -4   0   047821.40 2245.92
  -4   0   043474.18 2006.19
  -4   0  -119410.49 1027.66
  -4   0  -121953.59 1230.33
  -4   0   120482.39 1150.27
  -4   0   121786.97 1145.58
  -4   0   2 1106.95  150.84
  -4   0  -2  716.79  299.37
  -4   0   2 1466.67  205.93
  -4   0  -2 1354.47  218.13
  -4   0  -3 2724.34  258.73
  -4   0  -3 2638.30  393.71
  -4   0   3 2957.48  283.99
  -4   0   3 3527.40  388.75
  -4   0   4  307.82  221.24
  -4   0  -4  128.80  117.05
  -4   0  -4   87.40  147.33
  -4   0   4  382.66  149.04
  -4   0  -510120.75  530.54
  -4   0  -511913.13  742.27
   4   0   513158.71  637.45
  -4   0   512530.99  846.15
   4   0  -513621.04  710.91
  -4   0  -6  189.71   95.02
   4   0   6  310.98  151.21
  -4   0   6    3.40  240.94
   4   0  -6  204.92  131.94
  -4   0  -6  349.50  159.30
  -4   0  -732340.87 1705.98
   4   0   732420.56 1393.90
  -4   0   734136.84 1958.95
   4   0  -733705.79 1501.98
  -4   0  -727286.37 1252.04
  -4   0  -8 6279.75  519.12
  -4   0  -8 6052.10  326.70
   4   0   8 7424.87  385.87
  -4   0   8 8665.60  725.23
   4   0  -8 7739.94  418.72
  -4   0  -918115.98 1111.05
  -4   0  -918047.35  838.39
   4   0   920486.82  902.66
  -4   0   921067.72 1182.11
   4   0  -916246.06  785.56
  -4   0 -10  294.89  331.37
  -4   0 -10  352.87  122.26
   4   0  10  492.26  128.82
  -4   0  10 1091.44  236.20
   4   0 -10  592.33  137.65
  -4   0 -1136210.91 2328.87
   4   0  1140674.33 1908.48
  -4   0  1137149.62 2282.05
   4   0 -1140321.27 1784.53
  -4   0 -1221523.96 1549.16
   4   0  1221357.21  995.54
  -4   0  1223720.32 1593.94
   4   0 -1223224.53 1023.80
  -4   0 -13 1520.20  313.25
   4   0  13 1158.28  180.88
  -4   0  13 1529.28  298.23
   4   0 -13 1744.34  188.62
   4   0 -14  200.15  153.54
  -4   0 -14  103.96  199.27
   4   0  14   97.16  111.39
  -4   0  14  -67.89  174.92
   4   0  15  531.79  148.42
  -4   0  15   67.27  382.97
   4   0 -15  355.22  145.54
  -4   0 -15  831.87  402.45
  -4   0 -16  411.07  359.03
   4   0  16   81.05  182.52
  -4   0  16  360.48  342.56
   4   0 -16   87.39  172.43
  -4   0 -17 2435.68  463.07
   4   0  17 3193.00  354.93
  -4   0  17 3487.26  490.57
   4   0 -17 4163.76  351.36
  -4   0 -18 3596.16  531.70
  -4   0  18 3272.93  699.53
  -4   0 -1910375.33 1228.34
  -4   0  19 7397.37 1010.79
  -4   0 -20 3058.09  737.84
  -4   0  20 3076.72  524.33
  -4   0 -21  953.74  367.89
  -4   0  21  849.25  601.03
  -4   0 -22  797.16  575.61
  -4   0  22  201.65  583.80
  -4   0 -23  843.80  677.25
  -4   0  23 1612.93  438.87
  -4   0 -24 -241.18  319.79
  -4   0 -25 1157.63  717.55
  -4   0 -26  426.07  451.08
  -4   0  26 -157.90  298.34
  -4   0 -28  413.84  800.35
  -4   0  28 1341.82  535.74
  -4   0 -29   44.79  563.17
  -4  -1   066792.13 3097.10
  -4  -1   074529.47 3441.50
  -4   1   070343.79 3348.32
  -4   1   064795.33 2975.96
  -4  -1   175786.90 3607.88
  -4  -1   174905.54 3569.56
  -4   1  -173066.45 3473.09
  -4   1  -175940.73 3729.22
  -4   1   179496.51 3800.02
  -4  -1  -174864.03 3476.06
  -4  -1  -176127.71 3779.17
  -4   1   178144.53 3640.60
  -4   1  -277950.41 3635.51
  -4  -1   277908.87 3761.79
  -4   1  -280973.84 4025.24
  -4  -1   280159.61 3773.41
  -4  -1  -279291.52 3579.80
  -4  -1  -279510.71 4001.82
  -4   1   274362.57 3496.51
  -4   1   279802.41 3676.03
  -4  -1   318793.75 1116.99
  -4   1  -318701.47 1119.95
  -4  -1  -315778.68  803.62
  -4  -1  -318684.05  976.84
   4   1  -318059.86  889.40
   4  -1   319033.54  996.49
  -4   1   320013.56 1167.12
  -4   1   321233.79 1019.51
  -4  -1  -319049.61  959.93
  -4   1  -4 3195.33  439.62
  -4  -1   4 3612.18  419.14
   4   1  -4 3922.40  355.24
  -4  -1  -4 3811.85  296.28
  -4  -1  -4 4335.99  274.61
  -4  -1  -4 4665.02  494.68
   4  -1   4 3770.12  339.83
  -4   1   4 4329.37  463.43
  -4   1   4 4488.85  317.65
  -4  -1   5 2720.64  298.30
  -4   1  -5 2653.02  404.88
  -4   1   5 2658.98  232.21
  -4  -1  -5 2740.28  201.58
  -4  -1  -5 2229.91  384.71
   4   1  -5 2241.86  265.51
   4  -1   5 2553.79  264.95
  -4   1   5 2567.26  274.27
  -4   1   5 2701.10  286.61
  -4  -1  -5 2529.30  233.54
  -4  -1   6 2382.97  299.95
  -4   1  -6 2608.81  451.06
   4   1  -6 3392.52  289.67
  -4   1   6 3182.58  277.75
  -4  -1  -6 3143.42  198.32
  -4  -1  -6 2843.86  452.02
   4  -1   6 3574.80  281.45
  -4   1   6 2768.44  251.26
  -4   1   6 2547.56  287.45
  -4  -1  -6 2851.17  219.52
   4   1   7 1272.49  149.99
  -4  -1   7  545.69  320.35
  -4   1  -7 1374.96  351.62
  -4  -1  -7  867.99  104.67
  -4  -1  -7 1071.72  336.22
   4   1  -7  793.01  188.54
   4  -1   7  895.22  173.55
  -4   1   7  642.94  201.84
  -4   1   7  758.18  165.32
  -4   1  -8 4961.02  472.64
  -4  -1   8 4984.70  566.69
   4  -1  -8 4445.51  312.28
   4   1   8 4530.77  230.54
  -4  -1  -8 4382.97  229.04
  -4  -1  -8 4679.33  424.02
   4   1  -8 5208.13  344.52
   4  -1   8 5829.01  353.15
  -4   1   8 4111.24  253.12
  -4   1   8 4869.10  417.57
   4   1   9 9328.46  433.36
  -4  -1   911072.82  736.52
  -4   1  -910002.58  720.24
   4  -1  -9 9475.72  458.36
  -4  -1  -9 8287.64  385.53
  -4  -1  -910274.82  710.98
   4   1  -910662.02  563.48
   4  -1   911129.62  567.44
  -4   1   9 9847.83  675.58
  -4   1   9 9244.48  473.67
   4   1  10 8505.36  407.70
  -4  -1  10 8663.32  649.31
  -4   1 -10 7560.10  796.65
   4  -1 -10 8748.25  464.04
   4   1 -10 8715.89  498.44
  -4  -1 -10 7902.08  412.52
   4  -1  10 9804.09  519.81
  -4   1  10 7457.79  420.91
  -4   1  10 8578.93  626.54
  -4  -1 -10 8345.42  651.99
   4   1  1129923.02 1334.21
  -4  -1  1131259.07 1909.20
  -4   1 -1136815.11 2198.47
   4  -1 -1132531.74 1413.01
  -4  -1 -1130098.33 1926.69
  -4  -1 -1125411.47 1195.29
   4   1 -1131431.50 1422.19
   4  -1  1132211.48 1455.49
  -4   1  1129474.67 1857.59
  -4  -1  1217018.55 1323.09
   4  -1 -1217639.89  813.14
  -4   1 -1216328.10 1141.40
   4   1  1215033.71  715.30
   4   1 -1217605.68  888.34
  -4  -1 -1218716.55 1392.38
   4  -1  1217316.90  886.54
  -4   1  1218316.62 1348.81
   4   1  1323091.50 1137.65
  -4  -1  1324682.89 1527.25
  -4   1 -1321367.83 1416.88
   4  -1 -1319995.89  915.68
  -4  -1 -1320462.53 1565.86
   4   1 -1325621.36 1305.34
   4  -1  1323848.53 1186.39
  -4   1  1325759.81 1744.39
   4   1  1412074.78  634.30
   4  -1 -1411286.29  582.50
  -4   1 -1413102.35 1181.64
  -4  -1  1412614.04 1139.86
  -4  -1 -1414125.73 1218.25
   4  -1  1412643.94  727.71
  -4   1  1412695.00 1115.50
   4   1 -1414412.43  767.90
   4   1  15 8454.92  505.73
  -4  -1  15 9523.01  810.20
  -4   1 -15 8976.44  784.26
   4  -1 -15 8269.41  451.89
  -4  -1 -15 8440.95  747.08
   4   1 -15 8175.31  525.44
   4  -1  15 9871.52  613.89
  -4   1  1510882.97  825.02
  -4   1 -16 2492.57  457.20
   4   1  16 3709.35  316.61
  -4  -1  16 2539.04  445.93
   4  -1 -16 3671.38  272.26
  -4  -1 -16 2833.85  498.47
   4   1 -16 4212.69  360.18
   4  -1  16 3087.25  337.88
  -4   1  16 3801.88  457.31
  -4  -1  17 4248.98  745.47
  -4   1 -17 6881.23  915.71
  -4  -1 -17 4470.71  791.13
   4   1 -17 5406.13  431.42
   4  -1  17 5034.51  473.08
  -4   1  17 4791.13  813.73
  -4  -1  18 8858.15  842.38
  -4   1 -18 9765.45  941.41
  -4  -1 -18 9846.86 1149.16
   4  -1  18 8047.11  607.85
  -4   1  1810745.89 1106.90
   4   1 -18 9740.66  747.71
  -4  -1  19 2429.97  646.19
  -4   1 -19 2324.59  437.87
  -4   1  19 1927.36  456.68
  -4  -1 -19 1460.56  637.76
  -4  -1  20 2423.34  739.57
  -4   1 -20 3114.91  748.92
  -4  -1 -20 3046.88  516.61
  -4   1  20 3140.97  752.08
  -4  -1  21 3891.20  600.60
  -4   1 -21 3511.21  599.54
  -4  -1 -21 5566.14  921.29
  -4   1 -22   68.56  347.11
  -4  -1 -22  227.69  544.35
  -4   1  22  967.00  354.49
  -4  -1  23  906.34  424.91
  -4   1 -23 1166.38  696.94
  -4  -1 -23 1559.04  676.15
  -4   1  23 1413.45  443.62
  -4   1 -24 2280.62  506.71
  -4  -1 -24 1526.70  477.74
  -4   1 -25 -137.13  584.65
  -4  -1 -25 1396.54  593.70
  -4   1  25  -15.01  371.09
  -4  -1  26 1526.27  474.63
  -4   1 -26   68.84  705.83
  -4  -1 -26 1803.10  725.97
  -4   1  26  -15.36  461.54
  -4  -1  27  343.25  705.78
  -4   1 -27 -221.94  448.79
  -4  -1 -27 1074.26  442.72
  -4  -1  28  989.36  450.20
  -4   1 -28  449.14  673.67
  -4  -1 -28  126.66  419.85
  -4   1  28  -48.54  443.64
  -4   1 -29 1499.09  883.82
  -4  -1 -29  917.77  889.68
  -4  -2   0 3531.38  434.15
  -4   2   0 3814.47  381.11
  -4   2   0 3386.28  274.81
  -4  -2   0 3279.79  344.11
  -4  -2   121638.04 1132.52
  -4   2  -121717.34 1076.92
  -4   2   121586.31 1174.38
  -4  -2  -122146.26 1058.69
  -4  -2  -121284.48 1073.21
  -4   2   122460.71 1103.00
  -4  -2   214004.86  831.98
  -4   2  -211979.11  813.63
  -4  -2  -213735.26  687.53
  -4  -2  -211015.43  707.64
  -4  -2  -213011.51  883.40
   4   2  -211586.94  645.91
   4  -2   212307.99  788.11
  -4   2   211691.48  811.30
  -4   2   214105.21  739.57
  -4  -2   3 3325.26  417.53
  -4   2  -3 3387.37  426.42
  -4  -2  -3 3355.39  254.93
  -4  -2  -3 4418.87  491.65
   4   2  -3 4393.83  417.19
   4  -2   3 4949.99  417.35
  -4   2   3 3831.30  446.38
  -4   2   3 4011.32  310.73
  -4  -2  -3 4256.85  283.97
  -4   2  -4 9738.29  764.01
  -4  -2   410568.95  775.84
  -4  -2  -4 8932.44  448.57
  -4  -2  -410094.03  635.83
  -4  -2  -410121.21  520.03
   4   2  -410029.51  648.69
   4  -2   410354.72  628.75
  -4   2   4 9675.97  584.10
  -4   2   4 9960.16  534.04
  -4   2   410385.15  540.10
  -4   2  -5 3106.86  330.67
  -4  -2   5 3441.69  333.06
  -4  -2  -5 3614.00  242.24
  -4  -2  -5 3626.37  244.12
  -4  -2  -5 2785.24  459.08
   4   2  -5 3164.78  339.29
   4  -2   5 3741.96  251.18
  -4   2   5 3896.77  490.69
  -4   2   5 3327.90  241.70
  -4   2   5 3953.66  273.49
  -4   2  -623271.43 1265.46
  -4  -2   621201.64 1271.33
  -4  -2  -616607.36  669.68
  -4  -2  -620724.40 1322.49
   4   2  -621177.77 1072.05
   4  -2   622447.76 1076.69
  -4   2   622509.85 1350.07
  -4   2   618480.00  808.47
  -4   2   617192.83  780.19
  -4  -2   7 3868.38  498.69
  -4   2  -7 4321.75  544.37
  -4  -2  -7 3442.53  175.33
  -4  -2  -7 3404.86  493.02
   4   2  -7 4008.85  328.32
   4  -2   7 4833.95  370.64
  -4   2   7 3314.08  203.19
  -4   2   7 3958.96  240.33
  -4   2   7 3994.04  378.28
  -4   2  -819425.73 1332.87
  -4  -2   820876.71 1151.34
  -4  -2  -818307.52  704.50
  -4  -2  -818823.26 1104.92
   4   2  -820392.92 1010.58
   4  -2   820568.64 1015.50
  -4   2   816314.27  679.76
  -4   2   819884.11 1135.36
  -4  -2   9 2536.42  448.64
  -4   2  -9 1849.92  301.02
  -4  -2  -9 2117.29  117.62
  -4  -2  -9 2291.24  308.35
   4   2  -9 2736.22  273.44
   4  -2   9 2539.42  271.72
  -4   2   9 3131.91  334.31
  -4   2   9 1813.77  120.70
  -4   2   9 2389.48  161.96
  -4  -2  1030302.47 1671.73
  -4   2 -1029202.95 1808.90
   4  -2 -1026263.31 1044.72
  -4   2  1029814.20 1650.80
  -4  -2 -1030090.39 1683.92
   4   2 -1030838.05 1464.28
   4  -2  1025219.06 1257.43
  -4   2  1025276.69 1065.02
  -4  -2 -1026780.64 1088.64
  -4  -2  11 4701.17  597.81
  -4   2 -11 3622.84  587.23
   4  -2 -11 3193.15  163.75
  -4  -2 -11 2854.79  399.75
   4   2 -11 4155.52  331.68
   4  -2  11 3890.13  332.46
  -4   2  11 3896.65  217.01
  -4   2  11 3693.80  396.95
  -4  -2 -11 2925.81  184.08
  -4  -2  1217257.13 1110.69
   4  -2 -1212665.58  536.79
  -4   2 -1216271.26 1097.97
  -4  -2 -1213759.62  974.90
   4   2 -1215394.87  830.88
   4  -2  1216471.70  876.79
  -4   2  1214150.13  951.89
  -4  -2  13 5356.34  717.11
   4  -2 -13 5267.10  266.58
  -4   2 -13 5679.20  768.38
  -4  -2 -13 5388.42  545.08
   4   2 -13 6222.56  427.23
   4  -2  13 5327.07  408.97
  -4   2  13 6452.62  570.09
  -4  -2  14 1315.31  434.13
   4  -2 -14  983.96  127.10
  -4   2 -14 1560.41  304.76
  -4  -2 -14 1182.16  304.20
   4   2 -14 1297.36  227.12
   4  -2  14 1227.94  225.20
  -4   2  14 1641.69  454.06
  -4  -2  15 4369.13  546.52
   4   2  15 4070.33  279.65
  -4   2 -15 5634.73  769.72
  -4  -2 -15 5651.56  753.99
   4   2 -15 5465.45  422.02
   4  -2  15 5404.08  524.18
  -4   2  15 5434.52  747.51
  -4  -2  16 3041.19  616.80
  -4   2 -16 1883.92  609.81
   4   2 -16 3297.81  342.17
   4  -2  16 2452.75  348.10
  -4   2  16 2582.83  577.26
  -4  -2 -16 2763.33  638.03
  -4   2 -17 5458.23  619.50
  -4  -2  17 5998.78  639.57
  -4  -2 -17 5521.28  838.53
   4   2 -17 5798.60  461.84
   4  -2  17 6171.47  528.98
  -4   2  17 4632.53  554.35
  -4  -2  18 4507.15  828.56
  -4   2 -18 5097.00  812.80
  -4  -2 -18 3598.47  795.96
   4   2 -18 5109.12  473.32
   4  -2  18 5354.05  551.32
  -4   2  18 4313.54  596.74
  -4  -2  19 1008.00  345.02
  -4   2 -19  982.59  325.11
  -4  -2 -19  884.71  353.53
   4   2 -19  874.31  273.21
   4  -2  19 1139.78  320.31
  -4   2  19  404.84  532.07
  -4   2 -20 6517.94  780.15
  -4  -2  20 4484.59  890.30
  -4  -2 -20 6512.54  773.38
  -4  -2  21 1830.56  449.11
  -4   2 -21 1162.56  659.17
  -4  -2 -21 1765.10  681.43
  -4   2 -22 5486.78  788.35
  -4  -2 -22 5627.86 1023.71
  -4   2  22 6003.13  755.67
  -4  -2  23 1033.74  653.68
  -4   2 -23  789.77  644.43
  -4  -2 -23  795.34  397.04
  -4   2  23 1193.34  640.84
  -4  -2  24 3776.14  626.16
  -4   2 -24   41.60  802.41
  -4  -2 -24 3055.46  565.36
  -4   2 -25  -51.44  342.48
  -4  -2 -25 -497.66  537.25
  -4   2  25 -180.36  341.07
  -4  -2  26 2362.86  547.95
  -4   2 -26   62.64  799.97
  -4  -2 -26 2775.73  796.96
  -4   2  26   -5.91  527.53
  -4  -2  27  563.96  721.11
  -4   2 -27 -143.79  457.69
  -4  -2 -27 2293.38  727.91
  -4  -2  28  322.97  403.28
  -4   2 -28  -94.79  650.21
  -4  -2 -28  340.12  392.57
  -4   2  28   58.79  667.17
   4   3   0 3334.47  304.06
  -4  -3   0 2957.09  299.22
  -4   3   0 3294.81  331.01
   4  -3   0 4478.05  463.37
  -4  -3   1 5709.98  430.48
  -4   3  -1 5982.89  481.62
   4   3  -1 6190.14  540.33
  -4  -3  -1 4420.90  341.46
  -4  -3  -1 4510.02  517.40
   4  -3   1 5596.30  526.25
  -4   3   1 4896.76  405.19
  -4   3   1 5543.60  512.34
  -4  -3   224908.38 1211.18
  -4   3  -224778.12 1362.65
  -4  -3  -226582.76 1182.15
  -4  -3  -222402.08 1075.26
  -4  -3  -224870.64 1278.16
   4   3  -225002.05 1379.59
   4  -3   225458.27 1215.69
  -4   3   228197.61 1290.87
  -4   3   225063.18 1239.38
  -4  -3   313176.91  842.34
  -4   3  -312741.67  883.98
   4   3  -312772.31  670.31
  -4  -3  -311406.24  564.42
  -4  -3  -313373.34  612.61
  -4  -3  -313044.56  923.69
   4  -3   312376.80  650.20
  -4   3   314118.96  712.08
  -4   3   314009.57  908.55
  -4   3   311613.20  614.50
  -4   3  -4 5311.52  530.35
  -4  -3   4 4850.88  485.92
  -4  -3  -4 4544.48  293.91
  -4   3   4 5511.99  378.35
  -4  -3  -4 4657.38  252.29
  -4  -3  -4 5093.85  396.18
   4   3  -4 5322.52  453.30
   4  -3   4 4642.21  320.89
  -4   3   4 4143.68  296.23
  -4   3   4 4709.77  376.50
  -4  -3   5 4310.05  364.77
  -4   3  -5 4524.87  381.14
  -4  -3  -5 3318.61  199.87
  -4  -3  -5 3761.31  506.29
   4   3  -5 5020.91  411.02
   4  -3   5 4783.70  392.80
  -4   3   5 4669.46  498.77
  -4   3   5 4049.92  245.84
  -4   3   5 3615.45  233.32
  -4  -3   6 4672.81  530.82
  -4   3  -6 4395.52  542.39
  -4  -3  -6 4115.54  517.95
   4   3  -6 5001.48  409.16
   4  -3   6 5257.02  416.84
  -4   3   6 4565.76  516.02
  -4   3   6 4076.23  263.46
  -4   3   6 5350.42  292.82
  -4  -3   711566.45  742.65
  -4   3  -712329.38  789.57
   4   3  -711519.17  580.57
   4  -3   712545.65  702.04
  -4   3   711392.56  493.59
  -4   3   712416.35  756.79
  -4   3   713255.43  555.27
  -4  -3  -711462.02  736.96
  -4   3  -8 1740.60  421.24
  -4  -3   8 2100.49  425.04
  -4  -3  -8 1604.77  277.97
   4   3  -8 2558.59  292.67
   4  -3   8 2054.14  286.15
  -4   3   8 2042.66  286.86
  -4   3   8 1946.49  129.92
  -4  -3   9 1099.07  391.35
  -4   3  -9 1655.05  254.86
  -4   3   9 1178.45   81.07
   4   3  -9 1959.78  270.20
  -4  -3  -9 1355.70  264.68
   4  -3   9 2369.87  285.65
  -4   3   9 1167.04  270.54
  -4  -3  10 9148.25  712.15
  -4   3 -10 9113.13  898.76
  -4  -3 -10 9673.07  912.63
   4   3 -1010361.38  651.80
   4  -3  1010669.42  643.41
  -4   3  1010383.79  874.13
  -4  -3  11 5328.69  671.97
  -4   3 -11 4201.17  476.36
   4  -3  11 4753.59  410.93
  -4   3  11 4214.30  635.37
   4   3 -11 6572.12  475.02
  -4  -3 -11 4000.77  624.93
  -4  -3  1214397.13  985.52
  -4   3 -1213910.69 1192.42
  -4  -3 -1212325.94 1110.55
   4   3 -1214016.31  807.87
   4  -3  1212962.90  762.97
  -4   3  1212170.30 1059.99
  -4  -3  13 2691.26  585.65
  -4   3 -13 2181.69  392.63
  -4   3  13 2604.41  559.13
  -4  -3 -13 2865.71  569.26
   4   3 -13 3296.07  342.60
   4  -3  13 3146.20  329.55
  -4  -3  14 9023.87  780.59
  -4   3 -14 7950.09  933.22
  -4  -3 -14 7057.93  879.70
   4   3 -14 8841.22  591.53
   4  -3  14 8054.18  586.47
  -4   3  14 9271.69  758.13
  -4  -3  15 2235.00  613.85
  -4   3 -15 1390.20  572.28
   4   3 -15 2917.10  335.74
   4  -3  15 2056.46  326.48
  -4   3  15 2131.31  380.28
  -4  -3 -15 2130.46  552.13
  -4  -3  1610468.77  877.80
  -4   3 -16 9828.07  915.05
  -4  -3 -1612843.48 1226.55
   4   3 -1613295.67  800.86
   4  -3  1611429.99  760.81
  -4   3  1610477.12  848.31
  -4  -3  17 4062.16  751.90
  -4   3 -17 1702.20  694.73
  -4  -3 -17 4402.65  552.49
   4  -3  17 4278.79  478.50
   4   3 -17 3757.68  310.97
  -4   3  17 4577.71  551.80
  -4  -3  18 3187.47  506.43
  -4   3 -18 3605.85  561.50
  -4  -3 -18 3615.29  551.59
   4   3 -18 4549.76  457.42
   4  -3  18 3894.28  529.91
  -4   3  18 4496.95  759.53
  -4  -3  19 9245.83 1139.76
  -4   3 -19 8757.86 1140.23
   4   3 -19 9457.98  730.36
  -4  -3 -19 8399.33  892.13
   4  -3  19 9252.66  831.95
  -4  -3  20  240.88  354.24
  -4   3 -20  894.34  353.31
  -4  -3 -20 1295.13  581.66
   4   3 -20 1121.50  331.62
   4  -3  20 1473.42  380.82
  -4  -3  21 1974.38  738.94
  -4   3 -21 3166.13  773.67
  -4  -3 -21 3396.11  776.53
  -4   3  21 3101.54  565.77
  -4  -3  22  139.53  345.49
  -4   3 -22 1137.11  362.71
  -4  -3 -22 -125.57  532.95
  -4   3  22  551.93  349.99
  -4   3 -23  928.95  686.32
  -4  -3 -23 1500.22  468.16
  -4  -3  24 1866.88  503.24
  -4   3 -24  -32.25  708.94
  -4  -3 -24 1024.49  438.35
  -4   3  24 1522.17  695.84
  -4  -3  25  558.72  857.27
  -4   3 -25 -141.42  586.16
  -4  -3 -25 3473.50  873.68
  -4   3  25 4863.37  616.61
  -4  -3  26 2325.59  534.55
  -4   3 -26  -87.52  768.68
  -4  -3 -26 1453.00  732.92
  -4   3  26 -183.75  509.61
  -4  -3  27 2073.12  792.67
  -4   3 -27 -139.01  494.74
  -4  -3 -27 1710.44  731.93
  -4   3  27    9.76  792.22
  -4  -3  28 2243.95  615.54
  -4   3 -28   -0.60  850.39
  -4  -3 -28 1676.79  543.48
  -4   3  28 -209.39  884.65
  -4   4   0 2124.64  267.24
   4   4   0 2070.69  254.50
   4  -4   0 2029.29  405.07
  -4  -4   0 2559.42  261.97
   4   4   1 1227.97  160.58
   4   4   1 1212.98  351.38
  -4  -4   1 1390.94  165.33
  -4   4  -1 1348.86  262.78
   4  -4  -1 1462.31  375.87
  -4  -4  -1 1772.82  207.54
   4   4  -1 1114.29  331.75
   4  -4   1 2201.90  347.12
  -4   4   1 1445.44  208.92
  -4  -4   213587.27  804.10
  -4   4  -214634.60  878.89
  -4  -4  -212566.87  643.12
  -4  -4  -214518.78  963.71
   4   4  -212727.87  692.45
   4  -4   213593.00  723.02
  -4   4   214700.37  734.40
  -4   4   212964.62  736.42
  -4  -4  -215945.39  756.22
  -4  -4   3 3341.85  375.79
  -4   4  -3 2818.90  276.58
  -4   4   3 3099.79  244.16
  -4  -4  -3 2543.38  236.48
  -4  -4  -3 2252.46  197.26
  -4  -4  -3 2663.74  437.85
   4   4  -3 3062.84  377.86
   4  -4   3 3109.11  267.31
  -4   4   3 2459.52  443.19
  -4   4   3 2760.59  284.25
  -4   4  -4 4232.32  470.57
  -4  -4   4 3627.48  322.48
  -4  -4  -4 2861.30  201.57
  -4  -4  -4 3639.56  346.24
   4   4  -4 3429.67  406.19
   4  -4   4 4080.67  422.38
  -4   4   4 4099.91  301.40
  -4   4   4 3136.16  330.66
  -4   4   4 2722.54  214.80
  -4  -4  -4 3710.59  204.02
  -4  -4   530615.20 1529.59
  -4   4  -527558.59 1586.86
   4   4  -525516.07 1356.98
   4  -4   526694.27 1418.65
  -4   4   526497.67 1103.63
  -4   4   525944.50 1578.27
  -4   4   525107.31 1100.15
  -4   4  -6 3869.84  387.65
  -4  -4   6 5013.06  540.26
  -4  -4  -6 4410.41  408.81
   4   4  -6 4782.29  451.01
   4  -4   6 6225.98  504.09
  -4   4   6 5138.18  570.24
  -4   4   6 4348.58  244.08
  -4  -4   716725.61 1178.55
  -4   4  -716405.18 1165.51
  -4   4   719550.66 1096.84
  -4  -4  -718539.50 1079.49
   4   4  -718136.96 1035.72
   4  -4   716850.05  986.38
  -4   4  -8 1369.62  431.99
  -4  -4   8 1397.05  418.83
   4   4  -8 1979.70  213.12
   4  -4   8 2587.01  343.65
  -4   4   8 1414.71  408.74
  -4  -4  -8 1305.15  398.89
  -4  -4   950752.44 2697.93
  -4   4  -946334.35 2497.27
  -4   4   948205.17 2756.28
  -4  -4  -946612.46 2730.41
   4   4  -951244.40 2508.28
   4  -4   944192.16 2099.77
  -4   4 -10  586.81  338.91
  -4  -4  10  -64.35  333.40
  -4  -4 -10   40.25  316.27
   4   4 -10  335.42  232.61
   4  -4  10  486.44  242.23
  -4   4  10  219.54  314.84
  -4  -4  11 9725.43  940.88
  -4   4 -1110040.63  793.28
  -4  -4 -11 9153.13  728.67
   4   4 -1110572.28  671.62
   4  -4  11 9130.67  532.89
  -4   4  11 9888.94  904.52
  -4   4 -12 3900.43  662.88
  -4  -4  12 5266.46  541.96
  -4  -4 -12 4427.28  471.33
   4   4 -12 4703.05  429.91
   4  -4  12 5153.90  446.42
  -4   4  12 4609.13  649.24
  -4  -4  13 3207.07  596.59
  -4   4 -13 2601.01  406.93
  -4  -4 -13 2063.35  357.52
   4   4 -13 2888.09  353.04
   4  -4  13 2616.50  348.95
  -4   4  13 1892.15  480.72
  -4   4 -14 7003.77  900.75
  -4  -4  14 8513.72  944.49
  -4  -4 -14 7314.62  709.71
   4   4 -14 7969.88  600.05
   4  -4  14 8636.66  620.58
  -4   4  14 8000.20  866.01
  -4  -4  15  986.34  366.63
  -4   4 -15 1505.56  339.22
  -4  -4 -15 1403.81  347.46
   4   4 -15 2061.79  317.92
   4  -4  15 1702.41  322.55
  -4   4  15 1500.50  492.92
  -4   4 -16 1515.30  567.92
  -4  -4  16 1876.01  574.30
   4   4 -16 2022.81  333.51
   4  -4  16 1863.88  346.23
  -4   4  16 1385.36  520.85
  -4  -4 -16 2231.30  357.47
  -4  -4  17 3112.28  499.74
  -4   4 -17 3386.47  512.57
  -4   4  17 3910.84  723.38
  -4  -4 -17 3447.23  541.05
   4   4 -17 4459.14  464.73
   4  -4  17 4026.94  498.54
  -4  -4  18 4423.56  821.24
  -4   4 -18 5054.06  859.34
  -4  -4 -18 4803.82  615.49
   4   4 -18 4973.70  520.19
   4  -4  18 5384.32  612.69
  -4   4  18 4846.20  810.34
  -4  -4  19 2809.65  479.58
  -4   4 -19 2915.37  523.34
  -4  -4 -19 3459.94  819.88
   4   4 -19 3916.93  481.28
   4  -4  19 3390.80  376.61
  -4   4  19 3716.66  768.64
  -4   4 -20 1267.03  635.60
  -4  -4  20 1712.91  677.43
  -4  -4 -20 2392.71  712.79
   4   4 -20 2093.01  405.63
   4  -4  20 1830.02  454.61
  -4   4  20 1568.77  436.85
  -4  -4  21 8861.90 1246.19
  -4   4 -2111849.73 1172.73
  -4   4  2112515.30 1094.81
  -4  -4 -2110142.69 1334.62
   4  -4  2113724.24 1199.69
  -4   4 -22  817.89  669.41
  -4  -4  22 1052.11  655.43
  -4  -4 -22 1688.34  668.89
  -4   4  22 1361.39  665.71
  -4  -4  23 7507.39 1187.34
  -4   4 -23 5269.14  717.95
  -4  -4 -23 8243.58  976.65
  -4   4  23 8527.53 1231.82
  -4  -4  24 1182.18  412.29
  -4   4 -24   61.31  594.26
  -4   4  24  914.92  618.60
  -4  -4 -24   -2.46  380.48
  -4  -4  25 4592.93 1091.20
  -4  -4 -25 3356.47 1003.73
  -4   4  25 5494.63  785.64
  -4  -4  26 2132.47  512.75
  -4   4 -26  -62.89  703.68
  -4  -4 -26 1037.75  697.93
  -4   4  26 -219.60  461.91
  -4  -4  27 2198.33  750.74
  -4   4 -27  -30.43  469.47
  -4  -4 -27  799.57  687.97
  -4   4  27 -130.06  756.95
  -4  -4  28   83.31  367.42
  -4   4 -28 -243.40  607.51
  -4  -4 -28  313.49  597.12
  -4   4  28  446.01  625.11
  -4  -5   0 3433.02  387.73
   4   5   0 4111.56  497.53
   4  -5   0 4208.93  361.51
  -4   5   0 3913.43  365.82
  -4  -5   111411.19  675.16
  -4   5  -111949.98  747.90
   4  -5  -1 9641.45  791.64
   4   5   1 9190.30  605.80
  -4  -5  -1 8909.71  512.28
   4   5  -1 9930.99  601.43
   4  -5   1 9422.64  593.16
  -4   5   110310.81  583.68
   4   5   2 8846.55  752.08
  -4   5  -2 7175.39  582.61
   4  -5  -2 7925.09  555.29
   4   5   2 7010.82  385.86
  -4  -5   2 8932.90  617.24
  -4  -5  -2 8333.74  494.43
   4   5  -2 8381.91  664.07
   4  -5   2 7654.81  647.58
  -4   5   2 8840.54  494.62
  -4  -5   315757.27  942.98
  -4   5  -313028.54  856.06
  -4   5   311431.19  699.39
  -4  -5  -313190.59  577.58
  -4  -5  -313081.23  775.76
  -4  -5  -310056.42  492.29
   4   5  -313669.82  862.39
   4  -5   312511.72  853.58
  -4   5   311917.72  569.27
  -4   5   310683.07  570.43
  -4  -5   4 9267.85  579.55
  -4   5  -4 8641.16  687.71
  -4  -5  -4 6641.42  336.06
  -4  -5  -4 7999.52  365.54
  -4  -5  -4 7257.62  686.53
   4   5  -4 8366.31  497.23
   4  -5   4 9082.61  666.22
  -4   5   4 8979.45  573.58
  -4   5   4 7032.89  370.64
  -4   5   4 9019.50  474.02
  -4  -5   5  689.52  180.85
  -4   5  -5  599.17  263.76
  -4  -5  -5  197.19  178.64
   4   5  -5  458.24  232.23
   4  -5   5  618.70  160.23
  -4   5   5  576.58  302.60
  -4   5   5  462.43   92.22
  -4   5   5  233.14   84.72
  -4  -5   6 4191.63  373.90
  -4   5  -6 2441.71  433.18
  -4  -5  -6 3431.84  502.85
   4   5  -6 3141.42  273.12
   4  -5   6 3292.90  403.13
  -4   5   6 4096.74  376.79
  -4  -5   7 3522.04  371.52
  -4   5  -7 3169.69  479.69
  -4  -5  -7 2725.82  487.84
   4   5  -7 3423.75  394.78
   4  -5   7 4035.09  455.73
  -4   5   7 3669.51  514.64
  -4   5  -8 4208.34  413.21
  -4  -5   8 4279.26  419.86
  -4   5   8 4476.10  548.87
  -4  -5  -8 3451.93  534.95
   4   5  -8 4112.42  312.49
   4  -5   8 4496.29  330.01
  -4  -5   9 9338.81  892.56
  -4   5  -9 7627.89  788.93
   4   5  -9 9610.65  672.84
  -4   5   9 8848.15  648.80
  -4  -5  -9 8714.94  671.01
  -4   5 -10 3181.87  559.69
  -4  -5  10 2130.14  529.25
  -4  -5 -10 2965.56  383.97
   4   5 -10 3250.16  392.52
   4  -5  10 2948.42  275.65
  -4   5  10 3454.21  378.81
  -4  -5  1128004.03 1882.79
  -4   5 -1125644.52 1588.33
  -4  -5 -1125202.94 1737.47
   4   5 -1127836.67 1487.94
   4  -5  1126135.82 1418.93
  -4   5  1124475.63 1490.70
  -4  -5  12 7340.69  645.17
  -4   5 -12 6748.01  817.75
  -4   5  12 7531.81  791.11
  -4  -5 -12 5968.28  764.58
   4   5 -12 6626.15  447.70
   4  -5  12 9338.55  662.47
  -4  -5  1315451.35 1313.99
  -4   5 -1314011.67 1251.36
   4   5 -1313305.71  760.39
   4  -5  1315963.36  963.93
  -4   5  1314898.50 1241.62
  -4  -5 -1315253.36 1267.13
  -4  -5  14 7377.28  939.58
  -4   5 -14 8638.83  782.90
  -4  -5 -14 7820.34  896.86
   4   5 -14 8022.37  513.42
   4  -5  14 8443.87  641.81
  -4   5  14 7533.12  835.20
  -4  -5  1514619.07 1129.76
  -4   5 -1518531.00 1642.93
  -4  -5 -1516495.31 1399.98
   4   5 -1518209.32 1115.75
   4  -5  1519893.33 1216.30
  -4   5  1514887.69 1335.41
  -4  -5  16 6351.57  715.89
  -4   5 -16 9813.54  869.76
  -4  -5 -16 8486.02 1007.50
   4   5 -16 9792.92  732.19
   4  -5  1610188.08  787.77
  -4   5  16 7728.31  942.26
  -4  -5  17 5037.26  841.85
  -4   5 -17 5557.57  914.08
  -4  -5 -17 5643.54  884.26
   4   5 -17 7517.91  632.39
   4  -5  17 7410.90  683.16
  -4   5  17 6659.06  903.06
  -4  -5  18 1504.74  348.21
  -4   5 -18 1046.93  353.08
  -4  -5 -18 1861.82  535.85
   4   5 -18 1619.36  356.49
   4  -5  18  561.84  224.51
  -4   5  18 1229.97  547.50
  -4  -5  19 3594.76  740.61
  -4   5 -19 2180.58  751.62
  -4  -5 -19 4414.84  760.34
   4   5 -19 4347.10  525.20
   4  -5  19 3830.94  599.34
  -4   5  19 3851.23  589.23
  -4   5 -20 3706.83  765.49
  -4  -5  20 1983.94  745.23
   4   5 -20 3373.76  515.72
   4  -5  20 3063.09  577.44
  -4   5  20 2981.13  490.42
  -4  -5  21  798.04  349.10
  -4   5 -21  440.10  331.87
  -4  -5 -21  335.71  532.37
   4   5 -21  348.41  331.45
   4  -5  21   68.21  369.68
  -4   5  21  370.88  320.19
  -4  -5  22  883.71  680.55
  -4   5 -22 1584.38  698.28
  -4  -5 -22  996.90  653.62
   4  -5  22 1853.06  514.52
  -4   5  22 2280.66  699.56
  -4  -5  23 1098.71  435.63
  -4   5 -23 -117.71  402.98
  -4  -5 -23 1624.23  441.14
  -4   5  23 1086.64  661.46
  -4  -5  24  415.64  569.53
  -4   5 -24 -132.71  558.12
  -4  -5 -24  215.72  342.47
  -4   5  24  736.08  588.67
  -4  -5  25 1298.83  449.07
  -4   5 -25  -56.06  432.52
  -4  -5 -25  -59.23  411.35
  -4   5  25 1411.72  439.28
  -4  -5  26 2514.14  941.54
  -4   5 -26 2841.47  959.13
  -4  -5 -26 2078.86  890.83
  -4   5  26 3068.32  619.29
  -4  -5  27 1283.35  872.32
  -4   5 -27 2437.43  629.88
  -4  -5 -27 2183.31  845.72
  -4   5  27  -31.64  842.03
  -4  -5  28 1764.62  601.29
  -4   5 -28 2160.75  961.99
  -4  -5 -28 1534.60  868.68
  -4   5  28 1572.87  947.27
  -4  -6   0 2709.04  271.58
  -4   6   0 2103.21  287.72
   4   6   0 2760.05  291.63
   4  -6   0 2456.90  446.52
   4   6   111693.59  873.77
  -4   6  -111345.32  711.18
   4  -6  -111464.68  710.79
  -4  -6   111503.82  689.06
  -4  -6  -111491.92  593.90
   4   6  -111277.66  809.81
   4  -6   111323.02  841.11
  -4   6   111407.63  646.26
   4   6   2 1602.20  262.85
  -4  -6   2 2311.36  317.55
   4  -6  -2 1906.03  453.20
  -4   6  -2 1826.25  324.01
  -4  -6  -2 1360.38  175.65
   4   6  -2 1782.31  251.42
   4  -6   2 2187.34  260.75
  -4   6   2 1588.78  208.75
  -4  -6   3 1602.94  296.76
   4   6   3 3437.73  480.25
   4   6   3 1334.45  125.58
  -4   6  -3 2239.20  345.21
   4  -6  -3 1922.95  282.87
   4  -6  -3 1303.44  161.44
  -4  -6  -3 1499.37  174.95
   4   6  -3 1637.62  356.48
   4  -6   3 1934.13  370.55
  -4   6   3 1466.45  173.89
  -4  -6   410020.83  753.80
  -4   6  -410416.14  781.61
  -4  -6  -410620.10  695.55
  -4  -6  -4 9320.58  434.22
   4   6  -411991.01  662.43
  -4   6   4 8189.30  580.92
   4  -6   411062.30  792.44
  -4   6   4 8743.89  437.81
  -4  -6   5 3551.37  350.38
  -4   6  -5 3549.77  361.56
  -4   6   5 3602.57  220.57
  -4  -6  -5 3929.69  534.84
   4   6  -5 4337.73  472.68
   4  -6   5 3698.01  324.44
  -4   6   5 4809.92  396.21
  -4   6   5 3389.16  212.16
  -4  -6   616036.05 1083.01
  -4   6  -613905.92  868.22
  -4  -6  -617032.09 1183.73
   4   6  -614574.31  798.29
   4  -6   614828.79  962.28
  -4   6   614040.69 1029.12
  -4   6  -7 7007.19  699.78
  -4  -6   7 6532.59  655.81
  -4  -6  -7 4908.11  470.23
   4   6  -7 6986.69  584.88
  -4   6   7 5726.49  503.46
   4  -6   7 7136.47  460.64
  -4   6  -834791.03 2110.27
  -4  -6   835096.50 2120.42
   4   6  -835843.32 1864.82
   4  -6   836841.04 1929.99
  -4   6   832349.12 1805.48
  -4  -6  -835469.12 2169.90
  -4  -6   9 2238.65  458.86
  -4   6  -9 1609.31  469.52
  -4  -6  -9 1724.23  437.66
   4   6  -9 1629.43  226.04
   4  -6   9 2211.02  374.11
  -4   6   9 2680.71  470.64
  -4  -6  10 8352.90  820.46
  -4   6 -10 7682.63  837.81
  -4  -6 -10 7944.23  649.52
   4   6 -10 7687.74  493.16
   4  -6  10 8620.80  659.90
  -4   6  10 8080.52  797.75
  -4  -6  11 8092.15  813.36
  -4   6 -11 5528.59  567.65
  -4  -6 -11 5416.94  529.63
   4   6 -11 6675.72  562.31
   4  -6  11 5869.44  541.27
  -4   6  11 5265.99  506.89
  -4   6 -12 3855.28  477.79
  -4  -6  12 4669.09  512.79
   4   6 -12 4456.26  478.37
   4  -6  12 5021.57  500.43
  -4   6  12 4169.79  459.68
  -4  -6 -12 4199.75  481.93
  -4  -6  13 4366.86  516.59
  -4   6 -13 3913.77  697.27
  -4  -6 -13 3442.44  631.85
   4   6 -13 4218.36  486.74
   4  -6  13 4250.45  488.66
  -4   6  13 3989.65  464.05
  -4  -6  14  193.11  418.27
  -4   6 -14  184.75  388.73
  -4  -6 -14  548.16  367.08
   4   6 -14  341.33  160.27
   4  -6  14  185.87  249.72
  -4   6  14  365.17  228.08
  -4  -6  15 1800.36  617.43
  -4   6 -15 2540.82  459.71
  -4  -6 -15 2017.24  568.31
   4   6 -15 3158.87  429.46
   4  -6  15 2499.30  435.25
  -4   6  15 2594.59  380.87
  -4  -6  16 4924.64  751.87
  -4   6 -16 6011.18  854.53
  -4  -6 -16 4044.17  769.02
   4   6 -16 5280.66  546.10
   4  -6  16 5052.61  574.38
  -4   6  16 4884.39  576.59
  -4  -6  17 3763.60  546.88
  -4   6 -17 4157.62  599.85
  -4  -6 -17 3808.10  775.20
   4   6 -17 5457.76  579.20
   4  -6  17 6135.97  479.35
  -4   6  17 3827.03  552.09
  -4  -6  18 2418.05  710.45
  -4   6 -18 2830.36  510.70
  -4  -6 -18 3047.27  662.41
   4   6 -18 2502.89  445.89
   4  -6  18 2693.98  502.69
  -4   6  18 2293.46  456.72
  -4   6 -19 3319.10  772.73
  -4  -6  19 2209.61  722.48
  -4  -6 -19 1835.97  675.60
   4   6 -19 2850.64  488.94
   4  -6  19 2909.27  537.40
  -4   6  19 2776.95  473.21
  -4  -6  20 8056.01  888.92
  -4   6 -20 9130.55  973.48
   4   6 -2011784.47  955.30
   4  -6  20 9265.67  980.82
  -4   6  20 9265.14  981.86
  -4  -6 -20 8074.21 1174.26
  -4   6 -21   71.61  429.39
  -4  -6  21  -74.88  413.54
  -4  -6 -21   23.91  411.51
   4   6 -21  -72.63  171.86
   4  -6  21    9.09  193.00
  -4   6  21  566.60  247.71
  -4  -6  22 3301.35  896.39
  -4   6 -22 3294.02  614.99
  -4  -6 -22 3934.21  895.54
   4   6 -22 4469.98  672.64
   4  -6  22 4237.62  754.91
  -4   6  22 4446.58  880.09
  -4  -6  23  261.56  320.25
  -4   6 -23   -9.71  517.01
  -4  -6 -23  413.53  538.72
  -4   6  23  292.58  507.39
  -4  -6  24 5439.73 1059.54
  -4   6 -24 9425.53 1310.18
  -4   6  24 7078.16 1144.37
  -4  -6 -24 5428.73  731.76
  -4  -6  25 1467.56  470.85
  -4   6 -25 1238.84  486.43
  -4  -6 -25  281.05  443.14
  -4   6  25 1871.86  760.49
  -4  -6  26 2235.17  874.99
  -4   6 -26 2640.77  886.74
  -4  -6 -26 -266.59  548.47
  -4   6  26 2822.43  589.51
  -4  -6  27 1284.12  716.80
  -4   6 -27  883.76  458.11
  -4  -6 -27  388.31  683.92
  -4   6  27   -9.38  430.53
  -4  -6 -28 1088.26  833.59
  -4   6  28 1593.74  847.14
  -4  -7   014127.79  777.82
  -4   7   012755.41  777.87
   4  -7   013261.08  997.30
   4   7   012397.56  766.70
   4   7   114969.88 1065.73
  -4  -7   115203.32  866.87
  -4   7  -115287.08  939.05
   4  -7  -113124.80  851.05
  -4  -7  -115154.58  788.94
   4   7  -115683.29 1086.00
   4  -7   114702.69 1042.69
  -4   7   117715.23  907.60
   4   7   223346.34 1433.91
   4   7   217843.01  870.58
  -4  -7   221921.91 1217.02
  -4   7  -222983.17 1302.20
   4  -7  -222266.09 1462.60
   4   7  -221386.41 1130.62
  -4  -7  -222980.25 1050.93
   4  -7   222130.24 1173.89
  -4   7   224395.72 1147.92
   4   7   3 1753.84  177.77
   4   7   3 2199.56  294.51
  -4  -7   3 2602.74  346.37
  -4   7  -3 2465.48  368.73
   4  -7  -3 2174.58  331.79
   4  -7  -3 1888.47  186.00
  -4  -7  -3 1872.87  173.26
   4   7  -3 2708.39  400.91
   4  -7   3 2601.38  439.62
  -4   7   3 1987.24  200.70
   4   7   4 6218.31  658.29
  -4  -7   4 7104.38  611.10
  -4   7  -4 5678.84  463.90
   4  -7  -4 5321.49  694.85
   4   7  -4 6260.80  434.30
   4  -7   4 6125.00  451.97
  -4   7   4 4973.25  342.93
  -4  -7   5 6971.29  630.59
  -4   7  -5 7124.19  638.78
  -4  -7  -5 6532.13  524.63
   4   7  -5 6943.93  595.69
   4  -7   5 7897.64  632.08
  -4   7   5 5628.26  309.22
  -4   7   5 6313.46  484.58
  -4  -7   6 2683.46  416.47
  -4   7  -6 2708.29  423.45
  -4  -7  -6 2419.41  464.55
   4  -7   6 2428.17  283.58
  -4   7   6 2060.32  299.18
   4   7  -6 3243.68  415.27
  -4  -7   7 2236.18  295.29
  -4   7  -7 2041.47  427.16
  -4  -7  -7 1867.14  460.18
   4   7  -7 2791.50  271.86
   4  -7   7 2620.94  413.47
  -4   7   7 2198.49  469.15
  -4  -7   8 1068.82  230.07
  -4   7  -8  582.45  354.66
   4   7  -8 1031.85  190.79
  -4  -7  -8  313.11  218.40
   4  -7   8 1254.23  327.90
  -4   7   8  900.26  237.96
  -4  -7   9 2640.07  492.32
  -4   7  -9 2143.24  486.67
  -4  -7  -9 3081.17  498.25
   4   7  -9 2877.91  414.83
   4  -7   9 3131.26  301.53
  -4   7   9 2856.24  349.22
  -4  -7  10 8527.13  866.04
  -4   7 -10 7840.79  855.14
  -4  -7 -10 7424.35  816.02
   4  -7  10 7818.55  662.76
  -4   7  10 8134.86  833.93
   4   7 -10 8568.52  673.26
  -4  -7  11  922.22  452.05
  -4   7 -11 1591.87  315.66
  -4  -7 -11 1975.96  458.84
   4   7 -11 1882.19  368.56
   4  -7  11 1814.65  364.21
  -4   7  11 1683.00  438.88
  -4  -7  1218547.50 1479.56
  -4   7 -1219096.19 1296.68
   4   7 -1220566.93 1268.34
   4  -7  1218447.70 1197.10
  -4   7  1218101.55 1433.33
  -4  -7 -1217306.79 1249.40
  -4  -7  1312522.10  978.40
  -4   7 -1312001.47  987.91
  -4  -7 -1312921.08  971.16
   4   7 -1313052.99  921.50
   4  -7  1312161.66  895.42
  -4   7  1312662.73  934.45
  -4  -7  1420712.39 1439.64
  -4   7 -1421262.47 1705.07
   4   7 -1416784.21 1017.62
  -4  -7 -1420571.30 1403.30
   4  -7  1420435.15 1316.73
  -4   7  1422266.49 1437.02
  -4  -7  15 2940.66  497.03
  -4   7 -15 3537.96  697.64
  -4  -7 -15 2905.69  678.54
   4   7 -15 3737.72  511.27
   4  -7  15 4347.32  531.57
  -4   7  15 3755.43  503.92
  -4  -7  16 8141.51 1057.26
  -4   7 -16 8227.42  855.19
   4  -7  1610234.70  691.39
  -4   7  16 9120.80  836.89
   4   7 -16 9754.27  823.75
  -4  -7 -1610229.80 1111.13
  -4  -7  17 3447.96  734.79
  -4   7 -17 3030.23  775.01
  -4  -7 -17 3019.49  705.97
   4   7 -17 3660.25  374.04
   4  -7  17 3000.74  516.35
  -4   7  17 3496.78  510.78
  -4  -7  18 3168.11  530.42
  -4   7 -18 4245.61  803.57
  -4  -7 -18 2537.36  801.04
   4  -7  18 4280.29  623.71
  -4   7  18 5294.36  596.12
   4   7 -18 5049.23  595.59
  -4  -7  19 2849.57  526.47
  -4   7 -19 3361.10  515.59
  -4  -7 -19 3551.23  777.93
   4   7 -19 3957.26  416.09
   4  -7  19 3927.30  618.13
  -4   7  19 3376.43  544.36
  -4  -7  20  557.97  550.74
  -4   7 -20  787.04  535.80
   4   7 -20  547.44  383.12
   4  -7  20  636.42  421.05
  -4   7  20  522.88  336.82
  -4  -7 -20  749.63  549.32
  -4  -7  21  240.75  543.56
  -4   7 -21  611.56  534.85
  -4  -7 -21  797.83  527.18
   4   7 -21  124.69  373.32
   4  -7  21   59.20  401.49
  -4   7  21  921.45  338.67
  -4  -7  22   59.68  261.68
  -4   7 -22  181.46  262.23
  -4  -7 -22 -211.34  407.85
   4   7 -22  -90.68  190.59
   4  -7  22 -184.66  202.32
  -4   7  22 -263.80  430.67
  -4  -7  23  817.99  632.92
  -4   7 -23  432.10  633.99
  -4  -7 -23  202.17  604.18
   4   7 -23  730.76  453.81
   4  -7  23 1215.84  510.82
  -4   7  23 1083.67  613.39
  -4  -7  24 1910.77  702.98
  -4   7 -24 1461.86  455.98
  -4  -7 -24 -306.76  659.52
  -4   7  24  426.90  706.32
  -4  -7  25 1908.89  482.23
  -4   7 -25 2428.74  771.27
  -4  -7 -25 -521.36  446.25
  -4   7  25 1701.39  733.61
  -4  -7  26 2099.94  789.13
  -4   7 -26 1615.91  719.85
  -4  -7 -26   34.04  441.39
  -4   7  26 -179.35  738.90
  -4  -7  27  702.47  405.84
  -4   7 -27  925.38  432.96
  -4  -7 -27 -546.25  393.31
  -4   7  27   21.77  406.07
  -4  -8   0 1282.98  235.41
   4   8   0 2217.68  299.24
  -4   8   0 1777.37  286.68
   4  -8   0 1880.74  482.31
   4   8   1 1585.42  404.41
  -4  -8   1 2206.77  305.75
  -4   8  -1 1134.68  284.42
   4  -8  -1 2225.43  319.24
  -4  -8  -1 1469.26  228.52
   4   8  -1 2059.72  407.91
   4  -8   1 1662.31  276.73
  -4   8   1 1556.64  243.36
   4   8   2 4424.78  311.92
   4   8   2 4542.49  591.40
  -4   8  -2 5415.83  494.00
   4  -8  -2 5669.61  697.23
  -4  -8   2 5453.19  379.15
   4   8  -2 4419.13  395.46
   4  -8   2 5768.25  634.86
  -4   8   2 4761.26  358.92
  -4  -8  -2 6280.34  387.97
   4   8   332129.69 1716.31
  -4  -8   333743.83 1775.78
  -4   8  -332274.36 1768.02
   4  -8  -332946.32 2039.21
   4   8  -330034.58 1734.32
   4  -8   332875.49 1876.62
  -4   8   332131.30 1539.23
  -4  -8   4 3560.64  331.21
   4   8   4 4350.68  554.40
   4   8   4 2662.14  199.81
  -4   8  -4 4285.05  473.72
   4  -8  -4 3817.97  408.97
   4  -8  -4 2521.78  206.96
   4   8  -4 3668.94  455.47
   4  -8   4 3637.68  492.10
   4   8   523699.93 1383.62
  -4  -8   523884.02 1445.64
  -4   8  -523896.97 1480.07
   4  -8  -521559.33 1580.62
   4   8  -522813.81 1225.49
   4  -8   523127.29 1238.43
  -4  -8   6 2162.28  436.51
  -4   8  -6 1405.78  284.05
  -4  -8  -6 1887.72  493.48
   4   8  -6 2610.61  313.31
   4  -8   6 4361.18  527.13
  -4   8   6 2207.17  316.27
  -4  -8   722205.44 1462.89
  -4   8  -722102.20 1480.60
  -4  -8  -721203.07 1522.07
   4   8  -722520.61 1364.31
   4  -8   721870.34 1342.73
  -4   8   723819.90 1579.49
  -4  -8   8 8719.39  688.07
  -4   8  -8 9307.35  864.37
   4   8  -8 8736.53  728.61
   4  -8   8 9572.51  625.42
  -4   8   8 8764.40  842.47
  -4  -8  -8 7897.34  655.02
  -4  -8   9 2968.43  374.13
  -4   8  -9 2161.07  475.99
  -4  -8  -9 2470.64  350.45
   4   8  -9 2986.91  437.47
   4  -8   9 2665.91  428.07
  -4   8   9 2176.05  334.46
  -4  -8  10 1346.34  429.08
  -4   8 -10  728.68  418.42
  -4  -8 -10  785.40  416.64
   4   8 -10 1498.12  336.48
   4  -8  10 1080.91  335.93
  -4   8  10 1022.05  269.16
  -4  -8  11 7676.91  853.94
  -4   8 -11 6566.47  838.65
  -4  -8 -11 5910.27  804.76
   4   8 -11 7203.55  647.53
   4  -8  11 7517.42  671.03
  -4   8  11 6836.46  801.89
  -4   8 -12 5590.96  762.95
  -4  -8  12 5212.21  747.17
   4   8 -12 5470.60  585.24
   4  -8  12 4971.76  571.60
  -4   8  12 4980.62  719.61
  -4  -8 -12 4948.66  560.63
  -4  -8  13 8481.21  941.88
  -4   8 -13 6751.39  700.41
  -4  -8 -13 6216.96  640.45
   4   8 -13 6717.73  673.74
   4  -8  13 7058.81  672.95
  -4   8  13 5700.08  806.01
  -4  -8  14 4213.14  679.14
  -4   8 -14 2746.93  485.44
  -4  -8 -14 4356.15  504.26
   4   8 -14 2999.98  356.30
   4  -8  14 3726.13  521.97
  -4   8  14 3214.97  457.21
  -4  -8  15 4141.33  757.31
  -4   8 -15 3847.62  742.33
  -4  -8 -15 3606.96  688.19
   4   8 -15 3694.64  531.37
   4  -8  15 3993.77  399.94
  -4   8  15 3743.23  493.70
  -4  -8  1613411.22 1117.11
  -4   8 -1617498.43 1608.67
  -4  -8 -1614881.65 1392.69
   4   8 -1616754.02 1171.11
   4  -8  1616634.35 1192.59
  -4   8  1615924.62 1178.61
  -4  -8  17 2917.18  488.34
  -4   8 -17 2211.45  737.04
  -4  -8 -17 3228.30  745.47
   4   8 -17 3527.34  388.47
   4  -8  17 2796.60  558.85
  -4   8  17 3177.52  503.60
  -4   8 -18 5003.26  718.24
  -4  -8  18 4707.82  899.69
  -4  -8 -18 4124.84  845.61
   4   8 -18 5802.20  657.03
   4  -8  18 6114.40  730.16
  -4   8  18 4679.60  624.26
  -4  -8  19 6250.67  997.89
  -4   8 -19 4971.42  975.95
  -4  -8 -19 5767.74  987.94
   4   8 -19 6820.27  771.16
   4  -8  19 6180.01  786.16
  -4   8  19 5241.84  676.24
  -4  -8  20 1346.97  671.59
  -4   8 -20 1187.75  668.51
   4   8 -20 1948.66  497.05
   4  -8  20 1927.97  529.42
  -4   8  20 1989.38  420.35
  -4  -8 -20 1968.10  662.43
  -4  -8  21 1566.15  493.03
  -4   8 -21 2311.62  512.69
  -4  -8 -21  -79.73  677.57
   4   8 -21 3291.60  568.71
   4  -8  21 1369.87  386.89
  -4   8  21 3606.14  497.01
  -4  -8  22  589.23  479.10
  -4   8 -22  106.27  462.48
  -4  -8 -22  -59.73  451.27
   4   8 -22  445.04  360.97
   4  -8  22  197.23  380.02
  -4   8  22 -135.20  278.61
  -4  -8  23 3085.66  872.73
  -4   8 -23 3140.23  920.92
   4   8 -23 3403.64  467.77
   4  -8  23 2230.68  711.46
  -4   8  23 3091.74  554.59
  -4  -8  24  157.00  297.87
  -4   8 -24   47.16  305.20
  -4  -8 -24 -140.50  478.37
  -4   8  24  133.77  475.28
  -4  -8  25  833.02  649.92
  -4   8 -25 1445.91  670.09
  -4  -8 -25 -444.19  655.88
  -4   8  25  118.87  655.75
  -4  -8  26 1614.44  821.73
  -4   8 -26 2769.02  612.84
  -4  -8 -26 -201.04  771.90
  -4   8  26 -188.84  780.76
  -4  -8  27  203.44  395.57
  -4   8 -27  460.84  406.02
  -4  -8 -27  158.50  605.08
  -4   8  27  -51.51  653.29
  -4  -9   011813.42  737.02
   4   9   010828.83  736.74
  -4   9   010391.24  722.75
   4  -9   013581.70 1110.44
   4   9   157847.71 3154.09
  -4  -9   158520.27 2883.09
  -4   9  -157464.38 2882.00
   4  -9  -151359.34 2730.02
  -4  -9  -156334.66 2681.94
   4   9  -152823.86 2925.57
   4  -9   153790.68 2791.24
  -4   9   155933.84 2699.64
   4   9   2 6461.70  499.87
  -4  -9   2 7030.88  555.63
  -4   9  -2 5521.95  531.48
   4  -9  -2 6168.22  767.05
  -4  -9  -2 5705.55  405.41
   4   9  -2 7060.77  699.63
   4  -9   2 6614.93  750.50
  -4   9   2 5870.54  420.21
   4   9   313376.20  871.41
  -4  -9   314032.83  940.41
  -4   9  -313824.25  956.86
   4  -9  -313887.33  923.60
  -4  -9  -312776.11  703.85
   4   9  -314065.73  829.58
   4  -9   313904.20 1064.90
  -4   9   313715.17  712.70
   4   9   4 2709.46  224.56
   4   9   4 3803.86  557.93
  -4  -9   4 4228.67  480.22
  -4   9  -4 3787.51  472.14
   4  -9  -4 4277.09  627.80
  -4  -9  -4 2776.44  191.42
   4   9  -4 3426.72  345.10
   4  -9   4 4043.18  376.79
  -4   9   4 4419.47  284.54
   4   9   523707.90 1336.86
  -4  -9   523848.79 1437.30
  -4   9  -521276.43 1335.79
   4  -9  -522606.73 1632.24
   4  -9  -517028.30  819.57
  -4  -9  -520969.17  890.29
   4  -9   522457.67 1404.60
  -4   9   519202.46  828.88
   4   9  -522920.95 1381.13
   4   9   615876.32  981.98
  -4  -9   616529.00 1139.31
  -4   9  -615441.75 1097.33
   4  -9  -614787.82 1030.27
   4   9  -615790.94 1073.39
   4  -9   615384.09 1073.25
  -4  -9   7  531.95  302.01
  -4   9  -7  254.27  208.84
  -4  -9  -7  143.31  363.86
   4  -9   7  628.86  196.58
  -4   9   7  444.16  345.79
   4   9  -7  679.77  315.57
  -4  -9   8 1064.11  389.04
  -4   9  -8  878.16  388.81
  -4  -9  -8  983.59  256.17
   4   9  -8 1114.68  349.08
   4  -9   8  977.10  242.37
  -4   9   8 1335.66  423.09
  -4  -9   9  210.10  208.83
  -4   9  -9  281.23  333.39
  -4  -9  -9  171.45  206.19
   4  -9   9  676.80  315.86
  -4   9   9  598.07  223.36
   4   9  -9  352.22  294.60
  -4  -9  10 1344.77  460.67
  -4   9 -10 1236.62  466.05
  -4  -9 -10 1747.63  485.85
   4   9 -10 1911.27  385.17
   4  -9  10 2059.03  433.08
  -4   9  10 1098.21  310.31
  -4  -9  11 3760.19  634.16
  -4   9 -11 3314.78  651.14
  -4  -9 -11 4000.10  663.91
   4   9 -11 4678.23  561.25
   4  -9  11 4386.00  561.10
  -4   9  11 3624.30  653.59
  -4  -9  12 5484.98  754.54
  -4   9 -12 6169.02  797.06
  -4  -9 -12 3803.43  505.07
   4   9 -12 5323.09  611.34
   4  -9  12 5588.39  614.73
  -4   9  12 4154.34  678.60
  -4  -9  1315919.88 1428.35
  -4   9 -1315441.65 1419.50
   4   9 -1318313.21 1252.25
   4  -9  1317255.57 1029.40
  -4   9  1317057.64 1371.78
  -4  -9 -1315914.99 1206.47
  -4  -9  14 5182.27  769.93
  -4   9 -14 4255.55  781.03
  -4  -9 -14 4361.36  533.40
   4   9 -14 5038.93  472.19
   4  -9  14 4299.77  457.85
  -4   9  14 4496.84  542.96
  -4  -9  15 7934.40 1021.84
  -4   9 -15 7561.30  836.61
  -4  -9 -15 9807.05 1111.43
   4  -9  15 9354.79  872.38
  -4   9  15 9316.22  842.13
   4   9 -1510719.77  902.42
  -4  -9  16 1567.61  578.41
  -4   9 -16 1387.66  356.59
  -4  -9 -16 1090.93  544.71
   4   9 -16 1629.48  434.42
   4  -9  16  940.60  438.94
  -4   9  16  964.00  323.70
  -4  -9  1713001.96 1457.86
  -4   9 -1714665.13 1273.85
  -4  -9 -1713263.95 1425.02
   4   9 -1715487.49 1190.55
   4  -9  1715550.59 1235.23
  -4   9  1715719.46 1220.32
  -4  -9  18  461.01  509.24
  -4   9 -18   73.75  506.55
  -4  -9 -18  274.94  478.75
   4   9 -18  578.80  361.28
   4  -9  18  421.11  403.81
  -4   9  18  476.79  324.37
  -4  -9  19 3045.85  563.87
  -4   9 -19 2713.13  801.87
  -4  -9 -19 3683.09  755.40
   4   9 -19 3217.79  591.88
   4  -9  19 3135.71  617.40
  -4   9  19 3140.36  532.12
  -4  -9  20  -38.46  307.22
  -4   9 -20 -246.76  297.09
  -4  -9 -20 -202.53  461.36
   4   9 -20  408.40  223.75
   4  -9  20  495.65  382.51
  -4   9  20  624.14  302.81
  -4  -9  21 1599.23  512.85
  -4   9 -21 -378.19  281.94
   4  -9  21  130.52  390.76
  -4   9  21  435.38  279.34
  -4  -9 -21   87.05  454.00
   4   9 -21   33.21  366.76
  -4  -9  22  778.12  612.55
  -4   9 -22  626.54  593.92
  -4  -9 -22  -30.83  587.75
   4   9 -22  830.62  460.13
   4  -9  22 1195.23  312.70
  -4   9  22 -269.83  349.29
  -4  -9  23  151.06  347.53
  -4   9 -23  584.91  350.47
  -4  -9 -23  -58.28  559.24
   4   9 -23  577.24  456.59
   4  -9  23  739.53  308.17
  -4   9  23  -54.97  337.39
  -4  -9  24  110.35  361.34
  -4   9 -24  464.06  370.49
  -4  -9 -24 -318.72  555.40
   4   9 -24  714.52  471.16
   4  -9  24  171.71  493.75
  -4   9  24  372.38  339.41
  -4  -9  25  897.51  596.54
  -4   9 -25  496.75  613.61
  -4  -9 -25  -98.63  567.51
  -4   9  25  -11.50  352.71
  -4  -9  26   39.67  593.91
  -4   9 -26  568.72  393.99
  -4  -9 -26 -152.33  570.20
  -4   9  26  -65.89  568.92
  -4  -9 -27  160.99  431.58
  -4   9  27 -162.05  449.45
   4  10   0 -239.33  317.65
  -4  10   0  145.90  184.04
   4 -10   0  430.09  229.93
  -4 -10   0  421.67  178.51
   4  10   1 6615.92  709.60
  -4 -10   1 6843.57  557.59
  -4  10  -1 5620.98  534.04
   4 -10  -1 6454.05  772.02
   4  10  -1 5632.72  474.93
   4 -10   1 8436.81  797.30
  -4  10   1 6426.57  500.37
  -4 -10  -1 6999.26  495.23
   4  10   2 5546.92  508.66
  -4 -10   2 6530.40  565.78
  -4  10  -2 6516.60  577.57
   4 -10  -2 6428.65  774.20
  -4 -10  -2 6425.41  447.69
   4  10  -2 6542.52  499.13
   4 -10   2 6497.84  521.83
  -4  10   2 6225.34  453.69
   4  10   3 1663.80  445.03
  -4 -10   3  728.89  301.38
  -4  10  -3 1023.22  301.14
   4 -10  -3 1291.32  321.34
   4 -10   3 1279.15  309.52
  -4  10   3 1420.16  213.07
   4  10  -3  748.55  389.46
  -4 -10  -3 1165.14  178.05
   4  10   4 7345.23  803.57
  -4 -10   4 8376.86  712.34
  -4  10  -4 8629.26  735.96
   4 -10  -4 7997.76  871.03
  -4 -10  -4 6546.02  389.60
   4  10  -4 8501.90  751.95
   4 -10   4 8640.60  797.07
  -4  10   4 7926.67  458.57
   4  10   5 2384.87  207.48
   4  10   5 2731.63  370.80
  -4 -10   5 3541.09  488.05
  -4  10  -5 4163.81  400.45
   4 -10  -5 3389.02  637.95
   4  10  -5 3041.92  500.11
  -4 -10  -5 2877.79  198.84
   4 -10   5 3509.93  530.55
  -4  10   5 2973.10  257.98
   4  10   617684.90 1322.77
  -4 -10   617860.59 1285.78
  -4  10  -618038.24 1289.45
   4 -10  -617560.07 1167.12
   4  10  -618086.93 1039.22
   4 -10   620328.39 1132.96
  -4 -10   7 2961.55  489.30
  -4  10  -7 1553.20  343.63
  -4 -10  -7 2142.87  359.06
   4  10  -7 2569.58  313.96
   4 -10   7 2397.28  329.06
  -4 -10   818947.61 1401.57
  -4  10  -818663.53 1365.94
   4  10  -819184.58 1103.62
   4 -10   820674.49 1193.43
  -4  10   820494.19 1467.30
  -4 -10  -820047.30 1292.47
  -4 -10   9  820.98  268.68
  -4  10  -9  689.52  417.20
   4  10  -9 1390.41  244.23
  -4 -10  -9 1276.15  432.20
   4 -10   9 1149.16  257.98
  -4  10   9  573.64  260.48
  -4 -10  1012879.21 1109.17
  -4  10 -1011622.38 1083.01
  -4 -10 -1011914.10 1093.47
   4  10 -1011886.46  937.42
   4 -10  1011393.23  786.24
  -4  10  1012598.46 1134.62
  -4 -10  11  -91.81  313.81
  -4  10 -11  116.95  329.45
  -4 -10 -11  145.27  311.70
   4 -10  11   38.53  159.88
  -4  10  11   81.62  316.01
   4  10 -11  195.11  263.19
  -4 -10  12 5673.06  630.19
  -4  10 -12 5714.45  812.73
   4  10 -12 6632.51  716.25
   4 -10  12 6749.21  549.43
  -4  10  12 6793.19  811.14
  -4 -10 -12 6560.15  667.51
  -4 -10  13 5098.36  576.61
  -4  10 -13 6625.80  872.61
  -4 -10 -13 5335.90  589.62
   4 -10  13 5003.74  632.85
  -4  10  13 4558.39  727.05
   4  10 -13 3695.21  415.85
  -4 -10  14  623.84  301.49
  -4  10 -14  537.18  494.75
  -4 -10 -14 1354.81  480.81
   4  10 -14  509.49  371.39
   4 -10  14  716.14  388.02
  -4  10  14  441.55  287.88
  -4 -10  15  831.36  337.50
  -4  10 -15 1246.71  544.70
  -4 -10 -15 1156.07  527.81
   4  10 -15 1071.27  425.31
   4 -10  15  861.47  437.21
  -4  10  15 1530.49  326.15
  -4 -10  16  831.44  340.51
  -4  10 -16 1065.49  524.49
  -4 -10 -16  579.23  511.18
   4  10 -16  491.10  258.24
   4 -10  16  908.15  415.55
  -4  10  16  791.79  311.79
  -4 -10  17  933.43  388.94
  -4  10 -17 1412.60  604.48
  -4 -10 -17 1450.74  575.40
   4 -10  17 1398.76  465.26
  -4  10  17 1133.03  361.44
   4  10 -17  960.56  471.08
  -4 -10  1810732.70 1031.01
  -4  10 -1811987.45 1394.92
  -4 -10 -1811589.60 1306.02
   4  10 -1812055.20  840.69
   4 -10  1811025.76  826.83
  -4  10  1810556.48 1258.62
  -4 -10  19 2580.39  785.16
  -4  10 -19 3368.42  564.05
  -4 -10 -19 2418.21  746.97
   4 -10  19 1000.57  585.41
  -4  10  19 2561.94  740.50
   4  10 -19 2805.32  581.02
  -4 -10  20 4633.43  927.51
  -4  10 -20 4355.87  693.17
  -4 -10 -20 3408.67  551.21
   4  10 -20 4776.43  715.19
   4 -10  20 3849.22  724.35
  -4  10  20 4850.75  891.26
  -4 -10  21 1273.76  583.41
  -4  10 -21  280.51  531.07
   4  10 -21  699.74  287.49
  -4 -10 -21   36.11  314.01
   4 -10  21  334.63  286.64
  -4  10  21 -144.04  510.84
  -4 -10  22 2522.83  836.85
  -4  10 -22 2939.19  833.39
  -4 -10 -22 2881.79  515.84
   4  10 -22 3149.15  464.75
   4 -10  22 3988.97  749.28
  -4  10  22 -439.92  764.11
  -4 -10  23  194.02  273.43
  -4  10 -23 -148.86  263.78
  -4 -10 -23   10.36  249.83
   4  10 -23   99.86  349.49
   4 -10  23   51.88  360.93
  -4  10  23   59.77  254.85
  -4 -10  24 1282.64  776.82
  -4  10 -24 1512.84  777.48
  -4 -10 -24 -188.15  476.51
   4  10 -24 2507.46  693.12
   4 -10  24 2167.66  684.77
  -4  10  24 1614.80  463.30
  -4 -10  25  684.14  594.73
  -4  10 -25   61.13  560.67
  -4 -10 -25  110.49  341.06
  -4  10  25  153.64  333.82
  -4 -10  26 2010.75  696.69
  -4  10 -26  987.07  419.23
  -4 -10 -26 -124.57  402.53
  -4  10  26 -375.36  399.23
  -4 -11   050030.41 2517.65
   4  11   044052.82 2360.56
  -4  11   050465.47 2570.13
   4 -11   043311.93 2658.43
   4  11   1 6949.09  578.98
  -4 -11   1 8619.68  675.46
  -4  11  -1 8277.58  564.56
   4 -11  -1 9111.29  912.62
   4 -11   1 7979.03  658.40
  -4  11   1 8871.06  622.48
   4  11  -1 7545.10  779.92
  -4 -11  -1 7420.20  652.93
   4  11   215915.06 1199.37
  -4 -11   217176.63  981.07
  -4  11  -215694.41 1038.48
   4 -11  -216510.45 1079.78
  -4 -11  -215790.88  885.00
   4  11  -216693.61 1183.05
   4 -11   216920.01 1034.83
  -4  11   216819.61  941.22
   4  11   3 3542.62  569.37
  -4 -11   3 2945.57  439.85
  -4  11  -3 2846.81  464.67
   4 -11  -3 2950.01  620.82
  -4 -11  -3 2716.81  281.75
   4 -11   3 2877.39  592.46
  -4  11   3 2654.57  292.98
   4  11  -3 2990.41  524.53
   4  11   423618.08 1407.07
  -4 -11   424243.50 1489.30
  -4  11  -425726.77 1562.14
   4 -11  -424750.35 1777.19
  -4 -11  -423369.00 1122.56
   4  11  -423975.47 1342.20
   4 -11   424491.52 1600.51
  -4  11   422222.38 1085.75
   4  11   5 1312.84  448.18
  -4 -11   5 1174.28  359.80
  -4  11  -5  746.33  219.58
   4 -11  -5  566.66  301.25
   4 -11   5 1021.74  464.20
  -4  11   5  757.54  182.36
  -4 -11  -5  783.06  179.18
   4  11  -5  776.82  248.71
   4  11   6 4045.64  659.15
  -4 -11   6 3791.31  571.10
  -4  11  -6 3830.87  582.63
   4 -11  -6 4495.05  740.66
   4  11  -6 4367.88  406.61
   4 -11   6 4059.70  437.84
   4  11   7 3446.73  428.02
  -4 -11   7 2526.95  359.93
  -4  11  -7 3920.92  407.98
   4 -11  -7 3133.97  685.78
   4 -11   7 3339.34  385.81
   4  11  -7 3858.20  383.87
  -4 -11   8  464.51  346.26
  -4  11  -8  920.90  358.80
  -4 -11  -8  111.07  250.74
   4  11  -8  346.12  207.92
   4 -11   8  415.64  227.95
  -4  11   8  348.26  239.23
  -4 -11   9 8832.97  731.32
  -4  11  -9 8338.59  891.39
  -4 -11  -9 6930.57  879.15
   4  11  -9 8086.28  598.09
   4 -11   9 8676.79  633.67
  -4  11   9 9181.30  699.87
  -4 -11  10 4741.26  749.76
  -4  11 -10 5385.87  568.39
  -4 -11 -10 4797.45  760.33
   4  11 -10 5785.18  657.62
   4 -11  10 6328.96  545.15
  -4  11  10 4456.90  729.62
  -4 -11  11 7889.38  731.66
  -4  11 -11 7682.30  713.24
  -4 -11 -11 7299.91  701.03
   4 -11  11 8098.67  625.06
  -4  11  11 8072.67  919.42
   4  11 -11 7339.44  774.96
  -4 -11  1215028.13 1109.52
  -4  11 -1214859.42 1140.68
  -4 -11 -1213909.41 1049.91
   4  11 -1215668.31 1164.33
   4 -11  1215568.70 1197.61
  -4  11  1214711.93 1282.04
  -4 -11  13 1493.25  484.91
  -4  11 -13  -22.94  280.34
   4  11 -13  557.83  247.23
  -4 -11 -13  744.35  292.20
   4 -11  13  261.83  390.47
  -4  11  13  645.33  287.79
  -4 -11  14 3921.37  783.59
  -4  11 -14 4216.16  813.98
  -4 -11 -14 4197.16  777.43
   4  11 -14 3914.59  628.36
   4 -11  14 4822.07  490.14
  -4  11  14 3909.53  545.94
  -4 -11  15 2945.89  780.45
  -4  11 -15 3683.22  588.47
  -4 -11 -15 2135.74  752.13
   4 -11  15 4020.08  637.55
  -4  11  15 3901.82  523.52
   4  11 -15 3773.27  655.99
  -4 -11  1610017.21 1229.61
  -4  11 -1612957.10 1184.79
  -4 -11 -1612871.61 1342.00
   4  11 -1613689.58 1157.18
   4 -11  1614705.38 1196.19
  -4  11  1614492.65 1406.52
  -4 -11  17  872.70  626.31
  -4  11 -17 1144.91  379.61
  -4 -11 -17 1449.48  598.61
   4  11 -17 1289.77  488.92
   4 -11  17 1094.65  319.90
  -4  11  17 1083.25  580.87
  -4 -11  18 1857.18  695.08
  -4  11 -18  995.12  417.84
  -4 -11 -18 1513.15  419.16
   4  11 -18 2161.46  543.16
   4 -11  18 2001.32  597.49
  -4  11  18 1247.55  632.32
  -4 -11  19 2176.95  770.19
  -4  11 -19 1453.53  696.23
  -4 -11 -19 1951.49  455.98
   4 -11  19 1439.00  368.11
  -4  11  19 2363.48  708.27
   4  11 -19 2624.42  396.69
  -4 -11  20 1624.52  736.34
  -4  11 -20 2176.77  733.85
  -4 -11 -20 2536.91  546.74
   4  11 -20 1665.22  590.46
   4 -11  20 1656.81  615.75
  -4  11  20 1431.37  747.02
  -4 -11  21 1134.75  391.23
  -4  11 -21  463.34  579.86
  -4 -11 -21   68.78  335.10
   4 -11  21  570.71  506.45
  -4  11  21   -4.90  550.83
   4  11 -21  967.71  482.52
  -4 -11  22  968.17  360.40
  -4  11 -22  -39.62  329.42
  -4 -11 -22   67.95  316.23
   4  11 -22  322.28  446.25
   4 -11  22  399.16  462.25
  -4  11  22   15.21  499.80
  -4 -11  23 2072.57  769.79
  -4  11 -23 1037.00  455.22
  -4 -11 -23 -119.83  670.31
   4  11 -23 1730.09  379.30
   4 -11  23  822.94  421.40
  -4  11  23 1751.99  678.70
  -4 -11  24 1376.74  780.64
  -4  11 -24  880.34  730.24
  -4 -11 -24  130.48  690.76
   4  11 -24 1419.85  418.05
   4 -11  24 1187.70  663.10
  -4  11  24  814.26  668.50
  -4 -11  25  379.50  664.68
  -4  11 -25  344.68  630.93
  -4 -11 -25   68.35  610.19
   4  11 -25  220.95  530.91
   4 -11  25  964.13  574.09
  -4  11  25  198.56  602.91
  -4 -11 -26   87.33  416.74
  -4  11  26 1591.62  678.47
  -4  12   011604.94  785.94
   4 -12   0 9906.51  767.50
   4  12   011524.56  982.52
  -4 -12   011941.97  805.84
   4  12   1 1527.92  459.29
  -4 -12   1 1597.54  313.78
  -4  12  -1 1088.49  332.70
   4 -12  -1 2323.17  541.64
  -4 -12  -1 1420.94  271.36
   4  12  -1 1271.26  453.31
   4 -12   1 2314.46  359.62
  -4  12   1 1058.30  274.61
   4  12   2 1579.33  301.75
  -4 -12   2 1847.32  353.58
  -4  12  -2 1674.80  261.55
   4 -12  -2 2159.73  545.29
   4  12  -2 1921.20  293.86
   4 -12   2 2071.07  547.97
  -4  12   2 1679.15  272.36
  -4 -12  -2 1521.66  258.74
   4  12   3 3596.40  428.30
  -4 -12   3 2998.32  458.14
  -4  12  -3 3577.33  368.51
   4 -12  -3 3727.97  464.48
  -4 -12  -3 3603.91  331.69
   4  12  -3 4166.36  413.80
   4 -12   3 3874.10  609.17
  -4  12   3 4070.61  359.35
   4  12   4 1748.66  487.95
  -4 -12   4 2923.99  439.03
  -4  12  -4 2007.68  270.62
   4 -12  -4 1330.12  351.39
   4 -12   4 2255.76  491.55
  -4  12   4 1473.00  221.90
   4  12  -4 1819.04  291.10
  -4 -12  -4 1661.90  282.06
   4  12   5 6493.00  778.63
  -4 -12   5 6326.99  702.27
  -4  12  -5 6852.70  716.89
   4 -12  -5 6329.56  875.33
   4  12  -5 6924.39  538.92
   4 -12   5 6538.05  557.00
  -4  12   5 6353.44  401.55
   4  12   610754.80  824.59
  -4 -12   6 8755.34  872.04
  -4  12  -610932.95  983.92
   4 -12  -6 9671.54 1084.75
   4  12  -6 9657.45  675.99
   4 -12   6 9890.93  754.65
   4  12   720880.29 1347.43
  -4 -12   720110.07 1278.30
  -4  12  -720559.68 1323.77
   4 -12  -719519.60 1353.49
   4  12  -719589.06 1200.53
   4 -12   721591.05 1269.47
  -4 -12   8 4077.03  648.86
  -4  12  -8 3804.52  673.45
   4 -12  -8 3930.73  548.75
   4 -12   8 4545.73  481.77
   4  12  -8 4180.38  453.02
  -4 -12   924477.96 1732.94
  -4  12  -921289.63 1410.58
  -4 -12  -922622.51 1734.61
   4  12  -921645.07 1529.63
   4 -12   922556.99 1360.35
  -4  12   921728.12 1655.27
  -4 -12  10 1703.84  556.33
  -4  12 -10 2198.60  366.48
  -4 -12 -10 2067.46  370.62
   4  12 -10 2293.43  483.66
   4 -12  10 1609.75  532.78
  -4  12  10 2181.23  537.26
  -4 -12  11 6987.71  698.37
  -4  12 -11 7844.91  947.47
  -4 -12 -11 7836.77  743.54
   4  12 -11 8101.76  842.30
   4 -12  11 8451.62  846.24
  -4  12  11 8588.34  756.64
  -4 -12  12 2959.68  638.75
  -4  12 -12 1879.20  624.77
  -4 -12 -12 2899.17  644.92
   4  12 -12 2702.64  374.20
   4 -12  12 3119.73  574.09
  -4  12  12 2382.50  400.18
  -4 -12  13  623.70  438.26
  -4  12 -13   88.18  422.74
  -4 -12 -13  309.14  439.62
   4  12 -13  457.99  373.95
   4 -12  13  188.92  238.28
  -4  12  13  584.16  277.06
  -4 -12  14  255.36  301.02
  -4  12 -14   32.18  451.52
  -4 -12 -14  320.29  449.50
   4 -12  14  493.54  378.72
  -4  12  14  613.41  449.66
   4  12 -14  471.26  393.90
  -4 -12  15  219.62  264.82
  -4  12 -15  477.62  434.22
  -4 -12 -15  -64.15  424.58
   4  12 -15    9.93  210.43
   4 -12  15   -0.87  345.35
  -4  12  15  642.67  420.38
  -4 -12  16 1229.30  427.35
  -4  12 -16 1138.66  637.15
  -4 -12 -16 1438.42  405.36
   4 -12  16 2093.00  354.27
  -4  12  16 1045.56  634.89
   4  12 -16 1763.39  537.68
  -4 -12  17 2962.43  568.06
  -4  12 -17 3062.18  821.45
  -4 -12 -17 2888.92  542.70
   4  12 -17 4085.56  501.02
   4 -12  17 3447.94  679.43
  -4  12  17 4472.69  817.50
  -4 -12  18 2226.64  513.15
  -4  12 -18 2277.83  798.29
  -4 -12 -18 2567.21  535.35
   4  12 -18 3048.55  633.36
   4 -12  18 3396.39  463.49
  -4  12  18 2496.12  775.94
  -4 -12  19 2593.39  561.94
  -4  12 -19 1477.81  745.68
  -4 -12 -19 2313.06  763.21
   4  12 -19 2643.02  686.20
   4 -12  19 4078.93  713.76
  -4  12  19 3143.70  775.88
  -4 -12  20  713.48  393.76
  -4  12 -20  694.27  597.54
  -4 -12 -20  516.19  555.76
   4 -12  20  736.95  517.96
  -4  12  20  116.82  565.00
   4  12 -20  964.86  332.89
  -4 -12  21 2532.72  571.76
  -4  12 -21 1855.23  560.55
  -4 -12 -21 3385.95  792.66
   4  12 -21 5436.49  800.33
   4 -12  21 4335.97  570.76
  -4  12  21 2859.22  536.02
  -4 -12  22  476.37  643.06
  -4  12 -22  323.42  377.53
  -4 -12 -22   64.90  543.58
   4  12 -22  492.88  515.37
   4 -12  22  207.72  532.30
  -4  12  22 1366.03  571.20
  -4 -12  23 2523.09  917.42
  -4  12 -23 2599.31  898.70
  -4 -12 -23   30.39  827.33
   4  12 -23 4627.38  784.27
   4 -12  23 3656.93  816.55
  -4  12  23 3163.05  835.00
  -4 -12  24   16.13  631.03
  -4  12 -24  198.61  622.52
  -4 -12 -24  -40.17  562.69
   4  12 -24  186.38  525.50
   4 -12  24  841.69  555.78
  -4  12  24  538.67  569.23
  -4 -12 -25  -85.52  720.92
   4  12 -25  936.58  683.90
   4 -12  25 1804.34  701.81
  -4  12  25 1241.68  727.16
  -4 -13   0 2100.07  357.04
   4  13   0 2599.31  342.92
  -4  13   0 2255.80  266.00
  -4 -13   111097.21  829.34
  -4  13  -110182.11  813.22
   4 -13  -1 9337.94  791.90
   4  13   1 7321.52  853.20
  -4 -13  -1 8845.72  671.00
   4  13  -1 9757.79  724.14
  -4  13   1 9102.01  700.41
  -4 -13   2 4090.55  513.48
   4  13   2 3382.22  626.45
  -4  13  -2 3883.61  380.29
   4 -13  -2 4388.64  698.00
  -4 -13  -2 3252.89  391.54
   4  13  -2 3939.91  431.45
  -4  13   2 3244.81  378.54
   4  13   312217.09 1037.04
  -4 -13   310673.52  882.83
  -4  13  -310632.79  744.96
   4 -13  -310382.85 1056.88
  -4 -13  -311047.53  705.34
   4  13  -310963.40  769.35
  -4  13   311379.01  729.74
   4  13   4 2214.92  366.04
  -4  13  -4 1658.04  278.66
   4 -13  -4 1864.89  560.76
  -4 -13   4  543.59  401.46
  -4 -13  -4 1630.51  247.32
   4  13  -4 2356.34  334.23
   4 -13   4 1731.18  559.99
  -4  13   4 1973.31  259.30
   4  13   5 3195.34  431.16
  -4 -13   5 2242.33  510.52
  -4  13  -5 1926.44  328.59
   4 -13  -5 2410.70  428.33
   4  13  -5 2309.07  354.59
   4 -13   5 2639.60  376.08
  -4 -13   6 7900.66  823.97
   4  13   6 7441.22  878.06
  -4  13  -6 7395.78  828.01
   4 -13  -6 8018.56  739.72
   4  13  -6 7996.21  613.41
   4 -13   6 7063.26  611.34
   4  13   7  707.42  442.54
  -4 -13   7  890.43  385.36
  -4  13  -7 -210.93  362.89
   4 -13  -7  985.53  493.46
   4  13  -7  380.20  234.04
   4 -13   7  528.00  248.51
  -4 -13   8 5028.94  532.45
   4  13   8 4452.48  735.82
  -4  13  -8 4820.96  717.43
   4 -13  -8 3916.16  798.53
   4  13  -8 5362.64  496.02
   4 -13   8 4558.51  490.11
  -4 -13   9 3781.09  672.26
  -4  13  -9 3918.91  515.55
   4  13  -9 4370.19  674.32
   4 -13   9 3659.48  650.19
  -4  13   9 4140.09  483.96
  -4 -13  -9 2537.21  464.75
  -4 -13  10 1293.98  329.18
  -4  13 -10 1248.70  533.82
  -4 -13 -10 1836.00  589.52
   4  13 -10 1528.98  495.31
   4 -13  10 1105.37  502.78
  -4  13  10 1669.55  348.22
  -4 -13  11 7946.29 1004.65
  -4  13 -11 9814.84 1138.55
  -4 -13 -1110104.79 1106.82
   4  13 -1110738.86  973.08
   4 -13  1111299.77 1024.51
  -4  13  11 9695.78  833.35
  -4 -13  12 9253.83 1114.84
  -4  13 -12 9505.07  908.51
  -4 -13 -1210817.04 1192.35
   4  13 -1211484.16  823.15
   4 -13  12 9719.31  778.45
  -4  13  1210396.16 1113.63
  -4 -13  13 2465.57  488.71
  -4  13 -13 2140.69  460.05
   4  13 -13 3780.26  621.17
   4 -13  13 2228.29  618.29
  -4 -13 -13 3027.13  684.91
  -4  13 -14 4555.12  871.67
  -4 -13  14 4162.23  818.78
  -4 -13 -14 3684.43  574.10
   4  13 -14 4339.36  500.56
   4 -13  14 4793.45  733.91
  -4  13  14 4542.90  827.37
  -4 -13  15 5384.51  978.48
  -4  13 -15 6586.53 1063.49
  -4 -13 -15 6259.05  765.26
   4  13 -15 7448.71  892.05
   4 -13  15 6415.56  638.15
  -4  13  15 5930.27  949.96
  -4  13 -16  437.23  549.98
  -4 -13  16  125.06  536.33
  -4 -13 -16  295.79  526.59
   4  13 -16  751.42  284.42
   4 -13  16  302.21  447.39
  -4  13  16  608.18  333.01
  -4 -13  17  306.93  616.85
  -4  13 -17 1444.32  630.23
  -4 -13 -17 1185.25  592.98
   4  13 -17  688.73  505.60
   4 -13  17  986.44  321.53
  -4  13  17  786.39  390.35
  -4 -13  18 1902.57  828.06
  -4  13 -18 2289.22  826.91
  -4 -13 -18 1912.28  773.48
   4  13 -18 3512.68  495.49
   4 -13  18 4104.08  735.44
  -4  13  18 2902.18  507.98
  -4 -13  19  392.33  549.11
  -4  13 -19 -107.47  329.49
  -4 -13 -19  343.62  498.19
   4  13 -19  728.03  454.07
   4 -13  19  673.95  285.78
  -4  13  19  -87.21  305.33
  -4  13 -20 3045.99  600.30
  -4 -13  20 3091.08  896.27
  -4 -13 -20 2966.48  805.01
   4  13 -20 5011.43  791.07
   4 -13  20 3408.26  807.35
  -4  13  20 3781.66  571.32
  -4 -13  21  -22.22  560.66
  -4  13 -21   49.91  345.44
   4  13 -21  532.54  440.36
   4 -13  21   68.18  472.44
  -4  13  21  183.15  303.17
  -4 -13 -21  433.48  485.91
  -4 -13  22 -126.03  628.65
  -4  13 -22  618.02  659.83
  -4 -13 -22  -69.14  342.85
   4  13 -22  551.66  327.51
   4 -13  22  974.32  554.74
  -4  13  22  818.18  343.73
  -4 -13  23  166.12  659.72
  -4  13 -23  706.37  659.76
  -4 -13 -23 -177.17  362.75
   4  13 -23  501.99  346.33
   4 -13  23  842.62  360.80
  -4  13  23  507.54  358.92
  -4 -13  24  665.75  654.34
  -4  13 -24  -77.41  633.54
  -4 -13 -24  -47.63  334.71
   4  13 -24  199.92  537.75
   4 -13  24   51.36  553.94
  -4  13  24  725.95  350.78
  -4 -14   0 3557.51  472.68
  -4  14   0 4254.92  492.31
   4  14   0 4639.94  494.47
   4  14   1 3675.62  426.00
  -4 -14   1 4113.97  495.44
  -4  14  -1 3098.80  464.35
   4 -14  -1 3304.51  682.13
  -4 -14  -1 3591.46  432.83
   4  14  -1 3989.61  436.46
   4 -14   1 4341.62  684.53
  -4  14   1 3983.32  450.01
   4  14   2 1129.84  461.98
  -4 -14   2  879.12  219.79
  -4  14  -2  672.11  205.36
   4 -14  -2 1465.65  323.64
   4  14  -2 1305.93  288.92
  -4 -14  -2  798.58  269.01
   4 -14   2 1304.02  480.43
  -4  14   2  793.98  255.05
   4  14   3 3671.21  640.20
  -4 -14   3 3610.69  534.09
  -4  14  -3 3854.03  548.55
   4 -14  -3 4059.59  508.83
  -4 -14  -3 3424.11  387.14
   4  14  -3 3569.32  416.82
   4 -14   3 3926.30  657.02
  -4  14   3 3907.51  405.81
   4  14   4 6895.13  817.55
  -4 -14   4 5993.53  688.24
  -4  14  -4 5546.59  705.22
   4 -14  -4 6387.37  895.10
   4 -14   4 5792.88  774.19
   4  14  -4 6223.33  556.04
   4  14   5 6287.32  846.60
  -4 -14   5 7185.40  783.94
  -4  14  -5 8191.27  685.37
   4 -14  -5 7472.89  971.95
   4  14  -5 6827.75  609.54
   4 -14   5 7679.54  886.90
   4  14   611919.94  936.94
  -4 -14   612455.02 1116.04
  -4  14  -611340.97 1092.32
   4 -14  -612636.22 1267.56
   4 -14   611393.41 1094.31
   4  14  -612559.60  867.46
   4  14   7 5541.86  597.59
  -4 -14   7 5607.57  769.86
  -4  14  -7 5562.61  803.48
   4 -14  -7 5558.31  659.69
   4  14  -7 6334.04  569.98
   4 -14   7 6512.13  828.97
   4  14   814223.97 1322.45
  -4 -14   814670.71 1295.22
  -4  14  -813160.57 1031.67
   4 -14  -813207.29 1098.89
   4  14  -814959.00 1221.89
   4 -14   813417.64 1206.17
  -4 -14   9 4631.31  585.76
  -4  14  -9 4894.33  796.06
   4  14  -9 5675.72  751.18
   4 -14   9 6995.59  825.32
  -4 -14  1014079.31 1339.18
  -4  14 -1012063.00 1023.49
  -4 -14 -1014355.45 1404.42
   4 -14  1014138.37  991.87
  -4  14  1014452.33 1328.10
   4  14 -1012956.18 1172.80
  -4 -14  11  172.86  310.84
  -4  14 -11  728.20  333.88
  -4 -14 -11  492.84  310.56
   4  14 -11  602.75  282.36
   4 -14  11 1132.24  307.37
  -4  14  11 1404.07  505.58
  -4 -14  12 6112.83  956.22
  -4  14 -12 6895.61  985.90
   4  14 -12 7042.57  849.66
  -4 -14 -12 7255.37  773.51
   4 -14  12 6965.80  869.51
  -4  14  12 8138.90  770.89
  -4 -14  13 3646.68  802.85
  -4  14 -13 2913.48  811.76
  -4 -14 -13 5283.43  893.22
   4  14 -13 5098.24  734.07
   4 -14  13 4735.91  745.16
  -4  14  13 5494.32  626.87
  -4 -14  14  571.74  313.95
  -4  14 -14  456.93  524.08
   4  14 -14  152.05  427.62
  -4 -14 -14  167.43  500.91
   4 -14  14  443.69  276.61
  -4  14  14  421.95  316.04
  -4 -14  15 4707.75  671.13
  -4  14 -15 4327.57  660.09
  -4 -14 -15  635.90  838.56
   4  14 -15 4171.81  728.65
   4 -14  15 4653.84  740.16
  -4  14  15 4464.95  609.37
  -4 -14  16  609.48  347.47
  -4  14 -16   51.19  367.36
  -4 -14 -16  843.71  563.03
   4  14 -16 1402.98  493.69
   4 -14  16  652.99  310.13
  -4  14  16  763.37  572.72
  -4 -14  17 1829.62  661.99
  -4  14 -17 1685.17  463.02
   4  14 -17  803.61  347.09
   4 -14  17 1244.71  592.94
  -4  14  17 1755.45  688.53
  -4 -14 -17  835.90  633.14
  -4 -14  18 -150.78  764.81
  -4  14 -18 1198.59  484.64
  -4 -14 -18 2144.82  507.37
   4 -14  18 3395.66  488.13
  -4  14  18 3366.21  793.19
   4  14 -18 2470.26  683.64
  -4 -14  19 -109.62  675.84
  -4  14 -19  469.66  440.96
  -4 -14 -19 1185.37  391.81
   4  14 -19 1889.37  404.66
   4 -14  19 2265.84  629.03
  -4  14  19  -43.06  647.31
  -4 -14  20 1678.11  657.73
  -4  14 -20 1054.50  412.04
  -4 -14 -20  878.13  356.59
   4  14 -20    1.09  352.67
   4 -14  20 -223.10  554.81
  -4  14  20  391.54  585.48
  -4 -14  21  399.31  654.60
  -4  14 -21  520.16  677.82
  -4 -14 -21  501.75  354.74
   4  14 -21 1459.00  570.02
   4 -14  21  655.05  346.84
  -4  14  21 -152.97  572.76
  -4 -14  22 2222.68  921.31
  -4  14 -22 2948.31  935.03
  -4 -14 -22 2539.61  777.29
   4  14 -22 2819.99  796.73
   4 -14  22 3045.52  803.68
  -4  14  22 1480.19  776.67
  -4 -14  23  804.15  616.72
  -4  14 -23  482.99  597.81
  -4 -14 -23   33.78  507.20
   4  14 -23  102.24  514.69
   4 -14  23 -149.47  539.38
  -4  14  23  140.05  515.94
  -4 -14 -24 1551.29  755.46
   4  14 -24 1051.58  468.71
   4 -14  24 2154.74  771.73
  -4  14  24 1021.75  750.32
   4  15   013907.61  965.88
  -4  15   012406.20  969.06
  -4 -15   014002.93 1031.53
   4  15   1 1780.39  360.40
  -4 -15   1 2650.39  435.20
  -4  15  -1 1459.42  384.68
  -4 -15  -1 1195.21  354.91
  -4  15   1 1735.73  358.79
   4  15  -1 1580.70  537.59
   4  15   214469.33 1040.52
  -4 -15   212253.88 1032.46
  -4  15  -214415.80 1073.48
  -4 -15  -213886.07  973.17
   4  15  -212144.18 1099.56
  -4  15   214014.89  956.59
   4  15   3 2519.59  397.59
  -4 -15   3 3106.30  493.10
  -4  15  -3 1975.82  454.75
   4 -15  -3 2204.75  436.35
   4  15  -3 2157.67  531.51
   4 -15   3 2156.08  605.71
  -4 -15   4 3588.65  429.53
  -4  15  -4 3568.79  592.44
   4 -15  -4 4682.71  554.59
   4  15   4 4288.06  699.68
   4  15  -4 3829.64  442.88
   4 -15   4 4111.33  728.54
   4  15   5 2767.62  606.91
  -4 -15   5 2404.29  375.46
  -4  15  -5 2505.65  536.35
   4 -15  -5 2014.32  448.25
   4  15  -5 2071.98  360.14
   4 -15   5 2060.98  606.96
   4  15   6 4734.57  785.60
  -4 -15   6 5449.51  547.40
  -4  15  -6 4478.25  525.72
   4 -15  -6 4464.90  855.33
   4  15  -6 4801.16  494.10
   4 -15   6 4524.68  765.06
   4  15   7  317.20  444.63
  -4 -15   7  285.77  232.52
  -4  15  -7  143.18  391.66
   4 -15  -7  750.94  516.54
   4  15  -7  408.88  386.78
  -4 -15   8 1167.30  544.93
  -4  15  -8 1196.68  542.55
   4 -15  -8 1394.22  647.09
   4  15   8 2078.90  374.99
   4  15  -8 1562.43  523.97
   4  15   9 1063.56  395.70
  -4 -15   9 1632.62  560.68
  -4  15  -9 1161.44  354.71
   4 -15  -9 1319.53  441.29
   4  15  -9 1760.90  557.51
   4 -15   9 2265.74  364.22
  -4 -15  10 9472.22 1171.23
  -4  15 -10 9069.48 1092.56
  -4 -15 -10 9589.23 1140.12
   4  15 -10 9490.81  758.66
   4 -15  10 9163.90  783.23
  -4  15  10 8680.23  807.87
  -4 -15  11 1577.58  632.21
  -4  15 -11 1553.22  637.06
   4  15 -11 2765.00  600.84
  -4 -15 -11 1770.14  691.04
   4 -15  11 2478.96  628.94
  -4  15  11 2681.52  453.20
  -4 -15  12 4172.24  826.39
  -4  15 -12 3857.44  606.45
  -4 -15 -12 5486.31  922.72
   4  15 -12 3901.59  731.96
   4 -15  12 5305.79  799.43
  -4  15  12 5149.48  861.97
  -4 -15  13  600.40  377.55
  -4  15 -13  468.72  393.92
  -4 -15 -13 1899.31  618.62
   4  15 -13 1884.52  357.00
   4 -15  13 1268.66  369.11
  -4  15  13 1124.24  589.93
  -4 -15  14 8208.50 1183.98
  -4  15 -14 7419.66 1208.80
  -4 -15 -1410666.92 1247.45
   4  15 -14 9620.45 1025.95
   4 -15  14 8953.75 1068.41
  -4 -15  15 1680.71  708.01
  -4  15 -15  737.15  719.79
   4  15 -15 2387.84  411.93
  -4 -15 -15 2531.95  480.21
   4 -15  15 1592.99  427.63
  -4  15  15 2143.55  736.78
  -4 -15  16 4424.49  935.92
  -4  15 -16 4029.49  916.93
  -4 -15 -16 4235.29  688.27
   4  15 -16 4304.58  767.22
   4 -15  16 4808.66  831.54
  -4  15  16 3937.16  954.94
  -4 -15  17  -96.54  335.79
  -4  15 -17   44.20  530.77
   4  15 -17  975.93  479.26
  -4 -15 -17  289.98  543.23
   4 -15  17  211.84  303.96
  -4  15  17 1261.94  572.99
  -4 -15  18  -48.19  524.37
  -4  15 -18 2318.46  795.77
  -4 -15 -18 -207.04  737.61
   4  15 -18 3662.25  484.14
   4 -15  18 2463.60  772.41
  -4  15  18 2856.87  531.34
  -4 -15  19 -161.88  440.98
  -4  15 -19 1108.74  682.84
  -4 -15 -19 1058.29  594.50
   4 -15  19 -276.28  610.01
  -4  15  19 2098.78  412.34
   4  15 -19    1.60  601.84
  -4 -15  20  124.42  390.51
  -4  15 -20  507.49  596.33
  -4 -15 -20  337.44  514.53
   4  15 -20    0.34  505.77
   4 -15  20 -117.91  337.47
  -4  15  20  964.85  343.01
  -4 -15  21  308.39  429.35
  -4  15 -21 1593.02  687.13
  -4 -15 -21 1275.21  587.19
   4  15 -21    2.53  375.27
   4 -15  21  923.07  600.87
  -4  15  21  604.03  363.75
  -4 -15  22  578.67  438.86
  -4  15 -22   88.33  695.09
  -4 -15 -22  453.62  577.12
   4  15 -22  456.84  361.88
   4 -15  22  932.95  596.48
  -4  15  22  386.07  362.39
  -4 -15 -23   69.13  520.23
   4  15 -23  -81.74  541.59
   4 -15  23  584.66  340.69
  -4  15  23  -27.48  318.97
   4  16   0 3611.46  672.79
  -4  16   0 3255.75  512.01
   4 -16   0 4881.01  779.50
  -4 -16   0 4521.06  555.69
   4  16   1 3663.13  477.05
  -4  16  -1 3716.87  538.58
   4 -16  -1 3037.33  717.64
  -4 -16   1 3107.85  537.53
  -4 -16  -1 4041.23  503.92
   4  16  -1 3534.01  668.35
   4 -16   1 4417.22  749.60
  -4  16   1 3497.60  355.94
  -4 -16   2 2166.99  489.54
  -4  16  -2 1247.32  454.56
   4  16   2 2837.74  418.63
   4  16  -2 3312.77  590.53
  -4 -16   3 3392.52  394.02
   4  16   3 2824.99  447.80
  -4  16  -3 3528.71  571.58
   4 -16  -3 3831.55  732.09
   4  16  -3 3070.89  428.31
   4  16   4  232.45  299.06
  -4 -16   4  787.35  394.34
  -4  16  -4  476.35  381.47
   4 -16  -4  733.95  346.18
   4  16  -4  947.64  287.57
   4 -16   4 1385.58  538.11
   4  16   5 7466.55  694.57
  -4  16  -5 6850.69  824.99
   4 -16  -5 7034.65  740.11
  -4 -16   5 5771.89  806.82
   4  16  -5 7334.65  653.10
   4  16   6 1399.95  365.91
  -4 -16   6 1107.52  484.48
  -4  16  -6 1144.49  509.11
   4 -16  -6 1441.31  443.89
   4  16  -6 1470.32  331.15
   4  16   712362.40 1247.25
  -4  16  -710539.59 1114.51
   4 -16  -711117.16  997.71
  -4 -16   7 9338.61 1041.13
   4  16  -711234.80 1073.15
   4 -16   711376.96 1123.78
   4  16   8 4553.22  825.86
  -4 -16   8 4826.22  560.40
  -4  16  -8 3950.03  799.79
   4 -16  -8 5089.85  923.05
   4  16  -8 3830.81  698.18
   4 -16   8 4605.78  549.99
   4  16   9 7585.56 1037.40
  -4 -16   9 7079.92  981.55
  -4  16  -9 7401.17 1004.20
   4 -16  -9 8160.39 1164.67
   4  16  -9 7165.61  670.57
   4 -16   9 7430.91  696.24
  -4 -16  10 2907.71  681.73
  -4  16 -10 1964.96  674.32
  -4 -16 -10 2191.51  473.70
   4  16 -10 2515.49  627.78
   4 -16  10 3423.41  674.89
  -4  16  10 3006.34  472.95
  -4  16 -11 6553.73 1011.21
  -4 -16  11 6894.32 1026.62
  -4 -16 -11 6790.56  807.79
   4  16 -11 7854.56  943.56
   4 -16  11 7583.93  968.17
  -4  16  11 8931.26 1065.47
  -4 -16  12  962.86  627.74
  -4  16 -12  351.55  632.31
  -4 -16 -12 1020.77  437.30
   4  16 -12 2204.21  372.76
   4 -16  12 1625.88  405.02
  -4  16  12 1391.49  426.31
  -4  16 -13 1457.10  729.83
  -4 -16  13 1855.37  713.35
  -4 -16 -13 1342.93  713.66
   4  16 -13 3169.86  638.87
   4 -16  13 2542.56  674.10
  -4  16  13 1676.79  467.78
  -4 -16  14  194.10  333.05
  -4  16 -14   73.45  337.16
   4  16 -14  732.33  292.24
   4 -16  14  374.42  298.38
  -4  16  14  329.28  334.71
  -4 -16 -14  550.53  549.83
  -4 -16  15  422.25  552.04
  -4  16 -15  237.65  337.89
  -4 -16 -15  347.69  559.28
   4  16 -15  342.60  483.11
   4 -16  15 -121.69  485.21
  -4  16  15  701.11  355.85
  -4 -16  16 -121.61  374.71
  -4  16 -16 -147.47  379.40
  -4 -16 -16  -59.57  379.90
   4  16 -16    0.20  197.55
   4 -16  16   32.81  203.78
  -4  16  16  356.02  389.99
  -4 -16  17 -161.49  550.76
  -4  16 -17 -180.25  549.86
  -4 -16 -17  184.22  532.74
   4  16 -17    0.97  474.27
   4 -16  17  333.91  488.08
  -4  16  17 1165.56  569.84
  -4 -16  18   97.00  604.80
  -4  16 -18   89.33  590.84
  -4 -16 -18  144.96  353.70
   4  16 -18   -5.45  524.60
   4 -16  18 1033.16  338.51
  -4  16  18 -162.30  609.82
  -4  16 -19  706.05  841.15
  -4 -16  19   31.66  529.64
  -4 -16 -19 1945.17  462.11
   4  16 -19 3052.92  467.26
   4 -16  19 2097.08  749.72
  -4  16  19   74.91  761.78
  -4 -16  20   61.64  467.27
  -4  16 -20 1182.18  756.01
  -4 -16 -20 1860.92  413.71
   4  16 -20   -0.87  649.45
   4 -16  20 -167.48  670.42
  -4  16  20  518.27  644.77
  -4 -16  21 -242.22  558.55
  -4  16 -21 1409.80  858.76
  -4 -16 -21 1297.60  445.39
   4  16 -21   -0.37  745.32
   4 -16  21 3028.25  501.81
  -4  16  21 1009.41  749.51
  -4 -16  22  602.70  435.84
  -4 -16 -22  271.44  558.27
   4  16 -22  414.09  585.37
   4 -16  22  193.15  371.77
  -4  16  22  218.62  573.33
   4  17   0 4965.64  744.28
  -4  17   0 3384.51  548.14
   4 -17   0 3901.27  767.39
  -4 -17   0 3704.92  570.95
   4  17   1 9575.42 1007.28
  -4 -17   1 8346.48  827.90
  -4  17  -1 8712.41  846.99
   4 -17  -1 8632.03 1046.56
   4  17  -1 8902.48  992.61
   4  17   2    3.60  402.05
  -4 -17   2  218.39  328.90
  -4  17  -2  167.84  195.35
   4 -17  -2  728.77  491.17
   4  17  -2  358.25  248.03
   4  17   3 6263.42  871.02
  -4 -17   3 6542.98  773.30
  -4  17  -3 5546.22  749.87
   4 -17  -3 9275.77 1073.54
   4  17  -3 5630.31  581.31
   4  17   4  264.22  272.14
  -4 -17   4  256.81  347.61
  -4  17  -4   73.07  346.87
   4 -17  -4  293.17  466.98
   4  17  -4  189.98  264.83
   4  17   5 4681.36  554.64
  -4 -17   5 4329.29  530.10
  -4  17  -5 4726.65  721.96
   4 -17  -5 5513.38  929.76
   4  17  -5 3799.06  496.98
   4 -17   5 4931.91  841.27
   4  17   6 3073.38  489.76
  -4 -17   6 2524.06  431.87
  -4  17  -6 2342.69  419.36
   4 -17  -6 3673.46  566.82
   4  17  -6 2593.14  611.41
   4 -17   6 2557.96  449.47
   4  17   7 2318.61  423.56
  -4 -17   7 1351.89  558.96
  -4  17  -7 1379.91  545.17
   4 -17  -7 1440.87  444.59
   4  17  -7 1774.68  568.23
   4 -17   7 1955.40  403.59
   4  17   8 4305.01  612.38
  -4 -17   8 5543.97  867.11
  -4  17  -8 5182.93  851.58
   4 -17  -8 7873.19  820.78
   4 -17   8 6088.59  867.44
   4  17  -8 5082.40  572.05
   4  17   9 2870.55  708.99
  -4 -17   9 2017.96  659.70
  -4  17  -9 1382.49  413.32
   4 -17  -9 2157.38  530.38
   4  17  -9 2533.91  427.89
   4 -17   9 2456.66  674.28
  -4 -17  10  865.61  314.85
  -4  17 -10  610.57  516.93
  -4 -17 -10 -163.94  331.60
   4  17 -10 1430.44  485.63
   4 -17  10 1597.77  533.19
  -4  17  10  -70.33  314.47
  -4 -17  11 1788.33  743.56
  -4  17 -11 2143.01  781.07
  -4 -17 -11 3248.92  812.21
   4  17 -11 3631.77  513.83
   4 -17  11 4091.51  535.34
  -4  17  11 2682.09  776.26
  -4 -17  12 2460.96  544.39
  -4  17 -12 2328.82  504.18
  -4 -17 -12 3255.83  824.59
   4  17 -12 3831.13  708.77
   4 -17  12 3662.43  767.72
  -4  17  12 1420.58  790.01
  -4 -17  13 9849.91 1349.54
  -4  17 -1310017.42 1374.80
  -4 -17 -1312649.99 1163.31
   4  17 -13 9655.63 1131.09
   4 -17  1311234.38  936.48
  -4  17  1311223.80 1377.66
  -4 -17  14 1000.41  596.43
  -4  17 -14  751.15  579.66
  -4 -17 -14   88.70  376.58
   4 -17  14  964.58  539.55
  -4  17  14  904.25  588.78
   4  17 -14   -2.27  514.88
  -4 -17  15 6175.19  760.49
  -4  17 -15 5770.60  763.84
  -4 -17 -15 8562.61  879.29
   4  17 -15 9941.91  806.18
   4 -17  15 7505.96  773.46
  -4  17  1510417.06 1346.37
  -4 -17  16 -191.33  363.66
  -4  17 -16   49.05  370.11
   4 -17  16 1478.72  555.56
  -4  17  16 1380.82  399.12
   4  17 -16    0.24  516.84
  -4 -17 -16  -66.14  376.45
  -4 -17  17  158.62  640.69
  -4  17 -17 -476.68  431.12
  -4 -17 -17 -245.40  659.03
  -4 -17  18  -21.35  437.69
  -4  17 -18  118.65  444.94
  -4 -17 -18  -88.66  414.02
   4  17 -18   -0.22  380.67
   4 -17  18  383.46  403.01
  -4  17  18 -239.31  283.02
  -4 -17  19  -72.77  665.49
  -4  17 -19   -4.47  673.20
  -4 -17 -19  895.14  587.11
   4  17 -19    0.12  586.35
   4 -17  19 1236.68  615.68
  -4  17  19  156.32  402.10
  -4 -17  20   79.65  725.55
  -4  17 -20  413.37  721.54
  -4 -17 -20  641.36  615.10
   4  17 -20    0.81  399.87
   4 -17  20  636.09  400.01
  -4  17  20 1206.36  412.77
  -4 -17  21   28.58  640.85
  -4 -17 -21   54.03  531.00
   4  17 -21   -2.07  332.95
   4 -17  21   42.62  564.93
  -4  17  21  579.68  351.84
   4  18   0 3137.58  664.91
   4  18   1  467.98  421.73
  -4 -18   1  101.49  329.11
  -4  18  -1  481.19  319.97
   4 -18  -1 -232.01  483.72
   4  18  -1  183.84  411.60
  -4 -18   2 2692.94  579.64
  -4  18  -2 2975.13  586.15
   4 -18  -2 3928.26  811.51
   4  18   2 3687.28  698.86
   4  18  -2 3927.24  492.16
   4 -18   2 4100.55  788.37
   4  18   3  290.79  397.57
  -4 -18   3  -51.92  321.51
  -4  18  -3  -48.42  319.01
   4 -18  -3   80.33  436.47
   4  18  -3  224.36  224.56
   4 -18   3   60.00  421.81
  -4 -18   4 8786.12  963.05
   4  18   4 9092.14 1077.62
  -4  18  -4 8180.09  924.37
   4 -18  -4 7500.82 1124.76
   4  18  -4 9052.00  752.37
   4 -18   4 8803.18 1061.15
   4  18   5 5532.74  908.03
  -4 -18   5 5532.46  841.46
  -4  18  -5 4471.64  773.22
   4 -18  -5 5270.69 1015.32
   4  18  -5 6578.37  912.37
   4 -18   5 6191.15  675.38
   4  18   611560.41  978.87
  -4  18  -6 9600.38 1097.37
   4 -18  -6 9822.04 1276.29
  -4 -18   6 9186.38 1097.23
   4  18  -6 9705.01 1104.65
   4 -18   610114.87  906.17
   4  18   7 3138.37  510.32
  -4 -18   7 1477.62  662.11
  -4  18  -7 2111.36  676.44
   4 -18  -7 2865.74  839.09
   4  18  -7 2758.88  426.52
   4 -18   7 2292.74  707.09
  -4 -18   8  362.82  335.17
   4  18   8 1205.25  414.88
  -4  18  -8 1268.82  361.26
   4 -18  -8 1075.09  433.25
   4  18  -8  475.48  314.79
   4 -18   8  713.15  573.45
   4  18   9  155.48  295.05
  -4 -18   9  300.01  434.78
  -4  18  -9  -37.52  437.13
   4 -18  -9  337.70  355.67
   4  18  -9  262.75  418.58
   4 -18   9   90.52  291.65
  -4 -18  10 4871.23  903.05
  -4  18 -10 4942.80  664.96
   4 -18 -10 5811.23  789.25
   4  18  10 5342.57  698.71
   4  18 -10 5319.49  612.76
   4 -18  10 5427.61  649.34
  -4 -18  11  565.53  360.01
  -4  18 -11  294.13  595.73
  -4 -18 -11 1025.74  628.93
   4  18 -11 1416.24  577.92
   4 -18  11 1096.20  610.77
  -4  18  11 1253.98  384.28
  -4 -18  12  676.09  590.29
  -4  18 -12   45.82  600.21
  -4 -18 -12    8.67  600.80
   4  18 -12  847.77  542.26
   4 -18  12 1023.90  366.69
  -4  18  12  874.10  382.52
  -4 -18  13 1446.14  428.72
  -4  18 -13 1320.70  482.06
   4  18 -13 1479.13  399.15
   4 -18  13 1849.49  654.08
  -4  18  13  920.05  679.35
  -4 -18 -13    9.68  710.69
  -4 -18  14   32.94  517.00
  -4  18 -14 -152.29  533.34
  -4 -18 -14  -90.88  571.12
   4  18 -14   -0.58  467.31
   4 -18  14  492.60  305.67
  -4  18  14  430.19  557.17
  -4 -18  15  102.81  535.74
  -4  18 -15  362.54  566.16
  -4 -18 -15  427.47  591.24
   4  18 -15    0.27  469.28
   4 -18  15  329.80  494.02
  -4  18  15   86.09  588.45
  -4  18 -16   43.98  631.95
  -4 -18  16  138.97  390.87
  -4 -18 -16  -52.89  670.70
   4  18 -16   -0.58  339.62
   4 -18  16 1227.22  370.27
  -4  18  16  182.82  721.60
  -4 -18  17   51.17  261.24
  -4  18 -17  -30.83  262.73
  -4 -18 -17 -130.36  263.79
   4  18 -17    3.75  363.00
   4 -18  17  337.42  388.00
  -4  18  17  -58.66  495.26
  -4 -18  18   81.28  703.55
  -4  18 -18  154.94  461.85
  -4 -18 -18 -114.52  432.55
   4  18 -18   -6.29  404.31
   4 -18  18 2069.29  416.70
  -4  18  18  220.96  816.79
  -4 -18  19  -71.35  666.16
  -4  18 -19  227.43  418.07
  -4 -18 -19 -108.66  374.24
   4  18 -19    3.87  374.85
   4 -18  19 1304.54  389.89
  -4  18  19 -195.55  706.37
  -4 -18  20  -97.02  783.27
  -4 -18 -20 1115.11  699.37
   4  18 -20    1.24  707.54
   4 -18  20  712.03  740.46
  -4  18  20 1833.82  798.32
   4 -19   0  467.76  539.59
   4  19   0  579.84  493.95
   4  19   1 3337.70  703.93
   4 -19  -1 3397.07  783.45
   4  19  -1 2561.23  459.52
   4 -19   1 3680.87  787.30
   4  19   2 2442.68  620.28
  -4 -19   2 1306.68  518.78
  -4  19  -2 1741.02  503.45
   4 -19  -2 2187.65  708.87
   4 -19   2  909.11  650.58
   4  19  -2 1509.80  361.01
   4  19   3  492.07  477.47
  -4 -19   3  732.73  420.73
  -4  19  -3  227.85  398.37
   4 -19  -3  280.78  556.83
   4  19  -3  322.84  277.18
   4 -19   3  529.49  343.49
   4  19   4 3595.23  770.33
  -4 -19   4 2431.89  437.59
  -4  19  -4 1720.38  617.28
   4 -19  -4 2747.16  829.22
   4  19  -4 3907.17  699.01
   4 -19   4 2960.86  504.15
   4  19   5 8283.24 1103.59
  -4 -19   5 8196.35  791.66
  -4  19  -5 9366.62 1049.18
   4 -19  -5 9402.05 1236.39
   4  19  -510536.54 1083.19
   4 -19   5 7868.35  801.54
  -4 -19   6 3496.37  534.17
  -4  19  -6 2957.60  494.03
   4 -19  -6 3711.54  934.72
   4  19   6 3897.27  813.60
   4  19  -6 4055.00  546.35
   4 -19   6 4551.81  843.17
   4  19   7 4640.84  855.52
  -4 -19   7 3433.44  531.01
  -4  19  -7 3500.77  539.52
   4 -19  -7 5003.31  993.90
   4  19  -7 4148.00  527.99
   4 -19   7 4248.53  830.82
   4  19   8  340.34  594.74
  -4 -19   8  343.46  535.21
  -4  19  -8  868.29  536.68
   4 -19  -8  279.95  685.14
   4 -19   8  967.09  369.52
   4  19  -8  962.80  539.99
   4  19   9 1209.92  406.63
  -4 -19   9  968.16  591.71
  -4  19  -9  847.48  386.95
   4 -19  -9  833.57  737.90
   4  19  -9 1203.76  349.40
   4 -19   9  354.50  607.85
  -4 -19  10  438.22  355.39
  -4  19 -10  552.80  585.81
   4 -19 -10 1298.22  455.25
   4  19  10  516.19  377.83
   4 -19  10  173.07  600.32
   4  19 -10  969.35  344.34
  -4 -19  11   -7.25  537.17
  -4  19 -11  453.65  321.32
  -4 -19 -11  177.99  340.73
   4  19 -11  411.43  500.35
   4 -19  11  168.96  330.48
  -4  19  11  441.44  332.55
  -4 -19  12 3367.90  646.45
  -4  19 -12 -154.46  882.61
  -4 -19 -12 4008.75  664.65
   4 -19  12 5409.11  934.92
  -4  19  12 6557.55  769.98
   4  19 -12 4391.35  589.27
  -4 -19  13   38.01  575.25
  -4  19 -13  131.38  363.23
  -4 -19 -13    5.55  628.65
   4  19 -13  637.99  526.54
   4 -19  13  676.19  347.49
  -4  19  13  386.16  365.13
  -4 -19  14 3904.92  676.28
  -4 -19 -14   40.22 1159.64
   4  19 -14 7130.00  725.67
   4 -19  14 5762.76 1013.29
  -4  19  14 6525.76  901.24
  -4 -19  15  -22.33  646.56
  -4  19 -15  276.18  644.50
  -4 -19 -15  -33.69  779.31
   4  19 -15   -1.38  573.79
   4 -19  15  959.43  396.17
  -4  19  15 1087.60  507.23
  -4  19 -16 -232.26  881.48
  -4 -19 -16   11.89 1020.41
   4  19 -16    1.23  774.07
   4 -19  16 2906.24  830.60
  -4  19  16 4471.65  732.00
  -4 -19  17  130.46  427.47
  -4  19 -17 -111.20  702.38
  -4 -19 -17 -194.96  772.38
   4  19 -17   -1.38  378.97
   4 -19  17 1874.39  417.74
  -4  19  17 -167.93  586.75
  -4 -19  18  128.54  357.99
  -4  19 -18 -165.25  365.79
  -4 -19 -18  -73.89  585.36
   4  19 -18    1.19  499.78
   4 -19  18  710.93  539.89
  -4  19  18  247.39  758.54
   4  20   0  428.02  307.45
   4 -20   0  777.66  565.54
   4  20   1 1849.98  392.81
   4 -20  -1 1496.41  715.58
   4  20  -1 1718.63  405.49
   4 -20   1 1306.59  451.55
   4  20   2 3016.87  732.63
   4 -20  -2 3492.53  853.02
   4 -20   2 2634.71  504.41
   4  20  -2 3597.14  518.70
  -4 -20   3 1018.40  518.17
  -4  20  -3  593.76  317.41
   4 -20  -3 1608.10  686.33
   4  20   3 1084.11  586.76
   4  20  -3 1185.84  570.09
   4 -20   3 1237.04  410.40
   4  20   4 3611.92  818.23
  -4 -20   4 2323.40  704.26
  -4  20  -4 3338.12  502.46
   4 -20  -4 2828.13  936.27
   4  20  -4 3660.17  734.34
   4 -20   4 3645.47  833.54
   4  20   5 9690.72 1204.65
  -4 -20   5 9264.71 1156.12
  -4  20  -511846.15 1011.06
   4 -20  -510496.26 1416.08
   4  20  -510285.74  930.17
   4  20   6 5493.08 1010.29
  -4 -20   6 4872.86  896.02
  -4  20  -6 5300.64  924.56
   4 -20  -6 7210.79 1147.67
   4  20  -6 5163.26  707.36
   4  20   7 6862.05 1087.15
  -4 -20   7 5488.28  937.23
  -4  20  -7 4512.54  927.03
   4 -20  -7 7038.91 1239.05
   4  20  -7 6008.64  953.26
   4 -20   7 6780.18  755.71
   4  20   8 1226.43  697.73
  -4 -20   8 1055.63  640.79
  -4  20  -8 1198.53  617.13
   4 -20  -8 1656.92  803.58
   4  20  -8 2027.09  636.60
   4 -20   8 1317.02  702.53
   4  20   9 5359.88 1039.68
  -4 -20   9 4190.80  669.84
  -4  20  -9 4818.98  960.20
   4 -20  -9 5680.38 1149.00
   4  20  -9 5313.66  628.89
   4 -20   9 5582.17  969.79
   4  20  10 2567.12  841.56
  -4 -20  10 1951.48  786.92
  -4  20 -10 1814.41  770.20
   4 -20 -10 2274.75  914.24
   4  20 -10 2258.75  733.67
   4 -20  10 2303.35  527.28
  -4 -20  11  868.78  651.03
  -4  20 -11 1548.25  668.12
  -4 -20 -11 -250.07  453.48
   4  20 -11 1224.28  393.13
   4 -20  11 1161.16  659.16
  -4  20  11 1270.49  437.85
  -4 -20  12    0.51  347.96
  -4  20 -12  -13.59  562.48
  -4 -20 -12  118.02  393.54
   4 -20  12  547.75  349.47
  -4  20  12  576.41  595.61
   4  20 -12  705.15  531.96
  -4 -20  13  -53.63  660.31
  -4  20 -13  108.31  661.30
  -4 -20 -13 -149.68  477.15
   4  20 -13 1347.05  394.13
   4 -20  13 1101.00  648.62
  -4  20  13 1044.93  446.69
  -4 -20  14  114.31  669.41
  -4  20 -14  -92.37  407.91
  -4 -20 -14  -75.26  472.41
   4  20 -14 1009.31  611.62
   4 -20  14 1006.73  387.37
  -4  20  14  927.17  470.51
  -4 -20  15   38.76  354.47
  -4  20 -15   56.03  376.00
   4  20 -15  604.99  332.08
   4 -20  15   38.91  559.21
  -4  20  15  230.39  443.99
  -4 -20 -15  -72.99  733.90
  -4 -20  16   92.91  728.94
  -4  20 -16  146.15  711.16
  -4 -20 -16 -290.64  913.09
   4  20 -16   -5.18  637.12
   4 -20  16 1759.18  450.70
  -4  20  16  148.20  628.76
  -4 -20  17 -205.03  624.60
  -4  20 -17  241.53  626.78
  -4 -20 -17  228.39  743.76
   4  20 -17   -1.13  543.93
   4 -20  17  373.09  579.47
  -4  20  17  260.94  617.96
   4 -21   0  -72.26  294.73
   4  21   0  239.48  259.62
   4  21   1 3272.90  578.47
   4 -21  -1 5937.98  778.95
   4  21  -1 4733.35  892.36
   4 -21   1 6104.17  740.88
   4  21   2 4195.00  590.71
   4 -21  -2 3844.30  933.12
   4  21  -2 4358.59  818.95
   4 -21   2 3207.64  588.37
   4  21   310908.25 1294.92
   4 -21  -3 9464.88 1345.14
   4  21  -3 8741.55 1113.61
   4  21   4  244.31  547.30
  -4 -21   4  547.04  486.35
  -4  21  -4  317.22  461.37
   4 -21  -4  579.43  649.86
   4  21  -4  390.95  328.95
   4  21   5 3277.47  831.46
  -4 -21   5 2829.06  786.03
  -4  21  -5 2139.06  721.06
   4 -21  -5 3086.82  952.30
   4  21  -5 2755.08  494.46
   4 -21   5 3940.77  812.97
   4  21   6 3149.34  816.46
  -4 -21   6 2628.35  751.90
  -4  21  -6 1523.76  697.89
   4 -21  -6 2479.05  882.79
   4  21  -6 2718.77  721.49
   4 -21   6 3220.86  569.66
   4  21   7  530.29  577.00
  -4 -21   7  399.99  515.03
  -4  21  -7  -58.27  499.73
   4 -21  -7  826.01  655.15
   4  21  -7  106.51  510.24
   4 -21   7  286.41  567.96
   4  21   8   71.97  621.68
  -4 -21   8  364.40  360.63
  -4  21  -8  406.56  355.62
   4 -21  -8  905.86  761.02
   4  21  -8 1287.85  363.24
   4 -21   8  853.87  626.62
   4  21   9 1398.79  749.10
  -4 -21   9 1062.88  703.51
  -4  21  -9  614.51  661.93
   4 -21  -9 1573.32  846.32
   4 -21   9 1753.88  461.73
   4  21  -9 1325.93  650.96
   4  21  10 1345.48  764.11
  -4 -21  10  726.15  673.15
  -4  21 -10  923.27  419.24
   4 -21 -10 1637.71  858.98
   4  21 -10 1225.88  397.57
   4 -21  10  898.28  717.48
  -4 -21  11 2829.21  569.44
  -4  21 -11 2404.39  857.74
   4  21 -11 4138.36  828.98
  -4 -21 -11   -7.08  623.37
   4 -21  11 3904.64  608.21
  -4  21  11 3343.64  621.51
  -4 -21  12  -46.64  565.66
  -4  21 -12   85.35  337.65
  -4 -21 -12 -212.74  389.38
   4  21 -12  465.31  319.68
   4 -21  12  585.70  549.01
  -4  21  12  289.30  593.36
  -4 -21  13 3800.09  707.71
  -4  21 -13 -113.27 1043.85
  -4 -21 -13 6031.96  883.13
   4  21 -13 6192.90 1073.70
   4 -21  13 7503.19  832.69
  -4  21  13 6344.76 1225.72
  -4 -21  14  -69.10  637.47
  -4  21 -14 -303.54  630.36
  -4 -21 -14 -103.56  499.29
   4  21 -14  869.88  359.66
   4 -21  14  325.38  639.82
  -4  21  14  350.37  749.10
  -4 -21  15   37.65  564.30
  -4  21 -15 -306.62  533.01
  -4 -21 -15 -151.64  739.21
   4  21 -15 5007.39  825.88
   4 -21  15 2821.47  570.88
  -4  21  15 3469.96 1152.65
   4 -22   0  445.71  397.52
   4  22   0  568.82  580.68
   4  22   1 1259.59  395.83
   4 -22  -1 1179.13  446.75
   4  22  -1  708.68  636.09
   4 -22   1  431.34  695.94
   4 -22  -2 1527.58  495.85
   4  22   2 1270.28  425.48
   4  22  -2  783.87  628.64
   4  22   3 2903.47  562.33
   4 -22  -3 2993.29  925.99
   4  22  -3 2487.80  471.05
   4  22   4 5529.09  731.78
   4 -22  -4 7162.79 1211.05
   4  22  -4 5489.55  673.60
   4 -22   4 5884.63  778.73
   4  22   5 5222.28 1048.87
  -4  22  -5 4649.18  947.18
   4 -22  -5 5857.73 1206.35
   4  22  -5 4991.70  965.76
   4 -22   5 6885.48  769.72
  -4 -22   6 4727.81  739.03
  -4  22  -6 4019.58  897.69
   4 -22  -6 6935.58 1268.05
   4  22   6 4694.00 1003.92
   4  22  -6 6187.35  981.15
   4 -22   6 4999.16 1017.64
   4  22   7 2825.66  874.10
  -4 -22   7 3146.96  583.04
  -4  22  -7 1508.42  510.76
   4 -22  -7 2765.33  995.24
   4  22  -7 2743.21  531.60
   4 -22   7 2873.15  865.30
   4  22   8 8992.95 1356.47
  -4 -22   8 8071.14 1208.72
  -4  22  -8 8462.64 1282.73
   4 -22  -810913.14 1603.42
   4  22  -810998.11 1276.24
   4 -22   810546.91 1012.57
   4  22   9 3842.55 1052.96
  -4 -22   9 2171.19  879.01
  -4  22  -9 2701.69  903.00
   4 -22  -9 2868.67 1102.18
   4  22  -9 4755.91  656.15
   4 -22   9 3050.91  922.95
   4  22  10 3308.58  989.87
  -4 -22  10 2518.70  874.33
  -4  22 -10 2316.65  880.12
   4 -22 -10 -226.40 1107.91
   4  22 -10 3622.40  854.86
   4 -22  10 4665.61  668.34
  -4 -22  11 1423.87  757.81
  -4  22 -11  955.17  721.34
  -4 -22 -11 -122.23  527.70
   4  22 -11 1994.64  452.65
   4 -22  11 1326.43  752.39
  -4  22  11  939.11  498.89
  -4 -22  12  489.54  678.99
  -4  22 -12  551.08  681.79
  -4 -22 -12 -179.11  808.60
   4  22 -12  578.17  646.91
   4 -22  12  858.52  434.51
  -4  22  12  480.46  727.17
  -4 -22  13  371.62  634.20
  -4  22 -13  242.20  382.02
  -4 -22 -13   52.80  778.92
   4 -22  13  409.69  645.63
  -4  22  13  360.08  708.43
   4  23   0 3243.54  862.59
   4  23   1  990.38  651.75
   4 -23  -1  482.72  727.26
   4  23  -1  556.51  614.91
   4  23   2 6356.14  763.81
   4 -23  -2 7848.10  976.66
   4  23  -2 5837.00  742.55
   4 -23   2 4827.36 1135.37
   4  23   3  562.66  395.26
   4 -23  -3  632.14  478.59
   4  23  -3  879.47  375.27
   4 -23   3  476.26  444.18
   4  23   4 5028.44  765.60
   4 -23  -4 7423.03  919.50
   4  23  -4 5273.24  997.48
   4 -23   4 6351.11 1140.26
   4  23   5 4593.18  708.72
   4 -23  -5 4216.91 1191.31
   4  23  -5 5603.25  950.22
   4 -23   5 4224.02 1002.74
   4  23   6 2593.96  860.52
   4 -23  -6 4012.72  990.37
   4  23  -6 2411.22  507.38
   4 -23   6 1345.87  545.81
   4  23   7  395.99  643.85
  -4 -23   7   63.05  593.09
  -4  23  -7  109.91  573.73
   4 -23  -7 -151.45  759.22
   4  23  -7  205.40  553.21
   4 -23   7  928.93  405.74
   4  23   8 3274.29  892.90
  -4 -23   8 1673.55  777.54
  -4  23  -8  979.57  755.92
   4 -23  -8 2538.98 1011.54
   4  23  -8 2142.81  492.48
   4 -23   8  192.50  820.76
   4  23   9 1525.29  824.35
  -4 -23   9  395.56  750.53
  -4  23  -9  901.05  466.70
   4 -23  -9  -25.26  893.62
   4  23  -9 1596.63  690.52
   4 -23   9 1337.05  485.29
   4  23  10 1360.46  816.20
  -4 -23  10 1156.76  474.72
  -4  23 -10  900.03  763.11
   4 -23 -10  -34.40  912.90
   4  24   0   22.39  432.24
   4  24   1  427.24  616.29
   4  24  -1  384.37  357.58
   4 -24   1  305.85  403.22
   4  24   2 1414.78  736.86
   4 -24  -2 1238.21  841.88
   4  24  -2 1160.54  463.51
   4 -24   2  855.76  501.58
   4  24   3 2710.21  921.43
   4 -24  -3 2800.16  670.78
   4  24  -3 2583.63  854.00
   4 -24   3 3416.34  947.22
   4  24   4 3448.91  654.73
   4 -24  -4 3760.71  749.66
   4  24  -4 3572.92  594.86
   4 -24   4 3900.24 1030.81
   4  24   5 3898.17  694.03
   4 -24  -5 3533.78  799.16
   4  24  -5 3569.34  609.09
   4 -24   5 4442.97  702.80
   4  24   6 1674.70  581.69
   4 -24  -6 1831.03  630.27
   4  24   7 4089.81  745.87
  -5   0   0 2621.44  364.72
  -5   0   0 2336.96  303.69
  -5   0   1 4518.72  445.73
  -5   0  -1 3778.11  359.45
  -5   0   1 3200.90  415.85
  -5   0  -1 4025.86  416.73
  -5   0  -2 2372.52  317.53
  -5   0  -2 2591.06  417.18
  -5   0   2 3589.93  376.50
  -5   0   2 3175.31  414.17
  -5   0   3 5484.54  540.17
  -5   0  -3 4341.58  375.25
  -5   0  -3 4551.68  545.48
  -5   0   3 5207.39  448.01
  -5   0  -422142.64 1125.57
  -5   0  -421505.20 1441.65
  -5   0   423675.55 1430.23
  -5   0  -5 1536.68  352.11
  -5   0   5  902.07  206.04
  -5   0   5 1393.79  218.45
  -5   0  -5  886.51  173.85
  -5   0  -6 9583.63  541.22
  -5   0  -6 9922.41  880.77
  -5   0   610203.28  612.42
  -5   0   611427.87  770.03
  -5   0  -7  211.27  112.57
  -5   0  -7  140.46  292.25
  -5   0   7  336.33  292.40
  -5   0   7  213.03  143.42
  -5   0   829831.70 1883.06
  -5   0  -825467.70 1537.89
   5   0   825734.50 1211.82
  -5   0  -9 2104.61  365.74
   5   0   9 2625.12  233.23
  -5   0   9 1990.85  486.68
   5   0  -9 2226.93  245.96
  -5   0 -1020076.78 1486.17
   5   0  1018549.16  878.39
  -5   0  1020540.80 1296.36
   5   0 -1018452.66  937.41
  -5   0 -11  477.18  383.90
   5   0  11  329.65  135.26
  -5   0  11  712.77  386.71
   5   0 -11  601.25  193.82
  -5   0 -12 1433.08  328.18
   5   0  12 2000.05  240.46
   5   0 -12 1958.38  208.36
  -5   0  12 1663.93  513.59
  -5   0 -13  304.27  249.11
  -5   0  13  767.14  260.53
   5   0 -13  337.00  183.65
  -5   0 -14 2704.10  640.18
  -5   0  14 2661.04  603.36
  -5   0 -15  107.28  322.53
  -5   0  15  -31.08  311.15
  -5   0 -16 1766.36  399.61
  -5   0  16 2608.41  442.46
  -5   0 -17   -3.91  456.22
  -5   0  17 1117.53  486.35
  -5   0  18 4587.98  828.85
  -5   0 -18 3355.09  782.39
  -5   0 -19  865.60  345.60
  -5   0  19  301.24  316.51
  -5   0 -20 2557.95  711.69
  -5   0  20  582.76  638.42
  -5   0 -21  989.15  647.37
  -5   0  22  401.32  322.80
  -5   0 -22   15.65  304.41
  -5   0 -23  419.17  588.17
  -5   0 -24 1019.85  630.76
  -5   0  24   30.06  400.24
  -5   0 -25    3.75  237.87
  -5   0 -26  454.64  702.02
  -5   0 -27  858.50  673.87
  -5   0  27  -54.11  409.62
  -5  -1   041356.53 2254.82
  -5   1   043300.92 2194.03
  -5  -1   041986.38 2130.10
  -5   1   043254.28 2253.35
  -5  -1   143018.14 2208.43
  -5  -1   141861.54 2196.20
  -5   1  -144573.94 2240.74
  -5   1  -144287.62 2344.69
  -5  -1  -143454.55 2351.74
  -5  -1  -141521.74 2070.39
  -5   1   142001.91 2150.83
  -5   1   139693.21 2126.54
  -5   1  -239050.65 1978.68
  -5  -1   240991.89 2148.90
  -5   1  -241464.72 2264.01
  -5  -1   237125.74 1794.83
  -5  -1  -241789.87 2297.49
  -5   1   237987.41 1937.75
  -5   1   241987.88 2094.40
  -5  -1  -238132.87 1858.02
  -5  -1   312570.93  874.00
  -5  -1   311637.36  766.01
  -5   1  -311495.53  742.66
  -5   1  -311381.90  727.76
  -5  -1  -311943.19  678.79
  -5  -1  -312685.67  958.04
  -5   1   311672.53  720.14
  -5   1   312921.57  777.07
  -5   1  -4 4732.42  383.20
  -5  -1   4 4853.48  556.70
  -5   1  -4 4205.51  389.02
  -5  -1   4 5330.10  431.33
  -5  -1  -4 4991.46  406.43
  -5  -1  -4 5339.46  580.53
  -5   1   4 5017.62  420.60
  -5   1   4 4666.40  380.22
  -5  -1   5 6827.69  651.31
  -5  -1   5 4976.77  421.11
  -5   1  -5 5233.07  608.08
  -5  -1  -5 5337.37  343.52
  -5  -1  -5 6501.15  660.82
  -5   1   5 5565.97  467.49
  -5   1   5 5762.81  413.41
  -5   1  -6 2826.76  489.17
  -5  -1   6 3501.98  510.25
  -5  -1  -6 4074.14  541.16
   5  -1   6 4546.06  364.65
  -5   1   6 4461.11  414.99
  -5   1   6 4201.05  332.86
  -5  -1  -6 3707.04  262.34
   5   1  -6 3572.90  362.93
  -5  -1   7  371.44  212.50
  -5   1  -7  906.80  350.85
  -5  -1  -7  839.57  158.22
  -5  -1  -7  766.46  358.69
   5   1  -7  670.40  205.08
   5  -1   7  923.38  204.53
  -5   1   7 1052.11  358.80
  -5   1  -8 1038.69  301.08
  -5  -1   8 1277.40  407.26
  -5  -1  -8 1551.14  150.58
  -5  -1  -8 2000.22  448.25
   5   1  -8  942.97  232.43
   5  -1   8 1937.61  248.41
  -5   1   8 2023.61  428.81
  -5   1   8 1509.80  177.72
  -5  -1   9 2459.13  353.72
  -5   1  -9 2766.51  493.42
  -5  -1  -9 1754.74  153.83
  -5  -1  -9 1493.24  295.34
   5   1  -9 2233.98  264.47
   5  -1   9 2371.02  248.12
  -5   1   9 1988.63  475.77
  -5   1   9 1559.44  223.84
  -5  -1  10 6131.98  585.76
  -5   1 -10 6899.66  822.09
  -5  -1 -10 7172.02  665.25
   5  -1  10 6676.86  451.56
  -5   1  10 8370.47  860.39
  -5   1  10 7489.24  411.09
   5   1 -10 8011.39  528.74
   5   1  11 2074.95  160.41
  -5  -1  11 3168.65  559.12
  -5   1 -11 2592.36  395.44
  -5  -1 -11 3156.88  552.00
   5   1 -11 3030.55  339.39
   5  -1  11 2299.23  318.87
  -5   1  11 2059.71  368.42
  -5  -1  12 5550.95  574.14
   5  -1 -12 5227.12  322.87
  -5   1 -12 6902.45  869.83
  -5  -1 -12 4706.81  733.48
   5  -1  12 5809.78  395.85
  -5   1  12 5613.05  784.62
   5   1 -12 5505.54  413.46
  -5  -1  13 4919.65  759.77
  -5   1 -13 3900.33  727.31
  -5  -1 -13 4302.54  745.70
   5   1 -13 4135.24  342.39
   5  -1  13 4842.09  362.29
  -5   1  13 3911.78  707.41
  -5  -1  14 3683.71  705.42
  -5   1 -14 3696.23  506.80
  -5  -1 -14 3143.68  494.58
  -5   1  14 3832.04  710.88
   5   1 -14 4883.71  372.94
  -5  -1  15 4626.75  557.19
  -5   1 -15 3612.00  737.20
  -5   1  15 3494.25  494.56
  -5  -1 -15 4808.55  578.86
  -5  -1  16 3850.77  743.14
  -5   1 -16 5395.07  834.37
  -5  -1 -16 4224.92  800.62
  -5   1  16 4138.72  754.92
  -5  -1  17 6613.17  768.80
  -5   1 -17 8244.76  835.63
  -5  -1 -17 8980.69 1110.37
  -5   1  17 8213.60 1014.48
  -5  -1  18 2527.52  681.15
  -5   1 -18 3375.78  701.70
  -5   1  18 2531.24  472.10
  -5  -1 -18 2512.74  490.33
  -5  -1  19 1075.35  634.52
  -5   1 -19 2064.15  457.79
  -5  -1 -19 2059.71  437.33
  -5  -1  20  202.25  303.97
  -5   1 -20    2.29  282.71
  -5  -1 -20  614.03  482.17
  -5   1 -21  159.21  508.34
  -5   1  21  455.29  309.82
  -5  -1 -21 -182.65  511.26
  -5  -1  22  130.70  295.16
  -5   1 -22  157.25  292.25
  -5  -1 -22  129.83  294.13
  -5   1  22  135.05  471.95
  -5   1 -23 1274.60  661.74
  -5  -1 -23  324.78  640.05
  -5  -1  24 -144.27  322.13
  -5   1 -24  955.44  537.42
  -5  -1 -24  362.19  541.10
  -5   1  24   31.20  335.58
  -5  -1  25   41.20  279.92
  -5   1 -25  102.78  286.90
  -5  -1 -25  -71.49  270.17
  -5   1 -26  -82.41  664.66
  -5  -1 -26  638.17  659.98
  -5   1 -27  205.34  698.91
  -5  -1 -27 1638.86  741.88
  -5   1  27   10.63  437.16
  -5  -2   019676.61 1116.26
  -5  -2   018371.69 1118.65
  -5   2   017981.22 1066.90
  -5   2   018142.87  941.27
  -5  -2   1 3446.24  408.23
  -5  -2   1 4861.32  389.41
  -5   2  -1 3395.73  413.35
  -5   2  -1 3626.14  463.07
  -5  -2  -1 5171.87  555.52
  -5   2   1 4508.29  346.46
  -5  -2  -1 4567.77  409.68
  -5   2   1 5447.88  523.77
  -5   2  -2 1482.51  216.24
  -5  -2   2 1963.66  306.51
  -5   2  -2 1082.25  266.49
  -5  -2   2  919.32  269.96
  -5  -2  -2  771.22  185.67
  -5  -2  -2 1189.02  354.67
  -5   2   2  359.33  281.52
  -5   2   2  679.48  232.55
  -5  -2   3 8126.53  564.51
  -5  -2   3 8374.17  611.90
  -5   2  -3 7859.56  695.60
  -5   2  -3 6868.22  439.04
  -5  -2  -3 7509.59  492.58
  -5  -2  -3 8638.69  759.40
  -5   2   3 8363.77  562.52
  -5   2   3 8452.47  680.78
  -5  -2   4 5020.50  512.26
  -5   2  -4 3939.59  514.23
  -5  -2  -4 3360.54  331.32
  -5  -2  -4 2550.24  490.39
   5   2  -4 3571.44  293.25
   5  -2   4 4031.80  401.46
  -5   2   4 3157.28  470.45
  -5   2   4 3789.01  340.50
  -5  -2   514605.70  907.37
  -5   2  -512934.80  852.39
  -5  -2  -512409.27  640.46
  -5  -2  -514304.15 1069.32
   5   2  -513072.83  851.59
   5  -2   513885.54  839.46
  -5   2   514883.64  831.58
  -5   2   514932.16  926.96
  -5  -2   6 5311.67  599.37
  -5   2  -6 3852.99  543.02
  -5  -2  -6 4493.53  317.13
  -5  -2  -6 3734.73  561.54
   5   2  -6 4965.37  446.23
   5  -2   6 4566.60  409.14
  -5   2   6 4410.10  418.78
  -5   2   6 4446.41  331.21
  -5  -2   712534.13  848.96
  -5   2  -711645.27  988.14
  -5   2   712347.84  641.66
  -5  -2  -710538.65  963.67
   5   2  -711861.88  730.34
   5  -2   713179.72  776.42
  -5   2   712609.20  851.49
  -5  -2  -710589.68  501.99
  -5  -2   8  202.68  284.04
  -5   2  -8   12.35  179.54
  -5  -2  -8   74.71   72.96
  -5  -2  -8  323.24  283.22
   5   2  -8  149.23  164.98
   5  -2   8   35.18  154.20
  -5   2   8  327.99  285.02
  -5   2   8  162.38   90.55
  -5  -2   916611.40 1260.25
  -5   2  -915774.37 1295.75
   5   2  -915706.37  913.19
   5  -2   916509.54  892.34
  -5   2   915146.51  713.53
  -5   2   916515.44 1256.62
  -5  -2  -916058.53 1217.06
  -5  -2  10 1243.29  451.07
  -5   2 -10  734.78  286.27
  -5  -2 -10 1773.88  442.25
   5   2 -10  984.51  245.99
   5  -2  10 1832.82  252.33
  -5   2  10  564.23  441.70
  -5  -2  11 7365.01  847.35
  -5   2 -11 5993.30  783.23
  -5  -2 -11 5878.92  775.90
   5   2 -11 6769.85  491.29
   5  -2  11 5832.19  444.25
  -5   2  11 5020.17  734.35
  -5  -2  12 1875.98  383.30
  -5   2 -12 1593.94  534.48
  -5  -2 -12 2258.77  369.76
   5   2 -12 2252.59  298.09
   5  -2  12 1810.56  275.74
  -5   2  12 2341.88  382.04
  -5  -2  13 1539.07  533.56
  -5   2 -13 1887.26  343.86
   5   2 -13 1878.31  272.90
   5  -2  13 2021.24  280.27
  -5   2  13 1907.82  335.78
  -5  -2 -13 1199.37  335.94
  -5   2 -14  369.28  532.64
  -5  -2  14 1477.63  353.87
  -5  -2 -14 1602.09  526.45
   5   2 -14 1961.51  266.46
   5  -2  14 1557.72  268.03
  -5   2  14 1675.16  343.58
  -5  -2  15  484.43  418.09
  -5   2 -15  146.00  265.52
  -5  -2 -15  550.27  431.37
   5   2 -15  315.79  189.98
   5  -2  15  307.02  203.90
  -5   2  15  503.08  418.99
  -5  -2  16  322.28  263.02
  -5   2 -16  546.52  442.29
  -5  -2 -16  338.24  423.02
  -5   2  16   71.02  431.36
  -5  -2  17  656.98  636.65
  -5   2 -17 2261.68  647.72
  -5  -2 -17 1631.85  407.28
  -5   2  17 2564.15  406.98
  -5  -2  18   -0.88  276.62
  -5   2 -18  439.42  265.92
  -5  -2 -18  146.55  259.76
  -5   2  18   37.00  246.31
  -5  -2  19 3246.08  770.41
  -5   2 -19 1251.70  748.18
  -5  -2 -19 2947.46  743.36
  -5  -2  20  688.37  359.00
  -5   2 -20  858.77  349.51
  -5  -2 -20  807.60  595.99
  -5  -2  21 3565.83  880.17
  -5   2 -21 2911.87  859.65
  -5   2  21 3424.00  601.24
  -5  -2 -21 4574.73  698.06
  -5  -2  22 -125.69  314.27
  -5   2 -22    5.21  491.17
  -5  -2 -22 -335.22  327.12
  -5   2 -23 1316.31  469.65
  -5  -2 -23 1434.71  750.46
  -5   2  23 1836.36  740.09
  -5  -2  24  157.86  479.20
  -5   2 -24  384.54  485.09
  -5  -2 -24 -380.38  486.72
  -5   2  24 -165.26  285.56
  -5  -2  25 2795.16  578.76
  -5   2 -25  -33.43  541.70
  -5  -2 -25 1809.81  537.63
  -5   2  25  -99.61  862.65
  -5  -2  26  729.65  712.84
  -5   2 -26  117.85  706.53
  -5  -2 -26  649.78  447.14
  -5   2 -27  -95.87  730.27
  -5  -2 -27  971.67  737.41
  -5  -3   014437.28  873.62
  -5   3   013930.18  784.66
  -5  -3   014112.63  837.35
  -5   3   014896.74  833.32
  -5   3  -118869.18 1137.69
  -5  -3   118102.63 1075.52
  -5   3  -116114.15 1021.66
  -5  -3   114935.16  869.60
  -5  -3  -117308.37 1177.51
  -5   3   119475.89 1082.50
  -5   3   117586.70 1092.37
  -5  -3  -119076.41 1087.34
  -5  -3   2 2964.00  376.61
  -5  -3   2 2605.02  295.21
  -5   3  -2 3454.55  450.44
  -5   3   2 4195.14  380.94
  -5  -3  -2 3351.56  308.44
  -5   3   2 3697.42  459.55
  -5   3  -310149.85  785.02
  -5  -3   310113.94  661.33
   5   3  -310562.21  752.27
  -5  -3  -310739.45  645.15
  -5  -3  -3 9863.91  856.23
   5  -3   310010.27  736.81
  -5   3   3 9507.56  780.17
  -5   3   311352.64  683.76
  -5  -3   4 3194.29  458.31
  -5   3  -4 2645.88  441.45
  -5  -3  -4 2608.92  471.30
   5   3  -4 2675.37  274.29
   5  -3   4 3305.04  386.73
  -5   3   4 2958.03  440.44
  -5   3   4 2804.45  285.80
  -5  -3  -4 2414.97  268.97
  -5  -3   5  911.08  315.49
  -5   3  -5  802.10  321.05
  -5  -3  -5  266.89  126.48
  -5  -3  -5  425.45  104.36
  -5  -3  -5 1241.65  224.93
   5  -3   5  915.88  253.46
  -5   3   5  793.49  212.21
  -5   3   5 1265.91  211.42
   5   3  -5  862.67  257.87
  -5  -3   6 1029.19  208.01
  -5   3  -6  828.43  219.70
  -5  -3  -6  492.09  114.94
  -5  -3  -6  718.82  228.02
   5   3  -6  678.85  255.43
   5  -3   6  648.47  244.70
  -5   3   6  805.85  217.99
  -5   3   6  846.31  142.22
  -5  -3   7  469.20  351.41
  -5   3  -7  906.89  354.69
  -5  -3  -7  999.75  234.77
   5   3  -7  804.08  159.48
   5  -3   7  980.31  253.86
  -5   3   7  645.10  222.23
  -5   3   7  968.64  128.71
  -5  -3  -7  425.86   78.90
  -5  -3   8  730.13  231.36
  -5   3  -8  360.04  207.82
  -5  -3  -8 1545.80  243.52
   5   3  -8  534.94  229.36
   5  -3   8  998.19  240.44
  -5   3   8  169.03  220.38
  -5   3   8  396.11   98.71
  -5   3  -9 4928.16  693.46
  -5  -3   9 5495.26  732.35
  -5  -3  -9 4386.20  497.24
   5  -3   9 6454.38  513.20
  -5   3   9 5396.69  522.27
   5   3  -9 5973.17  499.84
  -5  -3  10  606.60  387.54
  -5   3 -10  371.49  264.47
  -5  -3 -10 1107.88  261.36
   5   3 -10 1040.03  247.30
   5  -3  10  995.52  249.72
  -5   3  10 1376.26  290.63
  -5   3 -11 1559.56  510.90
  -5  -3  11 1235.85  313.20
  -5  -3 -11 1958.95  487.59
  -5   3  11 3072.08  385.12
   5  -3  11 1859.94  296.56
   5   3 -11 2049.47  311.03
  -5  -3  12 2009.57  575.61
  -5   3 -12 1629.50  366.82
  -5  -3 -12 1517.20  500.00
   5   3 -12 2456.36  316.61
   5  -3  12 2126.58  307.34
  -5   3  12 2411.74  534.91
  -5  -3  13 6369.93  657.31
   5   3 -13 7067.27  551.39
  -5  -3 -13 5922.41  823.33
   5  -3  13 7067.26  549.56
  -5   3  13 5878.65  801.97
  -5  -3  14 2366.93  771.47
  -5   3 -14 5542.75  624.41
  -5  -3 -14 4990.62  795.90
   5   3 -14 6522.73  520.91
   5  -3  14 6317.76  513.93
  -5   3  14 5097.66  769.01
  -5  -3  15 4996.64  594.65
  -5   3 -15 3710.32  761.72
  -5  -3 -15 5249.54  795.46
  -5   3  15 5160.75  757.26
   5   3 -15 5329.57  471.06
   5  -3  15 4716.38  470.18
  -5  -3  16 6078.82  900.17
  -5   3 -16 5546.65  669.14
  -5  -3 -16 6504.44  733.92
   5   3 -16 8173.61  603.14
   5  -3  16 5911.68  541.36
  -5   3  16 4733.04  613.35
  -5  -3  17 3722.02  547.62
  -5   3 -17 3274.36  751.58
  -5  -3 -17 2791.33  499.63
  -5   3  17 3102.37  484.95
  -5  -3  18 4804.82  904.39
  -5   3 -18 4165.66  631.52
  -5  -3 -18 5548.16  954.07
  -5   3  18 4633.10  831.67
  -5  -3  19  763.34  380.11
  -5   3 -19  958.30  594.68
  -5   3  19  912.15  543.65
  -5  -3 -19  821.86  576.53
  -5  -3  20 1811.96  776.03
  -5   3 -20 1597.16  731.25
  -5  -3 -20 3821.81  849.09
  -5   3  20 2689.00  496.53
  -5  -3  21 -363.80  299.15
  -5   3 -21 -378.03  294.34
  -5  -3 -21  228.94  319.32
  -5   3  21 -193.44  292.35
  -5  -3  22 -272.95  426.89
  -5   3 -22  566.29  418.81
  -5  -3 -22  -54.51  257.92
  -5  -3  23  805.02  394.74
  -5   3 -23   70.94  386.81
  -5  -3 -23   13.69  634.11
  -5   3  23 1216.45  650.02
  -5  -3  24 -139.51  510.02
  -5   3 -24  -84.90  520.54
  -5  -3 -24 -181.45  540.05
  -5   3  24  414.31  331.68
  -5  -3  25 1720.07  490.17
  -5   3 -25  -67.76  474.75
  -5  -3 -25  963.96  466.74
  -5   3  25 -141.07  749.52
  -5  -3  26 2123.99  700.16
  -5   3 -26 -144.89  691.04
  -5  -3 -26  -82.88  435.78
  -5  -3 -27 1914.94  976.37
  -5  -4   0  768.35  302.84
  -5   4   0  309.29  173.18
  -5   4   0  741.79  224.57
  -5  -4   0  751.66  195.47
  -5   4  -1 2657.01  384.77
  -5  -4   1 2965.50  293.19
  -5  -4  -1 3586.15  511.94
  -5  -4  -1 2513.16  302.91
   5   4  -1 2522.95  332.93
   5  -4   1 3477.93  499.89
  -5   4   1 3359.55  466.22
  -5   4   1 2871.60  346.79
  -5  -4   2 7206.36  520.81
  -5   4  -2 7043.13  637.61
  -5   4   2 7929.90  551.59
  -5  -4  -2 7983.52  565.02
   5   4  -2 7037.94  657.89
   5  -4   2 8097.73  710.90
  -5   4   2 7303.36  672.28
  -5  -4  -2 7624.59  715.66
  -5   4  -3  987.17  230.38
  -5  -4   3 1479.27  216.89
  -5  -4  -3 1663.82  257.80
  -5  -4  -3 1424.03  192.37
   5   4  -3 1594.51  341.39
   5  -4   3 1450.83  352.59
  -5   4   3 1824.65  289.69
  -5   4   3 1270.98  249.03
  -5  -4   4 2324.86  412.81
  -5   4  -4 2644.81  446.73
  -5   4   4 2860.32  280.35
  -5  -4  -4 2780.51  344.11
   5   4  -4 2528.88  376.73
   5  -4   4 3299.43  412.69
  -5   4   4 2953.67  332.34
  -5  -4  -4 2272.38  248.37
  -5   4  -5 3363.85  503.53
  -5  -4   5 3302.43  487.48
  -5  -4  -5 2403.47  215.85
  -5  -4  -5 3111.66  376.49
   5   4  -5 3447.08  303.48
   5  -4   5 4350.24  449.76
  -5   4   5 3336.46  362.15
  -5   4   5 4013.98  306.37
  -5  -4   618668.89 1332.49
  -5   4  -616752.48 1074.52
  -5  -4  -615386.32 1213.82
   5   4  -617416.94 1063.95
   5  -4   617694.27 1085.91
  -5   4   616800.21 1230.43
  -5   4   617387.50  848.77
  -5   4  -7 1154.78  395.43
  -5  -4   7 1377.74  392.24
  -5  -4  -7 2177.36  403.41
   5   4  -7  974.45  293.51
   5  -4   7 1201.65  297.72
  -5   4   7  703.20  145.73
  -5   4   7 1148.57  407.87
  -5  -4   810656.67  783.72
  -5   4  -8 9936.37  774.26
  -5   4   810892.33 1000.74
  -5  -4  -810324.68  991.92
   5   4  -810191.70  724.30
   5  -4   813280.20  823.22
  -5   4  -9  383.40  398.01
  -5  -4   9  600.19  389.16
  -5  -4  -9  642.19  359.18
   5   4  -9  797.46  255.39
   5  -4   9  573.18  248.40
  -5   4   9  313.99  367.29
  -5  -4  1010033.01 1040.51
  -5   4 -10 9335.72  970.23
  -5  -4 -10 9667.15  959.84
   5   4 -1010767.60  737.46
   5  -4  1010951.19  730.88
  -5   4  10 8762.48  895.87
  -5   4 -11 3200.55  647.64
  -5  -4  11 2441.66  428.16
  -5  -4 -11 3245.80  591.27
   5   4 -11 3700.79  431.34
   5  -4  11 3957.58  450.00
  -5   4  11 2684.42  610.18
  -5  -4  12 5252.06  851.39
  -5   4 -12 6012.73  831.19
  -5  -4 -12 6509.65  821.17
   5   4 -12 7191.82  566.79
   5  -4  12 6610.92  562.45
  -5   4  12 6363.41  811.70
  -5   4 -13  371.29  296.29
  -5  -4  13 1139.00  484.83
   5   4 -13 1213.49  276.64
   5  -4  13  655.64  274.99
  -5   4  13 1190.17  447.42
  -5  -4 -13  598.17  436.36
  -5  -4  14  801.19  339.08
  -5   4 -14 1357.98  520.20
  -5  -4 -14 1412.51  328.44
   5   4 -14 1229.29  288.05
   5  -4  14 1144.24  293.80
  -5   4  14  587.50  284.55
  -5  -4  15  559.14  493.50
  -5   4 -15   16.51  288.51
  -5  -4 -15  383.89  286.00
   5   4 -15  961.95  262.21
   5  -4  15  783.99  275.34
  -5   4  15  717.97  291.69
  -5  -4  16  279.12  258.39
  -5   4 -16  589.90  456.58
  -5  -4 -16  204.26  255.68
   5   4 -16  102.96  215.23
   5  -4  16  278.96  232.85
  -5   4  16  175.69  232.70
  -5   4 -17 1159.34  354.74
  -5  -4  17  644.67  547.61
   5   4 -17  802.58  193.27
  -5   4  17  949.32  542.77
  -5  -4 -17  634.44  333.38
  -5  -4  18 2767.82  527.07
  -5   4 -18 2744.98  816.42
  -5  -4 -18 2510.40  712.80
  -5   4  18 2666.72  704.42
  -5  -4  19 1033.46  615.17
  -5   4 -19  935.13  392.35
  -5   4  19 1151.87  567.73
  -5  -4  20 4677.75  927.15
  -5   4 -20 6589.86 1042.34
  -5   4  20 4027.40  637.69
  -5  -4 -20 4453.42  940.45
  -5  -4  21 -179.49  230.10
  -5   4 -21  435.15  233.51
  -5  -4 -21 -178.04  231.22
  -5   4  21  -13.05  230.48
  -5  -4  22 6862.76 1096.77
  -5   4 -22 3550.90  949.39
  -5  -4 -22 5247.62  709.90
  -5   4  22 7208.80 1156.99
  -5  -4  23   72.51  304.98
  -5   4 -23  178.94  309.12
  -5  -4 -23 -252.99  512.20
  -5   4  23  476.52  520.29
  -5  -4  24 1169.16  874.16
  -5   4 -24 -120.68  873.99
  -5  -4 -24  276.00  850.19
  -5   4  24 3985.82  668.31
  -5  -4  25   52.20  339.34
  -5   4 -25  -31.45  338.19
  -5  -4 -25 -571.98  551.99
  -5   4  25  608.48  378.23
  -5  -4  26   15.24  799.65
  -5   4 -26 -214.38  789.17
  -5  -4 -26 1650.19  529.22
  -5  -4 -27   56.72  353.24
   5   5   021564.87 1443.89
   5  -5   020890.17 1434.30
  -5   5   024099.04 1346.15
  -5  -5   024420.12 1288.86
  -5  -5   1 2797.07  362.94
  -5   5  -1 2510.10  378.99
  -5  -5  -1 2868.92  314.24
  -5  -5  -1 2361.63  324.37
   5   5  -1 2659.54  439.91
   5  -5   1 2094.35  313.69
  -5   5   1 3294.56  348.24
  -5   5   1 2759.57  306.68
  -5   5  -2 4470.03  484.42
  -5  -5   2 4493.37  492.39
  -5  -5  -2 4538.10  404.72
  -5  -5  -2 3065.18  524.77
   5   5  -2 3611.24  508.48
   5  -5   2 4616.24  538.56
  -5   5   2 3620.62  371.32
  -5   5   2 3770.18  357.51
  -5   5  -3 6314.93  623.70
  -5  -5   3 6527.45  617.45
  -5  -5  -3 4940.76  609.58
   5   5  -3 5079.35  416.36
   5  -5   3 6610.77  623.08
  -5   5   3 6275.54  429.43
  -5   5   3 5830.85  635.35
  -5  -5  -3 5406.58  350.97
  -5   5  -4 1964.56  282.48
  -5  -5   4 2385.86  309.23
  -5  -5  -4 1539.09  190.98
  -5  -5  -4 2243.49  431.51
   5   5  -4 2238.51  387.85
   5  -5   4 2652.89  423.31
  -5   5   4 1859.92  220.84
  -5   5   4 2538.19  432.55
  -5  -5   5 1865.35  286.17
  -5   5  -5 1513.14  406.41
  -5  -5  -5 1796.94  430.19
   5   5  -5 1550.94  357.07
   5  -5   5 2421.68  392.32
  -5   5   5 1568.11  215.92
  -5   5   5 2012.99  432.76
  -5  -5   6 2959.52  370.81
  -5   5  -6 3342.34  522.12
  -5  -5  -6 3231.79  385.60
   5   5  -6 3236.90  433.28
   5  -5   6 3375.67  323.62
  -5   5   6 2660.74  513.54
  -5   5   6 2924.25  251.27
  -5   5  -7  921.26  372.30
  -5  -5   7 1117.78  249.69
  -5  -5  -7  814.26  238.93
   5   5  -7  654.92  183.01
   5  -5   7  636.90  300.90
  -5   5   7  605.77  246.06
  -5   5  -8 1023.93  271.71
  -5  -5   8 1274.92  442.51
  -5  -5  -8 1739.28  297.79
   5   5  -8 1273.99  306.71
   5  -5   8 1065.18  195.64
  -5   5   8 1013.90  304.03
  -5  -5   9  469.83  310.91
  -5   5  -9  163.99  281.14
  -5  -5  -9   59.76  173.32
   5   5  -9  249.03  200.78
   5  -5   9  173.90  217.18
  -5   5   9 -244.37  175.23
  -5   5 -10  455.64  389.10
  -5  -5  10  108.34  383.64
  -5  -5 -10  432.27  246.85
   5   5 -10  686.39  270.70
   5  -5  10  373.66  268.38
  -5   5  10  648.53  237.17
  -5  -5  11 1582.36  362.63
  -5   5 -11  654.25  318.17
  -5  -5 -11 1991.70  335.08
   5   5 -11 2441.98  353.33
   5  -5  11 1593.17  360.32
  -5   5  11 2002.75  347.31
  -5  -5  12 6902.61  887.20
  -5   5 -12 4862.12  812.76
  -5  -5 -12 5780.10  617.60
   5   5 -12 7260.76  614.36
   5  -5  12 6454.25  469.13
  -5   5  12 6832.12  665.07
  -5  -5  13 1834.69  598.25
  -5   5 -13 1741.11  584.66
  -5  -5 -13 2683.17  404.77
   5   5 -13 2209.42  373.97
   5  -5  13 1983.84  374.38
  -5   5  13 2605.86  396.19
  -5  -5  14 4514.63  816.65
  -5   5 -14 4283.22  583.57
  -5  -5 -14 3946.83  527.97
   5   5 -14 5316.34  528.10
   5  -5  14 6451.99  584.42
  -5   5  14 5104.57  597.84
  -5  -5  15 6753.46  730.00
  -5   5 -15 6173.21  985.30
  -5  -5 -15 6034.89  690.83
   5   5 -15 9928.09  732.31
   5  -5  15 8357.58  562.24
  -5   5  15 6530.09  925.17
  -5   5 -16 1169.27  409.10
  -5  -5  16 1201.87  611.49
   5   5 -16 1291.88  341.25
   5  -5  16 1826.43  366.35
  -5   5  16 1255.62  557.80
  -5  -5 -16 1474.01  365.76
  -5  -5  17 1945.00  448.67
  -5   5 -17 1084.21  689.78
  -5  -5 -17 1925.66  679.39
   5   5 -17 3349.59  431.51
   5  -5  17 2399.56  425.47
  -5   5  17 1812.93  674.15
  -5  -5  18 2134.13  485.24
  -5   5 -18 3021.87  506.98
  -5  -5 -18 2542.90  739.99
   5   5 -18 2985.66  457.84
  -5   5  18 2362.91  670.47
  -5  -5  19 3392.32  783.99
  -5   5 -19 4702.67  879.93
  -5  -5 -19 3144.76  843.37
  -5   5  19 2091.24  504.34
  -5  -5  20  628.23  374.82
  -5   5 -20 1647.38  622.65
  -5  -5 -20  554.91  598.59
  -5   5  20  295.12  332.34
  -5  -5  21  941.86  644.84
  -5   5 -21  309.90  610.35
  -5  -5 -21 -153.01  383.17
  -5   5  21 1874.47  427.58
  -5  -5  22   45.90  307.73
  -5   5 -22 -315.96  495.24
  -5  -5 -22 -321.97  302.02
  -5   5  22   29.22  481.34
  -5  -5  23  323.65  527.11
  -5   5 -23  430.59  309.08
  -5  -5 -23 -180.36  320.71
  -5   5  23 -126.51  509.74
  -5  -5  24  888.45  718.96
  -5   5 -24   45.35  675.03
  -5  -5 -24  -52.76  675.41
  -5   5  24 1181.94  471.63
  -5  -5  25  791.66  446.62
  -5   5 -25  -73.77  420.11
  -5  -5 -25  -42.06  720.32
  -5   5  25 1186.17  475.85
  -5  -5  26  903.14  781.15
  -5   5 -26   27.15  797.22
  -5  -5 -26  476.58  829.53
  -5   5  26 2227.30  866.95
  -5  -6   0 1624.73  265.85
   5  -6   0 1914.03  304.69
   5   6   0 1789.61  434.96
  -5   6   0 2261.93  293.51
   5   6   1 1108.45  395.94
  -5  -6   1  840.44  241.56
  -5   6  -1  725.29  180.28
   5  -6  -1 1359.98  416.26
  -5  -6  -1  707.74  192.26
   5   6  -1 1049.51  365.63
   5  -6   1 1374.64  382.93
  -5   6   1 1102.13  234.03
  -5  -6   2 2119.02  328.29
  -5   6  -2 1676.29  365.36
  -5  -6  -2 2420.26  300.32
  -5  -6  -2 2979.20  352.08
   5  -6   2 2530.89  427.48
  -5   6   2  835.23  261.82
   5   6  -2 2061.85  288.71
  -5  -6   3 3770.93  467.89
  -5   6  -3 4046.96  503.22
  -5  -6  -3 2496.94  230.52
  -5  -6  -3 3316.86  387.68
   5   6  -3 4123.64  512.66
  -5   6   3 3461.36  312.83
   5  -6   3 3691.45  360.04
  -5   6   3 4405.30  553.04
  -5  -6   4 3046.43  442.79
  -5   6  -4 2510.29  442.93
  -5  -6  -4 1861.88  189.36
  -5  -6  -4 2447.08  483.40
   5   6  -4 2658.89  430.06
   5  -6   4 2884.13  469.41
  -5   6   4 2243.09  277.09
  -5   6   4 2423.32  332.47
  -5  -6   516788.94 1167.18
  -5   6  -515965.69 1159.53
  -5  -6  -515023.76 1172.94
   5   6  -514185.73  987.04
   5  -6   514769.52 1045.66
  -5   6   514903.55 1147.03
  -5   6   512203.01  656.35
  -5  -6   6  -41.45  263.46
  -5   6  -6  203.33  277.86
   5  -6   6  136.41  244.50
  -5   6   6   73.11   75.07
  -5   6   6  437.50  300.78
   5   6  -6  547.66  249.27
  -5  -6   717181.88 1333.92
  -5   6  -717666.38 1142.20
  -5  -6  -717058.74 1342.33
   5   6  -717273.96  963.93
   5  -6   717532.79 1154.78
  -5   6   718541.94 1360.63
  -5  -6   8 4745.93  717.18
  -5   6  -8 4348.63  512.60
   5   6  -8 6182.70  578.68
  -5  -6  -8 4352.20  672.50
   5  -6   8 5628.32  600.45
  -5   6   8 5786.44  715.71
  -5  -6   9 8336.50  924.30
  -5   6  -9 8026.26  904.13
   5   6  -9 8995.11  700.67
   5  -6   9 8882.71  701.30
  -5   6   9 7889.77  861.19
  -5  -6  -9 6879.03  851.99
  -5  -6  10 1105.13  458.07
  -5   6 -10  742.88  450.23
  -5  -6 -10 1048.12  276.36
   5  -6  10  817.13  334.73
  -5   6  10 1249.55  441.78
   5   6 -10  970.76  332.57
  -5  -6  11 5799.75  606.03
  -5   6 -11 5627.80  616.43
  -5  -6 -11 5499.97  589.71
   5   6 -11 6615.33  602.78
   5  -6  11 7014.83  631.85
  -5   6  11 6134.68  605.55
  -5  -6  12  806.42  329.15
  -5   6 -12  973.75  338.03
  -5  -6 -12 1454.11  341.29
   5   6 -12 2259.46  371.65
   5  -6  12 2142.87  383.04
  -5   6  12 1499.02  344.56
  -5  -6  13 8761.62 1019.41
  -5   6 -13 9162.71 1065.88
  -5  -6 -13 8224.31  779.01
   5   6 -13 8756.64  723.26
   5  -6  13 9585.28  768.18
  -5   6  13 9448.08 1022.27
  -5  -6  14 -248.22  447.98
  -5   6 -14 -139.21  470.56
  -5  -6 -14  782.28  267.43
  -5   6  14  449.00  449.70
   5   6 -14  400.95  177.43
  -5  -6  15  881.45  554.53
  -5   6 -15 1046.01  356.04
  -5  -6 -15  943.73  336.07
   5   6 -15 1182.12  346.43
   5  -6  15  918.32  352.88
  -5   6  15 1235.91  523.86
  -5  -6  16  638.82  355.41
  -5   6 -16 1600.56  572.57
  -5  -6 -16  585.42  513.27
   5  -6  16 1284.55  383.60
  -5   6  16  678.20  520.53
   5   6 -16 1087.91  351.93
  -5  -6  17 1691.55  651.38
  -5   6 -17 1403.23  435.41
  -5  -6 -17 1538.93  630.88
   5   6 -17 1747.51  274.91
   5  -6  17 1547.28  401.64
  -5   6  17 1205.76  572.13
  -5  -6  18  205.76  549.03
  -5   6 -18  832.59  560.99
  -5  -6 -18 1204.06  542.82
   5  -6  18  481.10  330.20
  -5   6  18  665.85  511.80
   5   6 -18  272.73  312.59
  -5  -6  19 5610.21  758.28
  -5   6 -19 4838.79  962.62
  -5  -6 -19 4928.73  988.38
  -5   6  19 6146.35  789.59
  -5  -6  20  947.80  674.15
  -5   6 -20 1892.96  436.56
  -5  -6 -20  957.67  636.29
  -5   6  20  324.68  407.39
  -5  -6  21 3117.40  740.31
  -5   6 -21 1787.51  663.47
  -5   6  21  149.32  421.71
  -5  -6 -21   84.80  658.19
  -5  -6  22  456.24  338.06
  -5   6 -22  247.17  311.83
  -5  -6 -22 -225.84  325.32
  -5   6  22  249.83  524.83
  -5  -6  23 2683.71  953.13
  -5   6 -23 2727.74  879.54
  -5  -6 -23 3507.67  603.83
  -5   6  23  389.57  950.22
  -5  -6  24  721.25  429.90
  -5   6 -24  615.25  405.34
  -5  -6 -24  374.56  671.12
  -5   6  24  333.64  696.07
  -5  -6  25 4036.51 1045.06
  -5   6 -25 -146.09  931.32
  -5  -6 -25 -229.01  951.71
  -5   6  25 4192.06  752.83
  -5  -6  26  140.58  504.86
  -5   6 -26  274.55  522.90
  -5  -6 -26 -231.41  524.19
  -5   6  26   -2.42  355.35
  -5  -7   011609.57  743.03
   5   7   012146.87 1039.20
  -5   7   011554.16  803.91
   5  -7   012210.46 1064.84
   5   7   125127.21 1653.81
  -5  -7   123264.01 1354.59
  -5   7  -122107.89 1349.06
   5  -7  -124542.32 1435.48
  -5  -7  -122231.17 1185.14
   5   7  -121851.63 1264.67
   5  -7   123762.45 1608.86
  -5   7   125975.80 1386.93
   5   7   2 7010.03  810.68
  -5   7  -2 7843.30  694.16
   5  -7  -2 7357.57  799.60
  -5  -7   2 6368.65  585.57
  -5  -7  -2 6823.77  453.34
   5   7  -2 6665.91  535.37
   5  -7   2 5915.84  502.05
  -5   7   2 6731.49  493.63
  -5  -7   3 7619.68  673.61
  -5   7  -3 6947.06  695.90
  -5  -7  -3 6764.07  403.55
  -5  -7  -3 6580.58  567.71
   5   7  -3 7504.37  714.04
   5  -7   3 7694.98  570.57
  -5   7   3 4826.24  498.74
  -5   7   3 8535.38  536.80
  -5  -7   4 4808.62  560.75
  -5   7  -4 5142.51  594.45
  -5  -7  -4 5314.98  511.52
  -5  -7  -4 3673.74  240.32
   5   7  -4 4477.32  535.13
   5  -7   4 4876.70  603.55
  -5   7   4 4919.37  647.79
  -5   7   4 4672.19  328.98
  -5  -7   5 6128.24  659.01
  -5   7  -5 6839.48  574.72
   5   7  -5 5955.13  629.36
   5  -7   5 6067.14  666.36
  -5   7   5 5801.60  541.74
  -5  -7  -5 5974.44  737.20
  -5  -7   6 1884.34  312.40
  -5   7  -6 1975.32  325.50
  -5  -7  -6 2674.22  505.78
   5   7  -6 2981.15  432.14
   5  -7   6 2535.16  304.29
  -5   7   6 2443.11  364.55
  -5  -7   7  503.59  343.19
  -5   7  -7  198.56  229.78
  -5  -7  -7  129.61  357.71
   5   7  -7  615.02  191.02
   5  -7   7  131.96  290.33
  -5   7   7  319.89  350.03
  -5   7  -8 1418.16  327.67
  -5  -7   8 1919.66  478.52
  -5  -7  -8 1782.95  489.52
   5   7  -8 1696.31  256.34
   5  -7   8 2037.08  416.55
  -5   7   8 2246.45  501.92
  -5  -7   9  489.97  419.76
  -5   7  -9  879.84  425.13
  -5  -7  -9  916.52  431.39
   5   7  -9  941.19  207.35
   5  -7   9  877.99  346.54
  -5   7   9  495.30  406.13
  -5  -7  10  849.39  458.43
  -5   7 -10  836.19  453.72
  -5  -7 -10  828.21  441.73
   5   7 -10  984.76  218.44
   5  -7  10 1018.45  367.88
  -5   7  10 1012.29  451.74
  -5  -7  11 6750.69  858.89
  -5   7 -11 3883.00  758.50
  -5  -7 -11 4473.07  734.57
   5   7 -11 6489.18  483.89
   5  -7  11 6350.65  657.78
  -5   7  11 5381.19  802.17
  -5  -7  12 2630.84  452.32
  -5   7 -12 2308.95  427.02
  -5  -7 -12 2752.56  594.67
   5   7 -12 3183.97  464.88
   5  -7  12 1981.68  294.97
  -5   7  12 3414.93  627.18
  -5  -7  13 6782.30  741.73
  -5   7 -13 6919.66  772.19
   5   7 -13 9008.74  742.35
   5  -7  13 8301.72  764.75
  -5   7  13 8479.58 1003.65
  -5  -7 -13 7122.83  935.94
  -5  -7  14 5070.68  635.99
  -5   7 -14 3764.79  840.23
  -5  -7 -14 4501.86  780.49
   5   7 -14 5675.00  604.67
   5  -7  14 6290.91  636.16
  -5   7  14 3941.58  779.32
  -5  -7  15 4528.58  858.73
  -5   7 -15 5516.31  880.47
  -5  -7 -15 4561.83  799.20
   5   7 -15 5047.03  459.72
   5  -7  15 5985.93  633.14
  -5   7  15 4910.70  816.85
  -5  -7  16 1782.02  837.22
  -5   7 -16 3725.64  575.28
  -5  -7 -16 4094.35  785.96
   5   7 -16 5075.44  573.87
   5  -7  16 4349.86  585.54
  -5   7  16 4095.38  802.42
  -5  -7  17 5361.24  981.67
  -5   7 -17 5600.46 1006.61
  -5  -7 -17 4800.99  928.41
   5   7 -17 8085.82  715.55
   5  -7  17 5232.08  486.03
  -5   7  17 6298.17  956.03
  -5  -7  18 2449.94  510.09
  -5   7 -18 1411.59  716.81
  -5  -7 -18 2426.05  730.84
   5   7 -18 2545.03  340.41
   5  -7  18 2089.99  493.46
  -5   7  18 2248.23  670.26
  -5  -7  19  984.70  631.54
  -5   7 -19  921.45  393.11
  -5  -7 -19 1139.34  631.58
   5   7 -19 1040.53  403.39
   5  -7  19  742.65  417.16
  -5   7  19 1128.42  605.26
  -5  -7  20  406.22  446.71
  -5   7 -20   71.43  428.10
  -5  -7 -20   85.55  415.45
  -5   7  20  -66.17  248.16
  -5  -7  21  323.68  319.79
  -5   7 -21  608.26  487.56
  -5  -7 -21 -271.33  483.20
  -5   7  21  -93.24  299.25
  -5  -7  22  425.05  531.29
  -5   7 -22  347.22  315.13
  -5  -7 -22 -128.22  503.42
  -5   7  22  -72.93  312.87
  -5  -7  23  568.39  641.62
  -5   7 -23  688.66  613.67
  -5  -7 -23  219.65  385.39
  -5   7  23  713.98  640.62
  -5  -7  24  936.83  459.86
  -5   7 -24 1099.32  454.42
  -5  -7 -24  123.97  457.70
  -5   7  24 1383.38  745.03
  -5  -7  25 1419.03  755.17
  -5   7 -25 1521.90  732.66
  -5  -7 -25 -301.80  479.08
  -5   7  25 1389.86  783.32
  -5  -7 -26 -120.57  617.65
   5   8   0  370.65  338.45
  -5   8   0  479.44  214.29
   5  -8   0  370.77  357.51
  -5  -8   0  158.26  192.27
   5   8   1 4416.33  614.25
  -5  -8   1 3175.66  412.89
  -5   8  -1 3615.36  450.41
   5  -8  -1 4870.71  459.86
  -5  -8  -1 3214.52  342.05
   5   8  -1 3795.11  397.97
   5  -8   1 4149.41  620.64
  -5   8   1 3592.26  397.58
   5   8   2 2664.62  539.84
  -5  -8   2 2196.64  369.83
  -5   8  -2 2556.56  423.97
   5  -8  -2 1788.20  547.37
   5   8  -2 2909.86  359.27
   5  -8   2 2235.46  503.60
  -5   8   2 2001.93  288.68
  -5  -8  -2 1750.43  292.36
   5   8   3  382.18  392.93
  -5  -8   3  711.05  165.16
  -5   8  -3  299.55  173.46
   5  -8  -3  685.24  405.00
  -5  -8  -3  134.77  116.35
   5   8  -3  349.08  208.05
   5  -8   3  403.00  221.71
  -5   8   3  601.79  160.78
  -5  -8   414929.11 1090.92
  -5   8  -416076.18 1146.02
  -5  -8  -415323.46 1049.32
   5  -8   414651.19 1130.62
  -5   8   412726.32  889.32
  -5   8   413928.02  797.71
   5   8  -412834.65 1014.19
  -5  -8   5  382.77  300.71
  -5   8  -5  418.89  309.39
  -5  -8  -5  428.38  224.93
   5   8  -5  111.30  316.33
   5  -8   5  237.80  324.33
  -5   8   5  123.09  229.95
  -5  -8   6 8105.94  831.98
  -5   8  -6 9364.18  915.60
   5   8  -6 9659.18  840.48
  -5  -8  -6 9717.79  969.87
   5  -8   610850.15  911.17
  -5   8   610563.31  767.50
  -5  -8   7 1798.56  294.65
  -5   8  -7 1219.85  454.96
  -5  -8  -7  780.31  464.85
   5   8  -7 1853.54  407.47
   5  -8   7 1739.52  288.59
  -5   8   7 1345.74  333.21
  -5  -8   8 8300.24  734.92
  -5   8  -8 9395.72  972.25
   5   8  -8 9674.95  799.99
   5  -8   8 8671.93  615.64
  -5   8   8 9105.36  935.63
  -5  -8   9   -5.48  342.73
  -5   8  -9  -10.62  349.79
  -5  -8  -9   14.64  349.80
   5   8  -9  126.78  276.92
   5  -8   9  370.31  190.40
  -5   8   9  304.55  350.18
  -5  -8  10 3884.42  687.69
  -5   8 -10 3603.36  706.04
   5  -8  10 4231.41  574.07
  -5   8  10 4409.18  679.88
   5   8 -10 3775.29  532.25
  -5  -8 -10 2555.51  606.75
  -5  -8  11 1656.57  540.78
  -5   8 -11 1301.07  543.92
  -5  -8 -11 1099.08  491.69
   5   8 -11 1930.91  405.98
   5  -8  11 1225.17  424.59
  -5   8  11 1894.44  536.82
  -5  -8  12 4021.14  693.94
  -5   8 -12 2000.61  701.54
   5   8 -12 4326.43  543.33
  -5  -8 -12 2360.63  667.64
   5  -8  12 4052.84  560.16
  -5   8  12 3574.02  697.01
  -5  -8  13  643.98  493.52
  -5   8 -13  393.47  489.04
  -5  -8 -13  547.55  428.07
   5   8 -13  511.14  212.06
   5  -8  13  483.85  230.18
  -5   8  13  447.64  447.80
  -5  -8  14  528.41  524.99
  -5   8 -14  388.57  332.43
   5   8 -14  886.05  365.26
   5  -8  14  994.12  366.25
  -5   8  14  887.35  479.05
  -5  -8 -14  780.62  319.36
  -5  -8  15  844.57  341.38
  -5   8 -15  898.35  361.59
  -5  -8 -15  440.13  314.27
   5   8 -15  611.45  379.64
   5  -8  15 1021.49  380.54
  -5   8  15  896.15  523.59
  -5  -8  16 2285.90  509.38
  -5   8 -16 2674.47  724.14
  -5  -8 -16 1669.49  633.38
   5   8 -16 2245.17  333.61
   5  -8  16 2104.29  496.74
  -5   8  16 1485.32  627.71
  -5  -8  17 5001.65  969.21
  -5   8 -17 5053.30  952.11
  -5  -8 -17 6261.00  978.90
   5   8 -17 5923.78  676.79
   5  -8  17 5255.11  500.91
  -5   8  17 5041.90  909.69
  -5  -8  18 2453.11  836.46
  -5   8 -18 3380.68  629.52
   5   8 -18 3827.74  422.68
   5  -8  18 3588.80  614.20
  -5   8  18 2437.76  779.54
  -5  -8 -18 3964.92  841.49
  -5  -8  19  -12.18  423.37
  -5   8 -19 -216.99  414.45
  -5  -8 -19 -319.93  400.54
   5   8 -19  257.23  271.22
   5  -8  19   35.91  182.30
  -5   8  19  179.64  378.51
  -5  -8  20 1995.29  465.82
  -5   8 -20 1564.65  711.60
  -5  -8 -20 -333.81  668.55
   5   8 -20 1735.29  310.69
  -5   8  20   23.01  641.16
  -5  -8  21  390.60  401.80
  -5   8 -21 -159.46  243.89
  -5  -8 -21 -341.04  387.90
  -5   8  21   97.25  233.20
  -5  -8  22 2035.37  723.45
  -5   8 -22 2149.04  704.33
  -5  -8 -22  143.87  665.86
  -5   8  22  -15.85  446.66
  -5  -8  23  610.36  370.71
  -5   8 -23  365.78  568.43
  -5  -8 -23 -127.27  543.30
  -5   8  23  -45.81  353.74
  -5  -8  24 1787.18  534.80
  -5   8 -24 2215.96  524.19
  -5  -8 -24 -579.54  505.19
  -5   8  24 2429.08  821.41
  -5  -8  25  129.66  654.95
  -5   8 -25 1458.86  671.38
  -5  -8 -25   89.81  393.02
  -5   8  25   89.66  705.96
  -5  -9   0 9889.83  712.92
   5   9   0 8825.44  881.38
  -5   9   0 9819.85  760.22
   5  -9   0 9034.58  735.89
  -5  -9   119924.89 1211.92
   5   9   119332.85 1417.39
  -5   9  -119987.50 1236.99
   5  -9  -118952.37 1203.34
  -5  -9  -120129.98 1211.56
   5   9  -117354.58 1352.93
   5  -9   118890.72 1425.00
  -5   9   119568.91 1160.21
  -5  -9   220112.57 1238.44
  -5   9  -215957.05 1152.24
   5  -9  -219185.80 1543.08
   5   9   219428.45 1444.28
  -5  -9  -218265.56  989.49
   5   9  -218080.18 1336.49
   5  -9   219242.26 1414.61
  -5   9   219588.11 1092.00
  -5  -9   3 3740.02  483.39
   5   9   3 3765.71  437.25
  -5   9  -3 3422.17  498.00
   5  -9  -3 4900.81  721.29
  -5  -9  -3 2808.93  266.10
   5   9  -3 3281.85  372.36
   5  -9   3 3709.09  622.66
  -5   9   3 3359.59  333.37
   5   9   4 6047.18  595.33
  -5  -9   4 5997.84  528.17
  -5   9  -4 6510.77  708.65
   5  -9  -4 6172.24  819.38
   5   9  -4 6521.47  538.32
   5  -9   4 6919.15  567.11
  -5  -9   5 1741.08  369.51
  -5   9  -5  914.77  376.17
  -5  -9  -5  579.71  294.20
   5   9  -5  683.44  247.52
   5  -9   5 1245.01  286.06
  -5   9   5  824.77  273.58
  -5  -9   6  750.12  409.59
  -5   9  -6  895.57  423.22
  -5  -9  -6  835.88  462.69
   5   9  -6 1430.54  256.92
   5  -9   6 1466.53  414.54
  -5   9   6  874.06  328.61
  -5  -9   7   58.02  295.89
  -5   9  -7 -199.27  298.06
  -5  -9  -7 -323.76  313.40
   5   9  -7  336.45  174.43
   5  -9   7   10.16  289.95
  -5   9   7  244.21  326.48
  -5  -9   8  158.43  213.98
  -5   9  -8  419.11  358.89
   5   9  -8  159.67  181.00
   5  -9   8   36.35  314.44
  -5   9   8  402.47  375.96
  -5  -9  -8  435.17  354.53
  -5  -9   9 1845.86  504.76
  -5   9  -9 1236.98  338.44
  -5  -9  -9 1178.64  493.13
   5   9  -9 1811.57  290.56
   5  -9   9 2057.60  466.57
  -5   9   9 1621.12  521.04
  -5  -9  10 5699.81  813.41
  -5   9 -10 4400.46  556.08
  -5  -9 -10 2890.64  657.10
   5   9 -10 4547.25  456.16
   5  -9  10 5718.32  686.37
  -5   9  10 4402.77  712.57
  -5   9 -11 1975.77  410.01
  -5  -9  11 1342.57  604.97
  -5  -9 -11 1582.55  555.87
   5   9 -11 2413.34  469.70
   5  -9  11 2241.16  495.65
  -5   9  11 2035.69  562.31
  -5  -9  12 8967.51 1069.39
  -5   9 -12 8355.91 1073.45
  -5  -9 -12 6883.21  727.64
   5   9 -12 7534.56  732.48
   5  -9  12 8525.45  847.51
  -5   9  12 8296.83  992.95
  -5  -9  13 5045.64  815.32
  -5   9 -13 4104.56  819.38
  -5  -9 -13 3580.32  554.99
   5   9 -13 4697.75  616.58
   5  -9  13 4804.03  469.83
  -5   9  13 3736.89  749.31
  -5  -9  14 8487.27 1172.00
  -5   9 -1411602.31 1332.30
  -5  -9 -14 9908.76  919.46
   5   9 -1412057.71  806.63
   5  -9  1411289.77  962.06
  -5   9  14 9846.23 1154.68
  -5  -9  15 2625.88  790.43
  -5   9 -15 2718.23  772.84
  -5  -9 -15 2982.24  507.72
   5   9 -15 3504.69  565.90
   5  -9  15 3917.76  590.46
  -5   9  15 3144.73  709.02
  -5  -9  16 8489.78 1208.14
  -5   9 -1611123.49 1054.32
  -5  -9 -1610028.20  975.22
   5   9 -16 9508.66  720.27
   5  -9  1611082.08 1004.76
  -5   9  16 8921.22 1158.48
  -5   9 -17  476.98  371.50
  -5  -9  17  984.48  592.23
  -5  -9 -17  873.43  351.66
   5   9 -17 1309.56  446.40
   5  -9  17  438.53  417.22
  -5   9  17  921.06  544.02
  -5  -9  18 6088.76  836.43
  -5   9 -18 7157.00 1190.76
  -5  -9 -18 7397.77  868.93
   5   9 -18 8119.91  831.13
   5  -9  18 7843.18  889.05
  -5   9  18 7272.95 1116.37
  -5  -9  19  666.07  378.98
  -5   9 -19 1254.76  586.85
  -5  -9 -19   -3.29  328.29
   5   9 -19  342.48  391.56
   5  -9  19  767.83  275.21
  -5   9  19  205.04  547.09
  -5  -9  20 1248.86  710.55
  -5   9 -20  472.14  419.35
   5   9 -20 1840.11  318.70
   5  -9  20 1599.85  522.51
  -5   9  20  180.83  616.55
  -5  -9 -20  159.67  637.82
  -5  -9  21  -60.49  451.36
  -5   9 -21  182.32  271.68
  -5  -9 -21 -151.21  422.09
  -5   9  21  -25.65  430.37
  -5  -9  22  466.37  487.20
  -5   9 -22  287.76  478.72
  -5  -9 -22 -274.28  460.01
  -5   9  22 -261.05  280.22
  -5  -9  23  159.39  284.34
  -5   9 -23 -130.75  285.25
  -5  -9 -23  109.93  458.28
  -5   9  23   30.74  276.97
  -5  -9  24   91.41  552.68
  -5   9 -24  340.64  336.13
  -5   9  24 -146.22  337.13
  -5  -9 -25   98.01  530.44
  -5   9  25   -7.58  532.22
   5  10   0 1933.35  508.31
  -5  10   0 1995.97  330.00
   5 -10   0 1742.48  569.12
  -5 -10   0 1833.71  322.51
  -5 -10   1 3344.32  437.64
  -5  10  -1 3426.58  465.03
   5 -10  -1 3581.41  654.25
   5  10   1 3973.05  447.26
  -5 -10  -1 2822.42  418.05
   5  10  -1 3511.69  600.85
   5 -10   1 3367.32  449.03
  -5  10   1 2813.41  401.29
  -5 -10   2  700.82  280.82
   5  10   2  902.96  265.93
  -5  10  -2  122.38  170.24
   5 -10  -2 1136.03  456.52
  -5 -10  -2  400.29  167.80
   5  10  -2  157.29  375.92
   5 -10   2  355.74  268.23
  -5  10   2  401.30  200.47
   5  10   3 6738.00  627.89
  -5 -10   3 8412.95  763.27
  -5  10  -3 7645.16  752.54
   5 -10  -3 6763.82  917.68
   5  10  -3 7828.93  795.61
   5 -10   3 7933.38  870.76
  -5  10   3 8311.80  564.10
   5  10   4  549.84  281.45
  -5  10  -4  804.04  353.46
   5 -10  -4  536.33  304.67
  -5 -10   4  899.46  324.46
   5  10  -4  523.64  390.45
   5 -10   4  283.34  426.86
  -5 -10   511442.32  991.78
  -5  10  -512596.08  901.96
   5 -10  -512098.73  988.63
   5  10  -512108.41 1011.56
   5 -10   513445.94 1090.03
  -5  10  -6  268.70  375.58
  -5 -10   6  381.83  223.34
  -5 -10  -6  451.18  414.08
   5  10  -6  758.38  365.03
   5 -10   6  593.33  392.99
  -5  10   6 1143.01  424.31
  -5 -10   715754.77 1281.69
  -5  10  -717009.00 1367.87
  -5 -10  -714647.63 1323.33
   5  10  -715027.80 1131.26
   5 -10   717531.90 1293.94
  -5  10   716545.69 1365.05
  -5 -10   8  556.55  292.64
  -5  10  -8  615.34  278.86
  -5 -10  -8  548.05  441.31
   5  10  -8 1076.46  390.38
   5 -10   8 1047.82  422.58
  -5  10   8 1465.78  494.73
  -5 -10   912041.60 1133.66
  -5  10  -910595.97  908.70
  -5 -10  -910157.91  890.04
   5  10  -912678.08 1023.18
   5 -10   912112.19 1061.21
  -5  10   911349.17 1145.38
  -5 -10  10 3280.14  647.11
  -5  10 -10 2247.92  437.94
  -5 -10 -10 1569.44  407.65
   5  10 -10 3415.60  404.22
   5 -10  10 2136.15  546.81
  -5  10  10 3116.48  637.64
  -5 -10  1110138.08 1155.24
  -5  10 -1111131.69  970.47
   5  10 -1112442.22  841.84
   5 -10  1111298.84  994.36
  -5  10  11 9870.69 1093.39
  -5 -10 -1110483.78  912.64
  -5  10 -12  425.85  283.93
  -5 -10  12  567.39  284.36
  -5 -10 -12  123.50  269.83
   5  10 -12  484.29  355.84
   5 -10  12  405.93  384.28
  -5  10  12  200.85  430.45
  -5 -10  13 2656.19  424.29
  -5  10 -13 1576.42  410.14
  -5 -10 -13 1427.53  364.33
   5  10 -13 1385.85  448.65
   5 -10  13 1280.06  314.51
  -5  10  13 1593.89  560.86
  -5 -10  14 1279.18  378.53
  -5  10 -14 1084.42  387.96
  -5 -10 -14 1103.45  382.25
   5  10 -14 1285.84  308.37
   5 -10  14 1735.79  494.63
  -5  10  14 1229.99  381.08
  -5 -10  15  115.71  325.17
  -5  10 -15  473.40  339.47
  -5 -10 -15  683.41  336.59
   5  10 -15  527.62  396.19
   5 -10  15  652.90  425.14
  -5  10  15  541.08  320.27
  -5 -10  16 2974.51  578.23
  -5  10 -16 3143.11  836.77
  -5 -10 -16 3121.71  526.47
   5  10 -16 3331.01  589.48
   5 -10  16 3498.34  444.78
  -5  10  16 3090.76  542.99
  -5 -10  17 1078.08  431.03
  -5  10 -17  682.22  683.46
  -5 -10 -17  859.21  384.03
   5  10 -17 1255.19  468.45
   5 -10  17 1147.98  483.52
  -5  10  17 2073.41  445.44
  -5 -10  18  219.97  523.09
  -5  10 -18 -264.16  532.03
  -5 -10 -18  423.32  334.47
   5  10 -18  367.31  388.58
   5 -10  18  533.00  399.89
  -5  10  18  -13.80  491.35
  -5 -10  19 3990.69  904.41
  -5  10 -19 1744.72  523.47
  -5 -10 -19 3243.41  548.64
   5  10 -19 4371.25  654.62
   5 -10  19 4664.83  735.99
  -5  10  19   39.71  804.47
  -5 -10  20  463.13  415.56
  -5  10 -20   98.15  246.70
  -5 -10 -20 -354.19  227.43
   5  10 -20   60.20  179.16
   5 -10  20   90.74  191.80
  -5  10  20  -22.77  367.18
  -5 -10  21 3972.87 1007.11
  -5  10 -21 4161.80  989.57
  -5 -10 -21 3963.92  631.93
   5  10 -21 6152.46  803.61
   5 -10  21 5712.13  880.63
  -5  10  21 -145.15  890.40
  -5 -10  22  181.40  353.62
  -5  10 -22  773.44  574.20
  -5 -10 -22   12.59  325.63
  -5  10  22   99.76  524.75
  -5 -10  23 3707.89  893.50
  -5  10 -23 3244.99  586.77
  -5 -10 -23   62.23  529.61
  -5  10  23 -184.72  813.94
  -5 -10  24  963.77  616.66
  -5  10 -24  -58.07  600.79
  -5 -10 -24   45.68  578.89
  -5  10  24   24.91  343.07
  -5 -11   0 7542.15  623.99
   5  11   0 6899.64  627.20
  -5  11   0 7102.38  644.66
   5 -11   0 6368.99  881.07
   5  11   1 9951.76  998.26
  -5 -11   1 9867.17  800.98
  -5  11  -110620.95  860.15
   5 -11  -110030.13 1063.74
  -5 -11  -1 9809.50  703.29
   5  11  -1 8892.36  726.65
   5 -11   1 9698.62 1010.55
  -5  11   1 9276.57  715.75
   5  11   2 6493.56  769.87
  -5 -11   2 4757.52  568.28
  -5  11  -2 5163.04  609.24
   5 -11  -2 5375.00  574.77
   5 -11   2 6775.81  820.94
  -5  11   2 4876.49  480.51
   5  11  -2 5431.66  522.61
  -5 -11   3 6110.86  636.06
  -5  11  -3 6168.03  689.81
   5 -11  -3 4637.70  568.61
   5  11   3 6526.43  826.82
   5  11  -3 5245.24  523.37
   5 -11   3 6745.66  828.25
   5  11   4 3631.76  686.85
  -5 -11   4 3782.23  582.74
  -5  11  -4 3543.68  583.55
   5 -11  -4 3843.87  521.60
   5  11  -4 4173.27  471.48
   5 -11   4 4693.14  493.29
   5  11   5 1433.94  536.77
  -5 -11   5 1791.63  424.33
  -5  11  -5 1215.72  455.52
   5 -11  -5 2141.34  605.70
   5  11  -5 1379.23  303.32
   5 -11   5 1600.93  345.91
  -5 -11   6  497.46  219.37
  -5  11  -6  463.03  354.95
  -5 -11  -6  222.43  243.00
   5  11  -6  135.95  213.48
   5 -11   6  445.26  249.78
  -5  11   6  148.31  258.75
  -5 -11   7   45.84  444.82
  -5  11  -7  886.89  469.62
   5  11  -7 1040.79  267.62
   5 -11   7 1559.63  323.13
  -5  11   7  129.06  476.33
  -5 -11  -7 1129.62  323.79
  -5 -11   8 2291.75  396.34
  -5  11  -8 2416.09  403.66
   5  11  -8 3070.37  555.87
  -5 -11  -8 1658.48  369.48
   5 -11   8 2536.48  397.77
  -5  11   8 2697.99  622.04
  -5 -11   9 5501.08  883.65
  -5  11  -9 5795.30  657.61
  -5 -11  -9 4967.50  602.68
   5  11  -9 6231.39  734.05
   5 -11   9 5700.77  770.23
  -5  11   9 5663.39  605.64
  -5 -11  10  905.16  569.61
  -5  11 -10 1856.65  593.22
  -5 -11 -10 1858.35  383.65
   5 -11  10 1768.68  537.38
  -5  11  10 1911.21  376.92
   5  11 -10 1994.12  502.04
  -5 -11  11 5509.47  654.73
  -5  11 -11 4414.14  795.12
  -5 -11 -11 5253.58  625.62
   5  11 -11 4734.16  495.12
   5 -11  11 6502.63  774.81
  -5  11  11 5751.94  619.04
  -5 -11  12  799.93  532.08
  -5  11 -12  246.26  547.22
  -5 -11 -12  613.80  340.86
   5 -11  12 1035.08  485.69
  -5  11  12 1081.92  322.98
   5  11 -12 1523.91  449.48
  -5 -11  13 4642.76  869.92
  -5  11 -13 1432.25  842.70
  -5 -11 -13 3459.89  811.48
   5  11 -13 4984.39  679.99
   5 -11  13 5830.92  554.24
  -5  11  13 4639.98  602.50
  -5 -11  14 1154.90  621.34
  -5  11 -14 1106.36  622.94
  -5 -11 -14 1211.17  588.80
   5  11 -14 1518.30  319.38
   5 -11  14 1155.08  484.81
  -5  11  14 1144.36  360.46
  -5 -11  15 6453.19 1086.61
  -5  11 -15 6729.65 1093.78
   5  11 -15 7983.50  871.94
   5 -11  15 7584.90  897.23
  -5  11  15 8483.47  858.98
  -5 -11 -15 7645.34 1133.86
  -5 -11  16 3217.27  885.84
  -5  11 -16 3442.23  916.80
  -5 -11 -16 3356.72  859.58
   5 -11  16 3804.08  486.96
  -5  11  16 4166.97  618.73
   5  11 -16 3700.11  463.14
  -5 -11  17 3156.04  879.81
  -5  11 -17 4382.84  686.98
  -5 -11 -17 4174.39  883.21
   5  11 -17 4262.51  680.70
   5 -11  17 4850.81  731.66
  -5  11  17 2869.90  535.03
  -5 -11  18 1075.88  655.92
  -5  11 -18  443.37  382.29
  -5 -11 -18  -17.72  595.57
   5 -11  18 1845.30  324.54
  -5  11  18 -169.67  358.55
   5  11 -18  706.37  288.92
  -5 -11  19 1509.29  789.77
  -5  11 -19 1478.32  490.47
   5  11 -19 4510.25  628.92
   5 -11  19 3942.96  653.97
  -5  11  19   84.85  479.11
  -5 -11 -19   40.88  719.69
  -5 -11  20  522.37  364.53
  -5  11 -20 1263.25  581.89
  -5 -11 -20  -37.64  511.61
   5  11 -20  347.03  434.25
   5 -11  20  -86.73  443.21
  -5  11  20  -42.70  319.73
  -5 -11  21 1034.64  387.85
  -5  11 -21  323.01  603.46
  -5 -11 -21  -48.76  535.70
   5  11 -21  367.10  283.10
   5 -11  21  298.09  492.33
  -5  11  21 -153.53  325.69
  -5 -11  22 1014.43  656.25
  -5  11 -22  350.04  394.61
  -5 -11 -22 -294.72  600.15
   5  11 -22  656.75  478.46
  -5  11  22   15.91  574.12
  -5 -11  23  727.53  633.00
  -5  11 -23  338.39  371.12
  -5 -11 -23  -57.48  553.81
  -5  11  23 -264.87  551.28
  -5 -11 -24  129.19  311.80
  -5  11  24 -108.89  514.77
   5  12   0 4199.62  690.47
  -5  12   0 4048.73  523.14
   5 -12   0 4217.48  536.56
  -5 -12   0 4057.29  484.58
   5  12   1  817.38  467.63
  -5 -12   1  507.19  291.46
  -5  12  -1  444.18  310.35
   5 -12  -1  460.97  492.61
   5  12  -1  741.76  438.78
   5 -12   1  579.98  290.85
  -5  12   1  650.36  254.78
   5  12   2 5872.90  829.47
  -5 -12   2 7550.53  717.54
  -5  12  -2 6160.01  690.55
   5 -12  -2 7451.18  937.16
   5  12  -2 5635.16  752.73
   5 -12   2 6414.51  646.39
   5  12   3 2315.59  374.33
  -5 -12   3 1589.64  271.48
  -5  12  -3 1570.19  450.70
   5 -12  -3 1955.92  645.35
   5  12  -3 2660.51  551.19
   5 -12   3 1512.14  381.27
   5  12   4 7647.38  690.22
  -5 -12   4 8099.03  662.40
  -5  12  -4 8165.07  695.56
   5 -12  -4 9732.49 1121.11
   5  12  -4 8583.12  918.16
   5 -12   4 8376.73  700.59
   5  12   5  976.46  330.20
  -5 -12   5  593.06  221.45
  -5  12  -5  682.99  403.82
   5 -12  -5   77.92  554.63
   5  12  -5  801.26  430.27
   5 -12   5  550.73  274.53
   5  12   619990.28 1370.51
  -5 -12   618762.91 1468.43
  -5  12  -619616.72 1500.75
   5 -12  -619988.56 1433.25
   5 -12   619112.46 1259.04
   5  12  -618226.55 1384.24
  -5 -12   7  675.44  426.64
  -5  12  -7  665.49  425.53
  -5 -12  -7  489.70  279.01
   5  12  -7  533.55  279.35
   5 -12   7  915.70  319.58
  -5  12   7  659.31  302.76
  -5 -12   817063.11 1281.53
  -5  12  -818812.71 1343.40
   5  12  -818727.01 1169.22
   5 -12   817599.69 1187.35
  -5  12   818792.38 1306.51
  -5 -12  -818328.25 1592.69
  -5 -12   9  309.94  467.58
  -5  12  -9  903.37  476.58
  -5 -12  -9  639.75  457.04
   5  12  -9  881.46  456.48
   5 -12   9 1113.65  298.88
  -5  12   9  228.92  297.50
  -5 -12  1015486.13 1187.95
  -5  12 -1014474.74 1414.34
  -5 -12 -1010846.55 1223.46
   5  12 -1013395.30 1136.38
   5 -12  1014251.05 1219.87
  -5  12  1012567.38 1026.78
  -5 -12  11  419.13  537.26
  -5  12 -11  734.24  516.18
  -5 -12 -11  572.16  502.00
   5  12 -11 1082.69  294.99
   5 -12  11  597.50  462.52
  -5  12  11 1182.75  516.37
  -5 -12  12 3338.66  802.27
  -5  12 -12 3356.15  565.77
   5  12 -12 4411.31  474.80
   5 -12  12 4742.70  703.08
  -5  12  12 3628.59  731.24
  -5 -12 -12 1541.75  758.36
  -5 -12  13 1601.34  625.04
  -5  12 -13  708.60  377.85
  -5 -12 -13  732.86  581.08
   5  12 -13 1260.54  498.39
   5 -12  13 1396.19  338.04
  -5  12  13 1425.23  540.44
  -5 -12  14  600.14  343.38
  -5  12 -14 1008.29  367.60
  -5 -12 -14  130.29  536.55
   5 -12  14  666.78  461.45
  -5  12  14  709.95  505.26
   5  12 -14  592.59  266.21
  -5 -12  15  131.17  268.24
  -5  12 -15   88.55  261.56
  -5 -12 -15 -208.94  410.53
   5  12 -15   21.18  329.37
   5 -12  15  119.94  341.68
  -5  12  15   51.61  404.50
  -5 -12  16  510.54  368.49
  -5  12 -16  661.46  367.05
   5 -12  16  753.45  456.30
  -5  12  16  268.32  513.14
  -5 -12 -16  403.10  532.04
   5  12 -16  200.24  254.07
  -5 -12  17  603.99  370.89
  -5  12 -17  263.52  367.35
  -5 -12 -17   -0.80  540.98
   5  12 -17  765.52  455.34
   5 -12  17  472.73  461.29
  -5  12  17  107.28  534.98
  -5 -12  18 -165.05  450.98
  -5  12 -18 2163.02  708.59
  -5 -12 -18  -51.91  663.05
   5 -12  18 2894.46  588.44
  -5  12  18 -151.98  667.25
  -5 -12  19  -35.48  422.88
  -5  12 -19  587.17  643.42
  -5 -12 -19   -2.93  585.87
   5  12 -19 1405.51  510.43
   5 -12  19 1973.28  556.27
  -5  12  19 -282.48  597.99
  -5 -12  20  143.14  599.05
  -5  12 -20 2210.23  891.75
  -5 -12 -20 3355.72  832.60
   5  12 -20 6229.70  796.66
   5 -12  20 5361.93  837.05
  -5  12  20 -162.61  841.47
  -5 -12  21  -25.31  734.03
  -5  12 -21 1026.47  443.35
  -5 -12 -21    0.55  604.32
   5  12 -21 1123.02  357.72
   5 -12  21 1377.53  379.85
  -5  12  21 -128.29  380.03
  -5 -12  22 -184.45 1030.21
  -5  12 -22 2512.85  648.03
  -5 -12 -22 -152.16  925.26
   5  12 -22 5540.14  835.20
   5 -12  22 6432.57  971.29
  -5  12  22 3657.77  605.94
  -5 -12  23   16.96  410.70
  -5  12 -23  593.65  409.75
  -5 -12 -23 -198.81  366.01
  -5  12  23  -98.42  218.02
  -5  13   023539.31 1494.20
   5 -13   022502.21 1770.83
   5  13   022101.44 1678.53
   5  13   1 2862.35  635.50
  -5  13  -1 2599.84  484.75
   5 -13  -1 3242.13  488.39
  -5 -13   1 2376.13  439.71
   5  13  -1 4097.51  688.87
   5 -13   1 4127.02  757.93
   5  13   2 8847.24 1012.11
  -5 -13   2 7623.57  785.74
  -5  13  -2 8691.17  820.91
   5 -13  -2 8505.20  784.85
   5  13  -2 8148.61  936.26
   5 -13   2 9858.60 1019.92
   5  13   3 4825.28  803.31
  -5  13  -3 3845.76  631.57
   5 -13  -3 4797.01  609.91
  -5 -13   3 4601.62  642.06
   5  13  -3 4587.12  717.58
   5 -13   3 4749.79  799.88
  -5 -13   4 2915.80  421.49
  -5  13  -4 3019.62  421.17
   5 -13  -4 3594.65  525.82
   5  13   4 3078.91  662.65
   5  13  -4 2622.79  600.28
   5 -13   4 3620.54  684.62
   5  13   5 1182.68  537.54
  -5 -13   5 1032.86  270.52
  -5  13  -5  455.70  426.31
   5 -13  -5 1590.35  436.60
   5  13  -5  658.93  463.71
   5 -13   5  640.72  526.37
   5  13   6  393.08  387.59
  -5 -13   6  -44.71  313.45
  -5  13  -6 -259.37  331.38
   5 -13  -6  925.73  432.97
   5  13  -6  246.39  338.84
   5 -13   6 -337.23  383.02
  -5  13  -7 1142.06  318.46
  -5 -13   7 1544.08  479.98
  -5 -13  -7  917.55  306.89
   5  13  -7 2096.93  489.09
   5 -13   7 1558.04  498.47
  -5  13   7  -90.93  297.69
  -5 -13   8 1669.00  524.27
  -5  13  -8 1677.68  589.66
   5  13  -8 1583.85  360.35
   5 -13   8 1519.12  361.80
  -5  13   8 1780.09  582.00
  -5 -13  -8 1003.03  552.65
  -5 -13   9   24.88  395.20
  -5  13  -9   57.01  418.97
  -5 -13  -9  700.83  403.10
   5  13  -9 -182.56  362.70
   5 -13   9  179.56  263.72
  -5  13   9  452.77  426.69
  -5 -13  10 4329.72  845.27
  -5  13 -10 6475.81  727.57
  -5 -13 -10 4100.70  560.18
   5  13 -10 5870.60  754.29
   5 -13  10 5822.76  812.84
  -5  13  10 4933.77  838.24
  -5 -13  11  -44.92  489.78
  -5  13 -11   54.86  304.07
  -5 -13 -11  760.12  313.45
   5  13 -11  429.79  439.05
   5 -13  11 1260.20  473.83
  -5  13  11  648.12  480.17
  -5 -13  1214493.38 1268.19
  -5  13 -1214421.49 1537.35
   5  13 -1216987.63 1149.69
   5 -13  1214649.57 1053.38
  -5  13  1213433.46 1371.28
  -5 -13 -1213296.32 1159.26
  -5 -13  13 1254.16  405.83
  -5  13 -13  956.04  616.69
  -5 -13 -13 1094.54  382.45
   5  13 -13 1301.71  537.29
   5 -13  13 1848.70  574.25
  -5  13  13 1370.96  581.66
  -5 -13  14 3628.24  856.47
  -5  13 -14 1652.49  863.89
  -5 -13 -14 4292.17  676.37
   5  13 -14 4908.49  544.14
   5 -13  14 5357.84  807.24
  -5  13  14 4525.22  819.02
  -5 -13  15 1806.91  708.63
  -5  13 -15 1430.60  720.04
  -5 -13 -15 1534.88  468.40
   5  13 -15 2242.65  575.90
   5 -13  15  907.22  375.77
  -5  13  15 1929.69  646.61
  -5 -13  16 1836.81  739.45
  -5  13 -16 1244.39  735.31
  -5 -13 -16 -289.60  464.86
   5  13 -16 1743.46  370.80
   5 -13  16 2642.76  630.93
  -5  13  16 2932.13  714.81
  -5 -13  17 -212.00  616.71
  -5  13 -17   78.02  585.74
  -5 -13 -17 -130.90  363.91
   5  13 -17 1825.58  492.81
  -5  13  17 -202.40  566.01
  -5 -13  18  230.52  649.72
  -5  13 -18 -198.32  641.62
  -5 -13 -18 -309.30  390.32
   5 -13  18 2826.49  561.40
  -5  13  18  -57.06  615.77
  -5  13 -19 -254.72  641.40
  -5 -13  19 -224.42  684.90
  -5 -13 -19  -93.96  354.31
   5  13 -19 1501.62  542.16
   5 -13  19 1266.10  358.22
  -5  13  19 -177.98  603.84
  -5 -13  20 -172.73  761.31
  -5  13 -20  993.09  463.44
   5  13 -20 1226.31  580.55
   5 -13  20 1457.32  627.01
  -5  13  20  -82.95  651.50
  -5 -13 -20 1018.47  414.81
  -5 -13  21 -151.59  733.08
  -5  13 -21 1002.12  450.89
  -5 -13 -21  818.93  391.22
   5  13 -21 1179.49  566.25
   5 -13  21  -19.71  587.32
  -5  13  21   62.39  618.46
  -5 -13  22  -73.40  594.48
  -5  13 -22   13.68  343.13
  -5 -13 -22   32.11  305.65
   5  13 -22  356.19  277.51
   5 -13  22  -52.15  475.04
  -5  13  22  -87.43  485.10
   5  14   0 2426.35  435.04
   5 -14   0 2087.84  682.39
  -5 -14   1  809.62  314.87
  -5  14  -1  599.88  328.42
   5 -14  -1  235.33  509.12
   5  14   1  528.44  293.15
   5  14  -1  766.46  313.86
   5 -14   1  958.76  540.80
   5  14   2 4627.48  550.98
  -5 -14   2 3580.42  566.60
  -5  14  -2 4605.10  475.86
   5 -14  -2 2041.23  836.14
   5 -14   2 4180.60  780.77
   5  14  -2 4145.54  524.17
   5  14   3 8239.36  816.87
  -5 -14   3 7985.77  837.63
  -5  14  -3 8371.63  863.86
   5 -14  -3 7700.81 1078.39
   5  14  -3 8282.64  725.93
   5 -14   3 7881.57  996.21
   5  14   4 5342.70  585.69
  -5 -14   4 4992.61  679.84
  -5  14  -4 3673.71  471.59
   5 -14  -4 6010.36  929.00
   5  14  -4 4525.29  524.54
   5  14   510911.19  912.72
  -5 -14   5 9811.08 1027.82
  -5  14  -512197.07 1137.10
   5 -14  -510915.39 1315.04
   5  14  -511620.81 1099.87
   5  14   6 1176.60  366.38
  -5 -14   6 1297.97  339.94
  -5  14  -6 1169.71  501.75
   5 -14  -6 1667.62  648.37
   5  14  -6 1172.49  521.41
   5 -14   6 1487.36  612.69
   5  14   7 9072.18  872.78
  -5 -14   710571.17 1120.94
  -5  14  -7 9578.94  890.42
   5 -14  -7 9444.85  933.36
   5  14  -7 9827.94 1023.94
   5 -14   710330.22 1063.63
  -5 -14   8 2294.99  670.85
  -5  14  -8 4901.48  760.18
  -5 -14  -8 3080.94  504.65
   5 -14   8 3900.82  501.58
  -5  14   8 2722.90  469.55
   5  14  -8 3576.79  469.01
  -5 -14   913113.15 1100.80
  -5  14  -910645.63 1027.06
  -5 -14  -911304.04 1002.35
   5  14  -912295.73  926.81
   5 -14   913379.95 1236.92
  -5  14   912693.49 1024.67
  -5 -14  10  535.95  442.01
  -5  14 -10  248.67  470.26
  -5 -14 -10  451.92  446.99
   5 -14  10  100.48  438.63
  -5  14  10   -0.16  263.79
   5  14 -10  564.49  422.45
  -5 -14  11 4268.30  630.84
  -5  14 -11 5552.89  982.20
  -5 -14 -11 4991.39  891.17
   5  14 -11 5120.39  552.14
   5 -14  11 5499.71  832.75
  -5  14  11 5151.93  624.82
  -5 -14  12 1321.77  632.08
  -5  14 -12 1110.87  674.29
   5  14 -12  951.01  529.90
  -5 -14 -12 1294.31  637.18
   5 -14  12 1710.66  385.01
  -5  14  12 1795.99  427.87
  -5 -14  13   42.00  509.87
  -5  14 -13  155.39  322.57
  -5 -14 -13  700.29  472.50
   5  14 -13  164.37  406.89
   5 -14  13  296.40  451.79
  -5  14  13  257.23  306.06
  -5 -14  14  980.96  426.50
  -5  14 -14  952.29  433.25
  -5 -14 -14  872.47  642.74
   5  14 -14 1473.13  367.92
   5 -14  14  982.32  596.16
  -5  14  14 1569.48  415.53
  -5 -14  15  766.05  356.57
  -5  14 -15  456.88  367.98
  -5 -14 -15 -106.92  552.26
   5  14 -15   32.43  430.02
   5 -14  15  640.62  468.70
  -5  14  15  -51.98  308.44
  -5 -14  16  -85.26  300.90
  -5  14 -16    0.76  309.39
   5  14 -16  474.55  389.33
  -5 -14 -16 -282.97  483.63
   5 -14  16   26.25  407.74
  -5  14  16  258.02  290.19
  -5 -14  17  -62.99  680.82
  -5  14 -17   47.48  422.21
  -5 -14 -17  -49.63  661.46
   5  14 -17 1136.15  531.23
   5 -14  17 1325.58  565.06
  -5  14  17 1179.72  421.10
  -5 -14  18  -18.51  715.82
  -5  14 -18 -332.31  459.32
  -5 -14 -18 -238.99  627.93
   5 -14  18 2216.24  412.16
  -5  14  18  234.04  426.55
   5  14 -18 1785.97  570.54
  -5 -14  19 -201.27  889.05
  -5  14 -19   69.03  584.20
  -5 -14 -19 2247.07  758.84
   5  14 -19 3572.59  484.52
   5 -14  19  -57.34  738.79
  -5  14  19 3335.88  556.05
  -5 -14  20   57.55  673.26
  -5  14 -20 -438.52  434.81
  -5 -14 -20 1866.71  570.32
   5  14 -20 1541.51  526.84
   5 -14  20 -135.17  346.71
  -5  14  20    8.53  367.81
  -5 -14  21   21.43  826.97
  -5  14 -21 1377.22  523.02
  -5 -14 -21 1693.10  671.43
   5  14 -21 2479.62  684.81
   5 -14  21    3.12  681.55
  -5  14  21 -113.15  426.65
  -5 -14  22   77.74  426.07
  -5 -14 -22  217.30  578.95
   5  14 -22  690.19  545.76
   5 -14  22  106.40  563.22
   5 -15   0 1608.88  697.92
   5  15   0 2470.73  664.98
   5  15   115795.03 1403.53
  -5  15  -113770.50 1136.04
   5 -15  -115881.98 1563.80
   5  15  -116782.81 1428.23
   5 -15   116487.80 1521.47
   5  15   2 3159.99  704.78
  -5 -15   2 2816.17  524.75
  -5  15  -2 3572.65  581.83
   5 -15  -2 3547.24  833.28
   5  15  -2 3723.31  498.27
   5 -15   2 2519.68  763.45
   5  15   3 8214.62  998.03
  -5  15  -3 9117.82  932.52
   5 -15  -3 7608.89 1083.84
  -5 -15   3 7963.95  697.87
   5  15  -3 6825.94  670.45
   5 -15   3 8571.79 1026.87
   5  15   4 1596.33  610.30
  -5 -15   4 1271.04  486.27
  -5  15  -4 2145.82  515.94
   5 -15  -4 2570.50  725.06
   5  15  -4 1107.91  371.45
  -5  15  -5  921.74  315.94
   5 -15  -5  655.34  630.14
   5  15   5 1804.94  577.64
  -5 -15   5 1148.01  489.31
   5  15  -5  947.54  495.44
   5  15   6  457.31  548.57
  -5 -15   6 1065.21  463.25
  -5  15  -6  497.12  475.21
   5 -15  -6  960.23  614.61
   5  15  -6  458.65  491.23
   5 -15   6 2267.76  567.56
   5  15   7 -116.92  448.26
  -5 -15   7  -19.26  234.87
  -5  15  -7  451.52  392.49
   5 -15  -7  818.01  489.30
   5  15  -7  459.80  394.95
   5 -15   7  -23.81  247.50
  -5 -15   8 1170.77  526.02
  -5  15  -8 1059.74  392.04
  -5 -15  -8 1257.15  365.58
   5  15  -8 1494.66  360.51
   5 -15   8 1650.23  387.15
  -5  15   8  333.10  336.58
  -5  15  -9 1759.74  672.88
  -5 -15   9 2736.11  701.93
  -5 -15  -9 3186.87  739.06
   5  15  -9 3001.84  676.73
   5 -15   9 3009.73  695.39
  -5  15   9 2574.28  712.61
  -5 -15  10  686.87  359.82
  -5  15 -10  536.05  556.40
  -5 -15 -10  239.69  508.63
   5  15 -10  823.94  523.91
   5 -15  10  851.50  530.63
  -5  15  10  954.13  532.31
  -5 -15  11 8719.20 1252.17
  -5  15 -11 8791.80  979.67
  -5 -15 -11 8946.64  974.26
   5  15 -1111933.53  930.37
   5 -15  1110248.80  884.14
  -5  15  11 9458.69 1163.00
  -5 -15  12  769.15  607.07
  -5  15 -12  461.06  617.46
  -5 -15 -12  825.21  372.74
   5  15 -12 1044.80  524.43
   5 -15  12  852.04  566.28
  -5  15  12 1186.69  566.70
  -5 -15  13 4807.52  727.62
  -5  15 -13 2597.83  954.60
  -5 -15 -13 5176.39  636.01
   5  15 -13 5167.32  596.86
   5 -15  13 7565.48  970.09
  -5  15  13 5497.74  935.47
  -5 -15  14  659.05  635.57
  -5  15 -14  541.62  644.62
  -5 -15 -14   96.01  386.58
   5  15 -14 1433.33  525.38
   5 -15  14 1007.06  366.33
  -5  15  14  270.17  558.52
  -5 -15  15 4107.63  991.49
  -5  15 -15 -181.06  967.72
  -5 -15 -15 3913.07  661.01
   5  15 -15 5228.28  577.77
  -5  15  15 5047.88  938.80
  -5 -15  16  -70.56  645.03
  -5  15 -16  180.50  401.99
  -5 -15 -16   81.54  420.95
   5  15 -16 1220.34  538.14
   5 -15  16 1185.17  367.20
  -5  15  16  532.81  625.90
  -5  15 -17 3538.24  657.38
  -5 -15  17 3737.56  667.86
  -5 -15 -17 3905.02  663.76
   5  15 -17 4726.82  580.40
   5 -15  17 -155.10  825.37
  -5  15  17 3393.86 1041.03
  -5 -15  18  -35.60  408.34
  -5  15 -18    9.46  409.83
  -5 -15 -18 1481.57  395.73
   5  15 -18  207.63  538.15
   5 -15  18 -137.19  557.88
  -5  15  18   23.91  686.35
  -5 -15  19  -64.85  423.11
  -5  15 -19  -87.40  685.10
  -5 -15 -19  792.76  373.27
   5  15 -19  938.96  535.31
   5 -15  19  -28.57  582.84
  -5  15  19  181.42  658.72
  -5 -15  20 -114.24  405.76
  -5  15 -20  153.66  681.50
  -5 -15 -20  359.28  352.28
   5  15 -20  679.33  325.13
   5 -15  20   16.97  553.74
  -5  15  20 -126.86  573.38
  -5 -15  21  -39.00  390.51
  -5  15 -21  154.21  625.65
  -5 -15 -21  347.66  313.58
   5  15 -21  -58.57  487.80
   5 -15  21  -33.56  528.30
   5 -16   0  820.86  384.14
   5 -16  -1  484.31  359.78
   5  16  -1  162.96  476.16
   5 -16   1  670.25  361.65
   5  16   2 1484.21  542.21
  -5  16  -2  773.08  391.01
   5 -16  -2  909.93  397.70
   5  16  -2  691.79  562.72
   5 -16   2  989.70  365.52
  -5 -16   3  532.99  414.99
  -5  16  -3  468.05  418.62
   5 -16  -3  994.87  406.03
   5  16   3 1061.58  543.43
   5 -16   3 1453.08  603.13
   5  16  -3  970.51  335.69
   5  16   4 8500.19 1066.95
  -5 -16   4 7229.82  931.26
  -5  16  -4 7360.54  927.21
   5 -16  -4 7802.73  841.10
   5  16  -4 8976.91  761.41
   5  16   5 2878.00  678.83
  -5 -16   5 1623.25  544.95
  -5  16  -5 1544.65  573.05
   5 -16  -5 2424.39  531.86
   5  16  -5 2725.60  646.42
   5  16   6 8400.98 1148.34
  -5 -16   6 9007.07 1053.30
  -5  16  -6 8017.72  786.63
   5 -16  -6 8636.37  915.93
   5  16  -6 8432.52  986.67
   5 -16   6 7959.95 1064.57
   5  16   7 1547.91  650.05
  -5 -16   7  696.31  540.68
  -5  16  -7 1612.83  575.87
   5 -16  -7 1793.84  461.49
   5  16  -7 1365.43  545.69
   5 -16   7  953.32  386.59
  -5 -16   8 9345.74 1195.17
  -5  16  -811559.25 1275.13
   5 -16  -812013.90 1133.54
   5  16  -810780.76  888.93
   5 -16   811524.53  962.48
  -5 -16   9  307.23  490.92
  -5  16  -9  515.72  531.84
  -5 -16  -9  664.10  521.91
   5 -16   9 1008.06  553.87
  -5  16   9   75.28  291.02
   5  16  -9  955.52  496.44
  -5 -16  10 4490.34  912.26
  -5  16 -10 4827.81  956.30
  -5 -16 -10 3959.83  902.98
   5  16 -10 5101.26  833.96
   5 -16  10 4623.57  846.42
  -5  16  10 5309.92  681.10
  -5 -16  11  364.63  325.37
  -5  16 -11 -433.03  520.91
  -5 -16 -11  -99.52  494.79
   5 -16  11  523.81  324.64
  -5  16  11  327.68  311.88
   5  16 -11  478.66  284.85
  -5 -16  12 3464.22  900.44
  -5  16 -12 2805.49  900.85
  -5 -16 -12 -334.88  795.25
   5  16 -12 4687.46  798.68
   5 -16  12 5218.70  875.05
  -5  16  12 4858.52  629.38
  -5 -16  13  701.97  632.81
  -5  16 -13  574.68  380.67
  -5 -16 -13   63.07  590.10
   5  16 -13  875.76  345.66
   5 -16  13  934.30  360.62
  -5  16  13  412.60  347.78
  -5 -16  14    5.36  304.50
  -5  16 -14   -3.83  478.43
  -5 -16 -14   17.35  473.62
   5  16 -14  -95.31  399.83
   5 -16  14 -150.87  429.62
  -5  16  14 -133.49  268.42
  -5 -16  15 -124.62  392.05
  -5  16 -15 -115.43  645.60
   5  16 -15  679.44  330.98
   5 -16  15  885.83  571.16
  -5  16  15 1029.46  390.28
  -5 -16 -15  -29.72  682.02
  -5 -16  16 -169.37  706.68
  -5  16 -16  157.91  689.41
  -5 -16 -16 -422.71  742.23
   5  16 -16 1084.72  588.74
   5 -16  16  748.24  606.90
  -5  16  16 1579.84  456.28
  -5 -16  17  143.15  566.14
  -5  16 -17  -82.47  569.88
  -5 -16 -17  -53.70  592.07
   5  16 -17  243.69  472.63
   5 -16  17   63.34  290.96
  -5  16  17  253.55  408.52
  -5 -16  18 -390.26  829.84
  -5  16 -18  -28.99  820.65
   5  16 -18 2559.08  471.83
   5 -16  18   89.77  760.21
  -5  16  18 1998.54  711.11
  -5 -16  19  100.64  593.72
  -5  16 -19 -249.39  589.56
  -5 -16 -19  659.35  534.32
   5  16 -19   98.92  492.48
   5 -16  19  199.64  516.66
  -5  16  19  -86.28  401.19
  -5 -16  20  -65.15 1043.55
  -5  16 -20  -66.25 1048.52
  -5 -16 -20 2921.05  909.17
   5  16 -20 4832.66  886.62
   5 -16  20 3941.80  618.48
   5 -17   0 5968.44  739.76
   5  17   0 7957.82 1015.35
   5  17   1 1296.30  542.62
   5 -17  -1  762.41  395.43
   5  17  -1  524.12  502.24
   5 -17   1  363.82  372.48
   5 -17  -2 6662.00  773.97
   5  17   2 6080.90  667.99
   5  17  -2 6332.46  918.49
   5 -17   2 7554.35  769.06
   5  17   3  154.44  296.33
   5 -17  -3  401.99  357.05
   5  17  -3  517.57  288.04
   5 -17   3  210.55  535.35
   5  17   4 3743.32  573.79
  -5  17  -4 2860.58  684.99
   5 -17  -4 3406.86  610.70
   5  17  -4 4278.37  542.57
   5  17   5  455.64  337.13
  -5 -17   5  486.26  272.06
  -5  17  -5  618.49  449.14
   5 -17  -5  214.28  352.53
   5  17  -5  250.91  484.41
  -5  17  -6  451.66  448.47
   5 -17  -6  187.78  375.14
   5  17   6  627.74  327.27
  -5 -17   6  212.44  264.96
   5  17  -6    5.08  460.20
   5 -17   6  721.41  325.80
   5  17   7 1078.46  375.19
  -5 -17   7  541.70  489.00
  -5  17  -7 -144.13  499.68
   5 -17  -7  424.71  386.67
   5  17  -7  848.80  524.39
   5 -17   7  370.34  354.70
   5  17   8  -28.96  320.20
  -5 -17   8  429.96  464.77
  -5  17  -8 -122.07  469.73
   5 -17  -8  421.21  361.77
   5  17  -8  278.53  298.25
   5 -17   8 1065.36  512.96
  -5 -17   9 3144.00  824.49
  -5  17  -9 3686.91  864.75
  -5 -17  -9 3436.38  528.61
   5  17  -9 3072.63  743.79
   5 -17   9 3759.29  815.08
  -5  17   9 3112.53  539.62
  -5  17 -10 2369.64  846.30
  -5 -17  10 2468.35  542.74
   5  17 -10 3121.99  499.25
   5 -17  10 4201.62  561.54
  -5  17  10 3232.73  542.50
  -5 -17  11 -100.91  491.80
  -5  17 -11  255.60  313.93
  -5 -17 -11  233.08  288.87
   5  17 -11  413.61  447.91
   5 -17  11  -66.69  485.71
  -5  17  11  181.45  294.78
  -5 -17  12 4476.46  975.71
  -5  17 -12 2717.20  957.68
  -5 -17 -12 3264.64  587.22
   5  17 -12 5832.02  874.01
   5 -17  12 4636.22  898.29
  -5  17  12 4106.91  635.83
  -5 -17  13  439.15  544.74
  -5  17 -13 -118.58  553.25
  -5 -17 -13   22.52  330.11
   5  17 -13  470.72  471.76
   5 -17  13  339.38  306.53
  -5  17  13   97.26  308.53
  -5 -17  14 4259.79 1067.70
  -5  17 -14 4710.89  727.69
  -5 -17 -14 5619.31  800.72
   5  17 -14 7641.82 1013.60
   5 -17  14 6973.93 1051.88
  -5  17  14 7060.65 1131.69
  -5 -17  15   59.33  644.60
  -5  17 -15   16.76  414.75
  -5 -17 -15 -182.23  461.39
   5  17 -15 1346.94  549.61
   5 -17  15  470.08  363.77
  -5  17  15  978.67  612.05
  -5 -17  16  -20.86  565.33
  -5  17 -16 -548.14  568.43
  -5 -17 -16   25.99  709.01
   5  17 -16 4138.65  525.04
   5 -17  16 3456.95  817.06
  -5  17  16 4298.11  983.98
  -5 -17  17  207.86  607.55
  -5  17 -17 -120.74  609.16
  -5 -17 -17  -89.02  426.35
   5  17 -17  355.15  498.73
   5 -17  17  359.05  524.96
  -5  17  17  222.02  752.48
  -5 -17  18   95.04  958.84
  -5  17 -18   97.18  971.22
  -5 -17 -18  -37.55  649.58
   5  17 -18 4939.17  885.13
   5 -17  18 4221.53  601.57
  -5  17  18 5991.32 1593.61
   5 -18   0  522.52  380.59
   5  18   0  485.40  535.43
   5  18   1  201.93  309.80
   5 -18  -1  761.42  384.28
   5  18  -1  493.33  477.48
   5 -18   1   46.47  343.83
   5  18   2  322.57  316.59
   5 -18  -2  610.35  373.20
   5  18  -2  503.36  498.83
   5 -18   2  141.67  333.02
   5  18   3 3352.64  535.00
   5 -18  -3  -48.19  809.61
   5  18  -3 3295.63  518.48
   5  18   4 1866.78  461.98
   5 -18  -4 1192.17  789.29
   5  18  -4 2672.40  464.62
   5  18   5 7299.93  766.54
  -5  18  -5 6640.16  975.78
   5 -18  -5 7072.07 1218.95
   5  18  -5 6625.79  967.88
   5 -18   5 7042.74 1088.19
  -5 -18   6  327.67  487.53
  -5  18  -6  458.19  324.53
   5 -18  -6 1160.85  687.88
   5  18   6 1283.82  390.57
   5  18  -6  317.62  529.79
   5 -18   6  594.39  374.18
   5  18   7 5160.29 1000.27
  -5 -18   7 4393.77  895.37
  -5  18  -7 4508.34  905.43
   5 -18  -7 5099.09 1104.78
   5  18  -7 6141.28  678.81
   5 -18   7 5471.54  986.81
   5  18   8 2830.96  754.99
  -5 -18   8 1770.90  454.66
  -5  18  -8 1379.29  688.51
   5 -18  -8 2295.12  879.43
   5  18  -8 3240.59  729.25
   5 -18   8 2013.92  776.07
  -5 -18   9 2025.47  679.06
  -5  18  -9 1890.31  711.31
  -5 -18  -9  -78.59  411.86
   5  18  -9 2301.74  656.55
   5 -18   9 2572.18  456.27
  -5  18   9 1380.49  429.70
  -5 -18  10  137.92  500.74
  -5  18 -10  844.51  555.47
   5  18 -10  149.78  300.84
   5 -18  10  778.66  539.85
  -5  18  10  139.33  493.33
  -5 -18 -10 -291.67  520.91
  -5 -18  11 2665.80  575.57
  -5  18 -11 2948.43  924.74
  -5 -18 -11  -86.18  822.51
   5  18 -11 4260.11  791.21
   5 -18  11 5544.24  910.17
  -5  18  11 2079.76  880.16
  -5 -18  12 1150.10  655.40
  -5  18 -12  148.03  405.16
  -5 -18 -12  -43.68  624.17
   5 -18  12  955.47  388.49
  -5  18  12  610.75  610.28
   5  18 -12  862.25  354.97
  -5 -18  13   37.39  481.54
  -5  18 -13  304.33  500.12
  -5 -18 -13 -390.06  504.52
   5  18 -13  187.30  429.40
   5 -18  13 -100.29  464.31
  -5  18  13  238.48  455.55
  -5 -18  14  294.39  379.13
  -5  18 -14    3.18  609.80
   5  18 -14   85.27  313.89
  -5 -18 -14  -34.88  676.09
   5 -18  14  380.13  373.06
  -5  18  14  954.09  566.88
  -5 -18  15 1053.15  790.87
  -5  18 -15 -105.37  823.16
  -5 -18 -15   95.51 1001.43
   5  18 -15 1481.03  673.02
   5 -18  15 1409.23  735.03
  -5  18  15 2561.34  846.20
  -5 -18  16  343.87  530.71
  -5  18 -16  129.17  327.68
  -5 -18 -16  -34.78  733.02
   5  18 -16 -135.83  276.71
   5 -18  16  149.08  297.44
  -5  18  16  -59.86  579.75
  -5 -18  17 -132.06  437.39
  -5  18 -17  -25.43  434.43
  -5 -18 -17 -445.63  921.49
   5  18 -17  736.41  370.24
   5 -18  17  937.82  646.30
  -5  18  17  854.93  955.92
   5 -19   0  224.94  333.96
   5  19   0  138.96  451.87
   5  19   1 4264.21  591.51
   5 -19  -1 4090.26  636.01
   5  19  -1 5314.30  879.76
   5 -19   1 4696.94  668.76
   5  19   2 1458.40  413.18
   5 -19  -2   50.40  734.53
   5  19  -2 1752.71  628.47
   5 -19   2  978.00  699.11
   5 -19  -3 -111.99  853.06
   5  19   3 3294.49  537.57
   5  19  -3 3302.55  517.83
   5  19   4  604.32  351.82
   5 -19  -4  200.78  618.69
   5  19  -4  125.49  346.02
   5  19   5 3296.33  860.27
   5 -19  -5 2562.77  952.10
   5  19  -5 2284.21  739.74
   5 -19   5 3182.01  555.26
   5  19   6 1938.70  733.82
  -5  19  -6 1172.96  621.63
   5 -19  -6 1595.63  803.73
   5  19  -6 1615.54  647.78
   5 -19   6 1486.26  452.69
  -5 -19   7   85.27  304.04
  -5  19  -7  459.03  495.56
   5 -19  -7  912.83  634.27
   5  19   7  440.00  550.32
   5  19  -7  323.62  324.51
   5 -19   7  265.84  561.89
   5  19   8  928.76  710.87
  -5 -19   8  894.65  627.16
  -5  19  -8  681.41  640.85
   5 -19  -8  672.76  748.18
   5  19  -8  957.38  606.55
   5 -19   8 1914.26  685.91
  -5 -19   9   66.28  512.01
  -5  19  -9   96.16  508.88
  -5 -19  -9  -73.24  313.92
   5  19  -9  407.99  297.81
   5 -19   9  841.95  340.74
  -5  19   9 -184.47  297.82
  -5 -19  10  444.20  354.31
  -5  19 -10  588.95  365.74
   5  19 -10  638.87  543.09
  -5 -19 -10  295.19  569.08
   5 -19  10  -42.90  579.84
  -5  19  10   14.22  556.17
  -5 -19  11 2567.72  915.28
  -5  19 -11 2256.66  864.63
  -5 -19 -11  -32.82  857.34
   5  19 -11 4421.23  825.23
   5 -19  11 3758.95  602.62
  -5  19  11 3449.09  860.45
  -5 -19  12  111.58  321.45
  -5  19 -12  183.36  544.76
  -5 -19 -12 -372.27  534.86
   5 -19  12  426.46  514.64
  -5  19  12   14.68  483.93
   5  19 -12  183.32  305.40
  -5 -19  13 -245.04  970.62
  -5  19 -13 2225.13  619.45
  -5 -19 -13  169.98 1034.62
   5  19 -13 5688.12  913.24
   5 -19  13 5034.27  664.73
  -5  19  13 4101.47  954.77
  -5 -19  14  119.73  413.11
  -5  19 -14  319.40  714.68
  -5 -19 -14  -45.11  826.82
   5  19 -14  390.98  600.48
   5 -19  14  645.26  658.33
  -5  19  14 1125.81  413.69
  -5 -19  15 -267.26  671.27
  -5  19 -15 2280.97 1042.20
  -5 -19 -15 -436.35 1383.84
   5  19 -15 4087.03  608.95
   5 -19  15 5419.50  699.98
  -5  19  15 5259.75  831.11
  -5  19 -16 -340.16  642.09
  -5 -19 -16   56.09 1012.65
   5  19 -16  401.22  541.57
   5 -19  16  229.70  575.09
   5 -20   0  -63.74  333.22
   5  20   0  500.09  468.67
   5  20   1  442.01  313.26
   5 -20  -1  -62.68  370.38
   5  20  -1  295.47  487.60
   5 -20   1  125.95  565.11
   5  20   2 1253.79  389.46
   5 -20  -2 -177.31  703.58
   5  20  -2  711.04  383.41
   5  20   3 2910.85  526.69
   5 -20  -3  -69.48  893.78
   5  20  -3 2829.81  538.60
   5  20   4 5624.57  989.73
   5 -20   4 4081.07  691.89
   5  20  -4 4190.39  891.77
   5  20   5 3594.45  891.74
   5  20  -5 3016.63  840.71
   5 -20   5 3409.47  619.81
   5  20   6 5567.83 1149.16
   5 -20  -6 5088.74 1189.91
   5  20  -6 6412.86  761.34
   5 -20   6 7236.33 1149.45
   5  20   7 5899.98 1119.43
  -5  20  -7 4874.53  995.86
   5 -20  -7 6196.08 1280.78
   5  20  -7 5438.41  961.98
   5 -20   7 5478.79 1056.55
   5  20   8 3386.69  991.68
  -5  20  -8 2446.59  899.53
   5 -20  -8 3621.92 1093.20
  -5 -20   8 2501.16  906.40
   5  20  -8 4691.67  874.89
   5 -20   8 4085.15  641.87
  -5 -20   9 1165.29  406.11
  -5  20  -9  726.70  408.08
   5 -20  -9 1096.11  480.62
  -5 -20  -9  -97.89  386.28
   5  20  -9 1330.16  410.50
   5 -20   9  862.68  683.27
  -5  20   9  -46.90  371.82
  -5 -20  10  -90.72  722.46
  -5  20 -10 1372.78  739.49
  -5 -20 -10  154.81  746.81
   5  20 -10 1407.48  683.71
   5 -20  10 2184.26  488.96
  -5  20  10 1401.27  466.67
  -5 -20  11  -76.04  601.77
  -5  20 -11  611.14  391.22
  -5 -20 -11 -158.02  648.46
   5  20 -11  640.05  360.94
   5 -20  11  168.83  630.82
  -5  20  11  328.45  362.71
  -5 -20  12   68.83  738.77
  -5  20 -12 1177.74  733.38
  -5 -20 -12 -314.72  772.24
   5  20 -12 1399.99  658.87
   5 -20  12 1101.71  717.62
  -5  20  12  946.91  432.55
  -5 -20  13 -128.13  445.54
  -5  20 -13  843.95  729.04
  -5 -20 -13 -288.66  801.41
   5  20 -13 1198.08  405.40
   5 -20  13 1027.89  713.98
  -5  20  13  769.98  447.76
  -5 -20  14 -154.21  656.60
  -5  20 -14  585.52  410.52
  -5 -20 -14 -133.78  800.77
   5  20 -14   12.18  569.73
   5 -20  14  291.04  620.75
   5  21   0 4859.42  963.64
   5 -21   0 5196.31  742.23
   5  21   1  801.27  584.40
   5 -21  -1   71.01  381.46
   5  21  -1  543.14  531.70
   5  21   2 5238.88  717.71
   5 -21  -2 5520.12  777.16
   5  21  -2 5311.46  694.16
   5  21   3 1096.64  463.97
   5 -21  -3 1152.91  809.13
   5  21  -3 1130.05  440.58
   5 -21   3 1001.53  779.76
   5  21   4 6305.41 1139.17
   5 -21  -4 6335.10 1297.02
   5  21  -4 7560.63 1112.34
   5 -21   4 6536.41  817.38
   5  21   5  704.93  699.39
   5 -21  -5  418.61  772.33
   5  21  -5  769.28  619.73
   5 -21   5  912.04  727.88
   5  21   6  768.99  675.02
   5 -21  -6  734.65  748.77
   5  21  -6  441.05  366.44
   5 -21   6  370.13  665.98
   5  21   7  245.94  562.88
   5 -21  -7  285.10  633.75
   5  21  -7  152.25  491.05
   5 -21   7   60.46  358.15
   5  21   8  504.65  701.87
   5 -21  -8  209.85  480.78
   5  21  -8  871.47  386.14
   5 -21   8  276.48  667.73
  -5  21  -9  752.69  636.91
   5 -21  -9  762.92  503.10
  -5 -21  -9 -123.54  371.20
   5  21  -9  741.30  597.52
   5 -21   9 1160.41  663.78
  -5 -21  10  210.92  611.64
  -5  21 -10  299.16  380.05
  -5 -21 -10 -261.15  615.99
   5  21 -10 1129.21  593.64
   5 -21  10  294.75  387.31
  -5  21  10  498.58  374.47
  -5 -21  11  -81.00  413.83
  -5  21 -11  788.54  681.33
  -5 -21 -11  272.73  434.70
   5  21 -11  333.98  633.18
   5 -21  11  515.76  673.78
  -5  21  11 1305.33  416.61
  -5 -21  12  111.85  874.15
  -5  21 -12 2376.64  583.07
  -5 -21 -12   -7.01  607.04
   5  21 -12 3427.03  836.92
   5 -21  12 3035.15  592.29
   5  22   0  168.41  531.28
   5  22   1  910.58  608.78
   5 -22  -1  103.73  424.78
   5  22  -1  412.55  349.29
   5  22   2 1914.87  485.50
   5 -22  -2 1821.65  566.00
   5  22  -2 1441.20  474.85
   5 -22   2  -41.94  868.54
   5  22   3 2930.05  595.32
   5 -22  -3 3298.64 1043.37
   5  22  -3 2998.81  875.35
   5 -22   3 2473.43  628.61
   5  22   4  925.57  857.59
   5 -22  -4 3818.42 1007.89
   5  22  -4 2253.30  835.39
   5 -22   4 2728.13  953.28
   5  22   5 6082.71 1161.34
   5 -22  -5 3326.56 1202.13
   5  22  -5 6630.08  802.93
   5 -22   5 3760.90 1154.18
   5  22   6 2219.08  950.71
   5 -22  -6 2319.39 1046.56
   5  22  -6 3447.60  870.54
   5 -22   6 3731.68  683.17
   5  22   7 4655.24 1149.95
   5 -22  -7 5840.30 1351.04
   5  22  -7 4816.80  997.18
   5 -22   7 5901.10 1175.98
   5  22   8 1379.76  867.32
   5 -22  -8  879.82  592.05
   5  22  -8 1447.72  493.73
   5 -22   8 2303.84  859.99
   5  22   9 5805.10  906.92
   5 -22   9 6833.88  875.40
   5  23   0 -112.40  522.41
   5  23   1 4248.70 1063.76
   5  23   2  623.81  688.25
  -6   0   0 5550.41  602.40
  -6   0   0 5057.22  548.40
  -6   0  -1 1223.82  309.73
  -6   0  -1 1896.91  375.32
  -6   0   1 1662.87  249.13
  -6   0   1 1624.94  339.84
  -6   0  -2 9013.22  687.91
  -6   0  -2 8265.67  788.51
  -6   0   2 9084.49  755.99
  -6   0   2 9071.58  719.25
  -6   0  -3 6778.97  533.64
  -6   0  -3 6023.23  544.57
  -6   0   3 6968.04  577.67
  -6   0   3 6788.29  531.72
  -6   0  -4 7404.97  759.15
  -6   0   4 6957.12  719.09
  -6   0   4 6813.45  561.98
  -6   0  -4 6644.87  519.16
  -6   0  -5 6176.95  476.65
  -6   0  -5 5218.10  701.91
  -6   0   5 6903.85  570.95
  -6   0   5 6348.34  695.62
  -6   0  -6   85.00  121.75
  -6   0  -6   59.02  264.12
  -6   0   6   39.59  157.64
  -6   0   6   43.64  153.09
  -6   0  -714757.86 1038.90
  -6   0   716358.98 1297.73
  -6   0   716036.10  939.60
  -6   0  -8  239.89  342.97
  -6   0   8  134.90  345.24
  -6   0   8  195.79  149.40
  -6   0  -917956.84 1452.26
  -6   0   919281.02 1314.96
  -6   0 -10  741.63  291.60
  -6   0  10 1173.46  469.68
  -6   0 -11 5947.12  892.36
  -6   0  11 8077.33  734.49
  -6   0 -12  780.51  468.66
  -6   0  12  446.30  296.49
  -6   0 -13 2859.44  478.57
  -6   0  13 2943.03  699.37
  -6   0 -14 1025.83  598.44
  -6   0  14 1317.19  376.46
  -6   0 -15  562.11  514.66
  -6   0  15  624.13  518.92
  -6   0 -16 7611.02  831.42
  -6   0  16 6210.92  992.79
  -6   0 -17  597.04  609.61
  -6   0  17 1355.02  410.46
  -6   0 -18 1903.60  687.39
  -6   0 -19 2600.21  456.02
  -6   0  19  132.03  456.19
  -6   0  20    1.14  331.25
  -6   0 -21 1239.80  441.79
  -6   0 -22   46.20  487.20
  -6   0  22 -164.72  318.55
  -6   0 -23  606.61  675.04
  -6   0 -24 -321.52  363.21
  -6   0  24 -104.75  393.51
  -6   1   026313.37 1604.39
  -6  -1   028718.58 1740.66
  -6   1   028464.53 1681.18
  -6  -1   029588.60 1668.21
  -6   1  -123114.50 1408.17
  -6  -1   123521.60 1434.63
  -6  -1   123464.09 1442.93
  -6   1  -124178.99 1481.95
  -6  -1  -122770.99 1531.44
  -6   1   125380.28 1509.23
  -6   1   127803.95 1568.38
  -6  -1  -123939.33 1288.42
  -6  -1   219014.23 1072.68
  -6   1  -218523.37 1106.35
  -6   1  -218942.37 1294.41
  -6  -1   219780.79 1256.83
  -6   1   218732.52 1090.16
  -6  -1  -218135.84 1080.91
  -6  -1  -219260.58 1314.22
  -6   1   219962.83 1190.14
  -6   1  -3 5795.10  645.72
  -6  -1   3 5564.64  617.92
  -6  -1   3 6352.26  479.29
  -6   1  -3 6258.84  537.80
  -6  -1  -3 6498.33  544.34
  -6   1   3 5943.08  634.65
  -6   1   3 6295.62  546.96
  -6  -1  -3 5593.43  478.75
  -6  -1   4 3259.43  513.60
  -6  -1   4 4387.76  444.90
  -6   1  -4 3942.76  395.54
  -6   1  -4 3382.55  535.38
  -6  -1  -4 3853.15  364.66
  -6  -1  -4 4368.37  442.99
  -6   1   4 3779.92  402.38
  -6   1   4 3791.88  538.21
  -6  -1   5 3201.25  514.63
  -6  -1   5 2704.59  358.21
  -6   1  -5 3346.87  346.98
  -6   1  -5 2792.27  523.87
  -6  -1  -5 3558.23  338.42
  -6  -1  -5 3518.55  537.90
  -6   1   5 2934.99  510.82
  -6   1   5 2985.41  359.10
  -6  -1   6 1507.79  314.41
  -6  -1   6 1771.56  309.32
  -6   1  -6 1653.25  329.10
  -6   1  -6 1953.50  270.08
  -6   1   6 1598.94  295.55
  -6  -1  -6 1167.87  469.31
  -6   1   6 2406.28  306.89
  -6  -1   7  486.12  338.29
  -6  -1   7  339.03  204.87
  -6   1  -7  236.92  169.26
  -6   1  -7  892.48  366.50
  -6  -1  -7  479.52  385.19
  -6   1   7  254.52  344.76
  -6   1   7  528.81  186.80
  -6  -1   8 1914.72  285.43
  -6   1  -8 1622.86  498.79
  -6  -1   8 1316.81  297.72
  -6  -1  -8  768.45  287.96
  -6   1   8 1310.37  462.28
  -6  -1   9 2938.47  579.79
  -6  -1   9 2278.36  314.17
  -6   1  -9 1912.62  368.87
  -6  -1  -9 2067.22  550.00
  -6   1   9 2543.59  556.65
  -6  -1  10 3112.04  601.62
  -6   1 -10 1710.79  592.79
  -6  -1 -10 1035.28  588.64
  -6   1  10 3470.33  462.00
  -6  -1  11 7216.34  919.69
  -6   1 -11 6702.81  715.43
  -6  -1 -11 5279.07  896.86
   6   1 -11 7528.82  558.31
  -6   1  11 7630.14  934.28
  -6  -1  12 8533.93  988.20
  -6   1 -12 7128.59 1015.96
  -6   1  12 9427.95 1065.38
  -6  -1 -12 8629.12  854.62
  -6   1 -13 6420.55  964.67
  -6  -1  13 8195.73  798.30
  -6  -1 -13 6939.53  977.92
  -6   1  13 7319.33  756.38
  -6  -1  14 6712.20  965.48
  -6   1 -14 5141.76  656.79
  -6  -1 -14 6682.84  969.57
  -6   1  14 5238.81  895.01
  -6  -1  15 3355.18  578.99
  -6   1 -15 3139.02  772.52
  -6  -1 -15 2987.37  521.49
  -6   1  15 4032.21  730.76
  -6  -1  16 1804.50  692.87
  -6   1 -16 1646.61  679.19
  -6   1  16 2570.71  465.76
  -6  -1 -16 1401.13  673.17
  -6  -1  17 2953.85  512.33
  -6   1 -17 3842.74  605.59
  -6  -1 -17 3007.55  802.27
  -6   1  17 3388.29  831.26
  -6  -1  18  494.42  606.20
  -6   1 -18  529.95  599.28
  -6  -1 -18 1164.10  382.84
  -6   1 -19 -219.08  220.45
  -6  -1 -19  773.95  369.32
  -6   1  19  -37.92  247.85
  -6  -1  20  246.37  373.58
  -6   1 -20  324.66  545.73
  -6  -1 -20  821.75  562.49
  -6   1 -21  535.63  457.96
  -6  -1 -21   64.37  267.82
  -6   1  21 -145.17  289.88
  -6  -1  22  358.97  370.99
  -6   1 -22  132.56  335.14
  -6  -1 -22  421.04  572.77
  -6   1  22  197.63  573.92
  -6   1 -23 -105.95  504.64
  -6  -1 -23  -51.27  508.96
  -6  -1  24   87.75  425.42
  -6   1 -24  723.95  399.39
  -6  -1 -24  506.76  399.06
  -6   1  24  -75.50  430.43
  -6  -2   0  686.96  234.26
  -6   2   0  181.33  164.22
  -6   2   0  662.61  267.51
  -6  -2   0  437.70  309.76
  -6  -2   1 2411.04  453.73
  -6  -2   1 2554.04  297.68
  -6   2  -1 3054.37  325.62
  -6   2  -1 3483.38  486.07
  -6  -2  -1 2009.54  347.30
  -6  -2  -1 3478.32  520.54
  -6   2   1 2582.89  301.28
  -6   2   1 3317.75  434.59
  -6  -2   2 5269.04  566.66
  -6  -2   2 5057.93  539.19
  -6   2  -2 5564.76  419.47
  -6   2  -2 5234.71  614.30
  -6   2   2 5651.88  517.67
  -6  -2  -2 4764.78  460.73
  -6  -2  -2 4424.44  633.63
  -6   2   2 4406.46  552.53
  -6  -2   3  742.59  194.46
  -6  -2   3 1002.71  329.00
  -6   2  -3  719.89  336.15
  -6   2  -3  760.82  274.90
  -6  -2  -3  723.68  211.36
  -6  -2  -3  831.45  399.13
  -6   2   3  881.61  346.18
  -6   2   3  579.68  243.81
  -6  -2   4 8531.04  761.47
  -6  -2   4 7703.25  541.29
  -6   2  -4 7206.47  623.80
  -6   2  -4 7533.84  595.93
  -6   2   4 8622.42  622.10
  -6  -2  -4 7640.25  533.95
  -6  -2  -4 7767.04  639.58
  -6   2   4 8995.96  799.37
  -6  -2   5  354.65  326.48
  -6  -2   5  826.54  162.04
  -6   2  -5  336.31  345.50
  -6   2  -5  727.96  226.55
  -6  -2  -5  360.76  219.60
  -6   2   5  183.03  343.89
  -6   2   5  385.25  193.76
  -6   2  -6 9538.86  779.48
  -6  -2   6 9634.06  737.43
  -6  -2   6 9365.64  583.30
  -6   2  -6 8845.09  625.92
  -6   2   6 8195.57  574.42
  -6   2   6 8749.63  874.35
  -6  -2  -6 7964.89  698.29
  -6  -2   7  304.06  129.47
  -6  -2   7  201.33  305.86
  -6   2  -7  231.66  333.97
  -6   2  -7   33.12  106.12
  -6  -2  -7  264.45  327.18
  -6   2   7  284.08  202.99
  -6  -2   818446.43 1242.55
  -6   2  -817937.58 1227.23
  -6  -2  -816862.84 1355.17
   6  -2   817662.87 1036.86
  -6   2   817572.87 1197.69
  -6  -2   9  559.58  539.27
  -6   2  -9 1862.79  547.32
  -6  -2  -9 1906.69  553.76
   6   2  -9 2014.66  337.23
   6  -2   9 2836.55  426.73
  -6   2   9 2050.19  535.22
  -6   2 -1016650.33 1206.69
  -6  -2  1017407.35 1241.72
  -6  -2 -1015571.58 1176.61
   6   2 -1015368.38  952.28
   6  -2  1017687.20 1002.68
  -6   2  1013713.32 1272.00
  -6  -2  11 1663.56  582.61
  -6   2 -11 1513.91  567.60
  -6  -2 -11 1793.52  399.64
   6   2 -11 1954.45  318.02
  -6   2  11 2029.43  363.13
  -6  -2  12 2849.40  461.70
  -6   2 -12 2997.10  675.22
  -6  -2 -12 3733.50  686.14
  -6   2  12 2504.09  417.11
  -6  -2  13  862.94  557.33
  -6   2 -13  973.76  347.76
  -6  -2 -13 1953.14  551.26
  -6   2  13 1138.04  560.73
  -6  -2  14  374.88  289.92
  -6   2 -14  920.49  470.98
  -6   2  14  423.10  451.00
  -6  -2 -14  283.65  284.35
  -6  -2  15  524.02  522.04
  -6   2 -15  634.59  319.49
  -6  -2 -15  662.85  340.99
  -6   2  15  614.35  333.48
  -6  -2  16 1906.31  418.53
  -6  -2 -16 1079.63  606.63
  -6   2  16 1353.31  613.06
  -6  -2  17  256.44  503.86
  -6   2 -17   94.88  312.83
  -6  -2 -17  390.13  473.10
  -6   2  17  609.47  494.79
  -6  -2  18 3951.00  637.79
  -6   2 -18 2881.79  882.93
  -6   2  18 4426.97  660.95
  -6  -2 -18 3893.84  621.29
  -6   2 -19  829.45  353.06
  -6  -2 -19  189.87  555.07
  -6   2  19   78.23  589.39
  -6  -2  20 4299.73  626.38
  -6   2 -20 2991.29  835.21
  -6  -2 -20 2924.64  827.54
  -6   2  20  219.71  888.58
  -6   2 -21  402.61  542.98
  -6  -2 -21 -579.23  312.77
  -6   2  21  -89.54  358.17
  -6  -2  22 -121.65  408.11
  -6   2 -22 1679.03  406.28
  -6   2  22 -169.33  627.66
  -6  -2 -22 -418.14  414.55
  -6  -2  23  120.79  636.89
  -6   2 -23  321.41  583.06
  -6   2  23  292.01  618.23
  -6  -2  24 -552.18  565.12
  -6   2 -24 1390.84  485.33
  -6  -2 -24 2040.32  524.82
  -6   2  24  118.00  523.96
  -6  -3   014145.60 1075.64
  -6   3   014571.05 1033.10
  -6  -3   016378.57 1017.48
  -6   3   015264.85  906.39
  -6  -3   1 7900.90  588.59
  -6  -3   1 8674.20  587.06
  -6   3  -1 7435.04  729.61
  -6   3  -1 6923.27  637.66
  -6   3   1 8044.85  667.40
  -6  -3  -1 7845.14  611.32
  -6  -3  -1 9275.98  835.79
  -6   3   1 7942.48  567.91
  -6   3  -211024.21  878.71
  -6  -3   2 9992.15  799.64
  -6  -3   211351.89  731.79
  -6   3  -210485.33  820.13
  -6  -3  -211090.52  730.21
  -6  -3  -211548.54 1027.85
  -6   3   213188.76  873.34
  -6   3   211672.32  760.31
  -6  -3   3 4835.64  414.45
  -6  -3   3 5482.87  576.81
  -6   3  -3 4267.25  591.70
  -6   3  -3 5123.00  513.67
  -6   3   3 4967.14  475.78
  -6  -3  -3 4955.55  418.08
  -6  -3  -3 5711.01  709.14
  -6   3   3 5011.73  465.02
  -6  -3   4 1716.89  392.70
  -6  -3   4 1466.36  239.01
  -6   3  -4 1700.92  324.56
  -6   3  -4 1706.94  287.60
  -6  -3  -4 1481.50  226.74
  -6  -3  -4 1606.74  456.65
  -6   3   4 1612.29  278.77
  -6   3   4 1966.34  459.49
  -6  -3   5  425.74  165.10
  -6  -3   5  472.17  198.44
  -6   3  -5  836.50  350.11
  -6   3  -5  242.28  147.09
  -6  -3  -5  738.78  368.25
  -6   3   5  827.94  345.59
  -6   3   5  539.63  176.02
  -6  -3   6 1881.03  506.70
  -6   3  -6 1935.05  321.72
   6   3  -6 2351.21  289.77
   6  -3   6 2439.32  392.00
  -6   3   6 1833.41  499.63
  -6  -3  -6 1796.15  512.39
  -6  -3   7  760.46  400.33
  -6   3  -7 1226.36  436.85
  -6  -3  -7  723.44  265.52
   6  -3   7  838.59  298.79
  -6   3   7  335.46  405.23
   6   3  -7  938.90  204.46
  -6   3  -8 2471.17  409.62
  -6  -3   8 2277.61  398.17
  -6  -3  -8 3326.67  423.73
   6   3  -8 2823.83  289.77
   6  -3   8 3006.18  401.29
  -6   3   8 2281.47  555.39
  -6  -3   9  839.66  412.54
  -6   3  -9  284.01  395.87
   6   3  -9  600.47  259.77
  -6  -3  -9  255.44  255.12
   6  -3   9  386.17  253.35
  -6   3   9  247.76  246.91
  -6  -3  10 5418.66  814.70
  -6   3 -10 5870.11  633.44
  -6  -3 -10 5411.21  795.03
   6   3 -10 4836.17  507.19
   6  -3  10 7285.14  572.41
  -6   3  10 5163.37  572.87
  -6  -3  11 2727.79  435.66
  -6   3 -11 1957.79  610.30
  -6  -3 -11  -13.66  623.90
   6  -3  11 2666.71  368.56
  -6   3  11 2909.18  642.46
   6   3 -11 2639.21  377.27
  -6  -3  12 8961.18 1057.13
  -6   3 -12 8428.49  824.51
  -6   3  1210515.17 1162.46
  -6  -3 -12 8940.66 1051.74
   6   3 -12 9941.82  711.52
  -6  -3  13 2381.20  476.84
  -6   3 -13 3027.69  692.34
  -6  -3 -13 2600.20  477.52
  -6   3  13 2456.77  651.54
  -6  -3  14 6469.05  914.83
  -6   3 -14 5243.38  905.04
  -6   3  14 4942.00  629.80
  -6  -3 -14 5569.53  678.60
  -6  -3  15 3008.02  519.89
  -6   3 -15 3202.79  755.49
  -6  -3 -15 2399.95  707.15
  -6   3  15 2993.04  705.73
  -6  -3  16 6690.89 1084.04
  -6   3 -16 7775.08  865.32
  -6  -3 -16 6403.03 1024.56
  -6   3  16 6710.44 1023.18
  -6  -3  17 4134.41  633.07
  -6   3 -17 2498.97  782.76
  -6  -3 -17 2345.88  485.32
  -6   3  17 2198.68  739.96
  -6  -3  18 2260.26  795.77
  -6   3 -18 2940.79  533.59
  -6   3  18 2314.44  516.43
  -6  -3 -18 2959.48  541.13
  -6  -3  19 -185.11  651.50
  -6   3 -19 1639.63  630.91
  -6  -3 -19 1811.41  632.97
  -6   3  19  -59.95  619.66
  -6  -3  20   92.11  635.39
  -6   3 -20 1033.35  388.86
  -6  -3 -20  730.97  607.53
  -6   3  20  -31.92  599.29
  -6   3 -21 1425.72  548.35
  -6  -3 -21 -212.41  330.06
  -6   3  21   43.19  332.39
  -6  -3  22   35.03  361.80
  -6   3 -22  637.03  341.20
  -6   3  22   10.47  571.43
  -6  -3 -22  -65.62  355.41
  -6  -3  23  587.24  629.37
  -6   3 -23  219.61  595.15
  -6  -3 -23   76.06  622.89
  -6   3  23   90.79  624.87
  -6  -3  24  328.56  369.68
  -6   3 -24  144.82  351.92
  -6  -3 -24 -183.42  599.62
  -6   3  24   43.47  353.99
  -6  -4   0  487.12  346.43
  -6   4   0  536.52  293.58
  -6  -4   0 1094.51  253.87
  -6   4   0  970.77  329.61
  -6  -4   1  432.78  294.84
  -6   4  -1  374.08  247.16
  -6  -4   1  316.18  226.67
  -6   4  -1  247.96  161.09
  -6  -4  -1  295.59  315.51
  -6  -4  -1  169.46  188.99
  -6   4   1  261.09  213.27
  -6   4   1  274.70  269.11
  -6  -4   2 2109.11  425.71
  -6  -4   2 1610.29  259.43
  -6   4  -2 1915.40  406.12
  -6   4  -2 2534.71  272.74
  -6  -4  -2 1232.89  360.03
  -6   4   2 1782.66  313.36
  -6   4   2 1543.95  408.09
  -6  -4  -2 1320.31  287.62
  -6  -4   3 2351.68  405.22
  -6   4  -3 2078.23  315.41
  -6   4  -3 2281.74  279.27
  -6  -4   3 2980.82  447.44
  -6  -4  -3 1855.86  334.00
  -6  -4  -3 1678.71  274.87
  -6   4   3 2573.96  334.60
  -6   4   3 3034.71  476.10
  -6  -4   4  924.06  341.15
  -6   4  -4  799.15  370.76
   6  -4   4  533.11  337.39
  -6   4   4  732.47  220.46
  -6   4   4 1278.85  247.32
  -6  -4  -4  870.24  263.35
  -6   4  -5 9935.92  912.45
  -6  -4   5 8824.01  869.85
  -6  -4  -5 8298.29  709.07
   6   4  -5 8674.29  755.69
   6  -4   5 9494.53  786.11
  -6   4   5 9228.39  725.91
  -6  -4   6  248.38  310.67
  -6   4  -6   86.51  207.66
  -6  -4  -6  -24.05  212.71
   6   4  -6   35.51  249.16
   6  -4   6  194.45  255.72
  -6   4   6  455.67  200.71
  -6  -4   7 8440.20  908.35
  -6   4  -7 6671.60  843.64
  -6  -4  -7 8394.63  901.63
   6   4  -7 8527.53  702.30
   6  -4   7 8728.55  706.25
  -6   4   7 6654.55  626.18
  -6  -4   8 1283.96  330.43
  -6   4  -8 1359.61  468.32
  -6  -4  -8 1076.65  480.57
   6   4  -8 1371.30  340.52
   6  -4   8 1655.40  339.51
  -6   4   8 1330.02  307.91
  -6  -4   911386.51 1176.20
  -6   4  -913739.86 1052.40
  -6  -4  -912023.35 1190.75
   6   4  -912683.32  905.34
   6  -4   912744.63  881.03
  -6   4   911573.34 1138.63
  -6  -4  10  391.48  478.09
  -6   4 -10  546.47  487.11
  -6  -4 -10  620.40  460.09
   6   4 -10  915.64  299.13
   6  -4  10  949.51  313.56
  -6   4  10 1036.33  473.42
  -6  -4  11 5042.17  611.59
  -6   4 -11 4557.66  572.26
  -6  -4 -11 6330.56  847.82
   6   4 -11 6008.62  554.68
   6  -4  11 6544.03  573.01
  -6   4  11 4522.51  770.66
  -6  -4  12  741.33  518.64
  -6   4 -12  336.93  503.09
   6   4 -12  561.10  305.36
   6  -4  12 1194.24  323.28
  -6   4  12  318.73  500.99
  -6  -4 -12 1150.85  313.02
  -6  -4  13  518.19  508.59
  -6   4 -13 -116.15  492.13
  -6  -4 -13  628.30  291.04
   6   4 -13  822.97  284.09
  -6   4  13  515.37  300.54
  -6   4 -14  558.65  518.47
  -6  -4  14  573.73  346.07
  -6  -4 -14  780.95  498.79
  -6   4  14  506.82  324.23
  -6  -4  15  461.84  474.99
  -6   4 -15  325.05  452.50
  -6  -4 -15  -11.05  424.66
  -6   4  15   75.04  434.01
  -6  -4  16  131.01  531.68
  -6   4 -16  248.67  297.59
  -6   4  16 1256.11  518.22
  -6  -4 -16   60.60  472.93
  -6  -4  17 4549.12  670.79
  -6   4 -17 2795.53  858.34
  -6  -4 -17 4242.69  639.08
  -6   4  17 3137.78  602.30
  -6  -4  18 -328.91  518.80
  -6   4 -18  283.69  309.83
  -6   4  18  457.04  299.59
  -6  -4 -18   60.78  287.70
  -6  -4  19 -534.67  453.26
  -6   4 -19 2080.42  653.94
  -6  -4 -19 2407.66  631.57
  -6   4  19 -125.80  644.95
  -6  -4  20  -13.46  641.60
  -6   4 -20 1059.88  384.35
  -6   4  20  -31.73  592.14
  -6  -4 -20 -156.71  603.22
  -6  -4  21 4562.40  734.51
  -6   4 -21 3480.04  915.67
  -6  -4 -21 3383.32  633.99
  -6   4  21 3481.05  612.03
  -6  -4  22 -245.35  590.49
  -6   4 -22  167.26  341.94
  -6  -4 -22  432.77  351.54
  -6   4  22   78.53  577.40
  -6  -4  23 3706.74  678.20
  -6   4 -23 3346.88  960.64
  -6  -4 -23 -483.31  996.04
  -6  -4  24  539.34  567.93
  -6   4 -24 -174.59  327.03
  -6  -4 -24 -168.72  575.84
  -6   4  24 -162.39  341.53
  -6  -5   0 8481.89  709.29
  -6   5   0 8588.98  783.58
  -6   5   0 9883.30  777.94
  -6  -5   0 8669.12  866.49
  -6  -5   1 6212.49  608.58
  -6  -5   1 5463.07  697.20
  -6   5  -1 6654.61  661.73
  -6   5  -1 6039.42  623.54
  -6   5   1 5628.53  555.90
  -6  -5  -1 5442.39  516.81
  -6  -5  -1 7133.34  767.17
  -6   5   1 5451.59  652.25
  -6   5  -2 1512.50  378.74
  -6  -5   2 1701.90  241.88
  -6   5  -2  391.23  221.17
  -6  -5   2 1327.04  284.10
  -6  -5  -2 1381.24  259.49
  -6  -5  -2 1842.94  432.92
  -6   5   2 1530.33  284.10
  -6   5   2 1503.56  402.54
  -6  -5   3 6500.23  683.84
  -6  -5  -3 4784.24  685.46
   6   5  -3 4651.94  615.24
   6  -5   3 6154.94  669.26
  -6   5   3 4230.32  636.77
  -6   5   3 5528.56  574.50
  -6  -5   4 3989.41  552.68
  -6   5  -4 2279.68  513.72
  -6  -5  -4 3028.95  569.28
   6  -5   4 2864.49  485.87
  -6   5   4 2471.11  324.72
  -6   5   4 2964.75  553.87
   6   5  -4 3168.02  514.17
  -6  -5   5 3638.18  590.38
  -6   5  -5 3918.43  598.04
  -6  -5  -5 3728.38  643.13
   6   5  -5 3302.91  501.62
   6  -5   5 3623.58  375.95
  -6   5   5 3679.70  600.79
  -6  -5   6  399.98  380.24
  -6   5  -6  480.64  248.31
  -6  -5  -6  157.96  433.37
   6  -5   6  944.77  322.62
  -6   5   6  527.85  416.20
   6   5  -6  762.85  325.19
  -6  -5   7  472.30  245.85
  -6   5  -7  571.67  403.48
  -6  -5  -7  343.13  417.36
   6   5  -7  543.36  216.19
   6  -5   7  939.96  328.48
  -6   5   7  462.39  421.55
  -6  -5   8 1722.54  359.54
  -6   5  -8 1178.30  495.34
  -6  -5  -8  932.10  505.50
   6   5  -8 1544.89  247.28
   6  -5   8 1504.08  375.09
  -6   5   8  566.43  488.38
  -6  -5   9 3801.88  665.08
  -6   5  -9 1486.82  403.84
  -6  -5  -9 2349.49  583.02
   6   5  -9 2469.95  296.19
   6  -5   9 3349.34  457.05
  -6   5   9 2440.40  585.33
  -6  -5  10  162.46  387.72
  -6   5 -10   79.80  358.95
   6   5 -10  451.96  252.43
  -6  -5 -10  -15.41  230.33
   6  -5  10  263.98  265.20
  -6   5  10  -24.37  364.33
  -6  -5  11 6416.70  936.98
  -6   5 -11 5048.58  838.32
  -6  -5 -11 5510.92  649.19
   6   5 -11 6844.57  645.60
   6  -5  11 6997.73  647.03
  -6   5  11 7205.38  713.35
  -6  -5  12 2688.15  475.29
  -6   5 -12 1841.84  425.93
  -6  -5 -12 2957.00  469.19
   6  -5  12 2856.17  457.54
  -6   5  12 2990.21  493.31
   6   5 -12 2627.82  451.87
  -6  -5  13 6004.33 1006.56
  -6   5 -13 6929.15  998.28
  -6  -5 -13 6116.04  962.88
   6   5 -13 9194.55  735.36
   6  -5  13 7935.46  715.67
  -6   5  13 7357.25  761.06
  -6  -5  14 2540.52  752.06
  -6   5 -14 2487.37  712.45
  -6   5  14 3357.07  714.05
   6   5 -14 3789.69  475.46
  -6  -5 -14 2305.74  693.98
  -6  -5  15 6338.74  751.01
  -6   5 -15 5771.13  755.66
  -6  -5 -15 4977.94  888.67
  -6   5  15 6618.03  964.54
  -6  -5  16 1793.11  712.03
  -6   5 -16 1810.56  686.41
  -6  -5 -16 1862.24  655.12
  -6   5  16 1565.44  654.83
  -6  -5  17 5609.89 1032.98
  -6   5 -17 7046.17  850.46
  -6   5  17 6100.65  760.97
  -6  -5 -17 5955.33  753.25
  -6  -5  18 2281.27  540.01
  -6   5 -18 2159.96  741.92
  -6   5  18 1973.68  478.98
  -6  -5 -18 1852.68  463.54
  -6  -5  19  428.75  590.96
  -6   5 -19  653.62  370.12
  -6  -5 -19  157.80  574.13
  -6   5  19  689.19  573.84
  -6  -5  20 1496.00  720.29
  -6   5 -20 1048.12  701.53
  -6   5  20 1004.33  702.25
  -6  -5  21 -132.54  336.42
  -6   5 -21 -763.52  521.30
  -6  -5 -21 -151.93  561.86
  -6   5  21   24.05  326.87
  -6  -5  22    2.20  578.67
  -6   5 -22  438.46  338.53
  -6  -5 -22 -390.17  359.26
  -6   5  22  282.55  329.27
  -6  -5  23  572.25  365.90
  -6   5 -23 -339.44  521.31
  -6  -5 -23 -167.47  344.98
  -6  -5  24  529.83  790.69
  -6   5 -24  914.91  452.08
  -6  -5 -24  212.26  783.33
  -6   5  24  390.06  755.06
  -6  -6   0  865.29  413.91
  -6  -6   0  287.82  229.78
  -6   6   0  639.14  284.16
  -6   6   0 1006.72  361.90
  -6  -6   1 1827.10  322.25
  -6  -6   1 2452.26  391.92
  -6   6  -1 2128.60  413.13
  -6  -6  -1 1569.31  497.67
   6  -6   1 2805.25  366.77
  -6   6   1 2110.16  363.43
  -6   6   1 2173.87  475.67
  -6  -6  -1 1167.37  290.75
  -6  -6   2 2654.42  344.76
  -6   6  -2 2478.85  340.66
  -6  -6  -2 2976.26  564.31
   6   6  -2 3191.28  545.84
   6  -6   2 3040.94  386.55
  -6   6   2 3934.77  431.46
  -6   6   2 3478.86  561.26
  -6  -6   3 1474.76  384.78
  -6   6  -3 1691.51  267.44
   6   6  -3 1034.93  425.29
  -6  -6  -3  823.87  500.25
   6  -6   3 2175.16  316.59
  -6   6   3 1831.76  454.81
  -6   6   3 1599.33  354.64
  -6  -6   4 4678.72  614.21
  -6   6  -4 3529.91  425.09
  -6  -6  -4 3392.90  652.22
   6   6  -4 4140.81  577.57
   6  -6   4 4495.83  586.51
  -6   6   4 3980.13  636.49
  -6  -6   5 1099.55  407.81
  -6   6  -5 1129.30  299.58
   6   6  -5 1134.86  383.47
  -6  -6  -5  914.21  483.44
   6  -6   5 1378.28  426.80
  -6   6   5 1472.95  501.31
  -6  -6   611867.60 1070.79
  -6   6  -613443.65 1155.63
  -6  -6  -610224.32 1093.15
   6   6  -610803.73  907.09
   6  -6   611458.33  921.91
  -6   6   6 9379.97 1004.70
  -6  -6   7 1279.83  298.54
  -6   6  -7 1501.52  471.34
   6   6  -7 1360.31  406.86
  -6  -6  -7  953.58  473.06
   6  -6   7 1078.77  385.50
  -6   6   7 1537.51  504.49
  -6  -6   8 6836.33  691.37
  -6   6  -8 6129.06  826.89
  -6  -6  -8 8470.72  976.15
   6   6  -8 7787.62  718.89
   6  -6   8 8053.88  739.08
  -6   6   8 7149.96  922.19
  -6  -6   9 1455.68  581.27
  -6   6  -9 1819.86  587.05
   6   6  -9 2343.67  451.15
   6  -6   9 2256.97  444.37
  -6   6   9 2174.86  404.38
  -6  -6  -9 1480.20  379.73
  -6  -6  1011135.36 1237.51
  -6   6 -1010782.15  930.74
  -6  -6 -10 8496.96  854.46
   6   6 -10 9421.97  655.36
   6  -6  1011002.98  876.93
  -6   6  10 8490.61  821.57
  -6  -6  11  334.95  454.88
  -6   6 -11  -45.96  460.71
  -6  -6 -11  314.81  276.02
   6  -6  11  820.26  334.17
  -6   6  11  565.60  282.80
   6   6 -11  448.97  322.90
  -6  -6  12 3555.34  772.85
  -6   6 -12 2722.41  736.19
  -6  -6 -12 2881.36  516.49
   6   6 -12 5490.52  593.59
   6  -6  12 5134.82  584.81
  -6   6  12 4895.46  630.54
  -6  -6  13 2769.73  472.96
  -6   6 -13 1871.18  446.95
   6  -6  13 2868.77  479.36
  -6   6  13 1946.81  654.28
   6   6 -13 3190.30  495.54
  -6  -6 -13 1955.71  633.43
  -6  -6  14  555.12  314.20
  -6   6 -14  614.50  521.90
  -6  -6 -14  802.85  477.44
   6   6 -14  352.28  326.04
   6  -6  14  256.39  327.90
  -6   6  14  717.85  513.76
  -6  -6  15 2657.98  736.80
  -6   6 -15 1765.94  707.88
  -6  -6 -15  230.21  657.11
  -6   6  15 2907.78  695.38
   6   6 -15 1839.19  427.13
  -6  -6  16 1431.46  607.95
  -6   6 -16  444.84  380.04
  -6  -6 -16  686.12  554.65
  -6   6  16 1241.57  565.92
  -6  -6  17   79.34  374.15
  -6   6 -17  473.56  573.18
  -6  -6 -17  -19.17  322.66
  -6   6  17 1237.09  337.65
  -6  -6  18 1885.50  698.54
  -6   6 -18 1786.09  655.89
  -6  -6 -18  -35.70  396.54
  -6   6  18 1210.87  404.03
  -6  -6  19 1599.82  561.75
  -6   6 -19  102.93  320.78
  -6  -6 -19  -92.84  310.31
  -6   6  19  -43.17  506.54
  -6  -6  20 2753.93  534.88
  -6   6 -20 1414.48  767.78
  -6  -6 -20 -258.67  763.09
  -6   6  20 1774.34  746.56
  -6  -6  21 -163.95  630.22
  -6   6 -21  561.93  381.18
  -6  -6 -21   90.19  623.68
  -6   6  21  557.65  380.26
  -6  -6  22 2335.19  952.49
  -6   6 -22 2780.12  872.51
  -6  -6 -22 3865.10  635.60
  -6   6  22 -151.31  586.56
  -6  -6  23 -305.07  387.91
  -6   6 -23 -345.89  578.41
  -6  -6 -23 -185.58  394.93
  -6   6  23  339.97  593.66
  -6  -6  24 1959.25  820.82
  -6  -6 -24  -73.20  551.14
  -6   7   010853.54  880.06
   6  -7   0 9658.10  794.08
  -6  -7   010351.61  784.56
  -6  -7   1 4739.16  554.59
  -6   7  -1 3883.78  429.85
  -6  -7  -1 4934.81  727.60
   6   7  -1 4655.52  671.96
   6  -7   1 4141.00  471.30
  -6   7   1 4509.48  511.41
  -6   7   1 4308.53  454.36
  -6  -7   212964.40  892.90
  -6   7  -214907.25 1136.90
  -6  -7  -211281.46 1133.29
   6  -7   213359.86  961.99
  -6   7   212656.49  870.94
  -6   7   213551.49  923.07
   6   7  -212225.76 1088.90
  -6  -7   3 1268.97  412.20
  -6  -7  -3 1570.51  519.15
   6   7  -3 1604.74  475.38
   6  -7   3 1789.76  531.40
  -6   7   3 2038.32  338.88
  -6  -7   4 4524.07  494.07
  -6   7  -4 4310.15  658.60
   6   7  -4 3797.48  608.82
  -6  -7  -4 5056.15  738.13
   6  -7   4 4862.74  648.24
  -6   7   4 5858.77  541.60
  -6  -7   5 1383.39  480.49
  -6   7  -5 1847.77  539.38
  -6  -7  -5 2195.40  557.87
   6   7  -5 3248.68  519.72
   6  -7   5 2145.39  511.01
  -6   7   5 1883.35  577.65
  -6  -7   6 1986.64  490.66
  -6   7  -6  652.53  465.59
   6   7  -6  895.86  417.18
  -6  -7  -6 1316.35  508.43
   6  -7   6 1309.44  437.05
  -6   7   6 1648.81  334.77
  -6  -7   7  265.08  366.50
  -6   7  -7  460.15  384.70
  -6  -7  -7  201.74  254.75
   6   7  -7  312.95  321.33
   6  -7   7  220.77  340.54
  -6   7   7  246.86  276.03
  -6  -7   8  707.04  458.54
  -6   7  -8  849.74  473.37
   6  -7   8  804.42  397.18
  -6   7   8 1039.69  325.74
   6   7  -8 1037.96  382.66
  -6  -7  -8  538.81  301.16
  -6  -7   9 2014.37  612.81
  -6   7  -9 1804.00  627.30
  -6  -7  -9 3482.11  454.76
   6   7  -9 2688.94  339.17
   6  -7   9 2704.05  512.48
  -6   7   9 1803.15  428.90
  -6  -7  10 6326.41  865.59
  -6   7 -10 4186.41  809.70
  -6  -7 -10 3708.38  540.45
   6   7 -10 5297.40  465.76
   6  -7  10 5357.51  660.41
  -6   7  10 3226.17  540.08
  -6  -7  11 2729.34  633.59
  -6   7 -11  752.63  390.42
  -6  -7 -11 1090.66  367.26
   6   7 -11 2157.08  452.90
   6  -7  11 1846.22  455.58
  -6   7  11 2134.13  403.58
  -6  -7  12 5783.22  938.80
  -6   7 -12 6520.96  986.55
   6   7 -12 6222.19  696.64
  -6  -7 -12 4624.84  657.65
   6  -7  12 7739.98  754.15
  -6   7  12 6759.35  776.14
  -6  -7  13 6147.21  972.80
  -6   7 -13 5268.02  993.61
  -6  -7 -13 4943.43  892.83
   6   7 -13 6172.05  685.11
   6  -7  13 6902.90  754.25
  -6   7  13 6357.25  951.42
  -6  -7  1410342.49 1295.34
  -6   7 -1411989.60 1364.90
  -6  -7 -1410036.14 1223.73
   6  -7  1412311.51  994.21
  -6   7  1410904.12 1273.51
   6   7 -1411610.92  769.67
  -6  -7  15 5465.85  720.14
  -6   7 -15 4454.68  691.71
   6   7 -15 6021.02  648.50
  -6   7  15 4676.62  889.22
  -6  -7  16 6569.69  834.92
  -6   7 -16 6740.85 1170.12
  -6  -7 -16 8045.11 1173.02
   6   7 -16 9254.68  834.83
  -6   7  16 9131.98 1192.42
  -6  -7  17   87.13  510.98
  -6   7 -17  406.59  511.32
  -6  -7 -17  105.39  450.79
  -6   7  17  108.41  279.34
  -6  -7  18 1479.01  676.91
  -6   7 -18 1885.87  416.89
  -6  -7 -18 -792.76  396.98
  -6   7  18 1132.40  394.63
  -6  -7  19  622.19  397.68
  -6   7 -19  253.95  572.89
  -6  -7 -19 -152.85  360.96
  -6   7  19 1192.84  570.65
  -6  -7  20  504.95  666.36
  -6   7 -20  507.21  629.99
  -6  -7 -20  399.03  632.79
  -6   7  20  918.35  626.10
  -6  -7  21  799.76  474.56
  -6   7 -21 -369.40  271.59
  -6  -7 -21  -53.90  465.84
  -6   7  21  465.09  443.10
  -6  -7  22  708.96  426.68
  -6   7 -22  286.63  642.34
  -6  -7 -22 -333.67  675.31
  -6   7  22  476.59  399.80
  -6  -7  23  -72.41  611.42
  -6   7 -23   89.01  345.51
  -6  -7 -23    6.04  621.54
  -6   7  23  276.02  368.08
  -6   8   0 1569.35  364.91
   6  -8   0 1496.92  363.58
   6   8   0 1406.32  508.78
  -6  -8   1 5576.54  599.62
  -6   8  -1 6859.74  694.74
   6  -8  -1 6047.35  635.57
   6   8  -1 5303.01  759.77
   6  -8   1 5424.09  562.49
  -6   8   1 4726.06  550.26
  -6  -8   2  517.38  293.21
  -6   8  -2   38.98  314.02
   6   8  -2  619.22  421.34
  -6  -8  -2 1476.71  455.12
   6  -8   2  232.04  253.86
  -6   8   2  480.56  272.28
  -6  -8   3 8149.30  819.85
  -6   8  -3 7450.13  662.53
  -6  -8  -3 8251.45  988.53
   6   8  -3 7958.31  852.26
   6  -8   3 9359.69  917.86
  -6   8   3 9522.01  772.52
  -6  -8   4  217.35  305.91
  -6   8  -4  269.57  324.07
  -6  -8  -4 -154.99  394.76
   6  -8   4  563.89  373.37
  -6   8   4   18.77  229.71
   6   8  -4  635.48  355.77
  -6  -8   5 8026.28  707.12
  -6   8  -5 6666.64  860.29
  -6  -8  -5 6388.98  916.59
   6   8  -5 7803.84  819.56
   6  -8   5 8236.29  828.34
  -6   8   5 7835.11  707.91
  -6  -8   6 3741.84  652.19
  -6   8  -6 3696.33  695.54
  -6  -8  -6 4375.43  753.95
   6  -8   6 4591.80  654.97
  -6   8   6 4491.03  540.59
   6   8  -6 3885.42  616.69
  -6  -8   713121.57 1249.87
  -6   8  -714815.63 1353.13
  -6  -8  -713818.33 1074.84
   6   8  -713263.31 1090.71
   6  -8   714249.66 1198.78
  -6   8   714814.69 1131.40
  -6  -8   8 1409.92  555.05
  -6   8  -8 2279.06  590.44
   6   8  -8 1733.75  310.23
  -6  -8  -8 1543.53  374.99
   6  -8   8 2338.85  508.25
  -6   8   8  980.97  377.38
  -6  -8   9 5952.77  905.78
  -6   8  -9 4984.51  893.57
   6   8  -9 6796.62  556.29
   6  -8   9 7059.36  764.85
  -6   8   9 5146.42  628.67
  -6  -8  -9 5677.85  647.21
  -6  -8  10 1198.30  332.07
  -6   8 -10  469.41  483.95
  -6  -8 -10  187.72  300.27
   6   8 -10  724.11  391.07
   6  -8  10 1300.35  415.52
  -6   8  10  604.24  323.53
  -6  -8  11 5964.74  724.15
  -6   8 -11 7257.95 1020.32
  -6  -8 -11 5210.04  663.58
   6   8 -11 7382.33  760.72
   6  -8  11 6761.40  756.40
  -6   8  11 6530.99  713.89
  -6  -8  12  662.57  373.61
  -6   8 -12 1812.37  420.62
  -6  -8 -12 1842.79  410.93
   6  -8  12 2199.32  346.79
  -6   8  12 1657.18  410.59
   6   8 -12 1659.91  477.07
  -6  -8  13  254.84  529.89
  -6   8 -13  387.15  338.47
  -6  -8 -13  342.08  325.50
   6   8 -13  844.53  240.28
   6  -8  13 1026.55  426.25
  -6   8  13  920.76  530.00
  -6  -8  14  380.59  561.54
  -6   8 -14  477.66  568.86
  -6  -8 -14  987.79  526.45
   6  -8  14  835.60  406.90
  -6   8  14  575.66  537.40
   6   8 -14  499.09  391.32
  -6  -8  15  644.88  607.24
  -6   8 -15  386.27  574.21
  -6  -8 -15  873.29  548.73
   6   8 -15  808.61  390.00
   6  -8  15  504.20  398.93
  -6   8  15  125.32  539.84
  -6  -8  16 1198.86  606.41
  -6   8 -16  841.31  602.69
   6   8 -16  559.43  401.85
  -6  -8 -16   32.45  539.30
  -6   8  16  205.22  551.45
  -6  -8  17 2539.15  525.19
  -6   8 -17 1817.95  468.81
  -6   8  17  713.39  683.46
  -6  -8 -17  225.57  687.21
  -6  -8  18 -152.01  335.40
  -6   8 -18  712.22  551.88
  -6  -8 -18   72.22  512.96
  -6   8  18  649.09  315.44
  -6  -8  19 1695.76  777.79
  -6   8 -19 2923.63  775.33
  -6  -8 -19 -288.56  490.28
  -6   8  19 1957.94  462.25
  -6  -8  20  587.62  581.43
  -6   8 -20 -665.31  326.28
  -6  -8 -20 -301.44  337.51
  -6   8  20  541.50  531.86
  -6  -8  21 1205.31  478.85
  -6   8 -21  942.65  702.52
  -6  -8 -21  -60.38  470.71
  -6   8  21 1238.88  712.79
  -6  -8  22  -55.56  297.75
  -6   8 -22   30.43  474.58
  -6  -8 -22  -74.37  489.50
  -6   8  22   28.01  482.74
  -6  -8  23  840.86  744.83
  -6   8 -23  555.82  434.07
  -6   8  23  251.41  471.58
  -6   9   0  407.83  282.36
   6  -9   0  606.33  308.67
   6   9   0  975.28  444.14
   6   9   116599.08 1432.63
  -6  -9   117089.71 1196.15
  -6   9  -118180.17 1298.60
   6  -9  -115428.85 1160.67
   6   9  -115528.86 1313.84
   6  -9   116479.91 1156.09
  -6   9  -2 2778.32  385.67
   6  -9  -2 2650.31  456.04
  -6  -9   2 2438.70  452.82
   6   9  -2 4050.46  602.10
   6  -9   2 3467.76  471.27
  -6  -9  -2 1799.19  406.74
  -6  -9   313046.48 1051.94
  -6   9  -312300.70 1097.63
  -6  -9  -312713.22 1271.07
   6   9  -310870.46 1091.11
   6  -9   313525.72 1001.55
  -6   9   315913.81 1095.16
  -6  -9   4 1182.35  283.44
  -6   9  -4 1511.11  334.67
  -6  -9  -4 1742.85  610.40
   6   9  -4 2311.76  525.75
   6  -9   4 1594.78  350.49
  -6   9   4 1765.04  365.65
  -6  -9   5 7797.06  901.57
  -6   9  -5 6690.05  876.65
  -6  -9  -5 7173.19  946.53
   6   9  -5 6865.74  607.06
   6  -9   5 7712.16  652.01
  -6   9   5 7710.90  748.29
  -6   9  -6 1035.35  537.44
  -6  -9   6 2196.51  378.95
  -6  -9  -6 2102.38  604.41
   6   9  -6 2244.61  369.78
   6  -9   6 2047.11  392.55
  -6   9   6 2907.71  455.59
  -6  -9   7 2288.14  600.84
  -6   9  -7 2254.92  616.72
  -6  -9  -7 2466.32  628.51
   6   9  -7 2752.56  383.30
   6  -9   7 2445.81  400.07
  -6   9   7 2451.90  451.02
  -6   9  -8 1102.74  529.47
  -6  -9   8 1151.53  530.39
  -6  -9  -8 1281.86  564.99
   6   9  -8 1624.94  511.17
   6  -9   8 1112.58  308.87
  -6   9   8 1342.63  383.69
  -6  -9   9  765.62  324.77
  -6   9  -9  551.56  535.83
  -6  -9  -9 1084.04  353.94
   6   9  -9 1022.96  431.30
   6  -9   9 1155.21  326.43
  -6   9   9  609.84  332.76
  -6  -9  10 1464.69  394.48
  -6   9 -10 2215.72  666.21
   6   9 -10 2527.71  511.49
   6  -9  10 2396.89  567.56
  -6   9  10 2431.18  464.94
  -6  -9 -10 1675.08  393.91
  -6  -9  11 2954.87  502.07
  -6   9 -11 1844.17  711.51
  -6  -9 -11 1801.28  420.81
   6   9 -11 2313.33  367.56
   6  -9  11 3407.63  603.17
  -6   9  11 2915.18  500.57
  -6   9 -12 2364.27  690.20
  -6  -9  12 1609.94  454.32
  -6  -9 -12 1295.47  403.13
   6   9 -12 2258.06  508.87
   6  -9  12 2039.69  536.25
  -6   9  12 1970.15  430.95
  -6  -9  13 7797.51  900.09
  -6   9 -13 7310.81 1124.95
  -6  -9 -13 9326.89  897.45
   6   9 -1311570.90 1003.59
   6  -9  1311244.98  993.07
  -6   9  13 8705.58  941.98
  -6   9 -14 2993.16  833.42
  -6  -9  14 3907.39  666.80
  -6  -9 -14 2823.19  523.00
   6   9 -14 4234.72  440.11
   6  -9  14 3816.23  450.92
  -6   9  14 3641.04  856.66
  -6  -9  15 8507.19 1010.24
  -6   9 -15 8627.71  960.02
  -6  -9 -1510227.48 1261.23
   6   9 -15 9887.31  932.75
   6  -9  1510321.88  999.37
  -6   9  15 8990.10 1209.47
  -6  -9  16 1687.19  465.22
  -6   9 -16 1120.07  435.60
  -6  -9 -16    6.61  593.72
   6   9 -16 1077.52  466.39
   6  -9  16  954.26  482.07
  -6   9  16  305.98  607.58
  -6  -9  17 3520.88  914.01
  -6   9 -17 3056.73  836.82
  -6  -9 -17  -43.63  801.34
   6   9 -17 4613.55  625.78
  -6   9  17 1158.09  789.94
  -6  -9  18  105.49  586.76
  -6   9 -18  864.84  563.07
  -6  -9 -18  259.16  520.05
  -6   9  18  -79.28  510.22
  -6  -9  19 1819.69  814.85
  -6   9 -19 2193.97  509.84
  -6  -9 -19  -96.92  726.70
  -6   9  19 1724.32  465.72
  -6  -9  20   41.71  282.42
  -6   9 -20   47.86  278.02
  -6  -9 -20 -319.60  442.46
  -6   9  20  -38.68  260.18
  -6  -9  21   20.86  395.12
  -6   9 -21 1125.68  650.91
  -6  -9 -21  410.71  366.07
  -6   9  21   54.03  623.28
  -6  -9  22  322.95  684.21
  -6   9 -22  445.73  400.97
  -6  -9 -22  288.35  396.97
  -6   9  22   29.65  668.55
  -6  -9  23  -96.54  596.30
   6  10   0 4931.06  776.95
   6 -10   0 5904.45  829.82
   6  10   1 4072.55  717.12
  -6  10  -1 3151.23  532.28
   6 -10  -1 3514.22  728.01
   6 -10   1 2809.09  685.07
   6  10  -1 4269.76  509.43
   6  10   2 5334.49  866.16
  -6 -10   2 6643.82  725.65
  -6  10  -2 7062.38  778.06
   6 -10  -2 6131.95  915.00
   6  10  -2 7287.10  655.64
   6 -10   2 7864.82  920.55
  -6 -10   3  302.98  320.22
  -6  10  -3    7.41  340.96
  -6 -10  -3  324.05  287.83
   6 -10   3  304.11  433.26
  -6  10   3  294.26  280.92
   6  10  -3  630.15  263.40
  -6 -10   4 9659.33  998.45
  -6  10  -410073.97 1032.91
   6  10  -4 9205.92  758.35
   6 -10   4 9760.76 1038.85
  -6  10   411546.80 1153.68
  -6 -10  -410650.26 1187.30
  -6 -10   5 2445.11  543.66
  -6  10  -5 1866.20  377.34
   6  10  -5 2226.86  591.23
  -6 -10  -5 2684.41  642.72
   6 -10   5 2815.72  614.36
  -6  10   5 2713.11  660.63
  -6 -10   6 4468.57  756.70
  -6  10  -6 5324.45  812.25
  -6 -10  -6 5233.27  873.70
   6  10  -6 5777.67  754.39
   6 -10   6 5408.63  787.01
  -6  10   6 5629.64  898.16
  -6 -10   7 2506.49  648.03
  -6  10  -7 2471.37  695.95
  -6 -10  -7 3304.90  731.79
   6 -10   7 3492.46  658.44
  -6  10   7 3724.05  743.31
   6  10  -7 3365.30  631.87
  -6 -10   813502.53 1330.60
  -6  10  -813634.14 1371.34
   6  10  -812166.77 1107.67
   6 -10   815036.39 1274.48
  -6  10   813991.97 1423.90
  -6 -10   9  305.26  270.45
  -6  10  -9  313.97  288.38
  -6 -10  -9  330.05  440.36
   6  10  -9  130.22  230.78
   6 -10   9  441.17  427.48
  -6  10   9  372.65  462.93
  -6 -10  10 5799.97  953.50
  -6  10 -10 7697.26  820.99
  -6 -10 -10 4873.41  874.75
   6  10 -10 6832.50  811.12
   6 -10  10 8050.46  880.79
  -6  10  10 5863.87  725.09
  -6 -10  11  368.80  536.03
  -6  10 -11  402.14  347.87
   6  10 -11  947.18  440.76
  -6 -10 -11  613.38  508.17
   6 -10  11 1150.16  304.27
  -6  10  11  640.23  356.60
  -6 -10  12 1558.84  714.88
  -6  10 -12 2340.49  518.55
  -6 -10 -12 1528.26  647.77
   6  10 -12 3181.82  577.35
   6 -10  12 3517.05  623.65
  -6  10  12 2306.92  490.22
  -6 -10  13 1348.36  725.26
  -6  10 -13 1507.95  474.36
  -6 -10 -13 3628.41  521.29
  -6  10  13 1395.28  466.06
   6  10 -13 2553.17  556.45
  -6 -10  14 -142.36  514.45
  -6  10 -14  411.58  534.95
  -6 -10 -14  318.49  283.82
   6  10 -14   16.84  377.57
   6 -10  14  464.98  415.02
  -6  10  14  373.18  305.79
  -6 -10  15 2112.93  719.74
  -6  10 -15 1266.02  704.42
  -6 -10 -15 -349.60  398.09
   6 -10  15 2464.32  547.61
  -6  10  15  339.33  391.03
   6  10 -15 2333.59  345.39
  -6 -10  16 1232.13  698.53
  -6  10 -16 1120.68  691.75
  -6 -10 -16  -17.42  406.97
   6  10 -16 1686.80  499.75
   6 -10  16 1673.24  533.58
  -6  10  16  531.25  620.44
  -6 -10  17  732.71  569.49
  -6  10 -17  -99.00  553.57
   6  10 -17  511.40  242.99
  -6  10  17   79.50  511.17
  -6 -10 -17  -98.42  312.61
  -6 -10  18 1536.19  726.20
  -6  10 -18  902.13  438.66
  -6 -10 -18  116.83  663.56
   6  10 -18 1124.82  505.03
  -6  10  18  599.44  646.79
  -6 -10  19  253.78  383.49
  -6  10 -19  606.84  384.10
  -6 -10 -19  -71.70  579.15
  -6  10  19  346.55  563.99
  -6 -10  20 1229.22  480.07
  -6  10 -20 1827.71  749.16
  -6 -10 -20 -335.50  710.41
  -6  10  20 -171.98  717.37
  -6 -10  21 -621.78  553.46
  -6  10 -21  303.85  539.25
  -6 -10 -21  124.24  517.31
  -6  10  21  219.30  320.02
  -6 -10  22 2760.05  910.65
  -6  10 -22 1368.28  559.55
  -6 -10 -22  313.81  849.52
   6  11   016768.99 1185.25
   6 -11   018022.31 1581.29
   6 -11  -1 4290.83  806.04
   6  11   1 3583.93  512.95
   6  11  -1 3398.42  689.48
   6 -11   1 3499.93  758.71
   6  11   212524.58  978.57
  -6  11  -210289.88  998.73
   6 -11  -211681.01 1242.24
   6  11  -211087.36 1108.37
   6 -11   210574.15 1142.09
   6  11   3  997.36  361.92
  -6 -11   3  915.89  373.18
  -6  11  -3  426.01  396.82
   6 -11  -3  998.13  577.17
   6 -11   3  912.21  528.25
   6  11  -3 1120.30  519.36
  -6 -11   4 3323.98  626.16
  -6  11  -4 3510.30  682.03
  -6 -11  -4 4140.67  576.44
   6  11  -4 4148.45  691.02
   6 -11   4 5113.39  766.28
  -6  11   4 3908.42  531.70
  -6 -11   5 1086.21  495.74
  -6  11  -5 1485.30  355.02
  -6 -11  -5 1131.13  367.17
   6 -11   5 1405.81  390.56
  -6  11   5 1116.26  615.46
   6  11  -5 3526.86  587.70
  -6 -11   6 4340.07  703.00
  -6  11  -6 3039.14  720.95
  -6 -11  -6 3341.89  544.97
   6  11  -6 4286.90  498.59
   6 -11   6 4641.22  549.06
  -6  11   6 3589.19  800.49
  -6 -11   7  913.69  461.08
  -6  11  -7  399.82  460.25
  -6 -11  -7  648.45  300.65
   6  11  -7  360.23  277.52
   6 -11   7  638.57  299.07
  -6  11   7  492.85  516.97
  -6 -11   8  822.94  549.74
  -6  11  -8 1578.17  386.51
  -6 -11  -8 1135.57  572.59
   6  11  -8 1766.55  533.35
   6 -11   8 1145.40  357.52
  -6  11   8 1099.77  596.47
  -6 -11   9  169.70  303.53
  -6  11  -9  476.42  325.53
  -6 -11  -9 1013.42  480.12
   6 -11   9  735.28  465.57
   6  11  -9  499.97  447.43
  -6 -11  10 3237.24  741.46
  -6  11 -10 2483.44  761.90
  -6 -11 -10 1966.04  680.88
   6  11 -10 3607.72  669.44
   6 -11  10 3575.99  675.11
  -6  11  10 3739.02  776.47
  -6 -11  11 1080.84  603.23
  -6  11 -11  978.26  610.83
   6  11 -11  972.66  333.45
  -6 -11 -11 1062.00  538.91
   6 -11  11  658.85  526.70
  -6  11  11 2105.26  620.26
  -6 -11  12 3803.65  907.68
  -6  11 -12 3786.13  905.05
  -6 -11 -12 1375.93  737.27
   6  11 -12 3902.23  680.92
   6 -11  12 4341.88  518.33
  -6  11  12 4514.82  862.09
  -6 -11  13 1354.81  402.28
  -6  11 -13  789.90  629.94
  -6 -11 -13  422.23  527.19
   6 -11  13  548.06  489.81
  -6  11  13  223.82  555.95
   6  11 -13  883.93  294.57
  -6 -11  14 3767.90  708.53
  -6  11 -14 4900.45  986.47
   6  11 -14 6268.41  804.93
   6 -11  14 5069.41  782.38
  -6  11  14 3503.45  571.43
  -6 -11  15  501.47  357.97
  -6  11 -15  122.85  370.63
  -6 -11 -15  105.69  509.36
   6  11 -15  747.65  430.87
   6 -11  15  490.82  288.13
  -6  11  15  248.97  320.71
  -6 -11  16 1106.18  423.00
  -6  11 -16 1070.89  408.21
  -6 -11 -16   45.44  402.15
   6  11 -16 1464.47  506.85
   6 -11  16  855.90  535.79
  -6  11  16  398.85  365.23
  -6 -11  17  536.57  385.56
  -6  11 -17  557.25  382.30
  -6 -11 -17   -4.73  353.66
   6  11 -17  757.01  284.88
   6 -11  17  277.06  295.88
  -6  11  17  267.84  325.90
  -6 -11  18 1522.57  472.06
  -6  11 -18 1279.50  741.26
  -6 -11 -18 -432.57  464.30
   6  11 -18 2059.34  567.62
  -6  11  18 1020.97  438.91
  -6 -11  19  681.18  587.02
  -6  11 -19   83.55  561.61
  -6 -11 -19  -11.77  321.12
  -6  11  19  121.17  519.51
  -6 -11  20 1431.36  668.54
  -6  11 -20  611.28  652.60
  -6 -11 -20  -36.38  376.63
  -6  11  20 -145.13  590.38
  -6 -11  21  257.16  582.11
  -6  11 -21 -129.45  345.30
  -6 -11 -21   -4.78  510.38
  -6  11  21 -317.72  523.14
   6  12   0  840.46  524.93
   6 -12   0  598.99  345.91
   6  12   1  473.98  467.91
   6 -12  -1   89.31  306.13
   6  12  -1  322.64  456.67
   6 -12   1  759.92  319.52
   6  12   2 1531.63  604.25
   6 -12  -2 1433.82  414.44
   6  12  -2 1487.51  368.51
   6 -12   2  987.17  637.54
   6  12   3 1518.09  626.59
  -6  12  -3 1844.79  505.63
   6 -12  -3 1729.20  440.07
   6  12  -3 1508.00  379.81
   6 -12   3 2262.34  656.88
  -6 -12   4  797.53  397.33
  -6  12  -4  820.35  423.42
   6 -12  -4  926.50  373.31
  -6 -12  -4   12.73  322.73
   6  12  -4 1008.24  318.68
   6 -12   4 1009.68  544.08
  -6 -12   5 7478.51  744.95
  -6  12  -5 7017.68  771.27
  -6 -12  -5 6874.85  997.74
   6  12  -5 8591.35  968.91
   6 -12   5 7526.34 1026.31
  -6  12   5 8854.81  840.62
  -6 -12   6 2734.91  646.63
  -6  12  -6 2801.29  669.02
  -6 -12  -6 2603.61  713.47
   6  12  -6 2956.50  675.38
   6 -12   6 2401.78  741.24
  -6  12   6 3631.27  540.10
  -6 -12   712032.64 1289.10
  -6  12  -710992.13 1271.04
  -6 -12  -712801.62 1094.05
   6 -12   713050.75 1291.79
  -6  12   712768.48 1098.04
   6  12  -713201.73 1215.75
  -6 -12   8 2804.05  524.47
  -6  12  -8 2907.41  762.33
  -6 -12  -8 3059.19  497.81
   6  12  -8 4627.43  515.40
   6 -12   8 4111.29  532.82
  -6  12   8 3521.98  573.77
  -6 -12   913344.59 1416.64
  -6  12  -914171.35 1455.04
   6  12  -914354.52 1250.37
  -6 -12  -910732.07 1030.50
   6 -12   915577.46 1091.32
  -6  12   914331.88 1202.22
  -6 -12  10 1063.86  596.56
  -6  12 -10 1296.48  636.50
   6  12 -10  669.12  517.65
   6 -12  10  785.75  560.46
  -6  12  10 1246.60  611.46
  -6 -12 -10 1294.79  380.13
  -6 -12  11 4434.53  672.17
  -6  12 -11 3634.49  950.37
  -6 -12 -11 3525.90  576.80
   6 -12  11 6571.59  864.80
  -6  12  11 4976.18  889.74
   6  12 -11 4715.19  535.98
  -6 -12  12  374.76  519.87
  -6  12 -12  194.89  529.94
  -6 -12 -12  503.67  296.81
   6  12 -12   93.51  425.02
   6 -12  12  -33.72  284.82
  -6  12  12  678.76  482.57
  -6 -12  13 1898.12  725.08
  -6  12 -13 1562.04  465.34
  -6 -12 -13 -268.50  608.70
   6  12 -13 2367.13  568.12
   6 -12  13 2469.35  600.58
  -6  12  13   38.73  630.61
  -6 -12  14 1119.51  633.94
  -6  12 -14  534.60  376.06
  -6 -12 -14 -173.49  525.59
   6  12 -14  803.47  473.21
   6 -12  14  863.20  507.17
  -6  12  14  -43.53  523.13
  -6 -12  15  140.39  498.55
  -6  12 -15  354.67  496.86
   6  12 -15  165.25  387.55
  -6 -12 -15  -70.07  439.16
   6 -12  15   95.21  231.04
  -6  12  15   -0.39  427.29
  -6 -12  16  719.83  642.69
  -6  12 -16  126.81  625.91
  -6 -12 -16  130.12  572.70
   6  12 -16  772.38  479.10
   6 -12  16  839.61  523.92
  -6  12  16  163.58  537.79
  -6 -12  17  678.24  691.12
  -6  12 -17  532.00  706.26
  -6 -12 -17 -116.49  628.83
   6 -12  17  732.38  345.76
  -6  12  17  498.57  622.81
   6  12 -17 1116.07  519.67
  -6 -12  18 -100.17  723.57
  -6  12 -18  885.88  690.73
  -6 -12 -18   -8.18  653.44
   6  12 -18 1855.59  525.09
   6 -12  18  771.37  562.89
  -6  12  18  -85.85  393.10
  -6 -12  19 -223.72  693.96
  -6  12 -19 1236.90  645.64
  -6 -12 -19 -105.00  611.89
  -6  12  19  158.14  426.83
  -6 -12  20 -123.39  521.73
  -6  12 -20  144.89  301.56
  -6 -12 -20    3.10  445.34
  -6  12  20  -37.23  277.34
  -6 -12  21 -133.72  483.21
  -6  12 -21  935.22  477.80
   6  13   0 4054.41  546.00
   6 -13   0 5247.38  892.09
   6  13   111970.29  997.88
   6 -13  -111336.33 1321.78
   6  13  -111521.71 1197.68
   6 -13   110462.63 1226.94
   6  13   2 1766.23  433.95
   6  13  -2 1448.99  589.56
   6 -13   2 1411.57  421.22
   6  13   3 7662.85  799.28
  -6  13  -3 5960.07  905.88
   6  13  -3 8028.00 1008.11
   6 -13   3 7895.78  761.85
   6  13   4 1392.71  631.40
  -6  13  -4 1267.16  498.78
   6 -13  -4  501.13  676.29
   6  13  -4 1460.40  567.95
   6 -13   4 1319.51  407.65
  -6 -13   5 2154.44  610.78
  -6  13  -5 2765.23  469.60
  -6 -13  -5 2835.31  478.24
   6  13  -5 3463.08  461.11
   6 -13   5 3678.22  505.31
  -6  13   5  791.58  442.02
  -6  13  -6  596.07  501.71
  -6 -13   6  974.37  487.03
  -6 -13  -6 1031.71  568.45
   6  13  -6 1094.28  340.84
   6 -13   6  984.09  592.46
  -6  13   6 1152.52  600.18
  -6 -13   7  620.32  460.30
  -6  13  -7  403.25  288.59
  -6 -13  -7  982.67  509.11
   6  13  -7  253.65  454.85
   6 -13   7  326.43  516.07
  -6  13   7  561.29  551.64
  -6  13  -8 1988.85  736.12
  -6 -13   8 2796.76  486.17
  -6 -13  -8 3046.26  719.05
   6  13  -8 3952.59  711.95
   6 -13   8 3138.76  750.01
  -6  13   8 2842.92  787.68
  -6 -13   9 1543.66  621.72
  -6  13  -9  886.84  603.72
  -6 -13  -9  571.94  552.20
   6  13  -9 1715.43  368.46
   6 -13   9  909.92  393.40
  -6  13   9 1480.11  642.91
  -6 -13  10  950.25  393.64
  -6  13 -10 1237.46  417.72
  -6 -13 -10 1327.89  579.93
   6  13 -10 1271.03  575.12
   6 -13  10 1159.90  409.00
  -6  13  10 1568.40  422.69
  -6 -13  11 6125.90 1106.18
  -6  13 -11 6611.93  862.27
  -6 -13 -11 6010.66  975.88
   6  13 -11 8328.33  980.21
   6 -13  11 9692.98 1026.75
  -6  13  11 6012.50  688.17
  -6  13 -12 1604.56  663.28
  -6 -13  12 1742.00  691.02
  -6 -13 -12  -59.48  558.88
   6  13 -12 1392.74  350.64
   6 -13  12 1334.01  579.10
  -6  13  12  -60.96  362.28
  -6 -13  13 1515.03  668.51
  -6  13 -13 1460.06  696.95
  -6 -13 -13 -153.19  360.99
   6  13 -13 2475.13  557.65
   6 -13  13 2186.73  585.72
  -6  13  13  -96.90  367.25
  -6  13 -14  260.91  547.67
  -6 -13  14  487.35  341.15
  -6 -13 -14  -98.43  281.97
   6  13 -14  391.42  263.03
   6 -13  14   79.31  445.36
  -6  13  14   -5.00  269.52
  -6 -13  15  -70.09  568.71
  -6  13 -15  -81.97  839.87
  -6 -13 -15  158.27  527.64
   6  13 -15 5863.74  773.22
   6 -13  15 4867.79  541.86
  -6  13  15 3093.70  517.68
  -6 -13  16 -115.28  371.80
  -6  13 -16  -78.69  574.84
  -6 -13 -16   24.93  328.63
   6  13 -16  471.35  281.32
   6 -13  16  508.46  489.41
  -6  13  16   52.89  480.20
  -6 -13  17 -110.60  446.46
  -6  13 -17 -104.64  674.96
  -6 -13 -17 -193.55  417.43
   6  13 -17 2367.68  530.25
  -6  13  17  -65.49  586.03
  -6 -13  18   28.71  364.18
  -6  13 -18   74.13  357.69
  -6 -13 -18  267.00  334.84
   6  13 -18   -1.58  439.46
   6 -13  18  242.68  478.96
  -6  13  18   77.02  525.64
  -6 -13  19  -89.42  337.00
  -6  13 -19   68.49  322.14
  -6 -13 -19  131.93  468.99
   6  13 -19 -118.02  239.13
  -6  13  19  -95.28  510.43
  -6 -13  20   36.24  352.56
  -6  13 -20 -172.12  336.72
  -6 -13 -20   64.37  464.50
   6 -14   0 1070.29  638.90
   6  14   0  993.91  563.75
   6  14   1  649.54  569.62
   6 -14  -1 1148.07  640.19
   6  14  -1  737.62  337.47
   6  14   2  562.16  613.99
   6 -14  -2 1015.02  412.45
   6  14  -2 1095.40  369.25
   6  14   3 2722.66  788.63
   6 -14  -3 3769.37  600.04
   6  14  -3 2824.80  767.64
   6 -14   3 2318.40  782.35
   6  14   4 2507.28  750.45
   6 -14  -4 2217.09  502.18
   6  14  -4 1331.26  671.87
   6 -14   4 2218.71  725.32
   6  14   5  820.83  414.35
  -6  14  -5  772.37  333.36
   6 -14  -5 1614.68  447.96
  -6 -14  -5   63.86  348.35
   6  14  -5 1460.29  568.08
   6 -14   5 1127.59  385.27
  -6 -14   612787.71 1325.83
  -6  14  -610443.31 1254.88
  -6 -14  -6 9967.55  982.70
   6  14  -612181.42  982.97
   6 -14   610868.36  989.44
  -6  14   610998.10  999.33
  -6 -14   7 3753.25  745.76
  -6  14  -7 3547.45  810.98
   6  14  -7 3208.81  510.15
  -6 -14  -7 2799.98  525.73
   6 -14   7 4155.05  816.59
  -6  14   7 3638.45  593.27
  -6 -14   8 7295.85 1095.18
  -6  14  -8 5654.67 1052.00
  -6 -14  -8 6782.35  770.22
   6  14  -8 7238.02  980.16
   6 -14   8 9074.04 1133.40
  -6  14   8 7433.00  790.07
  -6 -14   9 1307.80  663.41
  -6  14  -9 1295.79  477.72
  -6 -14  -9 2627.67  455.29
   6 -14   9 2568.01  712.58
  -6  14   9 1751.87  668.93
   6  14  -9 1532.13  408.01
  -6 -14  10 4361.73  954.05
  -6  14 -10 2842.30  920.54
  -6 -14 -10 4620.11  635.27
   6  14 -10 5097.04  803.37
   6 -14  10 6236.97  659.83
  -6  14  10 5467.06  936.02
  -6 -14  11  311.44  464.08
  -6  14 -11  199.41  458.34
  -6 -14 -11  -40.45  394.43
   6 -14  11   91.90  432.82
  -6  14  11  -59.32  410.14
   6  14 -11  106.39  399.65
  -6 -14  12 2271.16  539.90
  -6  14 -12 2297.65  873.67
  -6 -14 -12  -45.21  697.37
   6  14 -12 4568.27  526.71
   6 -14  12 3830.90  772.24
  -6  14  12 -241.26  718.85
  -6 -14  13  951.37  679.39
  -6  14 -13 1011.72  666.85
  -6 -14 -13 -190.28  558.23
   6  14 -13 1060.60  534.70
   6 -14  13  914.23  559.46
  -6  14  13    9.68  548.13
  -6 -14  14  786.91  650.65
  -6  14 -14 -134.51  387.84
  -6 -14 -14 -211.84  538.55
   6  14 -14  920.79  330.66
   6 -14  14  627.61  538.53
  -6  14  14    6.23  513.64
  -6 -14  15  -18.66  514.78
  -6  14 -15  151.53  314.08
   6 -14  15  140.28  263.81
  -6  14  15  -51.09  423.51
   6  14 -15    2.85  398.11
  -6 -14 -15  -26.91  479.35
  -6 -14  16  -58.17  518.87
  -6  14 -16 -142.77  305.98
  -6 -14 -16   40.36  527.72
   6  14 -16   -4.23  233.68
   6 -14  16  113.59  417.45
  -6  14  16 -101.26  252.50
  -6 -14  17  184.11  635.17
  -6  14 -17  -71.35  379.09
  -6 -14 -17 -127.42  669.97
   6  14 -17   21.15  476.49
   6 -14  17  645.81  325.59
  -6  14  17   80.93  330.33
  -6 -14  18  -64.45  743.64
  -6  14 -18   47.68  465.59
  -6 -14 -18   97.59  665.34
   6  14 -18  -99.42  576.10
   6 -14  18 2679.89  638.41
  -6  14  18 -131.81  457.06
  -6 -14  19 -346.85  617.36
  -6  14 -19   -2.96  599.19
  -6 -14 -19 -125.59  313.11
   6  14 -19    6.79  290.25
   6  15   011694.17 1307.77
   6 -15   012609.61 1135.79
   6  15   1 1924.02  700.12
   6 -15  -1 2362.30  499.35
   6  15  -1 1487.94  668.80
   6 -15   1 2035.32  495.28
   6 -15  -2 5215.72 1013.73
   6  15   2 5628.47  694.01
   6  15  -2 5144.15  621.03
   6 -15   2 5812.78  998.48
   6  15   3  986.69  415.17
   6 -15  -3 2018.28  772.03
   6  15  -3 1927.92  437.67
   6  15   410249.48  975.94
   6 -15  -4 7895.26 1269.39
   6  15  -4 9072.55 1090.12
   6  15   5  968.54  413.42
   6 -15  -5  482.37  770.15
   6  15  -5 1355.26  599.88
   6 -15   5 1547.29  679.49
  -6  15  -6 1025.80  371.42
  -6 -15  -6 1599.25  379.17
   6  15  -6 1051.75  582.63
   6 -15   6  914.09  395.70
  -6  15   6  358.98  388.26
  -6  15  -7  556.52  549.58
  -6 -15  -7 1161.24  566.19
   6  15  -7  585.10  355.66
   6 -15   7  829.34  612.20
  -6  15   7  697.34  589.89
  -6 -15   8  856.52  640.32
  -6  15  -8 1662.16  436.81
  -6 -15  -8 1840.44  622.75
   6  15  -8 1434.29  631.53
   6 -15   8  999.55  692.20
  -6  15   8 2150.26  686.81
  -6 -15   9 1382.27  460.51
  -6  15  -9 1368.58  720.83
   6  15  -9 2321.74  660.71
  -6 -15  -9 1035.25  621.30
   6 -15   9 1852.00  696.41
  -6  15   9 1852.62  655.65
  -6 -15  10 1397.44  717.45
  -6  15 -10  838.49  722.25
  -6 -15 -10 -182.52  613.12
   6  15 -10 2430.12  415.67
   6 -15  10 1649.65  457.22
  -6  15  10 2377.87  469.34
  -6 -15  11  906.26  402.45
  -6  15 -11  404.64  398.39
  -6 -15 -11   49.30  534.55
   6 -15  11  744.64  599.54
  -6  15  11  921.91  392.80
   6  15 -11  739.55  555.98
  -6 -15  12 5450.04 1129.81
  -6  15 -12 5069.83 1167.79
  -6 -15 -12 4198.21  885.10
   6  15 -12 5962.04  703.39
   6 -15  12 6644.23 1006.59
  -6  15  12 5662.65  660.97
  -6 -15  13  473.88  508.97
  -6  15 -13  308.33  523.04
  -6 -15 -13  -42.27  268.63
   6 -15  13  406.80  465.87
  -6  15  13  -32.41  273.77
   6  15 -13    4.15  420.24
  -6 -15  14 3483.12  659.41
  -6  15 -14 1951.51  991.53
  -6 -15 -14 3279.23  605.64
   6  15 -14 5080.66  600.92
   6 -15  14 6546.54  961.50
  -6  15  14 3280.99  562.89
  -6 -15  15  -29.53  328.55
  -6  15 -15  -11.83  552.58
  -6 -15 -15 -189.73  319.46
   6  15 -15   -2.86  411.45
   6 -15  15  239.74  451.60
  -6  15  15  611.68  439.25
  -6 -15  16 -118.74 1061.49
  -6  15 -16 -203.35 1080.71
  -6 -15 -16 5372.67  887.23
   6  15 -16 5276.92  622.66
   6 -15  16 5514.35  980.83
  -6  15  16 3935.59 1009.00
  -6 -15  17  -84.15  610.74
  -6  15 -17  215.99  626.02
  -6 -15 -17  -37.05  482.17
   6  15 -17  196.55  474.30
   6 -15  17  464.94  524.74
  -6  15  17   90.71  529.96
  -6 -15  18  -43.40  860.71
  -6  15 -18   -9.26  887.22
   6  15 -18 -113.17  647.56
   6 -15  18 2094.40  497.88
   6  16   0  370.34  344.48
   6 -16   0  686.64  635.82
   6  16   1 -150.37  322.22
   6 -16  -1  821.04  613.95
   6  16  -1  747.33  536.95
   6 -16   1  604.14  381.33
   6  16   2   83.99  349.65
   6  16  -2  915.14  575.02
   6 -16   2 1059.82  402.99
   6  16   3 -280.93  681.86
   6  16  -3 1925.31  441.73
   6 -16   3 2405.17  784.84
   6  16   4  -36.43  584.34
   6 -16  -4  445.38  659.63
   6  16  -4  752.26  342.04
   6 -16   4  530.25  631.66
   6  16   5  -74.04  807.47
   6 -16  -5 4677.49  691.65
   6  16  -5 2418.91  778.03
   6 -16   5 4244.35  893.66
   6 -16  -6  547.76  399.61
  -6 -16  -6   75.06  302.33
   6  16  -6   17.59  496.37
   6 -16   6  546.78  333.61
  -6  16  -7 4933.61  968.11
  -6 -16  -7 4837.18  877.36
   6 -16   7 4523.28  676.71
  -6  16   7 5084.25  668.31
   6  16  -7 4801.62  620.55
  -6  16  -8 1501.36  675.70
  -6 -16  -8  938.09  377.11
   6  16  -8 1238.77  598.61
   6 -16   8  705.05  686.84
  -6  16   8 1535.80  409.47
  -6 -16   9 2781.80  890.92
  -6  16  -9 3225.82  940.54
  -6 -16  -9 3935.54  551.75
   6  16  -9 3715.45  819.90
   6 -16   9 3286.01  884.87
  -6  16   9 4654.90  647.54
  -6 -16  10 1524.35  450.04
  -6  16 -10  822.53  434.87
   6  16 -10 1166.34  370.17
   6 -16  10 1331.87  416.13
  -6  16  10 1119.54  388.54
  -6 -16 -10 -299.31  377.76
  -6 -16  11 2749.92  974.67
  -6  16 -11 2835.68  980.48
  -6 -16 -11 3100.93  541.46
   6  16 -11 5497.56  866.63
   6 -16  11 4927.51  926.33
  -6  16  11 5527.98  909.54
  -6 -16  12  647.49  383.94
  -6  16 -12   67.31  597.14
  -6 -16 -12   42.17  309.54
   6  16 -12  221.01  301.12
   6 -16  12  564.72  346.58
  -6  16  12 -145.09  491.35
  -6 -16  13 1151.79  700.86
  -6  16 -13  439.61  432.89
  -6 -16 -13 -151.42  607.50
   6  16 -13 1523.60  604.57
   6 -16  13 1407.44  657.11
  -6  16  13  -58.67  568.17
  -6 -16  14  243.84  566.23
  -6  16 -14  -82.15  347.91
  -6 -16 -14  264.44  526.63
   6  16 -14   71.13  288.42
   6 -16  14  293.76  311.59
  -6  16  14  -96.94  457.10
  -6 -16  15 -222.70  565.22
  -6  16 -15  599.73  586.08
  -6 -16 -15 -227.47  597.42
   6  16 -15  -11.88  470.19
   6 -16  15  138.44  523.88
  -6  16  15  232.39  482.54
  -6 -16  16  844.10  498.49
  -6  16 -16  808.13  802.65
  -6 -16 -16  132.22 1066.46
   6  16 -16   46.27  622.68
   6 -16  16  935.22  414.80
  -6  16  16  364.57  630.91
  -6 -16  17  645.77  418.64
  -6  16 -17 -199.16  671.87
   6  16 -17 -101.22  326.90
   6 -16  17  347.29  587.56
   6  17   0  -44.54  241.26
   6  17   1   23.07  346.85
   6 -17   1   45.31  630.85
   6  17  -1 1558.38  556.51
   6  17   2 -284.72  558.33
   6 -17  -2 1601.23  622.92
   6  17  -2  654.39  550.74
   6 -17   2   -9.47  398.51
   6  17   3  400.06  755.39
   6 -17  -3 2928.91  568.41
   6  17  -3 2808.19  742.32
   6 -17   3 1815.74  525.40
   6 -17  -4  675.49  412.11
   6  17   4  225.83  562.79
   6  17  -4  256.56  325.46
   6 -17   4  347.00  609.16
   6  17   5 3015.38  561.98
   6 -17  -5 3733.85  681.62
   6 -17   5 3423.08  907.66
   6  17  -5 2444.96  787.58
   6  17   6   78.72  380.42
   6 -17  -6  684.02  421.09
   6  17  -6  -48.73  548.45
   6 -17   6  874.33  381.70
  -6 -17  -7  215.11  295.27
   6  17  -7  152.06  304.55
   6 -17   7  562.79  343.37
  -6  17   7   61.82  318.72
  -6  17  -8  640.27  601.15
  -6 -17  -8   44.47  329.09
   6  17  -8  965.35  556.55
   6 -17   8  479.71  639.08
  -6  17   8 1346.22  599.16
  -6  17  -9 1061.75  726.35
  -6 -17  -9  338.51  638.90
   6  17  -9 1545.61  686.56
   6 -17   9 1988.43  485.24
  -6  17   9  821.03  688.75
  -6 -17  10  -16.44  493.59
  -6  17 -10 -227.58  511.07
  -6 -17 -10   70.31  421.92
   6  17 -10  170.77  270.01
   6 -17  10   28.17  502.31
  -6  17  10  275.22  437.63
  -6 -17  11 1154.75  463.89
  -6  17 -11  508.04  453.95
   6  17 -11 1334.60  620.16
  -6 -17 -11   94.43  606.93
   6 -17  11 1196.66  719.96
  -6  17  11 1326.29  634.75
  -6 -17  12  220.73  524.58
  -6  17 -12  411.00  550.18
   6  17 -12  131.82  280.20
   6 -17  12  -77.39  302.11
  -6  17  12   49.70  460.63
  -6 -17  13 1926.84  837.77
  -6  17 -13 2545.22  868.15
  -6 -17 -13 -160.87  753.53
   6  17 -13 4413.82  768.04
  -6  17  13   24.11  457.78
  -6 -17  14  331.46  460.15
  -6  17 -14 -139.23  751.50
  -6 -17 -14  156.91  703.35
   6  17 -14 1051.88  393.87
   6 -17  14  848.78  421.54
  -6  17  14  649.87  388.52
  -6 -17  15 1547.31  947.88
  -6  17 -15 1690.28  596.22
  -6 -17 -15  203.60 1011.19
   6  17 -15 2839.93  797.67
   6 -17  15 1667.07  861.02
   6  18   0  145.05  294.64
   6  18   1  -49.18  599.51
   6 -18   1   14.58  677.03
   6  18  -1 1142.26  395.50
   6  18   2  114.61  580.89
   6 -18  -2 1054.68  431.03
   6  18  -2  385.11  541.76
   6 -18   2   98.35  395.33
   6  18   3   75.54  481.38
   6 -18  -3  127.58  324.93
   6  18  -3  -97.74  459.98
   6 -18   3  167.67  332.56
   6  18   4 3821.90  632.22
   6 -18  -4 5809.25  834.88
   6  18  -4 4146.60  649.28
   6 -18   4 5679.70 1083.82
   6  18   5  356.04  380.06
   6 -18  -5  541.71  686.70
   6 -18   5  822.17  682.01
   6  18  -5  390.15  586.48
   6  18   6 4880.48  709.04
   6 -18  -6 5165.41 1177.20
   6  18  -6 5064.86  971.11
   6 -18   6 4988.02  727.79
  -6 -18  -7  -34.95  427.40
   6  18  -7 3261.14  470.63
   6 -18   7 2246.97  827.60
  -6  18   7 1453.32  484.98
   6  18  -8 3294.29  892.69
   6 -18   8 6317.92 1030.72
  -6  18   8 4673.23  888.29
  -6 -18  -8 -270.85  844.50
  -6  18  -9  582.91  638.09
  -6 -18  -9  312.86  534.62
   6  18  -9  291.52  567.82
   6 -18   9  406.50  391.58
  -6  18   9  385.89  554.97
  -6  18 -10 2563.82  628.89
  -6 -18 -10 -734.34  819.70
   6  18 -10 5011.53  894.50
   6 -18  10 5546.22 1012.78
  -6  18  10 4389.38  651.85
  -6  18 -11  900.07  675.45
  -6 -18 -11  -25.07  556.31
   6  18 -11  911.39  584.84
   6 -18  11  363.68  648.51
  -6  18  11  306.35  347.50
  -6 -18  12  511.00  408.76
  -6  18 -12  593.61  426.83
  -6 -18 -12 -378.50  594.26
   6  18 -12  572.33  571.42
   6 -18  12  575.14  638.74
  -6  18  12  200.29  365.77
  -6 -18  13  980.59  745.93
  -6  18 -13  681.25  474.93
  -6 -18 -13 -102.52  409.80
   6  18 -13  836.17  638.28
   6 -18  13 1105.29  704.75
  -6  18  13  778.97  400.31
  -6 -18  14  320.30  540.53
  -6  18 -14 -100.34  566.16
   6  18 -14 -181.62  450.75
   6 -18  14  181.56  510.26
   6  19   0  196.29  324.85
   6  19   1 -149.43  570.47
   6 -19  -1  176.79  659.52
   6  19  -1  698.76  353.47
   6 -19  -2 3602.68  657.50
   6  19   2  -94.30  820.79
   6  19  -2 2684.46  839.92
   6 -19   2 3396.86  626.48
   6  19   3 -298.40  298.59
   6 -19  -3 -178.76  337.27
   6  19  -3  419.24  459.70
   6 -19   3   65.24  335.95
   6  19   4 3268.18  626.11
   6 -19  -4 3089.76 1020.32
   6  19  -4 2630.03  560.86
   6 -19   4 3652.97  998.45
   6  19   5  130.40  342.07
   6 -19  -5 -141.34  622.63
   6  19  -5  268.04  519.44
   6 -19   5  324.89  609.89
   6  19   6 1304.61  787.62
   6 -19  -6  911.25  847.33
   6  19  -6 1343.67  722.94
   6 -19   6 1340.96  501.54
  -6 -19  -7 -287.40  253.18
   6  19  -7  381.09  288.78
   6 -19   7  252.53  486.03
  -6  19   7   21.78  250.84
  -6 -19  -8 -158.61  330.52
   6  19  -8 -152.32  349.26
   6 -19   8  214.30  392.86
  -6  19   8   56.56  214.73
  -6 -19  -9 -114.09  529.02
   6  19  -9  210.16  349.93
   6 -19   9  702.94  385.23
  -6  19   9  -56.07  325.75
  -6 -19 -10  101.37  412.11
   6  19 -10 1520.21  686.23
   6 -19  10 1222.23  773.63
  -6  19  10 1476.71  420.64
  -6  19 -11  326.42  331.53
  -6 -19 -11 -380.05  273.12
   6  19 -11  197.58  278.16
   6 -19  11  170.06  321.92
  -6  19 -12 1537.18  937.92
   6  19 -12 2125.89  793.88
   6 -19  12 1497.49  879.01
   6  20   0 1235.48  468.16
   6  20   1  139.69  577.66
   6 -20  -1 -128.95  699.50
   6  20  -1  521.13  360.62
   6  20   2   84.79  509.89
   6 -20  -2  233.55  378.60
   6  20  -2  375.80  510.13
   6 -20   2 -100.89  371.50
   6  20   3 -123.07  396.91
   6 -20  -3  959.74  452.79
   6  20  -3 1212.49  608.20
   6 -20   3   14.79  453.85
   6  20   4 1095.15  510.99
   6 -20  -4 1136.73  873.90
   6  20  -4 1764.16  494.32
   6 -20   4   35.98  857.64
   6  20   5 2941.21 1001.72
   6 -20  -5 4020.27 1136.28
   6  20  -5 4118.54  972.24
   6 -20   5 3477.48 1091.17
   6  20   6 1738.00  953.83
   6 -20  -6 4386.49 1139.75
   6  20  -6 2578.54  916.02
   6 -20   6 4246.12  719.87
   6 -20  -7 4209.64  835.12
   6  20  -7 4070.55  671.97
   6 -20   7 3291.68 1113.99
  -6 -20  -8 -388.79  752.51
   6  20  -8 1620.31  810.32
   6 -20   8 1921.19  598.79
  -6  20   8 2246.92  503.94
   6  20  -9 2973.81  596.89
   6 -20   9 2207.41  993.17
   6  21   0  249.12  355.34
   6  21   1  210.15  784.40
   6 -21  -1    6.47  941.78
   6  21  -1 2217.54  522.50
   6  21   2   69.56  671.05
   6 -21  -2 1566.93  519.38
   6  21  -2  841.73  688.80
   6 -21   2   24.03  492.38
   6  21   3 5115.98  751.44
   6 -21  -3 4585.03 1188.79
   6  21  -3 3706.45  992.60
   6 -21   3   19.44 1139.07
   6  21  -4  991.89  444.64
   6 -21   4 -123.76  823.04
   6 -21   5 -215.74  445.02
   6 -21   6  494.76  775.41
  -7   0   0   73.01  278.98
  -7   0   0  248.35  244.25
  -7   0   1 2230.79  493.02
  -7   0  -1 2273.02  412.36
  -7   0  -1 2543.94  505.11
  -7   0   1 3031.66  479.15
  -7   0  -2 4654.15  525.73
  -7   0  -2 4788.06  524.70
  -7   0   2 5761.61  660.25
  -7   0   2 5285.18  636.31
  -7   0  -324552.72 1777.74
  -7   0   323419.73 1617.03
  -7   0   323646.61 1494.06
  -7   0   4 2207.20  487.63
  -7   0   4 2108.70  385.39
  -7   0  -4 1472.34  521.85
  -7   0  -5 1963.83  594.44
  -7   0   5 3091.99  565.95
  -7   0   5 2725.82  306.94
  -7   0  -6  427.20  435.21
  -7   0   6  952.40  403.94
  -7   0  -7   -3.59  171.29
  -7   0   7  -25.98  266.74
  -7   0  -811665.11 1167.57
  -7   0   813032.40 1243.49
  -7   0  -9  792.14  304.29
  -7   0   9  496.13  285.39
  -7   0 -10 9477.50 1129.40
  -7   0  10 8329.14 1029.80
  -7   0 -11 1463.28  617.83
  -7   0  11 1770.97  389.67
  -7   0 -12 1108.01  381.29
  -7   0  12 1124.23  540.95
  -7   0 -13  496.32  666.17
  -7   0  13 2719.45  455.05
  -7   0 -14   50.48  259.85
  -7   0  14  185.70  418.66
  -7   0 -15 1687.14  715.96
  -7   0  15 2558.75  772.23
  -7   0 -16  -78.89  459.12
  -7   0  16 -174.42  480.49
  -7   0 -17  809.06  427.96
  -7   0  17 1171.84  693.03
  -7   0 -18  150.71  571.61
  -7   0  18  411.93  349.35
  -7   0 -19  -59.77  263.73
  -7   0  19  245.85  434.62
  -7   0  20 1310.61  499.23
  -7   0 -20 1567.82  784.48
  -7   0 -21 1367.08  712.09
  -7   0  21 -234.02  747.87
  -7   0 -22  184.57  334.88
  -7   0  22  -72.88  362.96
  -7  -1   0 7686.89  824.19
  -7   1   010469.03  888.48
  -7  -1   010286.17  867.46
  -7   1   010371.97  770.19
  -7  -1   112096.49  840.64
  -7  -1   111252.75  952.98
  -7   1  -112718.42  964.93
  -7   1  -111412.56 1021.78
  -7  -1  -113333.48  963.17
  -7  -1  -112066.88 1076.65
  -7   1   110697.36  949.97
  -7   1   111176.18  941.71
  -7   1  -2 5413.34  602.98
  -7  -1   2 5984.19  658.18
  -7   1  -2 5769.15  559.99
  -7  -1   2 3714.77  575.67
  -7  -1  -2 5890.18  741.18
  -7   1   2 6214.44  549.53
  -7   1   2 5679.57  488.01
  -7  -1   3 2377.97  462.17
  -7  -1   3 2010.62  292.65
  -7   1  -3 2594.10  370.23
  -7   1  -3 1974.25  496.32
  -7  -1  -3 1908.76  501.96
  -7   1   3 2630.31  485.01
  -7   1   3 2157.43  386.04
  -7  -1   4 3862.21  621.57
  -7  -1   4 4179.76  540.93
  -7   1  -4 3989.64  481.60
  -7  -1  -4 3335.95  669.81
  -7   1   4 5320.61  666.32
  -7   1   4 4290.07  520.10
  -7   1  -5  400.01  430.67
  -7  -1   5  780.97  396.25
  -7  -1   5  939.04  311.62
  -7  -1  -5  913.82  295.08
  -7   1   5  813.55  259.82
  -7   1  -6 5127.35  591.37
  -7  -1   6 6990.91  632.84
  -7  -1  -6 5149.67  784.41
  -7   1   6 6355.40  789.97
  -7  -1   7 4299.43  665.31
  -7   1  -7 2463.48  622.98
  -7  -1  -7 1659.45  637.22
  -7   1   7 3752.35  487.04
  -7  -1   8  969.07  288.17
  -7   1  -8  382.54  296.72
  -7  -1  -8  890.22  313.34
  -7   1   8  511.44  447.83
  -7   1  -9 1474.28  582.55
  -7  -1   9 1711.46  567.97
  -7  -1  -9 1942.35  587.11
  -7   1   9 1639.28  545.70
  -7   1 -10 2694.38  464.91
  -7  -1  10 2499.11  443.92
  -7  -1 -10 2298.95  694.47
  -7   1  10 3270.23  460.26
  -7  -1  11 1011.29  716.58
  -7   1 -11 2693.56  697.52
  -7  -1 -11 2674.76  474.25
  -7   1  11 4965.98  785.87
  -7  -1  12 2376.31  454.49
  -7   1 -12 1556.11  647.13
  -7  -1 -12 1478.66  650.13
  -7   1  12 2459.91  425.44
  -7  -1  13  814.10  640.32
  -7   1 -13 1089.20  386.81
  -7  -1 -13 2203.52  639.21
  -7   1  13 1592.40  609.16
  -7  -1  14 1878.34  502.42
  -7   1 -14 2257.60  696.48
  -7  -1 -14 1668.77  458.15
  -7   1  14 1643.08  661.22
  -7  -1  15  123.13  721.38
  -7   1 -15 1863.59  468.94
  -7  -1 -15 1418.83  714.80
  -7   1  15 2215.67  471.26
  -7  -1  16 1770.51  454.75
  -7   1 -16  -18.57  687.91
  -7  -1 -16 1171.36  432.97
  -7   1  16 2501.67  698.22
  -7   1 -17 1982.79  487.63
  -7  -1  17 1971.27  751.83
  -7  -1 -17 2508.16  767.50
  -7   1  17 1410.19  479.82
  -7  -1  18 1727.75  479.99
  -7   1 -18 1501.89  752.08
  -7  -1 -18 1126.41  721.67
  -7   1  18 1578.89  773.82
  -7  -1  19 1149.28  661.41
  -7   1 -19  365.54  375.10
  -7  -1 -19  228.71  385.58
  -7   1  19  780.63  631.55
  -7  -1  20  780.33  424.63
  -7   1 -20  395.56  636.59
  -7  -1 -20  621.79  633.25
  -7   1  20  155.50  397.01
  -7  -1  21  691.48  682.69
  -7   1 -21  599.48  641.14
  -7  -1 -21  616.79  647.94
  -7   1  21  -61.62  667.78
  -7   1  21   15.79  659.01
  -7  -1  22  -30.13  345.54
  -7   1 -22  174.80  323.14
  -7  -1 -22  251.99  328.44
  -7   1  22 -168.19  341.76
  -7   2   0 8767.99  811.68
  -7   2   0 9619.89  864.83
  -7  -2   0 9316.50  755.37
  -7  -2   0 6738.32  704.44
  -7  -2   1 1401.93  347.21
  -7  -2   1 1636.68  438.74
  -7   2  -1 1401.57  415.37
  -7   2  -1 1418.31  255.51
  -7  -2  -1 1279.07  459.74
  -7   2   1 1917.19  419.34
  -7   2   1 1678.99  379.94
  -7   2  -2 5926.08  581.62
  -7  -2   2 6154.81  692.68
  -7   2  -2 4743.67  603.30
  -7  -2   2 6018.69  699.71
  -7  -2  -2 6724.96  795.99
  -7   2   2 7007.02  745.45
  -7   2   2 6626.21  655.29
  -7  -2   3 7348.43  626.74
  -7  -2   3 6514.62  569.41
  -7   2  -3 6013.79  807.39
  -7   2  -3 7129.67  688.31
  -7  -2  -3 8251.62  914.28
  -7   2   3 9304.27  750.27
  -7   2   3 7960.87  653.78
  -7  -2   4 2859.50  528.03
  -7  -2   4 3663.75  517.25
  -7   2  -4 3984.20  566.06
  -7   2  -4 3065.04  447.10
  -7  -2  -4 2247.13  396.02
  -7   2   4 2261.83  542.13
  -7  -2   5 6603.46  768.23
  -7  -2   5 6215.14  665.49
  -7   2  -5 6019.02  826.97
  -7  -2  -5 6053.31  800.46
  -7   2   5 6566.09  793.25
  -7  -2   6  812.71  291.69
  -7   2  -6 1328.44  484.97
  -7  -2   6 1440.72  337.79
  -7  -2  -6  302.37  477.47
  -7   2   6 1261.39  322.18
  -7   2  -7 5864.18  818.94
  -7  -2   7 4462.92  705.52
  -7  -2  -7 4835.50  561.26
  -7   2   7 5663.01  796.67
  -7  -2   8  524.67  434.52
  -7   2  -8  727.13  444.78
  -7   2   8  701.71  427.99
  -7  -2  -8  376.52  456.31
  -7  -2   9 2729.59  658.97
  -7   2  -9 1930.94  449.34
  -7  -2  -9 2659.53  666.22
  -7   2   9 2762.80  432.97
  -7   2 -10 2760.24  666.67
  -7  -2  10 2733.05  681.02
  -7  -2 -10 2150.13  476.05
  -7   2  10 3462.69  676.22
  -7   2 -11 3286.51  507.28
  -7  -2  11 2720.29  493.42
  -7  -2 -11 2708.40  702.97
  -7   2  11 3326.00  720.91
  -7  -2  12  328.82  596.39
  -7   2 -12 1297.77  614.85
  -7   2  12 1705.78  390.41
  -7  -2 -12 1562.93  629.94
  -7  -2  13 1115.36  382.84
  -7   2 -13 2016.41  419.38
  -7  -2 -13 1166.48  390.96
  -7   2  13 1595.32  595.78
  -7   2 -14  513.81  549.64
  -7  -2  14  729.63  550.22
  -7  -2 -14   92.14  558.71
  -7   2  14  706.41  321.01
  -7  -2  15  914.72  359.95
  -7   2 -15  301.77  371.26
  -7  -2 -15  913.89  569.48
  -7   2  15  590.89  561.28
  -7  -2  16 1495.22  647.92
  -7   2 -16  241.09  626.16
  -7  -2 -16  551.94  389.14
  -7   2  16  850.80  589.62
  -7  -2  17 1396.28  414.72
  -7   2 -17 -247.87  418.88
  -7  -2 -17 1060.33  643.70
  -7   2  17  868.64  392.10
  -7  -2  18  508.19  690.93
  -7   2 -18  650.54  647.64
  -7  -2 -18 1414.00  667.12
  -7   2  18  425.53  659.11
  -7  -2  19 1968.55  802.71
  -7   2 -19 1839.13  758.31
  -7  -2 -19 1371.44  476.59
  -7   2  19  -70.68  799.00
  -7  -2  20  -28.27  549.86
  -7   2 -20  318.14  512.29
  -7  -2 -20  366.87  510.81
  -7   2  20  -90.67  325.00
  -7  -2  21 2295.25  902.21
  -7   2 -21 1257.07  817.54
  -7  -2 -21 1493.17  805.60
  -7  -2  22 -457.00  554.18
  -7   2 -22  307.08  325.19
  -7   2  22  -34.02  348.87
  -7   3   0 1125.37  387.12
  -7   3   0 1038.57  362.06
  -7  -3   0 1561.56  483.30
  -7  -3   112956.48 1003.59
  -7  -3   113607.35 1163.32
  -7   3  -112735.94 1045.36
  -7   3  -112487.02  866.07
  -7  -3  -113860.36 1223.06
  -7   3   114595.10 1075.54
  -7   3   113137.19 1069.93
  -7  -3   2 6538.05  719.56
  -7   3  -2 6579.06  771.59
  -7   3  -2 6297.02  692.17
  -7  -3   2 6454.34  605.86
  -7  -3  -2 6009.21  616.32
  -7   3   2 7194.14  677.45
  -7   3   2 6812.21  775.97
  -7   3  -3 3423.02  614.66
  -7  -3   3 3342.44  568.07
  -7  -3   3 4684.72  614.27
  -7   3  -3 4151.05  541.06
  -7  -3  -3 4029.14  698.70
  -7   3   3 3640.11  593.78
  -7  -3   4 4629.63  675.36
  -7   3  -4 3672.03  682.40
  -7   3  -4 4352.97  553.40
  -7  -3   4 5427.43  609.08
  -7  -3  -4 4628.50  716.47
  -7   3   4 4786.17  500.59
  -7  -3   5 1005.52  366.95
  -7  -3   5  248.96  294.70
  -7   3  -5  633.53  408.06
  -7   3  -5  665.41  273.30
  -7  -3  -5  295.57  262.86
  -7   3   5  346.95  384.48
  -7  -3   6  370.82  167.73
  -7  -3   6  392.59  224.20
  -7   3  -6 -139.15  357.35
  -7  -3  -6  -64.08  229.52
  -7   3   6  364.83  363.71
  -7  -3   7  753.22  323.77
  -7  -3   7  999.75  462.71
  -7   3  -7  832.79  301.45
  -7  -3  -7 1193.09  499.01
  -7   3   7 1108.27  328.03
  -7  -3   8  545.19  429.33
  -7   3  -8  352.27  451.01
  -7  -3  -8  494.71  462.15
  -7   3   8  803.43  448.39
  -7  -3   9 1877.77  411.76
  -7   3  -9 2661.03  719.53
  -7  -3  -9 4269.83  517.22
  -7   3   9 5184.78  754.39
  -7  -3  10 3330.12  724.63
  -7   3 -10 3085.92  695.34
  -7  -3 -10 3125.62  709.69
  -7   3  10 3057.64  683.24
  -7  -3  11 2760.59  611.46
  -7   3 -11 1126.33  604.13
  -7  -3 -11   88.79  603.87
  -7   3  11 1930.77  408.86
  -7  -3  12  170.20  277.17
  -7   3 -12  494.69  288.96
  -7  -3 -12  -86.62  453.23
  -7   3  12  169.89  436.30
  -7  -3  13 1300.66  606.57
  -7  -3 -13 1561.34  409.33
  -7   3  13 2109.34  651.61
  -7  -3  14 2951.75  552.00
  -7   3 -14 3098.50  544.15
  -7  -3 -14 3585.15  844.16
  -7   3  14 3025.18  530.30
  -7  -3  15 3522.82  829.43
  -7   3 -15 1360.47  765.84
  -7  -3 -15 1794.46  743.20
  -7   3  15 2890.42  783.28
  -7  -3  16 3617.35  884.99
  -7   3 -16 3673.33  581.68
  -7  -3 -16 2992.54  567.27
  -7   3  16 3559.08  820.16
  -7  -3  17 1874.74  508.65
  -7   3 -17  -78.12  760.81
  -7  -3 -17 2393.42  759.00
  -7   3  17 1896.52  489.62
  -7  -3  18  603.23  560.44
  -7   3 -18 -567.89  331.48
  -7  -3 -18  -36.66  541.63
  -7   3  18   47.14  528.64
  -7  -3  19 1283.35  486.21
  -7   3 -19 1808.50  741.49
  -7  -3 -19 1243.94  480.69
  -7   3  19  -18.00  742.50
  -7  -3  20  543.80  672.30
  -7   3 -20  665.39  411.98
  -7  -3 -20  490.62  637.52
  -7   3  20  209.25  405.63
  -7  -3  21  622.18  432.72
  -7   3 -21  -43.75  653.59
  -7  -3 -21  483.63  651.80
  -7  -3  22   37.52  543.53
  -7  -4   0 2003.30  333.79
  -7   4   0 1195.28  280.58
  -7   4   0 1693.23  396.09
  -7  -4   1  897.28  256.89
  -7  -4   1  633.19  207.03
  -7   4  -1  860.82  367.84
  -7   4  -1  988.77  359.19
  -7  -4  -1  576.28  448.65
  -7   4   1  403.19  188.17
  -7   4   1 1075.32  252.75
  -7  -4   2  323.76  318.90
  -7  -4   2  266.04  279.00
  -7   4  -2  180.29  310.81
  -7   4  -2  240.77  293.57
  -7  -4  -2  264.14  377.50
  -7   4   2  289.09  320.60
  -7  -4   3 4004.53  590.64
  -7   4  -3 4934.51  646.98
  -7   4  -3 4647.66  590.67
  -7  -4   3 4134.66  614.41
  -7  -4  -3 3826.47  694.00
  -7   4   3 4779.15  681.57
  -7   4  -4 3931.65  530.07
  -7  -4   4 3919.70  578.63
  -7  -4   4 4035.53  454.99
  -7   4  -4 3656.34  634.08
  -7   4   4 3720.86  651.87
  -7  -4  -4 3493.33  492.72
  -7  -4   5 1133.47  267.64
  -7   4  -5 1094.64  273.27
  -7   4  -5 1091.17  341.05
  -7  -4   5  578.43  231.21
  -7  -4  -5  654.05  469.42
  -7   4   5 1033.92  445.02
  -7  -4   6 5671.95  640.30
  -7  -4   6 5342.65  754.83
  -7   4  -6 3879.72  729.32
  -7   4  -6 5085.53  432.05
  -7  -4  -6 4655.76  770.23
  -7   4   6 5638.68  585.87
  -7  -4   7  566.01  413.91
  -7   4  -7  625.14  445.30
  -7  -4   7  591.98  335.15
  -7  -4  -7  510.28  436.99
  -7   4   7  429.66  422.47
  -7  -4   8 4989.36  454.26
  -7  -4   8 4794.29  802.82
  -7   4  -8 5987.33  664.97
  -7  -4  -8 5454.13  610.84
  -7   4   8 6501.48  863.10
  -7  -4   9  -62.20  386.50
  -7   4  -9  332.75  390.83
  -7  -4  -9  102.34  245.14
  -7   4   9  390.52  391.57
  -7   4 -10 1244.63  562.64
  -7  -4  10 1148.60  389.50
  -7  -4 -10 1598.11  582.05
   7   4 -10 1512.36  412.62
  -7   4  10 1320.56  359.21
  -7  -4  11 1339.28  608.50
  -7   4 -11 1297.25  380.64
  -7  -4 -11 1391.49  612.96
  -7   4  11 1573.60  583.57
  -7  -4  12 1253.59  584.43
  -7   4 -12 -150.91  579.71
  -7  -4 -12 1091.66  350.82
  -7   4  12 1169.57  541.59
  -7  -4  13  607.90  339.49
  -7   4 -13  275.79  325.91
  -7  -4 -13  605.79  344.04
  -7   4  13  505.41  312.07
  -7  -4  14 2181.89  784.41
  -7   4 -14 1538.52  691.53
  -7  -4 -14 2286.22  742.13
  -7   4  14 2918.06  761.11
  -7  -4  15 1174.19  683.91
  -7   4 -15 2065.67  695.71
  -7  -4 -15 1285.44  654.86
  -7   4  15  988.63  635.20
  -7  -4  16  164.50  282.89
  -7   4 -16 -390.12  269.18
  -7   4  16  506.59  260.79
  -7  -4 -16  -64.10  258.67
  -7  -4  17 1891.93  687.93
  -7   4 -17 -203.29  656.93
  -7  -4 -17 1096.06  659.32
  -7   4  17  976.86  402.88
  -7  -4  18 2427.84  731.85
  -7   4 -18 -116.72  463.57
  -7  -4 -18 2510.24  707.81
  -7   4  18  239.94  688.07
  -7  -4  19  880.06  392.29
  -7   4 -19 -354.93  607.08
  -7  -4 -19  228.95  359.98
  -7   4  19  -71.20  608.89
  -7  -4  20 1681.44  751.27
  -7   4 -20 1323.67  492.38
  -7  -4 -20 1286.49  475.98
  -7   4  20  -35.15  487.75
  -7  -4  21  503.03  425.61
  -7  -4 -21  374.49  636.40
  -7   4  21  -14.48  682.78
  -7  -4  22 1222.24  866.43
  -7  -5   010590.47 1046.91
  -7   5   0 9337.09  912.04
  -7   5   0 8351.18  810.82
  -7  -5   1 3907.34  641.24
  -7   5  -1 2862.77  535.71
  -7   5  -1 4272.48  600.27
  -7   5   1 4198.24  617.60
  -7  -5  -1 2846.96  669.76
  -7  -5   2 1828.67  510.67
  -7  -5   2 3785.47  463.38
  -7   5  -2 3295.51  404.86
  -7   5  -2 3140.91  573.76
  -7  -5  -2 4932.92  545.40
  -7   5   2 4437.99  661.64
  -7  -5   3 1257.20  416.23
  -7  -5   3 1583.38  468.71
  -7   5  -3 1177.33  463.27
  -7   5  -3 1011.42  257.64
  -7   5   3 1176.65  315.75
  -7  -5  -3 1978.61  360.77
  -7  -5   4 1521.57  473.06
  -7  -5   4  932.64  502.78
  -7   5  -4 1903.68  334.38
  -7   5  -4 1823.60  419.41
  -7  -5  -4 2714.66  562.97
  -7   5   4 1921.98  395.96
  -7  -5   5 1564.84  509.51
  -7  -5   5 1447.67  477.77
  -7   5  -5 1757.64  359.94
  -7   5  -5 2108.50  427.76
  -7  -5  -5 2230.77  591.02
  -7   5   5 2615.80  577.22
  -7  -5   6 1662.87  532.85
  -7  -5   6 2180.36  326.16
  -7   5  -6 1911.75  543.53
  -7  -5  -6 1503.62  609.88
  -7   5   6 1092.81  556.57
  -7   5  -7  958.51  553.93
  -7  -5   7 2050.52  579.49
  -7  -5  -7 1144.74  365.08
   7  -5   7 3198.92  483.44
  -7   5   7 1930.45  551.03
  -7  -5   8  460.78  524.02
  -7   5  -8 1108.60  529.03
  -7  -5  -8 1258.46  373.40
   7   5  -8 1490.98  435.98
   7  -5   8 1814.41  435.83
  -7   5   8  885.02  539.75
  -7  -5   9  225.00  488.25
  -7   5  -9  981.50  323.70
   7   5  -9  398.98  368.93
  -7   5   9  809.26  318.86
  -7  -5  -9  407.84  541.83
  -7  -5  10 1418.75  630.37
  -7   5 -10 1580.72  638.94
  -7  -5 -10  772.25  633.15
   7   5 -10 2097.51  311.05
  -7   5  10 2181.94  621.53
  -7  -5  11 1611.42  430.13
  -7   5 -11 2417.97  666.48
  -7  -5 -11 1616.24  624.37
  -7   5  11 1756.40  614.88
  -7  -5  12 5053.63  894.33
  -7   5 -12 3842.73  631.89
  -7  -5 -12 4665.61  640.29
  -7   5  12 5520.98  927.08
  -7  -5  13 1525.30  702.86
  -7   5 -13 1250.90  699.09
  -7  -5 -13 1782.16  692.72
  -7   5  13 2507.88  443.64
  -7  -5  14 1398.73  665.00
  -7   5 -14 1440.44  663.33
  -7  -5 -14  924.75  642.48
  -7   5  14 1881.37  678.04
  -7  -5  15 1100.69  427.89
  -7   5 -15 1021.11  427.29
  -7  -5 -15  892.82  620.86
  -7   5  15 1115.52  611.30
  -7  -5  16  480.53  603.89
  -7   5 -16   84.09  598.72
  -7  -5 -16  520.58  356.39
  -7   5  16  742.11  355.10
  -7  -5  17 1579.44  656.76
  -7   5 -17  -78.79  428.70
  -7   5  17 1207.57  404.41
  -7  -5 -17  796.77  649.02
  -7  -5  18  923.06  394.37
  -7   5 -18  -64.07  612.77
  -7  -5 -18  351.02  594.92
  -7   5  18 -149.61  581.97
  -7  -5  19  870.98  758.76
  -7   5 -19 1806.07  760.47
  -7  -5 -19  652.92  723.25
  -7   5  19 1123.61  724.27
  -7  -5  20  301.93  654.05
  -7   5 -20  596.64  403.75
  -7  -5 -20  271.24  371.93
  -7   5  20  126.22  402.67
  -7  -5  21 2229.61  559.84
  -7   5 -21 1429.55  863.74
  -7  -5 -21  542.14  796.49
  -7   5  21 -143.03  848.39
  -7   6   0 1053.56  454.11
  -7  -6   0  855.72  486.35
  -7  -6   1  325.70  389.07
  -7   6  -1  -23.19  289.38
  -7   6  -1  169.67  342.13
  -7   6   1  512.24  225.74
  -7  -6  -1  216.17  395.75
  -7  -6   2 1954.27  545.24
  -7   6  -2 1636.87  438.70
  -7   6  -2 1353.10  477.04
  -7  -6  -2 1606.15  402.67
  -7   6   2 1874.74  353.22
  -7  -6   3 1663.30  337.58
  -7  -6   3 1631.18  410.47
  -7   6  -3 1341.42  292.43
  -7   6  -3 1789.03  449.17
  -7  -6  -3 1489.06  564.25
  -7   6   3 1268.32  313.00
  -7  -6   4 5867.50  759.08
  -7  -6   4 4701.42  678.25
  -7   6  -4 4436.08  542.04
  -7   6  -4 5384.63  489.96
  -7  -6  -4 4799.56  817.00
  -7   6   4 6435.73  838.32
  -7  -6   5 4959.43  749.56
  -7   6  -5 4941.31  567.25
  -7  -6  -5 6002.41  884.00
   7  -6   5 6285.81  759.03
  -7   6   5 5520.02  843.66
  -7  -6   6  357.02  448.81
  -7   6  -6  471.25  475.39
  -7  -6  -6 1062.78  541.08
   7   6  -6  876.38  431.72
   7  -6   6 1209.34  300.48
  -7   6   6 1408.06  520.26
  -7  -6   710398.22 1131.07
  -7   6  -7 7962.73 1006.06
  -7  -6  -7 9219.05  902.48
   7  -6   710700.05  941.79
  -7   6   7 9253.16  875.63
   7   6  -7 8803.28  908.71
  -7  -6   8  210.57  414.77
  -7   6  -8  607.96  418.56
  -7  -6  -8   48.42  282.47
   7   6  -8   89.01  338.86
   7  -6   8  449.26  353.88
  -7   6   8  446.43  272.17
  -7  -6   9 4170.38  827.10
  -7   6  -9 5614.89  902.07
   7  -6   9 7421.50  752.05
  -7   6   9 6719.74  722.30
  -7  -6  -9 4844.27  887.05
   7   6  -9 5366.33  689.76
  -7  -6  10  373.07  419.65
  -7   6 -10  213.68  275.16
  -7  -6 -10  401.71  445.25
   7   6 -10   42.04  325.27
  -7   6  10  411.39  440.87
  -7  -6  11 2023.61  702.12
  -7   6 -11 2460.26  767.01
  -7  -6 -11 3396.48  791.28
  -7   6  11 3701.16  745.84
   7   6 -11 3738.69  411.93
  -7  -6  12  630.16  288.90
  -7   6 -12  287.45  489.04
  -7  -6 -12   97.19  299.56
  -7   6  12   35.84  283.86
  -7  -6  13 1365.88  442.36
  -7   6 -13 1046.68  417.33
  -7   6  13 1363.96  409.04
  -7  -6 -13 1498.36  621.02
  -7  -6  14 2397.36  813.55
  -7   6 -14 2896.61  565.50
  -7  -6 -14 3145.30  770.74
  -7   6  14 2431.24  722.39
  -7  -6  15   27.36  520.19
  -7   6 -15 -282.17  516.71
  -7  -6 -15  278.58  480.17
  -7   6  15  732.80  475.98
  -7  -6  16 1169.09  651.16
  -7   6 -16 1018.43  660.52
  -7  -6 -16  314.67  385.74
  -7   6  16 1213.23  393.92
  -7  -6  17  244.82  386.74
  -7   6 -17  322.56  400.23
  -7  -6 -17 1195.13  399.04
  -7   6  17  850.00  381.51
  -7  -6  18  561.95  630.94
  -7   6 -18  743.30  648.82
  -7  -6 -18  457.77  600.30
  -7   6  18  205.88  594.43
  -7  -6  19 1587.54  784.54
  -7   6 -19 1079.52  477.39
  -7  -6 -19  979.61  725.61
  -7   6  19  905.38  741.09
  -7  -6  20  687.00  445.32
  -7   6 -20  453.52  701.06
  -7  -6 -20  796.55  408.41
  -7   6  20  -99.96  412.97
  -7  -6  21 1251.69  876.69
  -7   6 -21 1410.41  843.85
  -7  -7   0 9084.23 1080.48
  -7   7   010625.53  867.10
  -7  -7   1 5387.31  888.27
  -7   7  -1 6794.10  826.14
  -7  -7  -1 6322.47  705.45
  -7   7   1 6557.45  669.18
  -7  -7   2 3796.28  716.64
  -7   7  -2 3061.79  602.50
  -7   7  -2 3494.05  630.42
  -7   7   2 3725.04  489.54
  -7  -7  -2 3809.32  499.83
  -7  -7   3 9048.08  773.41
  -7   7  -3 7864.99  901.01
  -7  -7  -3 7315.55 1030.44
  -7   7   3 6805.45  919.69
  -7  -7   4  369.72  240.53
  -7   7  -4  501.21  386.33
  -7  -7  -4  835.78  499.87
   7   7  -4  321.32  266.46
   7  -7   4  321.48  427.47
  -7   7   4  847.22  447.80
  -7  -7   5 2778.13  541.26
  -7   7  -5 2487.54  591.22
  -7  -7  -5 2615.42  714.97
   7  -7   5 1890.40  582.73
  -7   7   5 2187.24  642.45
   7   7  -5 2253.71  577.87
  -7  -7   6  528.36  454.13
  -7   7  -6 1074.51  461.12
   7   7  -6 1196.80  462.93
   7  -7   6 1132.33  452.58
  -7   7   6  924.44  525.58
  -7  -7  -6  359.83  350.83
  -7  -7   7 2088.38  578.10
  -7   7  -7 1798.09  590.98
  -7  -7  -7 1720.28  457.16
   7   7  -7 1918.34  529.23
   7  -7   7 2110.04  376.73
  -7   7   7 2803.30  445.19
  -7  -7   8 2014.30  611.40
  -7   7  -8 2036.19  659.93
  -7  -7  -8 2632.03  480.40
   7   7  -8 2864.06  386.15
   7  -7   8 2381.09  376.54
  -7   7   8 2345.08  471.82
  -7  -7   9 1708.94  554.15
  -7   7  -9  325.81  565.10
  -7  -7  -9 1574.73  633.41
   7  -7   9 1283.40  479.87
  -7   7   9 1864.89  608.21
   7   7  -9 1150.13  467.76
  -7  -7  10 1250.64  522.77
  -7   7 -10   22.49  529.86
   7   7 -10 1330.61  426.87
   7  -7  10 1077.63  441.78
  -7   7  10  530.70  564.67
  -7  -7 -10  157.44  595.89
  -7  -7  11 2348.07  724.28
  -7   7 -11 1734.46  739.88
  -7  -7 -11 3196.80  802.54
  -7   7  11 3172.74  767.18
   7   7 -11 3609.79  431.22
  -7  -7  12 1891.14  640.87
  -7   7 -12  880.18  432.96
  -7  -7 -12 1644.68  440.41
   7   7 -12 1822.37  482.21
  -7   7  12 1817.95  427.46
  -7  -7  13 3597.54  820.60
  -7   7 -13 2685.53  868.95
  -7   7  13 3935.50  592.90
  -7  -7  14 2778.93  678.76
  -7   7 -14  904.85  685.46
  -7  -7 -14 -131.15  635.96
  -7   7  14  585.44  616.71
  -7  -7  15 2694.01  551.20
  -7   7 -15 2413.59  528.61
  -7  -7 -15  -73.76  738.44
  -7   7  15 2969.08  755.36
  -7  -7  16 1697.27  709.80
  -7   7 -16 1166.92  438.45
  -7  -7 -16 1354.70  654.84
  -7   7  16   45.77  628.18
  -7  -7  17 1992.54  732.81
  -7   7 -17  769.00  720.41
  -7  -7 -17  810.81  424.00
  -7   7  17  853.32  420.62
  -7  -7  18 1254.65  751.06
  -7   7 -18 1415.95  739.93
  -7   7  18 1140.90  677.04
  -7  -7 -18  491.05  416.95
  -7  -7  19 1153.14  482.93
  -7   7 -19  439.41  447.74
  -7  -7 -19 1571.15  709.90
  -7   7  19  729.55  707.74
  -7  -7  20  -93.17  716.16
  -7   7 -20  453.47  693.26
  -7  -7 -20  708.99  661.48
  -7   7  20  572.17  678.90
  -7  -7  21  589.73  650.45
  -7   7 -21   -2.73  367.28
  -7  -8   0 1816.75  573.92
  -7   8   0  975.26  351.15
  -7  -8   1 8972.24 1123.80
  -7   8  -1 8386.57  976.83
  -7  -8  -1 8386.26  834.05
  -7   8   1 8136.66  785.61
  -7  -8   2 3408.61  489.91
  -7  -8  -2 3892.73  575.33
  -7   8   2 4180.64  765.11
  -7   8  -3  426.56  409.70
  -7  -8  -3  615.46  343.15
   7   8  -3  929.77  313.46
   7  -8   3  543.48  477.83
  -7   8   3  377.12  484.66
  -7   8  -4 3638.55  722.93
   7   8  -4 4039.57  506.41
   7  -8   4 5297.20  793.54
  -7   8   4 5691.04  864.20
  -7  -8  -4 5819.96  912.29
  -7   8  -5 1734.59  571.53
  -7  -8   5 2070.50  367.73
  -7  -8  -5 2335.20  740.58
   7   8  -5 2067.27  577.55
   7  -8   5 3023.14  634.77
  -7   8   5 2502.17  663.57
  -7  -8   6 8598.61 1034.29
  -7   8  -6 8277.56 1035.32
  -7  -8  -6 9957.38 1274.68
   7   8  -6 9847.09 1002.26
   7  -8   6 8067.24  971.21
  -7   8   611397.78 1209.20
  -7  -8   7  713.00  447.24
  -7   8  -7   48.77  279.51
  -7  -8  -7  619.69  336.27
   7   8  -7  492.10  421.53
   7  -8   7  609.43  296.57
  -7   8   7  342.49  312.15
  -7  -8   8 2721.26  697.32
  -7   8  -8 2579.59  487.96
   7   8  -8 4134.33  469.64
   7  -8   8 5199.66  730.75
  -7   8   8 5085.78  655.42
  -7  -8  -8 5248.02  636.67
  -7  -8   9  646.07  469.20
  -7   8  -9   71.92  462.49
  -7  -8  -9 -417.25  534.44
   7   8  -9  817.31  413.01
   7  -8   9  490.02  409.57
  -7   8   9  190.19  486.23
  -7  -8  10 1472.98  403.34
  -7   8 -10  -73.85  648.47
  -7  -8 -10 2187.35  722.71
   7   8 -10 2106.85  538.51
   7  -8  10 2125.16  573.56
  -7   8  10 2545.30  683.30
  -7   8 -11   14.48  686.21
  -7  -8  11 1819.69  437.19
  -7  -8 -11 1439.50  749.88
   7   8 -11 2771.28  389.67
   7  -8  11 2651.05  606.21
  -7   8  11 2429.72  715.32
  -7  -8  12 1131.36  410.30
  -7   8 -12 1315.04  636.18
  -7  -8 -12 -119.21  426.55
   7   8 -12 2292.08  515.32
  -7   8  12 1356.52  635.02
  -7   8 -13  833.11  655.96
  -7  -8  13  582.04  611.02
  -7  -8 -13  -75.42  394.89
   7   8 -13 1461.22  304.58
  -7   8  13  391.91  377.03
  -7  -8  14  128.35  552.57
  -7   8 -14  845.01  364.20
  -7  -8 -14 -113.68  334.72
  -7   8  14  304.80  331.31
  -7  -8  15  630.00  487.99
  -7   8 -15 -160.05  483.26
  -7  -8 -15  -67.03  467.71
  -7   8  15    4.95  445.95
  -7  -8  16  351.70  423.63
  -7   8 -16 -160.32  423.12
  -7  -8 -16 -108.83  395.42
  -7   8  16   -3.56  385.52
  -7  -8  17  111.04  592.67
  -7   8 -17 -420.39  571.81
  -7  -8 -17  299.79  536.73
  -7   8  17  500.29  333.80
  -7  -8  18 1389.28  529.28
  -7   8 -18 2145.52  554.73
  -7  -8 -18 1362.12  489.07
  -7   8  18 1572.65  494.31
  -7  -8  19  325.67  652.35
  -7   8 -19  -75.41  630.01
  -7  -8 -19  445.41  373.78
  -7   8  19  115.13  597.45
  -7  -8  20 2040.89  932.65
  -7   8 -20 1722.09  902.43
  -7   9   016835.86 1265.47
  -7  -9   015738.75 1575.41
  -7  -9   1 2469.69  472.88
  -7   9  -1  594.75  407.91
  -7   9   1 3389.13  526.00
  -7  -9  -1 3199.32  736.06
  -7  -9  -2 8078.22  844.82
   7   9  -2 8032.74  748.68
   7  -9   2 7775.77 1036.82
  -7   9   2 7372.50  766.85
  -7  -9  -3 2568.92  506.90
   7   9  -3 3483.97  501.46
   7  -9   3 3057.69  706.63
  -7   9   3 2666.76  790.03
  -7   9  -4 1572.61  564.00
  -7  -9  -4 2343.99  701.73
   7  -9   4 2507.89  636.76
  -7   9   4 2179.83  698.70
   7   9  -4 2203.72  610.97
  -7   9  -5 1401.17  499.51
   7   9  -5  884.31  516.88
   7  -9   5  972.56  530.95
  -7   9   5  931.02  591.51
  -7  -9  -5  534.46  606.63
  -7  -9   6  460.66  436.19
  -7   9  -6  -75.41  446.36
  -7  -9  -6  652.69  562.81
   7   9  -6  182.53  438.79
   7  -9   6  959.56  315.52
  -7   9   6  409.33  549.58
  -7   9  -7 2426.63  469.51
  -7  -9   7 2662.50  712.17
  -7  -9  -7 5117.38  921.45
   7   9  -7 4164.89  503.33
   7  -9   7 5408.64  770.19
  -7   9   7 4597.05  611.04
  -7  -9   8 1565.23  595.41
  -7   9  -8   44.01  372.47
  -7  -9  -8 1567.80  456.63
   7   9  -8 1562.72  538.63
   7  -9   8 2282.94  577.03
  -7   9   8 2135.53  435.57
  -7  -9   9  533.47  298.34
  -7   9  -9 -138.58  282.34
   7   9  -9  141.65  391.88
   7  -9   9  156.36  421.73
  -7   9   9  688.83  327.26
  -7  -9  -9  121.39  318.87
  -7  -9  10  947.15  361.64
  -7   9 -10 -222.02  337.03
  -7  -9 -10 1103.91  622.94
   7   9 -10  985.95  305.77
   7  -9  10  880.22  489.57
  -7   9  10 1149.72  623.18
  -7   9 -11  -34.43  410.67
  -7  -9  11 1455.79  654.98
  -7  -9 -11  122.95  669.88
   7   9 -11 2360.25  546.56
   7  -9  11 2565.30  390.54
  -7   9  11  961.01  701.02
  -7  -9  12 2671.68  708.54
  -7   9 -12 -144.07  479.56
  -7  -9 -12  -48.00  708.09
   7   9 -12 3669.55  583.89
  -7   9  12  953.42  719.41
  -7   9 -13 2437.67  793.82
  -7  -9  13 3176.98  784.95
  -7  -9 -13  -49.49  488.11
   7   9 -13 3776.98  608.11
  -7   9  13  862.40  754.76
  -7  -9  14 5128.32  734.15
  -7   9 -14 3853.28  949.02
  -7  -9 -14 3658.59  611.99
  -7   9  14 3767.61  632.88
  -7  -9  15  864.46  405.92
  -7   9 -15  911.98  637.10
  -7  -9 -15  -70.87  365.24
  -7   9  15  668.63  387.86
  -7  -9  16 1751.22  525.89
  -7   9 -16 2855.99  552.24
  -7  -9 -16 -186.44  750.38
  -7   9  16  755.21  754.78
  -7  -9  17  313.69  370.73
  -7   9 -17  197.11  354.79
  -7  -9 -17   -4.33  531.94
  -7   9  17   77.82  535.10
  -7  -9  18 1731.32  923.60
  -7   9 -18 2205.58  895.31
  -7  -9 -18 2622.30  832.58
  -7   9  18 1928.95  518.89
  -7  -9  19  221.46  492.80
  -7   9 -19   -1.34  479.23
  -7  -9 -19  -72.52  286.68
  -7   9  19  -44.61  270.22
  -7   9 -20  597.68  464.40
  -7  10   0  409.19  408.25
  -7 -10   0 2775.01  446.28
  -7 -10  -1 1171.74  628.50
   7  10  -1  823.16  343.95
   7 -10   1  698.53  601.58
  -7  10   1 1065.14  583.79
  -7 -10  -2 2515.20  800.56
   7  10  -2 2671.97  468.14
   7 -10   2 2778.01  742.10
  -7  10   2 2897.45  493.82
  -7 -10  -3 3273.15  555.64
   7 -10   3 2400.89  741.92
  -7  10   3 3744.16  559.66
   7  10  -3 3272.83  716.02
  -7 -10  -4 3102.78  532.92
   7  10  -4 2156.73  677.34
   7 -10   4 3526.61  547.91
  -7  10   4 2924.65  790.38
  -7  10  -5 2032.61  658.28
  -7 -10  -5 3022.61  536.66
   7  10  -5 2401.36  652.82
   7 -10   5 2956.90  497.61
  -7  10   5 3177.10  779.48
  -7  10  -6  595.91  497.48
   7  10  -6  782.63  300.24
   7 -10   6 1042.04  525.28
  -7  10   6  347.49  575.58
  -7 -10  -6  244.62  567.47
  -7 -10   7 5102.30  966.52
  -7  10  -7 5779.50  762.37
  -7 -10  -7 6936.90 1104.16
   7  10  -7 9500.32 1023.29
   7 -10   7 8583.85 1022.01
  -7  10   7 7561.50 1137.57
  -7 -10   8 -122.66  226.23
  -7  10  -8   64.23  393.07
  -7 -10  -8   -7.57  447.53
   7  10  -8  289.52  350.97
   7 -10   8   16.89  378.15
  -7  10   8  560.82  449.56
  -7 -10   9 5945.49  989.18
  -7  10  -9 7908.48 1133.58
  -7 -10  -9 6387.41  807.91
   7  10  -9 7205.63  676.20
   7 -10   9 6568.39  679.60
  -7  10   9 8535.44  933.13
  -7 -10  10  360.06  509.54
  -7  10 -10  -61.47  522.24
   7  10 -10  613.81  445.76
   7 -10  10  640.30  495.47
  -7  10  10   63.60  365.87
  -7 -10 -10  581.24  360.72
  -7  10 -11 3046.69  857.48
  -7 -10  11 2249.21  827.93
  -7 -10 -11 3330.58  605.77
   7  10 -11 4384.98  722.78
   7 -10  11 4942.80  789.36
  -7  10  11  -50.76  854.33
  -7 -10  12  850.51  638.41
  -7  10 -12  566.86  646.99
  -7 -10 -12  -73.22  618.38
   7  10 -12 1500.02  510.47
   7 -10  12 1215.23  556.48
  -7  10  12  337.45  651.01
  -7 -10  13  195.90  572.96
  -7  10 -13  570.25  601.96
  -7 -10 -13   68.79  557.09
   7  10 -13  546.81  459.25
  -7  10  13  278.01  584.35
  -7 -10  14 1610.57  793.08
  -7  10 -14 1536.34  490.39
  -7 -10 -14   -6.90  697.99
   7  10 -14 2111.87  397.87
  -7  10  14  837.89  763.59
  -7 -10  15  542.52  432.63
  -7  10 -15   32.47  258.10
  -7 -10 -15 -107.98  232.60
  -7  10  15  -41.75  250.13
  -7 -10  16 1228.59  677.95
  -7  10 -16 1324.49  663.27
  -7 -10 -16  -41.59  385.94
  -7  10  16  419.07  402.16
  -7 -10  17 1478.52  667.81
  -7  10 -17 -127.15  648.73
  -7 -10 -17   -0.07  579.71
  -7  10  17  227.26  591.32
  -7 -10  18 1365.69  748.69
  -7  10 -18  588.20  715.24
  -7 -10 -18  127.79  643.84
  -7  10  18  215.50  639.54
  -7 -10  19 1548.64  561.48
  -7  10 -19 1345.27  554.87
   7  11   0  589.26  335.32
   7 -11   0  683.12  617.33
  -7 -11  -1 5237.92  701.97
   7  11  -1 5598.11  938.42
   7 -11   1 7915.44 1060.60
   7  11  -2  970.23  571.52
   7 -11   2 1158.09  407.83
  -7  11   2  907.64  644.36
  -7 -11  -2  922.47  649.48
  -7 -11  -3 2047.36  765.19
   7 -11   3 2790.19  491.59
  -7  11   3 2263.89  748.12
   7  11  -3 3250.19  717.54
  -7 -11  -4 2608.47  778.15
   7  11  -4 2513.05  465.24
   7 -11   4 2960.88  747.78
  -7  11   4 2418.48  517.55
  -7 -11  -5 3324.77  592.12
   7  11  -5 3395.25  741.09
   7 -11   5 4600.41  842.20
  -7  11   5 3690.35  616.58
  -7  11  -6 1793.92  440.86
  -7 -11  -6 1947.94  465.83
   7  11  -6 1925.34  650.42
   7 -11   6 2022.83  713.27
  -7  11   6 2276.92  757.40
  -7  11  -7  527.93  516.43
  -7 -11  -7  219.36  583.96
   7  11  -7  916.42  527.25
   7 -11   7  670.28  330.06
  -7  11   7  935.64  665.93
  -7 -11   8 1217.10  446.25
  -7  11  -8 1565.57  678.63
  -7 -11  -8 1308.75  747.34
   7  11  -8 2588.99  425.87
   7 -11   8 2529.63  700.30
  -7  11   8 1167.26  802.07
  -7 -11   9 2368.75  732.06
  -7  11  -9 1929.31  741.65
  -7 -11  -9  633.06  719.37
   7 -11   9 3635.21  704.25
  -7  11   9  115.26  825.85
   7  11  -9 2196.41  635.45
  -7 -11  10   96.50  584.59
  -7  11 -10  378.32  609.29
  -7 -11 -10 1697.40  658.16
   7  11 -10 1156.10  340.26
   7 -11  10 1470.45  577.33
  -7  11  10 -214.90  435.67
  -7 -11  11 2922.89  855.80
  -7  11 -11 3607.64  926.50
  -7 -11 -11 3808.42  639.43
   7 -11  11 4903.39  584.39
  -7  11  11 3334.16  632.63
   7  11 -11 4112.51  771.66
  -7 -11  12  910.65  400.85
  -7  11 -12  772.47  646.80
  -7 -11 -12  622.34  360.13
   7  11 -12  795.79  507.42
   7 -11  12 1200.80  574.56
  -7  11  12   53.20  425.43
  -7 -11  13 1571.33  514.62
  -7  11 -13 1310.66  794.36
  -7 -11 -13  -79.41  659.94
   7 -11  13 3081.92  682.32
  -7  11  13  710.64  803.05
   7  11 -13 2288.18  645.54
  -7 -11  14  210.73  327.11
  -7  11 -14 -261.35  505.16
  -7 -11 -14  -46.47  444.61
   7  11 -14  367.70  415.35
  -7  11  14   14.10  532.11
  -7 -11  15  516.44  392.87
  -7  11 -15  376.07  616.71
  -7 -11 -15  -36.86  536.51
  -7  11  15  258.26  640.04
  -7 -11  16  228.22  401.34
  -7  11 -16  758.75  668.44
  -7 -11 -16  -35.63  577.43
  -7  11  16  553.91  404.67
  -7 -11  17 2276.96  522.37
  -7  11 -17 1718.46  787.90
  -7 -11 -17 -228.83  447.05
  -7  11  17  352.46  467.12
  -7 -11  18  546.40  485.43
  -7  11 -18  754.34  483.31
   7 -12   0  406.08  349.47
   7  12   0  252.08  499.46
   7 -12  -1 2391.69  485.39
   7  12  -1 2227.48  659.32
   7 -12   1 2680.74  734.36
  -7 -12  -1   -2.93  397.65
  -7 -12  -2  999.25  417.69
   7  12  -2 1175.02  411.55
   7 -12   2 1443.30  661.84
  -7  12   2 1274.64  430.80
  -7 -12  -3 2139.14  493.88
   7  12  -3 1715.22  412.05
   7 -12   3 2028.76  734.69
  -7  12   3  502.65  754.67
   7  12  -4 4522.47  844.73
  -7 -12  -4 4428.24  891.12
   7 -12   4 5566.22  964.66
  -7  12   4 4069.53  964.16
  -7 -12  -5  102.14  439.01
   7  12  -5 -173.68  398.98
   7 -12   5   22.13  270.09
  -7  12   5  509.18  469.38
  -7 -12  -6 6053.87 1099.72
   7  12  -6 6893.87  708.58
   7 -12   6 5746.98  983.84
  -7  12   6 5831.24  817.55
  -7  12  -7  195.23  582.94
  -7 -12  -7  801.47  375.57
   7  12  -7 1066.73  578.96
   7 -12   7 1140.78  616.41
  -7  12   7 1110.86  445.52
  -7  12  -8 4794.86 1019.69
  -7 -12  -8 5227.66  771.67
   7 -12   8 8087.45 1056.60
  -7  12   8 6830.73  799.85
   7  12  -8 6653.27  954.80
  -7  12  -9 1613.38  466.52
  -7 -12  -9 1248.74  658.77
   7  12  -9 1435.45  387.00
   7 -12   9 1624.42  432.69
  -7  12   9 -311.98  766.34
  -7 -12  10 5405.91  769.19
  -7  12 -10 4070.57  733.27
  -7 -12 -10 4488.67  961.07
   7  12 -10 7925.42  969.64
   7 -12  10 8354.68 1040.41
  -7  12  10   11.53 1052.65
  -7 -12  11  783.12  668.07
  -7  12 -11 1077.77  407.95
  -7 -12 -11 -793.97  583.10
   7  12 -11 1204.92  348.98
   7 -12  11  720.20  624.85
  -7  12  11 -100.88  692.32
  -7 -12  12 1628.27  826.80
  -7  12 -12 1664.06  790.72
  -7 -12 -12 1132.43  689.98
   7  12 -12 3192.63  689.74
   7 -12  12 3826.64  536.38
  -7  12  12   -6.02  559.03
  -7 -12  13   36.62  545.88
  -7  12 -13  -49.03  536.19
  -7 -12 -13   -3.53  297.69
   7  12 -13  411.50  459.78
   7 -12  13  683.39  492.49
  -7  12  13   18.22  355.35
  -7 -12  14  739.24  468.14
  -7  12 -14   34.40  453.00
  -7 -12 -14  -83.43  230.46
   7  12 -14 -303.36  367.65
  -7  12  14  -69.71  290.94
  -7 -12  15 1251.06  728.61
  -7  12 -15  882.21  443.24
  -7 -12 -15  -58.10  366.68
   7  12 -15 1511.52  577.44
  -7  12  15  194.44  730.59
  -7 -12  16  642.14  616.66
  -7  12 -16   -0.08  363.60
  -7 -12 -16  -20.63  501.16
  -7  12  16  314.52  616.08
  -7 -12  17  808.37  802.69
  -7  12 -17  947.44  486.30
  -7  12  17   17.75  800.95
   7  13   0 6004.26  734.80
   7 -13   0 6991.23 1138.60
   7  13   1 2701.29  776.38
   7 -13  -1 2198.97  825.58
   7  13  -1 1344.74  450.08
   7 -13   1 1790.83  786.36
   7 -13  -2 7346.81  872.26
  -7 -13  -2 5152.45  723.71
   7 -13   2 6864.24  833.90
   7  13  -2 7526.15 1058.68
  -7 -13  -3  205.23  748.15
   7  13  -3 2728.20  738.13
   7 -13   3 2974.54  532.76
  -7  13   3 2395.58  550.39
  -7 -13  -4 3057.46  542.32
   7  13  -4 2788.10  510.90
   7 -13   4 3108.35  837.89
  -7  13   4 2977.74  571.91
  -7 -13  -5  672.18  416.00
   7  13  -5 1210.12  606.97
   7 -13   5  459.32  636.99
  -7  13   5 1106.29  707.80
  -7 -13  -6  989.12  606.39
   7  13  -6 1364.96  600.64
   7 -13   6  776.11  666.05
  -7  13   6  573.65  707.63
  -7 -13  -7  838.66  615.43
   7  13  -7 1219.69  387.79
   7 -13   7 1074.64  427.33
  -7  13   7  701.97  727.78
  -7  13  -8  385.98  383.59
  -7 -13  -8 1059.39  608.28
   7  13  -8  711.84  603.08
   7 -13   8 1908.46  667.05
  -7  13   8 1924.67  725.84
  -7  13  -9 1448.88  757.91
  -7 -13  -9 1888.29  697.12
   7  13  -9 2037.24  649.89
   7 -13   9 2871.11  766.54
  -7  13   9 -105.46  529.42
  -7  13 -10 2890.37  970.74
   7  13 -10 4318.72  587.94
  -7 -13 -10 3854.60  616.17
   7 -13  10 4688.92  654.47
  -7  13  10 4573.35  685.12
  -7 -13  11  204.14  458.25
  -7  13 -11 -144.43  469.07
  -7 -13 -11  -35.60  246.71
   7  13 -11  -14.62  403.15
   7 -13  11  501.19  440.95
  -7  13  11 -148.26  474.69
  -7 -13  12 2844.81  971.29
  -7  13 -12 1393.79  919.40
  -7 -13 -12 3106.86  838.21
   7  13 -12 4456.93  570.07
   7 -13  12 4690.64  902.64
  -7  13  12   -4.25  956.28
  -7 -13  13   24.73  367.68
  -7  13 -13 -325.34  605.69
  -7 -13 -13 1037.18  516.72
   7  13 -13    9.90  512.09
   7 -13  13  868.68  561.84
  -7  13  13 -170.88  612.33
  -7 -13  14  -69.94  575.32
  -7  13 -14 2208.64  896.98
  -7 -13 -14 1210.61  767.11
   7  13 -14 4080.31  535.35
   7 -13  14 3035.17  826.91
  -7  13  14   75.43  894.20
  -7 -13  15  -49.52  694.76
  -7  13 -15  811.37  686.52
  -7 -13 -15  -34.20  537.32
   7  13 -15    5.75  544.94
  -7  13  15  619.84  424.29
  -7 -13  16    1.01  870.78
  -7  13 -16 2006.28  877.88
   7 -14   0 1411.78  496.70
   7  14   0  994.24  724.07
   7  14   1   15.74  641.35
   7 -14  -1  713.19  433.93
   7 -14   1 1522.95  741.12
   7  14  -1 1107.04  645.67
   7 -14  -2 4382.15  997.19
   7  14  -2 3717.25  580.76
   7 -14   2 1718.39  890.83
  -7 -14  -3 4910.93  706.01
   7  14  -3 5322.84  935.66
   7 -14   3 5356.46 1033.87
  -7  14   3 3943.28  706.08
   7  14  -4  907.47  672.83
   7 -14   4 1956.11  491.06
  -7  14   4 1317.89  772.50
  -7 -14  -4 1748.71  735.76
  -7 -14  -5 3044.54  893.94
   7 -14   5 6074.98 1055.79
  -7  14   5 6040.77 1096.80
   7  14  -5 4368.08  598.33
  -7 -14  -6 1053.77  531.48
   7  14  -6  -75.34  521.64
   7 -14   6   88.52  588.79
  -7  14   6  417.12  377.95
  -7 -14  -7 2417.72  494.83
   7  14  -7  -16.29  780.71
   7 -14   7 2679.25  826.76
  -7  14   7 3095.74  583.06
   7  14  -8  -37.03  395.12
   7 -14   8 1867.90  455.33
  -7  14   8 1956.46  720.07
  -7 -14  -8 1181.39  399.49
  -7  14  -9 1707.59  803.72
  -7 -14  -9 2076.73  698.90
   7  14  -9   28.08  696.45
   7 -14   9 3038.63  806.21
  -7  14   9   80.40  795.72
  -7  14 -10 1368.70  726.42
  -7 -14 -10 1529.62  627.72
   7  14 -10   34.85  395.74
   7 -14  10 2435.84  711.99
  -7  14  10  -52.69  681.32
  -7  14 -11 1396.76  490.15
  -7 -14 -11 1886.81  643.39
   7  14 -11 -161.56  672.79
   7 -14  11   -4.64  724.40
  -7  14  11   78.10  725.83
  -7 -14  12  324.18  435.43
  -7  14 -12  114.78  422.73
   7 -14  12  -30.92  400.56
  -7  14  12   12.68  249.95
   7  14 -12  -99.05  358.70
  -7 -14 -12 -238.34  352.53
  -7 -14  13  -54.48  617.42
  -7  14 -13  309.29  609.40
  -7 -14 -13  679.60  330.64
   7  14 -13    2.28  501.53
   7 -14  13 -100.09  352.76
  -7  14  13  -53.37  350.52
  -7 -14  14   81.80  709.36
  -7  14 -14  590.72  694.96
  -7 -14 -14  784.00  362.95
   7  14 -14   -0.04  559.42
   7 -14  14  -29.78  624.40
  -7  14  14  142.35  627.23
  -7 -14  15  -73.35  423.47
  -7  14 -15   64.75  418.58
   7  14 -15    8.20  343.10
   7 -15   0  709.66  596.53
   7  15   0   35.07  316.51
   7  15   1 8006.68  853.11
   7 -15  -1 7831.85 1328.63
   7  15  -1 7017.79 1149.52
   7 -15   1 8827.41  992.18
   7 -15  -2  477.53  755.24
   7  15   2  -51.27  683.99
   7  15  -2 1285.31  676.23
   7 -15   2 1391.44  467.57
   7 -15  -3 1691.19  561.37
  -7 -15  -3  353.92  432.25
   7 -15   3 2395.58  853.56
   7  15  -3 3127.03  511.51
  -7 -15  -4 2054.29  765.75
   7  15  -4  -27.56  740.57
   7 -15   4 2253.92  848.20
  -7  15   4 2267.81  522.82
  -7 -15  -5  870.18  383.30
   7  15  -5   76.10  548.06
   7 -15   5  297.73  393.22
  -7  15   5  404.07  387.86
   7  15  -6 3382.48  553.58
   7 -15   6 2264.25  916.87
  -7  15   6 3932.79  933.30
  -7 -15  -6 3140.16  597.24
  -7 -15  -7  993.11  569.84
   7  15  -7   19.00  578.96
   7 -15   7  515.44  656.68
  -7  15   7  618.51  657.26
  -7 -15  -8  318.79  533.04
   7  15  -8   67.40  580.35
   7 -15   8   -0.16  401.60
  -7  15   8 1583.76  652.56
  -7 -15  -9 1317.01  610.35
   7  15  -9   20.29  643.70
   7 -15   9  -12.47  739.86
  -7  15   9 1308.20  462.76
  -7 -15 -10  885.89  334.49
   7  15 -10  -97.53  556.58
   7 -15  10    6.24  611.81
  -7  15  10 -193.04  374.47
  -7  15 -11 1298.05  872.76
  -7 -15 -11 1220.27  442.39
   7  15 -11 2953.12  499.48
   7 -15  11  -77.96  545.11
  -7  15 -12  -50.20  526.49
   7  15 -12  -25.44  423.27
   7 -15  12    8.47  477.22
  -7  15  12  -62.60  462.52
  -7  15 -13 2389.47  701.48
  -7 -15 -13 1708.03  820.67
   7  15 -13 4811.58  626.93
   7 -15  13 4254.46  667.84
  -7  15  13 -120.08  942.17
  -7 -15  14  -57.13  630.66
  -7  15 -14  304.96  393.85
   7  15 -14   -5.86  508.23
   7 -15  14  -43.73  569.99
   7 -16   0  628.88  454.81
   7  16   0 -170.54  245.08
   7 -16  -1   -2.81  487.56
   7  16   1  313.17  432.08
   7  16  -1 -304.13  262.78
   7 -16   1  799.47  489.46
   7  16   2   44.85  711.97
   7 -16  -2 1276.45  501.79
   7  16  -2  717.84  692.70
   7 -16   2 1269.60  501.94
   7  16   3  182.98  378.98
   7 -16  -3  275.88  714.08
   7  16  -3  758.79  586.32
   7 -16   3  848.17  688.74
  -7 -16  -4 2912.72  515.48
   7  16  -4  -20.65  497.19
   7 -16   4 1554.34  878.87
  -7  16   4 1911.95  526.06
   7  16  -5  -36.46  776.66
   7 -16   5 2312.47  860.87
  -7  16   5 2272.06  813.34
  -7 -16  -5 2630.59  772.74
  -7 -16  -6 2012.26  864.71
   7  16  -6 -104.62  860.30
   7 -16   6 3948.66  648.81
  -7  16   6 5439.69 1015.62
  -7 -16  -7 -250.99  477.24
   7  16  -7  -42.05  321.96
   7 -16   7  898.07  613.62
  -7  16   7  352.92  338.00
  -7 -16  -8 2610.57  561.65
   7  16  -8  -29.22  835.21
   7 -16   8  -25.95  955.82
  -7  16   8 3751.40  632.44
  -7 -16  -9  525.81  317.79
   7  16  -9    4.05  344.20
   7 -16   9   -5.38  390.68
  -7  16   9  135.00  557.94
  -7 -16 -10 2540.53  697.36
   7  16 -10   50.38  750.16
   7 -16  10  -23.81  867.55
   7  16 -11 -133.21  304.71
   7 -16  11  -70.70  349.67
  -7  16  11   22.57  501.89
  -7  16 -12 1213.54  759.36
   7  16 -12  138.39  646.82
   7 -16  12   -1.33  707.72
   7 -17   0 2354.14  865.41
   7  17   0  118.26  716.59
   7  17   1   44.22  520.09
   7 -17  -1  355.51  375.90
   7  17  -1   36.10  320.69
   7 -17   1 -227.35  594.17
   7  17   2  -21.40  551.15
   7 -17  -2 2570.79  985.37
   7  17  -2 3359.74  810.30
   7 -17   2 3969.24  949.03
   7  17   3  125.75  401.58
   7 -17  -3  228.35  701.18
   7  17  -3  576.68  596.25
   7 -17   3  525.42  427.77
   7  17  -4  -62.39  385.13
   7 -17   4 1311.20  724.24
  -7  17   4 -122.95  366.50
  -7 -17  -4 1080.30  366.95
  -7 -17  -5  342.92  553.65
   7  17  -5  -30.51  587.32
   7 -17   5  158.44  680.65
  -7  17   5  467.30  385.03
  -7 -17  -6 2202.51  471.52
   7  17  -6   14.87  743.54
   7 -17   6  974.24  543.96
  -7  17   6 1678.96  512.20
  -7 -17  -7  613.76  378.55
   7  17  -7  -40.58  391.12
   7 -17   7 1186.06  749.64
  -7  17   7  525.12  654.03
  -7 -17  -8  304.62  501.15
   7  17  -8   19.91  546.85
   7 -17   8  329.99  621.56
  -7  17   8 -102.45  540.40
  -7 -17  -9  467.82  539.28
   7  17  -9  -72.25  368.38
   7 -17   9   19.53  404.80
  -7  17   9  945.99  591.97
   7  17 -10  -55.94  458.11
   7 -17  10  110.18  506.54
   7  18   0  -24.36  568.00
   7 -18   0  293.67  421.64
   7  18   1   86.37  335.72
   7 -18  -1  446.74  651.74
   7  18  -1  -37.94  534.98
   7 -18   1  143.27  637.62
   7  18   2   36.95  263.40
   7 -18  -2   81.09  488.69
   7  18  -2  -80.95  254.61
   7 -18   2   18.74  479.61
   7  18   3  268.13  764.04
   7 -18  -3 2739.60  949.11
   7  18  -3  -47.42  732.81
   7 -18   3 1233.14  544.13
   7 -18  -4  523.78  414.70
  -7 -18  -4 -114.39  326.26
   7  18  -4   57.71  532.75
   7 -18   4  143.43  630.28
  -7 -18  -5 5094.23  752.40
   7  18  -5 5600.49  775.52
   7 -18   5 6613.22 1276.96
  -7  18   5 5729.03  853.93
  -7 -18  -6  585.34  400.41
   7  18  -6   -1.63  684.81
   7 -18   6  787.42  520.49
  -7  18   6 1536.53  722.90
   7  18  -7 4871.65  738.96
   7 -18   7 4014.56 1229.34
  -7  18   7 6152.44 1125.14
   7  18  -8   20.99  607.63
   7 -18   8  599.15  713.32
   7  19   0 -134.70  571.70
   7 -19   0  265.19  417.37
   7 -19  -1 2868.30 1057.70
   7  19  -1  -39.78  880.65
   7 -19   1 2371.51  690.05
   7 -19  -2  894.00  755.00
   7  19  -2   48.10  399.24
   7 -19   2  424.94  745.57
   7  19  -3 2011.95  922.09
   7 -19   3 2680.25  700.20
   7 -19   4  555.82  509.02
  -8   0   0 8414.93  709.85
  -8   0  -1  724.78  381.09
  -8   0   1   84.10  352.31
  -8   0  -210337.12 1074.57
  -8   0  -3 2427.35  606.54
  -8   0   3 2427.77  551.84
  -8   0   4 5392.65  520.53
  -8   0  -4 6981.44  889.81
  -8   0  -5  970.26  444.65
  -8   0   5  -46.50  403.94
  -8   0   6 -108.50  295.23
  -8   0  -6  211.18  334.35
  -8   0  -7 2820.62  609.51
  -8   0   7   46.16  550.12
  -8   0   8  250.15  385.92
  -8   0  -8  148.35  425.26
  -8   0  -9 5549.37  907.62
  -8   0   9 3863.72  751.86
  -8   0  10  148.79  401.81
  -8   0 -10  114.19  446.65
  -8   0 -11 1790.39  672.59
  -8   0  11 1609.23  393.01
  -8   0 -12   -7.19  476.99
  -8   0  12  382.64  467.25
  -8   0 -13  -84.35  470.16
  -8   0  13  173.31  270.27
  -8   0 -14   45.10  364.71
  -8   0  14 1292.71  577.86
  -8   0 -15  -74.57  527.94
  -8   0  15  291.70  322.40
  -8   0  16 2351.98  893.10
  -8   0 -16 3365.87  614.59
  -8   0 -17   60.51  557.65
  -8   0  17  151.48  326.90
  -8   0 -18  -94.23  449.36
  -8   0  18 1818.22  697.12
  -8   1   0 7445.12  853.00
  -8  -1   0 6075.36  616.94
  -8  -1   1 5422.54  758.05
  -8   1  -1 6022.97  792.04
  -8  -1  -1 5370.94  786.87
  -8  -1   2 4034.42  645.93
  -8   1  -2 2994.08  648.27
  -8  -1  -2 5013.51  561.85
  -8   1   2 4072.15  647.83
  -8   1  -3 3507.31  496.60
  -8  -1  -3 3468.15  647.95
  -8   1   3 3611.66  643.00
  -8   1  -4 2145.45  579.17
  -8  -1   4 2140.57  356.86
  -8  -1  -4 2468.95  588.55
  -8   1   4 -132.61  503.63
  -8  -1   5 1236.04  469.70
  -8   1  -5 2175.89  552.00
  -8  -1  -5 1876.67  575.47
  -8   1   5 -247.44  493.56
  -8  -1   6 1244.44  501.85
  -8   1  -6 2503.51  617.95
  -8  -1  -6 2110.62  585.43
  -8   1   6 -144.64  505.49
  -8  -1   7  971.36  290.47
  -8   1  -7 -344.67  492.29
  -8  -1  -7 1265.62  509.20
  -8   1   7 -269.77  467.56
  -8   1  -8   44.08  325.09
  -8  -1   8  893.11  456.66
  -8  -1  -8 1461.52  508.97
  -8   1   8  -26.98  465.73
  -8  -1   9 1547.35  627.92
  -8   1  -9 2493.18  708.61
  -8  -1  -9 2789.11  481.57
  -8   1   9  163.63  637.05
  -8  -1  10  980.16  351.96
  -8   1 -10 1140.73  380.32
  -8  -1 -10  223.84  571.38
  -8   1  10  193.53  541.26
  -8  -1  11 1236.73  681.64
  -8   1 -11 2121.45  746.72
  -8  -1 -11 3255.91  540.34
  -8   1  11 1523.71  663.38
  -8  -1  12  631.26  326.72
  -8   1 -12  -60.53  331.31
  -8   1  12  963.02  525.45
  -8  -1 -12   75.00  523.63
  -8  -1  13  795.46  544.42
  -8   1 -13 -176.22  568.30
  -8  -1 -13 -246.91  372.10
  -8   1  13  985.14  338.01
  -8  -1  14  598.78  331.05
  -8   1 -14  193.47  324.23
  -8  -1 -14   84.05  577.84
  -8   1  14  -31.98  516.85
  -8  -1  15  987.64  638.95
  -8   1 -15  180.53  644.59
  -8  -1 -15  157.95  662.25
  -8   1  15 1166.55  405.22
  -8  -1  16 1055.97  563.63
  -8   1 -16    6.36  344.36
  -8  -1 -16 -127.72  370.58
  -8   1  16  591.76  563.18
  -8  -1  17 1547.81  660.03
  -8   1 -17 -215.04  646.15
  -8  -1 -17 -193.15  643.70
  -8   1  17  507.06  393.41
  -8  -1  18  343.02  624.95
  -8   1 -18   17.04  366.06
  -8  -1 -18  131.12  373.84
  -8   1  18  648.94  596.27
  -8  -2   0  435.81  404.17
  -8   2  -1 7236.95  850.87
  -8  -2   1 7785.14  732.21
  -8  -2  -1 8897.11  806.05
  -8   2   1 8088.49  706.29
  -8  -2   2 1399.20  475.76
  -8   2  -2 1134.25  475.31
  -8  -2  -2 1663.12  533.56
  -8   2   2 1337.77  489.10
  -8   2  -3 -380.68  603.19
  -8   2   3 3078.56  398.72
  -8  -2  -3 4839.58  531.59
  -8   2  -4 2224.12  362.19
  -8   2   4  146.98  511.98
  -8  -2  -4 2449.66  590.83
  -8  -2   5  917.15  254.21
  -8   2  -5 -463.43  441.76
  -8  -2  -5 1082.21  485.83
  -8   2   5 -181.64  422.88
  -8  -2   6 2060.29  537.49
  -8   2  -6 -341.30  571.52
  -8  -2  -6 2632.70  416.78
  -8   2   6  -43.36  546.52
  -8  -2   7  128.03  290.73
  -8   2  -7  -51.26  303.53
  -8  -2  -7   84.56  315.85
  -8   2   7 -103.96  302.24
  -8   2  -8 -340.01  624.51
  -8  -2   8 2828.93  422.55
  -8   2   8   75.14  609.08
  -8  -2  -8 3044.12  491.19
  -8  -2   9  534.31  335.20
  -8   2  -9 -214.01  211.37
  -8  -2  -9  343.12  355.40
  -8   2   9 -179.36  323.70
  -8  -2  10 1545.59  628.92
  -8   2 -10 2584.59  713.90
  -8  -2 -10 4473.02  735.92
  -8   2  10   75.95  423.58
  -8  -2  11 1053.73  372.00
  -8   2 -11 1014.13  380.06
  -8   2  11  901.26  581.11
  -8  -2 -11  854.14  376.73
  -8   2 -12 -128.11  638.48
  -8  -2  12 1109.30  629.33
  -8   2  12 1753.92  413.54
  -8  -2 -12 1527.60  665.85
  -8  -2  13  400.22  585.47
  -8   2 -13 -229.14  604.33
  -8  -2 -13  910.32  382.32
  -8   2  13  984.61  573.56
  -8  -2  14 -599.84  408.19
  -8   2 -14   84.95  422.41
  -8  -2 -14   97.01  425.73
  -8   2  14  296.75  400.42
  -8  -2  15 1315.78  711.35
  -8   2 -15  -32.06  698.77
  -8  -2 -15  236.01  730.61
  -8   2  15 2356.88  686.92
  -8  -2  16  296.73  237.86
  -8   2 -16 -241.60  226.29
  -8   2  16  354.88  352.33
  -8  -2 -16 -183.67  227.58
  -8  -2  17  983.11  760.47
  -8   2 -17 -247.64  739.46
  -8  -2 -17   29.31  772.51
  -8   2  17 1880.17  481.49
  -8  -2  18  429.66  414.74
  -8   2 -18  163.03  423.54
  -8  -2 -18  330.19  405.98
  -8   2  18  564.61  667.48
  -8  -3   0 9053.76  838.22
  -8   3   0 7429.31  872.28
  -8  -3  -1 3641.05  711.72
  -8   3   1 4881.09  706.33
  -8  -3   2  -21.99  527.54
  -8   3  -2 2180.71  570.80
  -8  -3  -2 3179.58  460.47
  -8   3   2 2421.38  360.26
  -8  -3   3 2444.37  473.88
  -8   3  -3 -216.24  470.16
  -8  -3  -3 2085.28  549.17
  -8   3   3 -117.33  473.91
  -8   3  -4 -135.56  345.77
  -8  -3  -4  744.21  384.85
  -8   3   4   21.54  214.69
  -8   3  -5  191.35  418.55
  -8  -3  -5  857.20  315.84
  -8   3   5   52.62  420.51
  -8  -3   6  138.28  321.04
  -8   3  -6  -22.65  349.91
  -8  -3  -6  254.06  381.61
  -8   3   6   76.35  343.16
  -8  -3   7  859.57  414.95
  -8   3  -7   14.32  435.91
  -8  -3  -7 1128.46  477.29
  -8   3   7 -135.33  272.15
  -8  -3   8  915.83  467.25
  -8   3  -8 -316.69  307.31
  -8  -3  -8 1222.20  323.11
  -8   3   8 -210.29  468.31
  -8  -3   9  714.88  323.30
  -8   3  -9  -87.90  488.66
  -8  -3  -9  735.54  497.36
  -8   3   9  103.82  314.86
  -8  -3  10 1599.47  672.98
  -8   3 -10 2650.23  464.25
  -8  -3 -10 1632.27  456.94
  -8   3  10 2146.30  670.79
  -8  -3  11  200.65  513.83
  -8   3 -11  352.09  504.91
  -8  -3 -11  462.07  495.89
  -8   3  11  295.80  507.59
  -8  -3  12 2895.23  529.31
  -8   3 -12 2204.12  775.75
  -8  -3 -12 2780.42  767.82
  -8   3  12 1922.44  468.45
  -8  -3  13  785.05  653.56
  -8   3 -13 -218.04  393.91
  -8  -3 -13 1623.86  411.71
  -8   3  13 1746.82  623.36
  -8  -3  14 1605.65  713.48
  -8   3 -14 -379.56  719.83
  -8  -3 -14  762.42  690.61
  -8   3  14 1710.66  422.13
  -8  -3  15 1013.46  423.10
  -8   3 -15  137.03  413.84
  -8  -3 -15 1500.93  689.96
  -8   3  15  717.46  626.39
  -8  -3  16  760.99  598.53
  -8   3 -16  -88.74  590.17
  -8  -3 -16 -139.34  381.29
  -8   3  16  805.74  564.36
  -8  -3  17 1615.40  740.65
  -8   3 -17   -1.77  726.66
  -8  -3 -17  815.48  734.43
  -8   3  17  717.09  426.19
  -8  -3  18 1018.17  494.87
  -8   3 -18   -7.98  792.68
  -8  -3 -18 1074.90  508.71
  -8   3  18 1624.27  763.28
  -8  -4   0 -151.04  503.23
  -8   4   0 1325.72  286.67
  -8   4  -1  858.32  316.61
  -8  -4   1 -104.36  212.14
  -8   4   1   55.12  327.04
  -8  -4  -1  -96.25  366.92
  -8  -4   2  -28.91  485.88
  -8  -4  -2 3201.84  562.22
  -8   4   2  -82.78  472.51
  -8  -4   3  161.28  305.31
  -8   4  -3 -172.94  314.08
  -8  -4  -3  265.36  348.91
  -8   4   3   18.95  196.99
  -8  -4   4   39.13  199.13
  -8   4  -4 -181.42  356.44
  -8  -4  -4  705.23  255.91
  -8   4   4  -23.22  370.67
  -8   4  -5 -106.91  246.32
  -8   4   5 -152.79  384.23
  -8  -4  -5 1501.77  447.65
  -8   4  -6   85.10  345.19
  -8  -4  -6  -20.05  369.49
  -8   4   6   98.14  204.81
  -8  -4   7 1758.00  574.24
  -8   4  -7   10.31  541.87
  -8  -4  -7 1656.27  405.99
  -8   4   7 -133.13  547.33
  -8  -4   8   63.98  381.94
  -8   4  -8  262.04  377.59
  -8  -4  -8   74.98  400.60
  -8   4   8  -32.23  389.11
  -8  -4   9  792.59  641.90
  -8   4  -9 2456.41  487.64
  -8   4   9 2450.88  445.30
  -8  -4  -9 1468.00  674.21
  -8   4 -10 1130.79  595.20
  -8  -4  10  732.45  592.42
  -8  -4 -10  995.57  371.99
  -8   4  10  822.17  559.43
  -8  -4  11 1169.35  459.84
  -8   4 -11 2301.30  727.23
  -8  -4 -11 2483.45  714.24
  -8   4  11 2573.59  499.78
  -8  -4  12  337.39  557.94
  -8   4 -12  429.05  354.28
  -8  -4 -12  969.75  582.60
  -8   4  12  860.91  550.25
  -8  -4  13  558.99  664.47
  -8   4 -13 -142.08  665.73
  -8  -4 -13 1803.58  432.37
  -8   4  13 1394.94  641.76
  -8  -4  14 1791.44  490.68
  -8   4 -14   39.40  753.32
  -8  -4 -14 2543.83  779.95
  -8   4  14 2170.61  485.02
  -8  -4  15  558.44  519.21
  -8   4 -15  114.95  308.82
  -8  -4 -15    3.50  508.88
  -8   4  15  -98.63  477.70
  -8  -4  16 1189.78  746.87
  -8   4 -16   15.39  748.04
  -8  -4 -16 1546.97  478.28
  -8   4  16  719.49  686.45
  -8  -4  17  190.75  388.78
  -8   4 -17  181.95  389.95
  -8  -4 -17  510.45  640.21
  -8   4  17  536.74  376.58
  -8  -4  18  709.48  720.95
  -8   4 -18  271.35  705.11
  -8   4  18  363.19  665.78
  -8   5   0  610.99  390.38
  -8  -5   0   50.72  457.24
  -8  -5   1   11.43  648.17
  -8   5  -1 3638.77  461.73
  -8  -5  -1 3468.16  473.14
  -8   5   1 3315.63  617.94
  -8   5  -2  573.78  354.11
  -8  -5   2 -390.60  261.10
  -8  -5  -2  -81.92  434.62
  -8   5   2  834.85  245.76
  -8  -5   3    7.02  318.39
  -8  -5  -3  -40.76  368.46
  -8   5   3 -141.47  328.41
  -8  -5   4  -21.25  386.06
  -8   5  -4  406.73  395.58
  -8  -5  -4  754.76  296.91
  -8   5   4  -68.97  431.33
  -8  -5   5 1235.21  421.38
  -8   5  -5  722.97  445.59
  -8  -5  -5 1301.77  505.47
  -8   5   5 -205.49  289.25
  -8   5  -6 2396.81  402.39
  -8  -5  -6  964.44  613.51
  -8   5   6   72.65  574.17
  -8   5  -7  712.57  283.50
  -8  -5  -7  235.31  299.56
  -8   5   7  -68.36  460.43
  -8   5  -8 1330.50  577.93
  -8  -5   8  747.44  556.33
  -8  -5  -8 1162.55  591.84
  -8   5   8  964.18  366.71
  -8  -5   9  477.97  518.17
  -8   5  -9  541.06  547.54
  -8  -5  -9  464.44  544.16
  -8   5   9  786.13  517.71
  -8  -5  10  -50.00  452.64
  -8   5 -10  166.87  443.22
  -8  -5 -10   87.52  276.57
  -8   5  10  567.74  443.51
  -8  -5  11  705.30  635.47
  -8   5 -11  861.57  402.18
  -8  -5 -11  821.88  614.02
  -8   5  11 1618.98  392.10
  -8  -5  12  522.55  383.35
  -8   5 -12 1646.28  630.61
  -8  -5 -12  754.63  603.49
  -8   5  12 1283.86  600.09
  -8  -5  13  532.50  407.92
  -8   5 -13 -249.31  618.26
  -8  -5 -13 1283.41  398.12
  -8   5  13 1102.22  619.35
  -8  -5  14  302.25  506.97
  -8   5 -14 -137.94  328.38
  -8  -5 -14  341.88  488.21
  -8   5  14  210.14  296.05
  -8  -5  15  936.96  709.71
  -8   5 -15  236.48  720.20
  -8  -5 -15 1730.51  718.66
  -8   5  15 1375.82  681.45
  -8  -5  16  419.29  404.47
  -8   5 -16  203.49  678.01
  -8  -5 -16  650.67  405.71
  -8   5  16  556.64  626.41
  -8  -5  17 1123.41  626.25
  -8   5 -17 -286.05  408.25
  -8  -5 -17  553.24  613.50
  -8   5  17  257.50  372.53
  -8  -5  18  934.34  722.78
  -8   5 -18  -35.36  717.78
  -8  -6   0    7.57  233.19
  -8   6   0  228.24  333.12
  -8  -6   1    3.40  615.25
  -8   6  -1 2900.65  563.94
  -8  -6  -1  -81.54  643.86
  -8   6   1 2786.78  419.30
  -8  -6   2  -49.25  438.76
  -8   6  -2  529.28  380.40
  -8   6   2  620.45  429.15
  -8  -6  -2  134.45  466.64
  -8  -6   3 1074.32  544.67
  -8  -6  -3 1558.13  389.68
  -8   6   3 1171.52  547.58
  -8  -6   4 1239.28  545.54
  -8  -6  -4 1459.27  617.27
  -8   6   4 1638.19  413.03
  -8  -6   5  133.58  204.15
  -8   6  -5  348.96  329.99
  -8  -6  -5   40.66  397.94
  -8   6   5 -136.89  221.26
  -8  -6   6  982.38  444.91
  -8   6  -6  678.58  469.20
  -8   6   6 -191.95  489.63
  -8  -6  -6  539.44  345.43
  -8   6  -7 -618.11  387.50
  -8  -6  -7  -11.26  269.16
  -8   6   7  113.89  415.11
  -8   6  -8 3139.23  534.09
  -8  -6  -8 2296.50  777.96
  -8   6   8 3907.15  581.40
  -8  -6   9  -60.45  231.92
  -8   6  -9  216.45  412.74
  -8  -6  -9  528.79  439.23
  -8   6   9   75.17  413.43
  -8  -6  10 1168.10  613.82
  -8   6 -10 1437.38  682.35
  -8   6  10 1332.53  625.74
  -8  -6 -10 1733.98  433.24
  -8  -6  11  922.27  625.90
  -8   6 -11 1135.08  676.81
  -8  -6 -11 2033.66  663.90
  -8   6  11 1291.07  401.81
  -8  -6  12  250.00  571.38
  -8   6 -12  966.47  374.62
  -8  -6 -12  -52.32  563.20
  -8   6  12  826.10  564.22
  -8  -6  13 2518.56  784.75
  -8   6 -13 1749.92  514.67
  -8  -6 -13 2676.47  508.27
  -8   6  13 1780.41  721.61
  -8  -6  14 -629.80  582.41
  -8   6 -14  553.65  611.39
  -8  -6 -14  311.83  580.97
  -8   6  14  971.28  365.59
  -8  -6  15 1329.40  482.93
  -8   6 -15 1423.99  772.39
  -8  -6 -15 1530.28  745.64
  -8   6  15 1226.23  715.84
  -8  -6  16  230.11  669.66
  -8   6 -16  316.05  414.02
  -8  -6 -16  704.98  403.63
  -8   6  16  907.88  642.86
  -8  -6  17  667.84  744.49
  -8   6 -17  795.08  757.18
  -8  -6 -17  998.56  475.52
  -8   6  17  712.98  444.86
  -8  -7   0 -450.51  411.09
  -8   7   0 2810.56  395.96
  -8  -7   1  975.72  547.03
  -8   7  -1 1026.59  482.94
  -8  -7  -1   49.37  551.80
  -8   7   1  965.08  510.38
  -8  -7   2 3462.02  755.85
  -8   7  -2 3611.21  694.75
  -8   7   2 4780.27  793.00
  -8  -7  -2 3164.13  831.65
  -8   7  -3  996.94  344.72
  -8  -7   3 1131.90  375.89
  -8  -7  -3 1845.69  422.57
  -8   7   3 1228.33  577.18
  -8  -7   4  890.09  603.64
  -8  -7  -4 2374.43  715.10
  -8   7   4 2017.23  429.66
  -8  -7   5 1981.74  604.30
  -8  -7  -5 1124.98  694.46
  -8   7   5 2388.00  647.74
  -8  -7   6 1289.26  543.65
  -8   7  -6 -103.99  524.81
  -8  -7  -6 1681.84  625.14
  -8   7   6 1462.24  589.37
  -8   7  -7  -49.15  534.70
  -8  -7  -7  970.56  404.92
  -8   7   7 1629.52  581.90
  -8   7  -8    6.49  538.29
  -8  -7  -8 1120.27  594.64
  -8   7   8  894.04  352.92
  -8   7  -9 -170.47  635.38
  -8  -7  -9 2134.04  680.67
  -8   7   9 2143.81  643.12
  -8   7 -10 -147.14  353.44
  -8  -7  10  763.39  545.45
  -8  -7 -10 1394.90  373.83
  -8   7  10  738.31  560.54
  -8  -7  11  994.13  355.08
  -8   7 -11  -91.55  353.02
  -8  -7 -11  566.00  575.54
  -8   7  11  682.84  350.18
  -8  -7  12  855.18  404.08
  -8   7 -12 1030.60  664.48
  -8  -7 -12  687.14  641.96
  -8   7  12 1817.68  633.78
  -8  -7  13  818.09  382.83
  -8   7 -13  861.46  617.17
  -8  -7 -13 -159.73  390.71
  -8   7  13  999.97  592.37
  -8  -7  14 1575.51  830.40
  -8   7 -14 1679.77  829.05
  -8  -7 -14 1805.13  510.31
  -8   7  14 2661.02  505.32
  -8  -7  15 1010.14  683.54
  -8   7 -15  404.52  428.36
  -8  -7 -15  287.28  647.30
  -8   7  15 1315.91  642.76
  -8  -7  16 1395.46  876.55
  -8   7 -16 2080.59  887.72
  -8  -7 -16 1955.57  827.55
  -8   7  16 2554.96  823.36
  -8  -7  17   76.62  644.37
  -8   7 -17  755.71  681.60
  -8   7  17  226.73  367.48
  -8  -8   0 7691.40  886.65
  -8   8   0 8496.24  824.35
  -8  -8   1  347.26  595.29
  -8   8  -1 1088.26  564.93
  -8  -8  -1 1215.01  656.38
  -8   8   1 1585.18  593.41
  -8  -8   2 2902.73  770.87
  -8   8  -2 4023.41  712.05
  -8   8   2 2378.42  732.45
  -8  -8  -2 1904.79  801.65
  -8  -8   3 4054.30  550.79
  -8   8  -3 2877.25  461.06
  -8  -8  -3 2541.50  551.39
  -8   8   3 2628.87  740.43
  -8  -8   4  239.80  532.09
  -8   8  -4  908.58  493.66
  -8  -8  -4  427.27  362.47
  -8   8   4  629.40  333.34
  -8  -8   5 3883.52  770.52
  -8  -8  -5 3784.60  891.24
  -8   8   5 2886.93  829.88
  -8  -8   6  509.55  491.57
  -8   8   6  711.95  520.68
  -8  -8  -6  279.19  573.21
  -8  -8   7 1529.59  390.65
  -8   8  -7  129.34  612.28
  -8  -8  -7 1577.15  466.67
  -8   8   7 2420.84  463.81
  -8   8  -8 -211.51  544.51
  -8  -8  -8 1493.58  620.08
   8   8  -8  401.65  321.45
  -8   8   8 1084.69  367.81
  -8   8  -9  -58.67  684.79
  -8  -8  -9 2597.47  717.65
   8   8  -9 1213.38  607.03
  -8   8   9 1737.63  677.89
  -8   8 -10  -43.68  554.21
  -8  -8 -10  630.92  372.95
  -8   8  10  587.85  551.32
  -8  -8  11 1548.42  673.42
  -8   8 -11  -22.74  689.97
  -8  -8 -11 1639.59  457.89
  -8   8  11 1486.57  448.39
  -8  -8  12 1196.99  729.65
  -8   8 -12 2160.64  759.19
  -8  -8 -12 -123.69  762.59
  -8   8  12 2100.36  465.79
  -8  -8  13  307.85  539.19
  -8   8 -13 -153.97  332.00
  -8  -8 -13   -0.87  525.01
  -8   8  13 1171.55  513.84
  -8  -8  14 1133.11  698.11
  -8   8 -14 1230.60  453.06
  -8  -8 -14  -79.14  429.37
  -8   8  14 1269.85  655.04
  -8  -8  15  867.14  615.45
  -8   8 -15  400.48  612.63
  -8  -8 -15 -102.68  329.23
  -8   8  15  356.21  327.01
  -8  -8  16  889.88  502.75
  -8   8 -16  720.79  812.20
  -8   8  16 2074.00  750.50
  -8  -9   0 2403.27  829.65
  -8   9   0 2514.15  486.50
  -8  -9   1 1359.33  753.81
  -8   9  -1 1851.97  703.08
  -8   9   1 3020.61  527.05
  -8  -9  -1 2834.17  541.52
  -8  -9   2 1034.13  430.06
  -8   9  -2 2110.60  632.93
  -8  -9  -2 2346.12  752.47
  -8   9   2 1558.11  679.37
  -8  -9   3 2790.04  802.14
  -8   9  -3 2889.40  484.23
  -8  -9  -3 2538.16  848.93
  -8   9   3 1908.78  734.11
  -8  -9   4 1188.90  635.99
  -8   9  -4  374.34  575.06
  -8  -9  -4 1316.36  444.93
  -8   9   4 1330.41  405.39
  -8  -9   5 1536.57  420.97
  -8   9  -5  602.63  352.96
  -8  -9  -5 1164.86  693.53
  -8   9   5 1393.13  671.61
  -8  -9   6  501.69  395.72
  -8  -9  -6 2456.09  770.55
   8  -9   6 2952.23  692.12
  -8   9   6 1993.82  729.45
  -8  -9  -7 1210.55  433.74
   8   9  -7 1201.36  584.64
  -8   9   7 -235.25  639.60
  -8   9  -8 -111.06  297.69
  -8  -9  -8 1156.32  373.63
   8   9  -8  452.40  471.85
  -8   9   8 -222.39  328.78
  -8   9  -9 -162.77  307.56
  -8  -9  -9  394.48  574.19
   8   9  -9  391.10  462.58
  -8   9   9  557.50  323.21
  -8   9 -10   -4.84  403.13
  -8  -9 -10 2322.59  714.55
  -8   9  10 1774.49  668.53
  -8   9 -11   30.12  428.51
  -8  -9 -11 1368.59  462.66
  -8   9  11 1578.21  651.33
  -8  -9  12 1386.11  437.80
  -8   9 -12  -46.32  646.61
  -8  -9 -12 -130.48  442.83
  -8   9  12 1268.61  418.20
  -8  -9  13 1022.15  461.91
  -8   9 -13 1500.66  750.01
  -8  -9 -13   -4.34  740.76
  -8   9  13 1901.87  712.86
  -8  -9  14  351.99  661.27
  -8   9 -14 1033.45  666.16
  -8  -9 -14  -16.98  602.86
  -8   9  14  479.96  605.81
  -8  -9  15 1765.30  715.51
  -8   9 -15  898.66  708.50
  -8  -9 -15  -95.90  417.46
  -8   9  15  686.00  409.73
  -8 -10   0  842.22  737.22
  -8  10   0 1557.70  654.00
  -8 -10   1 3040.47  881.15
  -8  10  -1 2642.94  840.27
  -8 -10  -1 2913.16  967.47
  -8  10   1 3214.45  591.02
  -8 -10   2 3683.93  653.21
  -8  10  -2 4101.75  840.50
  -8  10   2 4483.98  902.39
  -8 -10   3 1762.83  844.59
  -8  10  -3 2940.98  498.61
  -8 -10  -3 2515.60  859.10
  -8 -10   4 2824.95  493.36
  -8  10  -4  288.80  402.71
  -8 -10  -4 1905.23  778.62
  -8  10   4 2055.65  777.10
  -8 -10  -5  701.87  396.19
   8 -10   5 1004.07  587.24
  -8  10   5 -101.78  347.08
  -8 -10  -6 4822.14 1023.27
   8  10  -6 4082.92  843.12
   8 -10   6 4521.39  602.01
  -8  10   6 -219.54  861.88
  -8 -10  -7  653.73  653.73
   8  10  -7  599.85  326.07
   8 -10   7  204.38  558.27
  -8  10   7    5.28  583.02
  -8 -10  -8 2045.18  522.02
   8  10  -8 1244.37  672.10
  -8  10   8   18.08  729.72
  -8  10  -9  403.51  508.75
  -8 -10  -9  -10.29  367.47
   8  10  -9  908.78  489.39
  -8  10   9  -47.70  355.22
  -8  10 -10 1328.36  769.20
  -8 -10 -10 1653.91  829.11
   8  10 -10 1254.34  672.22
  -8  10  10 1964.79  757.56
  -8  10 -11  895.26  644.70
  -8 -10 -11  -86.19  717.24
  -8  10  11  949.33  646.23
  -8  10 -12 1129.48  658.37
  -8 -10 -12  -44.65  442.59
  -8  10  12 1155.03  635.08
  -8  10 -13  127.54  384.81
  -8 -10 -13  -72.32  438.75
  -8  10  13 1176.35  392.62
  -8 -10  14  -74.17  567.40
  -8  10 -14  222.69  348.71
  -8 -10 -14   43.84  573.03
  -8  10  14  131.00  519.94
  -8  11   0 1530.26  683.31
  -8 -11   0   24.34  708.89
  -8 -11   1  211.13  484.10
  -8  11  -1 2078.06  442.44
  -8 -11  -1 -117.08  743.81
  -8  11   1 1378.30  694.28
  -8 -11   2  378.59  771.05
  -8  11  -2 1523.22  427.48
  -8 -11  -2  -18.34  748.82
  -8  11   2 1206.73  458.73
  -8  11  -3  420.54  398.68
  -8 -11   3 2001.62  454.41
  -8 -11  -3 -172.44  449.82
  -8  11   3 1987.11  694.30
  -8 -11  -4 1071.77  752.31
   8  11  -4 1434.96  426.17
   8 -11   4 1342.17  709.97
  -8  11   4  -29.55  699.25
  -8 -11  -5 1965.85  815.84
   8  11  -5 2144.36  727.21
   8 -11   5 2142.84  538.50
  -8  11   5  -77.96  757.94
  -8 -11  -6 1251.91  457.92
   8  11  -6  904.58  385.94
   8 -11   6  853.46  640.46
  -8  11   6   20.76  426.51
  -8 -11  -7  441.76  725.32
   8  11  -7 1352.29  620.02
   8 -11   7 1191.47  659.15
  -8  11   7 -205.72  686.31
  -8 -11  -8  783.01  751.32
   8  11  -8  866.76  623.96
   8 -11   8 1004.13  438.48
  -8  11   8   56.47  722.89
  -8 -11  -9 1443.05  793.98
   8  11  -9 1301.75  649.72
  -8  11   9  -71.43  740.38
  -8 -11 -10  585.07  441.02
   8  11 -10  766.83  561.60
  -8  11  10   81.90  389.37
  -8  11 -11  852.59  717.36
  -8 -11 -11  -93.31  856.88
  -8  11  11 1224.77  460.93
  -8  11 -12 1782.50  787.48
  -8 -11 -12   60.53  896.84
  -8  11  12 2085.18  797.83
  -8  11 -13 1230.64  661.26
  -8 -11 -13  -62.06  727.29
  -8  11  13 -134.95  607.81
  -8  12   0  -41.23  313.67
  -8 -12   0  -69.75  531.17
  -8 -12   1 -245.88  548.38
  -8  12  -1    6.44  534.30
  -8 -12  -1 -179.88  339.35
  -8  12   1  -17.38  529.35
  -8 -12   2 3503.88  556.99
  -8  12  -2 1018.92  489.51
  -8 -12  -2 -170.16  824.96
  -8  12   2  -26.56  822.71
  -8 -12   3  456.17  422.95
  -8 -12  -3   89.56  725.32
   8 -12   3 1007.52  722.51
  -8  12   3 1497.65  464.59
  -8 -12  -4   68.54  466.41
   8 -12   4 1510.88  480.90
  -8  12   4  973.84  478.18
   8  12  -4 1060.56  665.04
  -8 -12  -5 2422.95  876.40
   8  12  -5 3467.62  560.54
   8 -12   5 2429.20  902.00
  -8  12   5  100.48  893.57
  -8 -12  -6  841.99  662.07
   8  12  -6  -99.88  570.45
   8 -12   6 1008.65  636.60
  -8  12   6   55.32  658.75
  -8 -12  -7 3153.59  575.71
   8  12  -7    8.12  773.41
   8 -12   7 3454.86  589.92
  -8  12   7 -201.61  604.43
  -8 -12  -8  635.82  399.54
   8  12  -8    1.10  551.39
   8 -12   8  642.37  608.75
  -8  12   8   39.75  394.22
  -8 -12  -9 2618.39  799.73
   8  12  -9  -18.00  654.28
  -8  12   9  -29.29  760.39
  -8 -12 -10 1018.17  647.95
   8  12 -10    9.76  566.64
  -8  12  10  -69.43  645.31
  -8 -12 -11 1066.67  447.16
   8  12 -11    2.90  589.56
  -8  12  11 -155.06  443.43
  -8  12 -12  503.40  676.05
  -8  12  12  305.42  410.75
  -8  13   0   25.10  556.10
  -8 -13   0 -290.82  570.82
  -8 -13   1 3743.18  677.61
  -8  13  -1 4323.84  667.12
  -8 -13  -1   88.23 1017.33
  -8  13   1 4570.76  696.42
  -8 -13   2   -0.75  388.35
  -8 -13  -2  176.61  404.61
   8 -13   2  -75.98  412.10
  -8  13   2 1163.97  421.36
   8  13  -3 2559.73  775.94
  -8 -13  -3  -34.42  790.78
   8 -13   3   48.66  819.90
  -8  13   3 1577.25  877.68
  -8 -13  -4   44.20  889.08
   8  13  -4 3893.65  620.70
   8 -13   4  -47.08  919.38
  -8  13   4 2886.27 1013.91
  -8 -13  -5  -50.03  600.17
   8  13  -5  -43.03  577.14
   8 -13   5  -99.47  403.57
  -8  13   5 1099.23  456.88
  -8 -13  -6 1784.84  453.43
   8  13  -6  -46.55  420.08
   8 -13   6  -32.27  706.41
  -8  13   6    0.38  810.05
  -8 -13  -7  938.41  602.24
   8  13  -7   36.88  567.48
   8 -13   7   34.90  625.78
  -8  13   7   64.70  656.16
  -8 -13  -8 2854.32  937.53
   8  13  -8  -40.81  838.89
   8 -13   8 3742.04  598.60
  -8  13   8  -72.21  973.54
  -8 -13  -9 1439.31  459.24
   8  13  -9   -7.06  657.42
   8 -13   9   -9.31  712.83
  -8  13   9  -31.35  469.38
  -8 -13 -10  731.73  436.63
   8  13 -10    4.24  621.96
   8  13 -11   29.28  469.33
  -8  13  11   38.64  568.21
  -8  14   0   14.95  279.60
  -8 -14   0  -64.05  432.12
  -8 -14   1  -67.40  414.49
  -8  14  -1   -2.16  402.61
  -8 -14  -1   17.13  425.18
   8 -14   1 1100.32  472.93
  -8  14   1 1708.63  733.98
  -8 -14  -2  -81.69  709.16
   8  14  -2 1124.12  452.27
   8 -14   2   27.81  769.70
  -8  14   2 1484.00  810.16
  -8 -14  -3   97.74  786.16
   8  14  -3 1568.16  790.43
   8 -14   3 -143.98  865.72
  -8  14   3 2879.05  631.71
  -8 -14  -4   22.52  437.26
   8  14  -4 1661.15  688.74
   8 -14   4  -84.32  472.04
  -8  14   4 1916.67  802.87
  -8 -14  -5  -67.29  629.72
   8  14  -5  840.32  402.11
   8 -14   5  -17.47  705.63
  -8  14   5 -113.04  727.52
  -8 -14  -6   11.19  559.23
   8  14  -6  -19.43  571.23
   8 -14   6   -7.77  391.08
  -8  14   6 1154.44  688.03
  -8 -14  -7  364.64  335.12
   8  14  -7   18.95  320.23
   8 -14   7  -48.54  582.86
  -8  14   7 -103.18  394.39
  -8 -14  -8 1553.08  472.56
   8  14  -8  -65.37  696.40
   8 -14   8 -131.40  772.79
  -8  14   8 -100.02  836.58
   8  14  -9    5.98  237.78
   8 -14   9  -17.63  266.24
  -8  15   0   43.56  346.72
  -8 -15   0 -122.13  343.72
  -8 -15  -1    3.24  452.23
   8  15  -1  -15.08  277.44
   8 -15   1   63.14  494.01
  -8  15   1  -92.61  500.01
   8  15  -2 2188.61 1037.70
   8 -15   2 4719.04  804.12
  -8  15   2 4940.26  835.54
  -8 -15  -3 -451.85  481.68
   8  15  -3 1796.26  506.15
   8 -15   3 -117.00  827.38
  -8  15   3 2656.76  862.50
  -8 -15  -4  180.92  665.14
   8  15  -4  959.98  682.13
   8 -15   4  -41.10  745.97
  -8  15   4  605.90  759.13
  -8 -15  -5  -13.94  783.75
   8  15  -5 2352.89  843.58
   8 -15   5  119.44  606.15
  -8  15   5 2984.10  668.48
  -8 -15  -6  -27.79  291.03
   8  15  -6  133.28  322.91
   8 -15   6   55.07  565.10
  -8  15   6   69.25  361.52
   8  15  -7   -1.48  553.49
   8 -15   7 -120.88  400.34
  -8  15   7  -62.80  631.17
  -8 -16   0    5.11  445.60
   8 -16   0 1246.35  534.01
  -8 -16  -1  253.00  390.15
   8  16  -1  374.84  409.78
   8 -16   1   -6.37  740.01
  -8  16   1  430.71  450.16
  -8 -16  -2    5.98  431.26
   8  16  -2 1261.69  746.22
   8 -16   2 1188.58  842.65
  -8  16   2  876.32  815.07
  -8 -16  -3 -102.52  485.49
   8 -16   3    5.02  347.70
  -9   0  -4  230.67  444.72
  -9   0  -5  444.86  502.49
  -9   0  -6  643.25  559.54
  -9   0  -7   37.84  390.94
  -9   0  -8  203.92  296.10
  -9   0  -9  665.49  581.01
  -9   0   9  408.48  566.82
  -9   0 -10  320.43  348.85
  -9   0  10  415.94  335.77
  -9   0 -11 2548.65  829.93
  -9   0  11 2629.70  820.72
  -9   0 -12  469.21  347.64
  -9   0  12   29.37  330.09
  -9   0 -13 -108.90  726.61
  -9   0  13 1930.03  726.18
  -9  -1  -3  221.98  447.01
  -9  -1  -4  598.43  327.26
  -9   1  -5 -115.00  414.23
  -9  -1  -5  338.68  429.86
  -9   1  -6 -141.05  615.31
  -9  -1  -6 2253.76  463.65
  -9   1  -7 -116.51  261.00
  -9  -1  -7  561.22  424.69
  -9   1  -8 1594.34  681.80
  -9  -1  -8 2002.60  702.44
  -9   1   8 1454.20  419.01
  -9   1  -9 1214.81  681.79
  -9  -1  -9 1925.82  717.65
  -9   1   9 1662.88  663.68
  -9  -1  10 1054.87  672.27
  -9   1 -10 1911.47  718.39
  -9  -1 -10 1404.02  721.64
  -9   1  10 1389.12  679.38
  -9  -1  11  583.47  368.52
  -9   1 -11  800.58  634.77
  -9  -1 -11  398.53  642.56
  -9   1  11 1052.93  601.32
  -9  -1  12  269.20  598.02
  -9   1 -12  559.66  380.43
  -9  -1 -12 -178.77  638.21
  -9   1  12  998.69  620.77
  -9  -1  13  798.01  641.91
  -9   1 -13  231.60  641.58
  -9  -1 -13    0.66  665.36
  -9   1  13  707.61  404.08
  -9  -2  -2 2483.52  680.49
  -9  -2  -3  343.46  473.65
  -9  -2  -4 2191.62  709.94
  -9  -2  -5  503.64  323.82
  -9   2  -6   38.53  234.95
  -9  -2  -6  206.61  418.05
  -9   2  -7 -318.14  397.72
  -9   2   7 -191.88  240.97
  -9  -2  -7  463.68  254.79
  -9   2  -8 1309.70  523.50
  -9  -2  -8 -161.87  530.38
  -9   2   8  -67.65  482.87
  -9   2  -9  540.63  365.43
  -9  -2  -9  678.89  378.17
  -9   2   9  647.59  358.69
  -9   2 -10  364.03  603.63
  -9  -2 -10 1099.24  630.59
  -9   2  10  444.96  571.63
  -9  -2  11  463.77  580.50
  -9   2 -11  665.31  371.28
  -9  -2 -11  474.58  381.76
  -9   2  11  316.83  355.69
  -9  -2  12 1801.27  749.96
  -9   2 -12 1971.00  756.09
  -9  -2 -12 -170.58  756.66
  -9   2  12 1461.56  709.46
  -9  -2  13 -241.83  313.75
  -9   2 -13 -246.77  516.63
  -9  -2 -13   13.66  312.00
  -9   2  13    6.30  297.42
  -9  -3  -1 1143.29  365.69
  -9  -3  -2  635.90  526.67
  -9  -3  -3  450.44  322.87
  -9  -3  -4  399.40  497.12
  -9  -3  -5 1452.95  412.74
  -9  -3  -6 -116.28  413.76
  -9   3   6  -45.34  391.08
  -9   3  -7 -327.61  294.27
  -9  -3  -7  815.03  304.13
  -9   3   7   26.82  468.11
  -9   3  -8  -70.67  546.38
  -9   3   8  632.82  522.70
  -9  -3  -8  837.08  572.89
  -9  -3  -9  344.56  341.22
  -9   3   9  442.67  535.74
  -9   3 -10  346.38  617.66
  -9  -3 -10  976.77  626.77
  -9   3  10  837.95  615.84
  -9   3 -11  723.32  389.06
  -9  -3 -11  756.54  388.97
  -9   3  11  439.81  378.41
  -9  -3  12  484.01  404.88
  -9   3 -12  321.93  660.30
  -9  -3 -12 1225.62  671.49
  -9   3  12  890.46  658.88
  -9  -3  13  190.91  637.33
  -9   3 -13  665.51  391.54
  -9  -3 -13  630.87  656.21
  -9   3  13  211.41  377.47
  -9  -4   0  228.71  276.35
  -9  -4  -1 2034.72  681.84
  -9  -4  -2  125.23  267.92
  -9  -4  -3 1709.57  657.84
  -9  -4  -4  547.59  321.89
  -9  -4  -5  720.92  510.79
  -9   4   5   21.60  472.96
  -9  -4  -6  760.56  500.34
  -9   4   6  136.79  288.33
  -9  -4  -7  373.83  516.75
  -9   4   7  263.26  481.20
  -9   4  -8  828.40  561.31
  -9  -4  -8 1006.21  586.68
  -9   4   8  322.33  351.06
  -9   4  -9  449.86  319.73
  -9  -4  -9  265.88  325.37
  -9   4   9  -74.53  506.16
  -9   4 -10   98.90  535.82
  -9  -4 -10  431.95  552.68
  -9   4  10  465.58  547.38
  -9   4 -11  321.70  519.00
  -9  -4 -11   56.70  314.45
  -9   4  11  245.20  508.13
  -9   4 -12  395.73  646.86
  -9  -4 -12  686.99  654.06
  -9   4  12  868.33  642.91
  -9  -5   0  543.20  350.39
  -9  -5  -1  760.82  571.54
  -9  -5  -2  699.87  356.51
  -9  -5  -3  396.16  531.03
  -9  -5  -4  475.89  308.37
  -9   5   4   -9.31  464.41
  -9   5   5 -217.19  435.56
  -9  -5  -5  724.59  487.51
  -9  -5  -6  580.26  304.69
  -9   5   6 -153.23  277.24
  -9  -5  -7 1209.32  641.93
  -9   5   7  853.55  597.61
  -9  -5  -8  713.89  607.32
  -9   5   8  713.33  360.71
  -9   5  -9  692.43  649.78
  -9   5   9 1158.10  670.67
  -9  -5  -9 1661.45  443.40
  -9   5 -10  584.74  603.54
  -9  -5 -10  912.14  648.63
  -9   5  10  508.00  365.94
  -9   5 -11 1096.78  437.10
  -9  -5 -11  840.17  430.75
  -9   5  11 1301.91  678.24
  -9   5 -12  348.77  375.18
  -9  -5 -12  518.85  618.21
  -9   5  12  341.22  588.10
  -9  -6   0  -37.64  406.41
  -9  -6   1  -47.93  458.26
  -9  -6  -1 -306.40  475.44
  -9  -6  -2 2346.07  479.75
  -9  -6  -3  465.75  420.76
  -9   6   3  -80.36  235.43
  -9  -6  -4  871.75  359.47
  -9   6   4  -15.17  529.02
  -9  -6  -5  878.11  566.69
  -9   6   5  167.72  514.51
  -9  -6  -6  431.64  326.56
  -9   6   6  120.13  503.99
  -9  -6  -7 1104.19  651.13
  -9   6   7  832.65  612.10
  -9  -6  -8  879.05  574.20
  -9   6   8  251.33  327.82
  -9  -6  -9  617.46  381.01
  -9   6   9  616.30  592.92
  -9   6 -10  612.52  408.31
  -9  -6 -10 1230.24  672.37
  -9   6  10 1112.57  402.31
  -9   6 -11  -12.25  598.18
  -9  -6 -11   74.63  597.22
  -9   6  11 1189.60  606.77
  -9  -7   0  535.35  578.95
  -9  -7   1 -150.70  669.10
  -9  -7  -1 2276.91  693.41
  -9  -7   2   35.27  545.29
  -9  -7  -2  407.08  338.25
  -9   7   2  364.71  505.27
  -9  -7  -3  671.38  483.58
  -9   7   3  -81.30  267.92
  -9  -7  -4  796.41  391.70
  -9   7   4  471.00  571.41
  -9   7   5 1060.49  400.11
  -9  -7  -5 1264.59  670.09
  -9  -7  -6 1419.77  730.03
  -9   7   6 1652.12  689.78
  -9  -7  -7  219.55  375.27
  -9   7   7 1200.41  580.30
  -9  -7  -8 1475.11  703.75
  -9   7   8  858.21  408.28
  -9  -7  -9 1262.20  457.44
  -9   7   9  899.92  685.47
  -9  -7 -10 1261.01  691.78
  -9   7  10  769.41  416.15
  -9  -7 -11  -35.86  463.21
  -9  -8   0  766.02  648.30
  -9  -8   1 3796.84  925.38
  -9  -8  -1 3594.15  940.29
  -9  -8   2   50.08  580.86
  -9  -8  -2  329.60  373.37
  -9   8   2  849.39  548.57
  -9  -8   3 3450.18  591.27
  -9  -8  -3 3820.88  941.71
  -9   8   3 3276.76  568.29
  -9  -8  -4  513.92  407.32
  -9   8   4 1024.58  593.93
  -9  -8  -5  629.10  604.81
  -9   8   5  176.84  550.34
  -9  -8  -6 1647.46  781.13
  -9   8   6 1464.83  718.01
  -9  -8  -7  -18.86  337.57
  -9   8   7  733.68  517.64
  -9  -8  -8 1882.31  744.35
  -9   8   8  879.11  439.47
  -9  -8  -9  672.35  675.63
  -9   8   9  790.87  646.03
  -9  -8 -10  562.32  414.38
  -9  -9   0 1028.94  461.32
  -9  -9   1 1139.59  729.56
  -9  -9  -1  803.31  727.38
  -9   9   1 1142.91  643.43
  -9  -9   2 1618.88  709.93
  -9  -9  -2 1009.58  454.33
  -9   9   2  371.75  633.51
  -9  -9   3 1198.90  703.77
  -9  -9  -3 1067.09  758.39
  -9   9   3  908.29  416.15
  -9  -9  -4 1461.54  764.91
  -9   9   4 1127.71  698.99
  -9  -9  -5 1414.61  497.59
  -9   9   5  897.78  702.48
  -9  -9  -6 1057.21  759.48
  -9   9   6 1068.72  441.34
  -9  -9  -7  625.75  734.88
  -9   9   7  948.80  682.70
  -9  -9  -8  452.54  403.43
  -9   9   8  331.76  619.05
  -9 -10   0 2299.06  600.14
  -9  10   0 2814.55  834.09
  -9 -10   1  760.30  674.17
  -9 -10  -1  206.54  683.74
  -9  10   1  416.81  364.28
  -9 -10   2 1881.73  551.19
  -9 -10  -2 1211.07  880.49
  -9  10   2 2201.61  782.69
  -9 -10   3  920.02  663.06
  -9 -10  -3  250.21  427.00
  -9  10   3  458.01  374.01
  -9 -10   4 1095.69  474.15
  -9 -10  -4  785.15  796.41
  -9  10   4 1481.60  727.69
  -9 -10  -5 1754.81  853.25
  -9  10   5  932.13  760.60
  -9 -10  -6  298.88  442.70
  -9  10   6  640.87  405.27
  -9  10   7 1083.06  738.75
  -9  11   0   39.53  477.78
  -9 -11   1 1444.42  525.95
  -9 -11  -1 1933.57  538.99
  -9  11   1  179.75  447.45
  -9 -11   2  405.82  605.74
  -9 -11  -2 -291.60  613.69
  -9  11   2  189.13  541.18
  -9 -11   3  480.83  734.12
  -9 -11  -3  938.62  801.59
  -9  11   3  427.13  693.09
  -9 -11   4  961.22  803.53
  -9 -11  -4 1086.38  530.42
  -9  11   4  854.21  471.33
   0   0   0    0.00    0.00
;
_shelx_hkl_checksum              82272
loop_
_space_group_symop_operation_xyz
'x, y, z'
'-x+1/2, -y, z+1/2'
'x+1/2, -y+1/2, -z'
'-x, y+1/2, -z+1/2'
loop_
_atom_site_label
_atom_site_type_symbol
_atom_site_fract_x
_atom_site_fract_y
_atom_site_fract_z
_atom_site_U_iso_or_equiv
_atom_site_adp_type
_atom_site_occupancy
_atom_site_site_symmetry_order
_atom_site_calc_flag
_atom_site_refinement_flags_posn
_atom_site_refinement_flags_adp
_atom_site_refinement_flags_occupancy
_atom_site_disorder_assembly
_atom_site_disorder_group
C1 C 0.5331(17) 0.4890(4) 0.7857(4) 0.035(3) Uani 1 1 d . . . . .
C2 C 0.5696(15) 0.4867(4) 0.7324(4) 0.030(3) Uani 1 1 d . . . . .
C3 C 0.6047(14) 0.4339(4) 0.7061(5) 0.034(3) Uani 1 1 d . . . . .
H3 H 0.6169 0.3955 0.7206 0.041 Uiso 1 1 calc R U . . .
C4 C 0.6182(14) 0.4477(5) 0.6558(4) 0.030(3) Uani 1 1 d . . . . .
H4 H 0.6466 0.4214 0.6291 0.036 Uiso 1 1 calc R U . . .
C5 C 0.5815(15) 0.5093(5) 0.6512(4) 0.034(3) Uani 1 1 d . . . . .
C6 C 0.5608(18) 0.5408(4) 0.6058(4) 0.034(3) Uani 1 1 d . . . . .
C7 C 0.5302(17) 0.6001(5) 0.6017(4) 0.032(3) Uani 1 1 d . . . . .
C8 C 0.5039(16) 0.6327(5) 0.5549(5) 0.042(4) Uani 1 1 d . . . . .
H8 H 0.4983 0.6164 0.5217 0.051 Uiso 1 1 calc R U . . .
C9 C 0.4890(19) 0.6903(5) 0.5674(4) 0.048(4) Uani 1 1 d . . . . .
H9 H 0.4680 0.7220 0.5445 0.058 Uiso 1 1 calc R U . . .
C10 C 0.5100(16) 0.6958(5) 0.6208(4) 0.036(3) Uani 1 1 d . . . . .
C11 C 0.5239(17) 0.7492(4) 0.6476(4) 0.032(3) Uani 1 1 d . . . . .
C12 C 0.5532(15) 0.7551(4) 0.6990(4) 0.028(2) Uani 1 1 d . . . . .
C13 C 0.5787(14) 0.8093(5) 0.7261(4) 0.033(3) Uani 1 1 d . . . . .
H13 H 0.5810 0.8481 0.7120 0.039 Uiso 1 1 calc R U . . .
C14 C 0.5990(13) 0.7952(5) 0.7756(5) 0.033(3) Uani 1 1 d . . . . .
H14 H 0.6207 0.8224 0.8024 0.040 Uiso 1 1 calc R U . . .
C15 C 0.5818(12) 0.7322(5) 0.7805(5) 0.029(3) Uani 1 1 d . . . . .
C16 C 0.5788(15) 0.7013(5) 0.8248(4) 0.030(3) Uani 1 1 d . . . . .
C17 C 0.5492(18) 0.6404(4) 0.8297(4) 0.033(3) Uani 1 1 d . . . . .
C18 C 0.5198(19) 0.6090(5) 0.8753(5) 0.047(4) Uani 1 1 d . . . . .
H18 H 0.5140 0.6260 0.9083 0.057 Uiso 1 1 calc R U . . .
C19 C 0.5016(18) 0.5512(5) 0.8643(4) 0.044(4) Uani 1 1 d . . . . .
H19 H 0.4803 0.5200 0.8877 0.053 Uiso 1 1 calc R U . . .
C20 C 0.5197(19) 0.5454(5) 0.8123(4) 0.041(3) Uani 1 1 d . . . . .
C21 C 0.5628(19) 0.5053(5) 0.5576(4) 0.040(3) Uani 1 1 d . . . . .
C22 C 0.428(2) 0.4939(5) 0.5312(5) 0.046(4) Uani 1 1 d . . . . .
C23 C 0.428(3) 0.4600(6) 0.4866(5) 0.058(5) Uani 1 1 d . . . . .
C24 C 0.569(3) 0.4363(6) 0.4707(5) 0.062(5) Uani 1 1 d . . . . .
C25 C 0.711(2) 0.4456(6) 0.4958(6) 0.054(4) Uani 1 1 d . . . . .
C26 C 0.7102(19) 0.4809(5) 0.5390(5) 0.044(3) Uani 1 1 d . . . . .
C27 C 0.5097(16) 0.8058(4) 0.6176(4) 0.035(3) Uani 1 1 d . . . . .
C28 C 0.3671(17) 0.8316(5) 0.6056(5) 0.039(3) Uani 1 1 d . . . . .
C29 C 0.3534(18) 0.8833(6) 0.5767(5) 0.047(3) Uani 1 1 d . . . . .
C30 C 0.495(2) 0.9093(5) 0.5600(5) 0.048(4) Uani 1 1 d . . . . .
C31 C 0.6397(19) 0.8855(5) 0.5722(5) 0.046(3) Uani 1 1 d . . . . .
C32 C 0.6434(19) 0.8340(5) 0.6010(5) 0.043(3) Uani 1 1 d . . . . .
C33 C 0.6047(15) 0.7350(5) 0.8730(5) 0.035(3) Uani 1 1 d . . . . .
C34 C 0.4849(18) 0.7658(5) 0.8975(5) 0.046(4) Uani 1 1 d . . . . .
C35 C 0.511(2) 0.7950(6) 0.9430(5) 0.058(5) Uani 1 1 d . . . . .
C36 C 0.662(3) 0.7953(6) 0.9632(5) 0.066(5) Uani 1 1 d . . . . .
C37 C 0.789(2) 0.7651(6) 0.9408(6) 0.055(4) Uani 1 1 d . . . . .
C38 C 0.7570(18) 0.7354(5) 0.8949(5) 0.043(3) Uani 1 1 d . . . . .
C39 C 1.1419(18) 0.6497(6) 0.7338(6) 0.050(4) Uani 1 1 d . . . . .
H39 H 1.2065 0.6366 0.7634 0.060 Uiso 1 1 calc R U . . .
H39A H 1.2188 0.6619 0.7070 0.060 Uiso 1 1 calc R U . . .
C40 C 1.0462(19) 0.7032(6) 0.7492(7) 0.060(4) Uani 1 1 d . . . . .
H40 H 0.9764 0.7156 0.7206 0.072 Uiso 1 1 calc R U . . .
H40A H 0.9754 0.6926 0.7781 0.072 Uiso 1 1 calc R U . . .
C41 C 1.1500(19) 0.7536(7) 0.7641(7) 0.067(5) Uani 1 1 d . . . . .
H41 H 1.2214 0.7639 0.7353 0.080 Uiso 1 1 calc R U . . .
H41A H 1.2194 0.7412 0.7928 0.080 Uiso 1 1 calc R U . . .
C42 C 1.057(2) 0.8082(7) 0.7795(8) 0.093(7) Uani 1 1 d . . . . .
H42 H 1.0168 0.8285 0.7491 0.139 Uiso 1 1 calc R U . . .
H42A H 1.1274 0.8351 0.7985 0.139 Uiso 1 1 calc R U . . .
H42B H 0.9653 0.7965 0.8009 0.139 Uiso 1 1 calc R U . . .
C43 C 0.9449(16) 0.6177(5) 0.6700(4) 0.040(3) Uani 1 1 d . . . . .
H43 H 0.8860 0.5829 0.6562 0.048 Uiso 1 1 calc R U . . .
H43A H 0.8636 0.6463 0.6828 0.048 Uiso 1 1 calc R U . . .
C44 C 1.0365(19) 0.6466(5) 0.6274(5) 0.045(3) Uani 1 1 d . . . . .
H44 H 1.1251 0.6200 0.6164 0.054 Uiso 1 1 calc R U . . .
H44A H 1.0847 0.6843 0.6395 0.054 Uiso 1 1 calc R U . . .
C45 C 0.9252(18) 0.6591(5) 0.5827(5) 0.047(4) Uani 1 1 d . . . . .
H45 H 0.8882 0.6209 0.5682 0.056 Uiso 1 1 calc R U . . .
H45A H 0.8290 0.6808 0.5950 0.056 Uiso 1 1 calc R U . . .
C46 C 1.004(2) 0.6949(6) 0.5417(5) 0.057(5) Uani 1 1 d . . . . .
H46 H 1.0167 0.7360 0.5532 0.086 Uiso 1 1 calc R U . . .
H46A H 0.9359 0.6941 0.5112 0.086 Uiso 1 1 calc R U . . .
H46B H 1.1096 0.6779 0.5338 0.086 Uiso 1 1 calc R U . . .
C47 C 1.1567(17) 0.5489(5) 0.6975(6) 0.046(3) Uani 1 1 d . . . . .
H47 H 1.2065 0.5306 0.7279 0.055 Uiso 1 1 calc R U . . .
H47A H 1.2448 0.5668 0.6772 0.055 Uiso 1 1 calc R U . . .
C48 C 1.0785(16) 0.4994(5) 0.6658(5) 0.044(3) Uani 1 1 d . . . . .
H48 H 0.9740 0.4881 0.6813 0.053 Uiso 1 1 calc R U . . .
H48A H 1.0568 0.5144 0.6311 0.053 Uiso 1 1 calc R U . . .
C49 C 1.1852(17) 0.4454(5) 0.6627(6) 0.047(3) Uani 1 1 d . . . . .
H49 H 1.1888 0.4258 0.6963 0.056 Uiso 1 1 calc R U . . .
H49A H 1.2962 0.4580 0.6539 0.056 Uiso 1 1 calc R U . . .
C50 C 1.126(2) 0.4014(6) 0.6234(6) 0.062(4) Uani 1 1 d . . . . .
H50 H 1.0156 0.3894 0.6316 0.093 Uiso 1 1 calc R U . . .
H50A H 1.1965 0.3664 0.6235 0.093 Uiso 1 1 calc R U . . .
H50B H 1.1284 0.4200 0.5898 0.093 Uiso 1 1 calc R U . . .
C51 C 0.9328(18) 0.5733(6) 0.7558(5) 0.049(3) Uani 1 1 d . . . . .
H51 H 0.8527 0.6046 0.7637 0.059 Uiso 1 1 calc R U . . .
H51A H 0.8734 0.5388 0.7418 0.059 Uiso 1 1 calc R U . . .
C52 C 1.016(2) 0.5543(7) 0.8053(5) 0.056(4) Uani 1 1 d . . . . .
H52A H 1.1292 0.5444 0.7968 0.067 Uiso 1 1 calc R U . A 1
H52B H 1.0191 0.5896 0.8278 0.067 Uiso 1 1 calc R U . A 1
C53A C 0.953(4) 0.5055(10) 0.8349(9) 0.054(7) Uiso 0.61(3) 1 d . . P B 1
H53A H 0.8349 0.5106 0.8391 0.065 Uiso 0.61(3) 1 calc R U P B 1
H53B H 1.0026 0.5060 0.8691 0.065 Uiso 0.61(3) 1 calc R U P B 1
C54A C 0.986(3) 0.4449(12) 0.8094(10) 0.060(8) Uiso 0.61(3) 1 d . . P B 1
H54A H 0.9397 0.4447 0.7752 0.090 Uiso 0.61(3) 1 calc R U P B 1
H54B H 0.9372 0.4131 0.8297 0.090 Uiso 0.61(3) 1 calc R U P B 1
H54C H 1.1029 0.4384 0.8073 0.090 Uiso 0.61(3) 1 calc R U P B 1
C53B C 0.994(4) 0.4807(16) 0.8029(14) 0.044(10) Uiso 0.39(3) 1 d . . P B 2
H53C H 0.8786 0.4699 0.8017 0.053 Uiso 0.39(3) 1 calc R U P B 2
H53D H 1.0479 0.4645 0.7723 0.053 Uiso 0.39(3) 1 calc R U P B 2
C54B C 1.076(6) 0.4552(18) 0.8526(16) 0.068(14) Uiso 0.39(3) 1 d . . P B 2
H54D H 1.1890 0.4675 0.8539 0.102 Uiso 0.39(3) 1 calc R U P B 2
H54E H 1.0696 0.4116 0.8523 0.102 Uiso 0.39(3) 1 calc R U P B 2
H54F H 1.0188 0.4704 0.8825 0.102 Uiso 0.39(3) 1 calc R U P B 2
F1 F 0.2803(11) 0.5157(3) 0.5464(3) 0.055(2) Uani 1 1 d . . . . .
F2 F 0.2894(13) 0.4499(4) 0.4608(4) 0.073(3) Uani 1 1 d . . . . .
F3 F 0.5722(16) 0.4006(3) 0.4294(3) 0.087(4) Uani 1 1 d . . . . .
F4 F 0.8512(13) 0.4211(4) 0.4824(3) 0.073(3) Uani 1 1 d . . . . .
F5 F 0.8456(10) 0.4908(3) 0.5646(3) 0.051(2) Uani 1 1 d . . . . .
F6 F 0.2249(10) 0.8071(4) 0.6216(3) 0.058(2) Uani 1 1 d . . . . .
F7 F 0.2093(12) 0.9065(4) 0.5653(4) 0.069(3) Uani 1 1 d . . . . .
F8 F 0.4840(13) 0.9583(3) 0.5306(3) 0.062(3) Uani 1 1 d . . . . .
F9 F 0.7767(13) 0.9115(4) 0.5548(4) 0.078(3) Uani 1 1 d . . . . .
F10 F 0.7947(10) 0.8124(3) 0.6105(4) 0.060(2) Uani 1 1 d . . . . .
F11 F 0.3356(12) 0.7662(4) 0.8792(3) 0.072(3) Uani 1 1 d . . . . .
F12 F 0.3888(16) 0.8238(5) 0.9655(4) 0.097(4) Uani 1 1 d . . . . .
F13 F 0.6939(16) 0.8251(4) 1.0069(3) 0.091(4) Uani 1 1 d . . . . .
F14 F 0.9414(14) 0.7674(4) 0.9590(3) 0.078(3) Uani 1 1 d . . . . .
F15 F 0.8802(10) 0.7072(4) 0.8730(3) 0.054(2) Uani 1 1 d . . . . .
N1 N 0.5585(12) 0.5328(4) 0.6991(3) 0.026(2) Uani 1 1 d . . . . .
N2 N 0.5325(13) 0.6410(4) 0.6424(4) 0.034(2) Uani 1 1 d . . . . .
N3 N 0.5580(13) 0.7079(4) 0.7331(3) 0.028(2) Uani 1 1 d . . . . .
N4 N 0.5460(12) 0.6003(3) 0.7890(4) 0.032(2) Uani 1 1 d . . . . .
N5 N 1.0489(13) 0.5971(4) 0.7145(4) 0.042(2) Uani 1 1 d . . . . .
O1 O 0.5149(13) 0.4420(3) 0.8103(3) 0.049(3) Uani 1 1 d . . . . .
Pd1 Pd 0.54695(11) 0.62059(3) 0.71586(3) 0.0301(3) Uani 1 1 d . . . . .
loop_
_atom_site_aniso_label
_atom_site_aniso_U_11
_atom_site_aniso_U_22
_atom_site_aniso_U_33
_atom_site_aniso_U_23
_atom_site_aniso_U_13
_atom_site_aniso_U_12
C1 0.050(7) 0.020(5) 0.035(6) 0.004(5) -0.001(7) -0.003(5)
C2 0.033(7) 0.018(5) 0.037(6) 0.004(4) -0.003(5) -0.001(5)
C3 0.045(7) 0.014(5) 0.044(8) 0.007(5) -0.005(6) 0.002(5)
C4 0.030(6) 0.023(5) 0.037(7) 0.002(5) 0.006(5) 0.003(5)
C5 0.035(8) 0.031(6) 0.036(7) 0.007(5) -0.006(6) 0.002(5)
C6 0.048(8) 0.022(5) 0.032(6) -0.002(4) 0.000(6) -0.005(6)
C7 0.045(7) 0.029(5) 0.021(5) 0.000(4) 0.002(6) -0.012(5)
C8 0.065(10) 0.026(6) 0.037(7) 0.002(5) -0.001(6) -0.008(6)
C9 0.093(13) 0.025(6) 0.026(6) 0.006(5) -0.001(7) -0.001(7)
C10 0.052(10) 0.019(5) 0.036(6) -0.003(5) 0.006(6) -0.004(5)
C11 0.046(8) 0.018(5) 0.033(6) 0.006(4) 0.005(6) 0.005(5)
C12 0.023(6) 0.021(5) 0.041(6) 0.008(4) -0.002(6) 0.002(5)
C13 0.039(8) 0.022(5) 0.037(7) 0.005(5) 0.004(5) -0.001(5)
C14 0.030(7) 0.027(5) 0.043(7) 0.001(5) 0.006(5) -0.007(5)
C15 0.022(6) 0.029(5) 0.037(6) -0.002(5) 0.002(5) 0.003(4)
C16 0.039(8) 0.019(5) 0.032(6) -0.008(4) -0.004(5) -0.003(5)
C17 0.050(7) 0.021(5) 0.028(6) -0.003(4) 0.005(6) 0.000(6)
C18 0.079(11) 0.026(6) 0.036(6) -0.001(5) -0.004(7) 0.002(6)
C19 0.080(12) 0.028(6) 0.024(6) 0.008(5) -0.003(6) 0.009(6)
C20 0.066(10) 0.028(6) 0.029(6) -0.003(5) -0.005(6) 0.003(6)
C21 0.065(9) 0.019(5) 0.035(6) 0.005(4) -0.005(7) -0.007(6)
C22 0.068(11) 0.023(6) 0.048(8) 0.001(5) -0.012(8) -0.014(7)
C23 0.110(15) 0.029(7) 0.036(7) -0.005(6) -0.023(9) -0.005(8)
C24 0.127(17) 0.029(7) 0.031(7) -0.011(5) 0.002(10) -0.010(9)
C25 0.087(12) 0.029(7) 0.045(8) -0.004(6) 0.011(9) -0.004(8)
C26 0.061(10) 0.029(6) 0.042(8) -0.002(6) 0.001(7) -0.001(7)
C27 0.058(10) 0.015(5) 0.032(6) 0.000(4) 0.002(6) 0.005(5)
C28 0.041(8) 0.029(6) 0.047(8) 0.008(6) -0.009(7) 0.006(6)
C29 0.063(9) 0.033(6) 0.045(7) 0.000(6) -0.018(7) 0.016(8)
C30 0.090(14) 0.019(6) 0.035(7) 0.003(5) -0.007(7) 0.015(7)
C31 0.072(10) 0.026(6) 0.041(7) 0.011(6) 0.013(7) -0.005(8)
C32 0.057(9) 0.023(6) 0.050(8) 0.003(6) 0.014(7) 0.004(7)
C33 0.042(8) 0.028(6) 0.034(7) 0.003(5) -0.005(5) 0.007(5)
C34 0.059(10) 0.035(6) 0.044(7) -0.013(6) -0.009(7) 0.018(6)
C35 0.101(16) 0.040(7) 0.034(7) -0.014(6) -0.001(8) 0.027(8)
C36 0.129(18) 0.038(8) 0.031(8) -0.006(6) -0.026(10) -0.013(10)
C37 0.078(12) 0.040(8) 0.045(8) 0.005(7) -0.013(9) -0.024(8)
C38 0.059(10) 0.025(6) 0.044(8) 0.002(5) 0.002(7) -0.001(6)
C39 0.046(9) 0.034(7) 0.071(10) -0.013(6) -0.001(7) -0.007(6)
C40 0.034(8) 0.044(7) 0.102(12) -0.027(8) 0.012(9) -0.002(8)
C41 0.047(9) 0.061(10) 0.093(13) -0.028(9) 0.003(9) -0.011(8)
C42 0.058(10) 0.057(9) 0.163(19) -0.044(12) 0.033(14) -0.022(9)
C43 0.033(6) 0.035(6) 0.052(7) 0.003(6) 0.006(6) 0.006(7)
C44 0.048(8) 0.039(6) 0.050(7) -0.003(6) 0.007(8) -0.007(7)
C45 0.054(10) 0.030(6) 0.057(8) 0.003(6) -0.002(7) -0.003(6)
C46 0.083(14) 0.041(7) 0.049(8) 0.001(6) 0.016(8) -0.012(8)
C47 0.045(8) 0.028(6) 0.064(9) -0.011(6) -0.001(7) -0.009(6)
C48 0.041(8) 0.036(6) 0.055(8) 0.000(6) -0.001(6) -0.005(6)
C49 0.044(8) 0.028(6) 0.068(10) 0.000(6) -0.006(7) -0.006(6)
C50 0.082(12) 0.032(7) 0.073(10) -0.012(7) 0.009(9) -0.002(8)
C51 0.046(9) 0.041(7) 0.059(9) -0.002(6) 0.003(8) 0.001(7)
C52 0.066(11) 0.063(9) 0.039(7) 0.006(6) -0.004(7) 0.003(8)
F1 0.061(6) 0.044(5) 0.060(5) 0.007(4) -0.016(4) 0.001(4)
F2 0.108(8) 0.048(5) 0.062(6) 0.005(4) -0.037(6) -0.023(5)
F3 0.174(11) 0.045(4) 0.041(4) -0.013(4) 0.002(6) -0.018(6)
F4 0.112(8) 0.051(5) 0.055(5) -0.010(4) 0.032(6) 0.002(5)
F5 0.059(5) 0.042(4) 0.052(5) -0.005(4) 0.008(4) -0.002(4)
F6 0.043(5) 0.045(4) 0.084(6) 0.009(4) -0.006(4) 0.000(4)
F7 0.077(7) 0.049(5) 0.081(6) 0.017(5) -0.021(5) 0.022(5)
F8 0.122(9) 0.025(3) 0.037(4) 0.010(3) -0.005(5) 0.010(4)
F9 0.089(8) 0.042(5) 0.103(8) 0.023(5) 0.035(6) -0.007(5)
F10 0.047(5) 0.042(4) 0.092(7) 0.024(4) 0.019(5) 0.003(4)
F11 0.081(7) 0.083(6) 0.053(5) -0.024(5) -0.012(5) 0.036(6)
F12 0.154(11) 0.082(7) 0.056(6) -0.027(5) -0.005(6) 0.060(7)
F13 0.178(12) 0.054(5) 0.042(5) -0.010(4) -0.022(6) -0.004(7)
F14 0.096(8) 0.074(6) 0.063(5) 0.003(4) -0.036(6) -0.031(6)
F15 0.052(5) 0.054(5) 0.055(5) -0.002(4) -0.014(4) -0.004(4)
N1 0.032(5) 0.021(4) 0.024(4) 0.002(3) 0.006(4) 0.003(4)
N2 0.034(6) 0.017(4) 0.051(6) 0.002(4) 0.005(5) 0.003(4)
N3 0.033(5) 0.027(4) 0.024(4) 0.002(3) -0.002(4) 0.000(5)
N4 0.023(5) 0.015(4) 0.059(6) 0.010(4) -0.007(6) -0.003(4)
N5 0.036(6) 0.038(5) 0.052(6) -0.010(5) 0.004(7) -0.001(5)
O1 0.086(8) 0.023(4) 0.037(5) 0.003(3) 0.006(5) -0.004(5)
Pd1 0.0392(5) 0.0175(4) 0.0337(5) 0.0028(4) -0.0007(5) 0.0002(4)
loop_
_atom_type_symbol
_atom_type_description
_atom_type_scat_dispersion_real
_atom_type_scat_dispersion_imag
_atom_type_scat_source
C C 0.0041 0.0020 'International Tables Vol C Tables 4.2.6.8 and 6.1.1.4'
H H 0.0000 0.0000 'International Tables Vol C Tables 4.2.6.8 and 6.1.1.4'
Pd Pd -0.7734 1.2009 'International Tables Vol C Tables 4.2.6.8 and 6.1.1.4'
N N 0.0078 0.0041 'International Tables Vol C Tables 4.2.6.8 and 6.1.1.4'
O O 0.0135 0.0075 'International Tables Vol C Tables 4.2.6.8 and 6.1.1.4'
F F 0.0215 0.0127 'International Tables Vol C Tables 4.2.6.8 and 6.1.1.4'
loop_
_geom_angle_atom_site_label_1
_geom_angle_atom_site_label_2
_geom_angle_atom_site_label_3
_geom_angle
_geom_angle_site_symmetry_1
_geom_angle_site_symmetry_3
_geom_angle_publ_flag
O1 C1 C2 120.1(10) . . ?
O1 C1 C20 118.8(11) . . ?
C2 C1 C20 121.2(9) . . ?
N1 C2 C3 109.8(10) . . ?
N1 C2 C1 126.0(9) . . ?
C3 C2 C1 123.8(9) . . ?
C4 C3 C2 107.7(9) . . ?
C4 C3 H3 126.2 . . ?
C2 C3 H3 126.2 . . ?
C3 C4 C5 106.8(10) . . ?
C3 C4 H4 126.6 . . ?
C5 C4 H4 126.6 . . ?
N1 C5 C6 124.8(10) . . ?
N1 C5 C4 108.9(10) . . ?
C6 C5 C4 126.3(11) . . ?
C7 C6 C5 125.8(10) . . ?
C7 C6 C21 117.3(10) . . ?
C5 C6 C21 116.9(9) . . ?
C6 C7 N2 125.1(10) . . ?
C6 C7 C8 126.1(10) . . ?
N2 C7 C8 108.6(9) . . ?
C9 C8 C7 107.0(10) . . ?
C9 C8 H8 126.5 . . ?
C7 C8 H8 126.5 . . ?
C8 C9 C10 108.4(10) . . ?
C8 C9 H9 125.8 . . ?
C10 C9 H9 125.8 . . ?
N2 C10 C11 123.6(11) . . ?
N2 C10 C9 110.4(10) . . ?
C11 C10 C9 125.7(10) . . ?
C12 C11 C10 126.2(10) . . ?
C12 C11 C27 116.6(9) . . ?
C10 C11 C27 117.2(10) . . ?
C11 C12 N3 124.5(9) . . ?
C11 C12 C13 126.7(9) . . ?
N3 C12 C13 108.8(9) . . ?
C14 C13 C12 107.6(9) . . ?
C14 C13 H13 126.2 . . ?
C12 C13 H13 126.2 . . ?
C13 C14 C15 107.8(10) . . ?
C13 C14 H14 126.1 . . ?
C15 C14 H14 126.1 . . ?
C16 C15 N3 124.9(9) . . ?
C16 C15 C14 125.9(11) . . ?
N3 C15 C14 109.1(10) . . ?
C15 C16 C17 125.7(10) . . ?
C15 C16 C33 117.8(9) . . ?
C17 C16 C33 116.4(10) . . ?
C16 C17 N4 124.3(10) . . ?
C16 C17 C18 126.7(10) . . ?
N4 C17 C18 109.0(9) . . ?
C19 C18 C17 108.6(11) . . ?
C19 C18 H18 125.7 . . ?
C17 C18 H18 125.7 . . ?
C18 C19 C20 107.0(11) . . ?
C18 C19 H19 126.5 . . ?
C20 C19 H19 126.5 . . ?
C19 C20 N4 111.7(10) . . ?
C19 C20 C1 124.4(11) . . ?
N4 C20 C1 123.4(11) . . ?
C22 C21 C26 117.7(12) . . ?
C22 C21 C6 122.0(14) . . ?
C26 C21 C6 120.4(13) . . ?
C21 C22 F1 121.6(12) . . ?
C21 C22 C23 122.4(16) . . ?
F1 C22 C23 116.0(14) . . ?
C24 C23 F2 120.7(13) . . ?
C24 C23 C22 118.6(16) . . ?
F2 C23 C22 120.7(17) . . ?
C23 C24 F3 120.3(18) . . ?
C23 C24 C25 122.3(13) . . ?
F3 C24 C25 117.4(18) . . ?
F4 C25 C24 124.0(14) . . ?
F4 C25 C26 117.3(15) . . ?
C24 C25 C26 118.7(16) . . ?
F5 C26 C25 120.6(14) . . ?
F5 C26 C21 119.0(11) . . ?
C25 C26 C21 120.4(14) . . ?
C32 C27 C28 116.1(11) . . ?
C32 C27 C11 120.2(12) . . ?
C28 C27 C11 123.6(12) . . ?
C27 C28 F6 120.5(10) . . ?
C27 C28 C29 123.7(13) . . ?
F6 C28 C29 115.8(12) . . ?
F7 C29 C30 121.5(12) . . ?
F7 C29 C28 121.4(14) . . ?
C30 C29 C28 117.1(13) . . ?
C31 C30 F8 121.4(14) . . ?
C31 C30 C29 120.7(11) . . ?
F8 C30 C29 117.9(13) . . ?
C30 C31 F9 119.5(11) . . ?
C30 C31 C32 118.7(14) . . ?
F9 C31 C32 121.8(14) . . ?
C27 C32 F10 121.8(11) . . ?
C27 C32 C31 123.5(14) . . ?
F10 C32 C31 114.7(13) . . ?
C34 C33 C38 117.4(12) . . ?
C34 C33 C16 123.5(12) . . ?
C38 C33 C16 119.1(11) . . ?
F11 C34 C33 120.6(11) . . ?
F11 C34 C35 117.2(13) . . ?
C33 C34 C35 122.2(14) . . ?
F12 C35 C36 121.3(13) . . ?
F12 C35 C34 119.6(15) . . ?
C36 C35 C34 119.1(14) . . ?
F13 C36 C35 120.8(18) . . ?
F13 C36 C37 117.1(17) . . ?
C35 C36 C37 122.0(12) . . ?
F14 C37 C36 122.7(14) . . ?
F14 C37 C38 120.0(16) . . ?
C36 C37 C38 117.1(15) . . ?
F15 C38 C33 120.9(11) . . ?
F15 C38 C37 116.9(14) . . ?
C33 C38 C37 122.2(14) . . ?
C40 C39 N5 116.9(12) . . ?
C40 C39 H39 108.1 . . ?
N5 C39 H39 108.1 . . ?
C40 C39 H39A 108.1 . . ?
N5 C39 H39A 108.1 . . ?
H39 C39 H39A 107.3 . . ?
C41 C40 C39 112.4(13) . . ?
C41 C40 H40 109.1 . . ?
C39 C40 H40 109.1 . . ?
C41 C40 H40A 109.1 . . ?
C39 C40 H40A 109.1 . . ?
H40 C40 H40A 107.9 . . ?
C40 C41 C42 113.4(14) . . ?
C40 C41 H41 108.9 . . ?
C42 C41 H41 108.9 . . ?
C40 C41 H41A 108.9 . . ?
C42 C41 H41A 108.9 . . ?
H41 C41 H41A 107.7 . . ?
C41 C42 H42 109.5 . . ?
C41 C42 H42A 109.5 . . ?
H42 C42 H42A 109.5 . . ?
C41 C42 H42B 109.5 . . ?
H42 C42 H42B 109.5 . . ?
H42A C42 H42B 109.5 . . ?
C44 C43 N5 114.8(11) . . ?
C44 C43 H43 108.6 . . ?
N5 C43 H43 108.6 . . ?
C44 C43 H43A 108.6 . . ?
N5 C43 H43A 108.6 . . ?
H43 C43 H43A 107.5 . . ?
C43 C44 C45 110.6(12) . . ?
C43 C44 H44 109.5 . . ?
C45 C44 H44 109.5 . . ?
C43 C44 H44A 109.5 . . ?
C45 C44 H44A 109.5 . . ?
H44 C44 H44A 108.1 . . ?
C46 C45 C44 113.3(13) . . ?
C46 C45 H45 108.9 . . ?
C44 C45 H45 108.9 . . ?
C46 C45 H45A 108.9 . . ?
C44 C45 H45A 108.9 . . ?
H45 C45 H45A 107.7 . . ?
C45 C46 H46 109.5 . . ?
C45 C46 H46A 109.5 . . ?
H46 C46 H46A 109.5 . . ?
C45 C46 H46B 109.5 . . ?
H46 C46 H46B 109.5 . . ?
H46A C46 H46B 109.5 . . ?
N5 C47 C48 116.3(11) . . ?
N5 C47 H47 108.2 . . ?
C48 C47 H47 108.2 . . ?
N5 C47 H47A 108.2 . . ?
C48 C47 H47A 108.2 . . ?
H47 C47 H47A 107.4 . . ?
C49 C48 C47 111.5(11) . . ?
C49 C48 H48 109.3 . . ?
C47 C48 H48 109.3 . . ?
C49 C48 H48A 109.3 . . ?
C47 C48 H48A 109.3 . . ?
H48 C48 H48A 108.0 . . ?
C48 C49 C50 112.1(12) . . ?
C48 C49 H49 109.2 . . ?
C50 C49 H49 109.2 . . ?
C48 C49 H49A 109.2 . . ?
C50 C49 H49A 109.2 . . ?
H49 C49 H49A 107.9 . . ?
C49 C50 H50 109.5 . . ?
C49 C50 H50A 109.5 . . ?
H50 C50 H50A 109.5 . . ?
C49 C50 H50B 109.5 . . ?
H50 C50 H50B 109.5 . . ?
H50A C50 H50B 109.5 . . ?
C52 C51 N5 114.4(12) . . ?
C52 C51 H51 108.7 . . ?
N5 C51 H51 108.7 . . ?
C52 C51 H51A 108.7 . . ?
N5 C51 H51A 108.7 . . ?
H51 C51 H51A 107.6 . . ?
C53A C52 C51 120.5(16) . . ?
C51 C52 C53B 101.3(16) . . ?
C53A C52 H52A 107.2 . . ?
C51 C52 H52A 107.2 . . ?
C53A C52 H52B 107.2 . . ?
C51 C52 H52B 107.2 . . ?
H52A C52 H52B 106.8 . . ?
C52 C53A C54A 112(2) . . ?
C52 C53A H53A 109.3 . . ?
C54A C53A H53A 109.3 . . ?
C52 C53A H53B 109.3 . . ?
C54A C53A H53B 109.3 . . ?
H53A C53A H53B 107.9 . . ?
C53A C54A H54A 109.5 . . ?
C53A C54A H54B 109.5 . . ?
H54A C54A H54B 109.5 . . ?
C53A C54A H54C 109.5 . . ?
H54A C54A H54C 109.5 . . ?
H54B C54A H54C 109.5 . . ?
C54B C53B C52 106(3) . . ?
C54B C53B H53C 110.4 . . ?
C52 C53B H53C 110.4 . . ?
C54B C53B H53D 110.4 . . ?
C52 C53B H53D 110.4 . . ?
H53C C53B H53D 108.6 . . ?
C53B C54B H54D 109.5 . . ?
C53B C54B H54E 109.5 . . ?
H54D C54B H54E 109.5 . . ?
C53B C54B H54F 109.5 . . ?
H54D C54B H54F 109.5 . . ?
H54E C54B H54F 109.5 . . ?
C2 N1 C5 106.7(8) . . ?
C2 N1 Pd1 127.3(7) . . ?
C5 N1 Pd1 125.3(7) . . ?
C10 N2 C7 105.6(9) . . ?
C10 N2 Pd1 128.2(8) . . ?
C7 N2 Pd1 126.1(7) . . ?
C15 N3 C12 106.7(9) . . ?
C15 N3 Pd1 126.7(7) . . ?
C12 N3 Pd1 126.5(7) . . ?
C20 N4 C17 103.7(9) . . ?
C20 N4 Pd1 129.1(8) . . ?
C17 N4 Pd1 126.6(6) . . ?
C47 N5 C39 111.7(10) . . ?
C47 N5 C43 109.3(10) . . ?
C39 N5 C43 108.0(10) . . ?
C47 N5 C51 109.7(10) . . ?
C39 N5 C51 110.8(10) . . ?
C43 N5 C51 107.1(10) . . ?
N4 Pd1 N2 176.3(5) . . ?
N4 Pd1 N3 90.3(3) . . ?
N2 Pd1 N3 89.9(3) . . ?
N4 Pd1 N1 89.3(3) . . ?
N2 Pd1 N1 90.9(3) . . ?
N3 Pd1 N1 174.7(5) . . ?
loop_
_geom_bond_atom_site_label_1
_geom_bond_atom_site_label_2
_geom_bond_distance
_geom_bond_site_symmetry_2
_geom_bond_publ_flag
C1 O1 1.249(12) . ?
C1 C2 1.437(16) . ?
C1 C20 1.453(15) . ?
C2 N1 1.363(13) . ?
C2 C3 1.405(15) . ?
C3 C4 1.364(16) . ?
C3 H3 0.9500 . ?
C4 C5 1.423(15) . ?
C4 H4 0.9500 . ?
C5 N1 1.381(14) . ?
C5 C6 1.401(16) . ?
C6 C7 1.361(15) . ?
C6 C21 1.500(15) . ?
C7 N2 1.413(13) . ?
C7 C8 1.451(15) . ?
C8 C9 1.343(16) . ?
C8 H8 0.9500 . ?
C9 C10 1.422(16) . ?
C9 H9 0.9500 . ?
C10 N2 1.371(14) . ?
C10 C11 1.398(15) . ?
C11 C12 1.382(16) . ?
C11 C27 1.502(14) . ?
C12 N3 1.391(13) . ?
C12 C13 1.429(15) . ?
C13 C14 1.351(16) . ?
C13 H13 0.9500 . ?
C14 C15 1.429(15) . ?
C14 H14 0.9500 . ?
C15 C16 1.361(16) . ?
C15 N3 1.375(14) . ?
C16 C17 1.397(15) . ?
C16 C33 1.494(16) . ?
C17 N4 1.400(13) . ?
C17 C18 1.415(16) . ?
C18 C19 1.341(16) . ?
C18 H18 0.9500 . ?
C19 C20 1.385(16) . ?
C19 H19 0.9500 . ?
C20 N4 1.395(14) . ?
C21 C22 1.342(19) . ?
C21 C26 1.43(2) . ?
C22 F1 1.375(18) . ?
C22 C23 1.402(18) . ?
C23 C24 1.35(3) . ?
C23 F2 1.354(19) . ?
C24 F3 1.351(15) . ?
C24 C25 1.37(3) . ?
C25 F4 1.334(19) . ?
C25 C26 1.387(19) . ?
C26 F5 1.329(17) . ?
C27 C32 1.350(19) . ?
C27 C28 1.354(18) . ?
C28 F6 1.368(16) . ?
C28 C29 1.394(18) . ?
C29 F7 1.337(16) . ?
C29 C30 1.38(2) . ?
C30 C31 1.35(2) . ?
C30 F8 1.352(13) . ?
C31 F9 1.357(16) . ?
C31 C32 1.385(17) . ?
C32 F10 1.368(17) . ?
C33 C34 1.371(18) . ?
C33 C38 1.388(19) . ?
C34 F11 1.327(17) . ?
C34 C35 1.385(18) . ?
C35 F12 1.342(17) . ?
C35 C36 1.36(2) . ?
C36 F13 1.357(15) . ?
C36 C37 1.39(2) . ?
C37 F14 1.351(19) . ?
C37 C38 1.406(19) . ?
C38 F15 1.333(16) . ?
C39 C40 1.499(18) . ?
C39 N5 1.500(15) . ?
C39 H39 0.9900 . ?
C39 H39A 0.9900 . ?
C40 C41 1.476(19) . ?
C40 H40 0.9900 . ?
C40 H40A 0.9900 . ?
C41 C42 1.51(2) . ?
C41 H41 0.9900 . ?
C41 H41A 0.9900 . ?
C42 H42 0.9800 . ?
C42 H42A 0.9800 . ?
C42 H42B 0.9800 . ?
C43 C44 1.501(17) . ?
C43 N5 1.529(16) . ?
C43 H43 0.9900 . ?
C43 H43A 0.9900 . ?
C44 C45 1.523(19) . ?
C44 H44 0.9900 . ?
C44 H44A 0.9900 . ?
C45 C46 1.493(18) . ?
C45 H45 0.9900 . ?
C45 H45A 0.9900 . ?
C46 H46 0.9800 . ?
C46 H46A 0.9800 . ?
C46 H46B 0.9800 . ?
C47 N5 1.474(16) . ?
C47 C48 1.535(17) . ?
C47 H47 0.9900 . ?
C47 H47A 0.9900 . ?
C48 C49 1.503(17) . ?
C48 H48 0.9900 . ?
C48 H48A 0.9900 . ?
C49 C50 1.512(19) . ?
C49 H49 0.9900 . ?
C49 H49A 0.9900 . ?
C50 H50 0.9800 . ?
C50 H50A 0.9800 . ?
C50 H50B 0.9800 . ?
C51 C52 1.537(19) . ?
C51 N5 1.545(17) . ?
C51 H51 0.9900 . ?
C51 H51A 0.9900 . ?
C52 C53A 1.44(3) . ?
C52 C53B 1.67(4) . ?
C52 H52A 0.9900 . ?
C52 H52B 0.9900 . ?
C53A C54A 1.54(4) . ?
C53A H53A 0.9900 . ?
C53A H53B 0.9900 . ?
C54A H54A 0.9800 . ?
C54A H54B 0.9800 . ?
C54A H54C 0.9800 . ?
C53B C54B 1.58(6) . ?
C53B H53C 0.9900 . ?
C53B H53D 0.9900 . ?
C54B H54D 0.9800 . ?
C54B H54E 0.9800 . ?
C54B H54F 0.9800 . ?
N1 Pd1 2.024(8) . ?
N2 Pd1 1.991(10) . ?
N3 Pd1 2.018(8) . ?
N4 Pd1 1.980(10) . ?
loop_
_geom_torsion_atom_site_label_1
_geom_torsion_atom_site_label_2
_geom_torsion_atom_site_label_3
_geom_torsion_atom_site_label_4
_geom_torsion
_geom_torsion_site_symmetry_1
_geom_torsion_site_symmetry_2
_geom_torsion_site_symmetry_3
_geom_torsion_site_symmetry_4
_geom_torsion_publ_flag
O1 C1 C2 N1 165.0(12) . . . . ?
C20 C1 C2 N1 -16(2) . . . . ?
O1 C1 C2 C3 -7(2) . . . . ?
C20 C1 C2 C3 171.4(13) . . . . ?
N1 C2 C3 C4 1.0(14) . . . . ?
C1 C2 C3 C4 174.4(12) . . . . ?
C2 C3 C4 C5 -3.3(14) . . . . ?
C3 C4 C5 N1 4.5(14) . . . . ?
C3 C4 C5 C6 -171.4(13) . . . . ?
N1 C5 C6 C7 7(2) . . . . ?
C4 C5 C6 C7 -178.0(14) . . . . ?
N1 C5 C6 C21 -169.5(13) . . . . ?
C4 C5 C6 C21 6(2) . . . . ?
C5 C6 C7 N2 8(2) . . . . ?
C21 C6 C7 N2 -176.2(12) . . . . ?
C5 C6 C7 C8 -178.1(13) . . . . ?
C21 C6 C7 C8 -2(2) . . . . ?
C6 C7 C8 C9 -175.9(14) . . . . ?
N2 C7 C8 C9 -0.8(16) . . . . ?
C7 C8 C9 C10 1.8(16) . . . . ?
C8 C9 C10 N2 -2.2(17) . . . . ?
C8 C9 C10 C11 171.2(13) . . . . ?
N2 C10 C11 C12 -4(2) . . . . ?
C9 C10 C11 C12 -176.2(14) . . . . ?
N2 C10 C11 C27 174.9(12) . . . . ?
C9 C10 C11 C27 2(2) . . . . ?
C10 C11 C12 N3 -7(2) . . . . ?
C27 C11 C12 N3 175.0(12) . . . . ?
C10 C11 C12 C13 175.4(13) . . . . ?
C27 C11 C12 C13 -3(2) . . . . ?
C11 C12 C13 C14 178.5(13) . . . . ?
N3 C12 C13 C14 0.2(14) . . . . ?
C12 C13 C14 C15 -1.6(13) . . . . ?
C13 C14 C15 C16 -173.4(12) . . . . ?
C13 C14 C15 N3 2.6(13) . . . . ?
N3 C15 C16 C17 -1(2) . . . . ?
C14 C15 C16 C17 174.5(13) . . . . ?
N3 C15 C16 C33 -179.1(11) . . . . ?
C14 C15 C16 C33 -3.6(18) . . . . ?
C15 C16 C17 N4 12(2) . . . . ?
C33 C16 C17 N4 -170.1(12) . . . . ?
C15 C16 C17 C18 -169.1(14) . . . . ?
C33 C16 C17 C18 9(2) . . . . ?
C16 C17 C18 C19 -178.3(15) . . . . ?
N4 C17 C18 C19 1.1(18) . . . . ?
C17 C18 C19 C20 0.3(18) . . . . ?
C18 C19 C20 N4 -1.5(18) . . . . ?
C18 C19 C20 C1 170.2(15) . . . . ?
O1 C1 C20 C19 6(2) . . . . ?
C2 C1 C20 C19 -173.0(14) . . . . ?
O1 C1 C20 N4 176.6(13) . . . . ?
C2 C1 C20 N4 -2(2) . . . . ?
C7 C6 C21 C22 -70.5(17) . . . . ?
C5 C6 C21 C22 106.0(15) . . . . ?
C7 C6 C21 C26 111.2(15) . . . . ?
C5 C6 C21 C26 -72.3(16) . . . . ?
C26 C21 C22 F1 -179.9(11) . . . . ?
C6 C21 C22 F1 1.7(17) . . . . ?
C26 C21 C22 C23 -0.7(18) . . . . ?
C6 C21 C22 C23 -179.1(11) . . . . ?
C21 C22 C23 C24 2(2) . . . . ?
F1 C22 C23 C24 -178.3(12) . . . . ?
C21 C22 C23 F2 -179.5(11) . . . . ?
F1 C22 C23 F2 -0.2(17) . . . . ?
F2 C23 C24 F3 -2(2) . . . . ?
C22 C23 C24 F3 176.3(11) . . . . ?
F2 C23 C24 C25 180.0(13) . . . . ?
C22 C23 C24 C25 -2(2) . . . . ?
C23 C24 C25 F4 177.4(13) . . . . ?
F3 C24 C25 F4 -1(2) . . . . ?
C23 C24 C25 C26 0(2) . . . . ?
F3 C24 C25 C26 -178.5(12) . . . . ?
F4 C25 C26 F5 1.9(19) . . . . ?
C24 C25 C26 F5 179.7(12) . . . . ?
F4 C25 C26 C21 -175.8(11) . . . . ?
C24 C25 C26 C21 2(2) . . . . ?
C22 C21 C26 F5 -179.3(11) . . . . ?
C6 C21 C26 F5 -0.9(17) . . . . ?
C22 C21 C26 C25 -1.5(18) . . . . ?
C6 C21 C26 C25 176.9(11) . . . . ?
C12 C11 C27 C32 82.8(15) . . . . ?
C10 C11 C27 C32 -95.8(15) . . . . ?
C12 C11 C27 C28 -97.3(16) . . . . ?
C10 C11 C27 C28 84.1(16) . . . . ?
C32 C27 C28 F6 -178.6(12) . . . . ?
C11 C27 C28 F6 1.5(19) . . . . ?
C32 C27 C28 C29 1.7(19) . . . . ?
C11 C27 C28 C29 -178.3(11) . . . . ?
C27 C28 C29 F7 179.0(12) . . . . ?
F6 C28 C29 F7 -0.7(18) . . . . ?
C27 C28 C29 C30 -1(2) . . . . ?
F6 C28 C29 C30 179.7(11) . . . . ?
F7 C29 C30 C31 179.6(12) . . . . ?
C28 C29 C30 C31 -0.8(19) . . . . ?
F7 C29 C30 F8 -1.7(18) . . . . ?
C28 C29 C30 F8 177.9(11) . . . . ?
F8 C30 C31 F9 0.5(19) . . . . ?
C29 C30 C31 F9 179.2(12) . . . . ?
F8 C30 C31 C32 -177.7(11) . . . . ?
C29 C30 C31 C32 0.9(19) . . . . ?
C28 C27 C32 F10 -179.7(12) . . . . ?
C11 C27 C32 F10 0.2(18) . . . . ?
C28 C27 C32 C31 -1.6(19) . . . . ?
C11 C27 C32 C31 178.4(12) . . . . ?
C30 C31 C32 C27 0(2) . . . . ?
F9 C31 C32 C27 -177.9(12) . . . . ?
C30 C31 C32 F10 178.6(12) . . . . ?
F9 C31 C32 F10 0.4(19) . . . . ?
C15 C16 C33 C34 82.3(16) . . . . ?
C17 C16 C33 C34 -96.0(16) . . . . ?
C15 C16 C33 C38 -98.2(14) . . . . ?
C17 C16 C33 C38 83.4(16) . . . . ?
C38 C33 C34 F11 -178.4(12) . . . . ?
C16 C33 C34 F11 1(2) . . . . ?
C38 C33 C34 C35 -2(2) . . . . ?
C16 C33 C34 C35 177.8(12) . . . . ?
F11 C34 C35 F12 -2(2) . . . . ?
C33 C34 C35 F12 -179.2(13) . . . . ?
F11 C34 C35 C36 179.5(14) . . . . ?
C33 C34 C35 C36 3(2) . . . . ?
F12 C35 C36 F13 0(2) . . . . ?
C34 C35 C36 F13 177.9(13) . . . . ?
F12 C35 C36 C37 179.1(13) . . . . ?
C34 C35 C36 C37 -3(2) . . . . ?
F13 C36 C37 F14 -4(2) . . . . ?
C35 C36 C37 F14 176.6(14) . . . . ?
F13 C36 C37 C38 -178.6(12) . . . . ?
C35 C36 C37 C38 2(2) . . . . ?
C34 C33 C38 F15 -179.0(11) . . . . ?
C16 C33 C38 F15 1.5(17) . . . . ?
C34 C33 C38 C37 0.9(19) . . . . ?
C16 C33 C38 C37 -178.6(11) . . . . ?
F14 C37 C38 F15 4.1(18) . . . . ?
C36 C37 C38 F15 178.9(12) . . . . ?
F14 C37 C38 C33 -175.8(12) . . . . ?
C36 C37 C38 C33 -1.0(19) . . . . ?
N5 C39 C40 C41 -176.0(13) . . . . ?
C39 C40 C41 C42 179.6(16) . . . . ?
N5 C43 C44 C45 173.7(9) . . . . ?
C43 C44 C45 C46 172.5(11) . . . . ?
N5 C47 C48 C49 -164.5(12) . . . . ?
C47 C48 C49 C50 -168.5(12) . . . . ?
N5 C51 C52 C53A -146.9(16) . . . . ?
N5 C51 C52 C53B -109.8(17) . . . . ?
C51 C52 C53A C54A 73(3) . . . . ?
C51 C52 C53B C54B -180(2) . . . . ?
C3 C2 N1 C5 1.8(14) . . . . ?
C1 C2 N1 C5 -171.4(12) . . . . ?
C3 C2 N1 Pd1 -169.1(8) . . . . ?
C1 C2 N1 Pd1 17.6(19) . . . . ?
C6 C5 N1 C2 172.2(12) . . . . ?
C4 C5 N1 C2 -3.9(14) . . . . ?
C6 C5 N1 Pd1 -16.7(18) . . . . ?
C4 C5 N1 Pd1 167.3(8) . . . . ?
C11 C10 N2 C7 -172.0(13) . . . . ?
C9 C10 N2 C7 1.6(15) . . . . ?
C11 C10 N2 Pd1 12.8(19) . . . . ?
C9 C10 N2 Pd1 -173.6(10) . . . . ?
C6 C7 N2 C10 174.6(13) . . . . ?
C8 C7 N2 C10 -0.5(15) . . . . ?
C6 C7 N2 Pd1 -10(2) . . . . ?
C8 C7 N2 Pd1 174.9(9) . . . . ?
C16 C15 N3 C12 173.6(12) . . . . ?
C14 C15 N3 C12 -2.5(13) . . . . ?
C16 C15 N3 Pd1 -10.0(17) . . . . ?
C14 C15 N3 Pd1 173.9(8) . . . . ?
C11 C12 N3 C15 -177.0(12) . . . . ?
C13 C12 N3 C15 1.4(14) . . . . ?
C11 C12 N3 Pd1 6.7(19) . . . . ?
C13 C12 N3 Pd1 -174.9(8) . . . . ?
C19 C20 N4 C17 2.1(16) . . . . ?
C1 C20 N4 C17 -169.7(14) . . . . ?
C19 C20 N4 Pd1 -169.8(9) . . . . ?
C1 C20 N4 Pd1 18(2) . . . . ?
C16 C17 N4 C20 177.4(14) . . . . ?
C18 C17 N4 C20 -1.9(16) . . . . ?
C16 C17 N4 Pd1 -10(2) . . . . ?
C18 C17 N4 Pd1 170.2(9) . . . . ?
C48 C47 N5 C39 -166.1(11) . . . . ?
C48 C47 N5 C43 -46.6(15) . . . . ?
C48 C47 N5 C51 70.5(15) . . . . ?
C40 C39 N5 C47 176.3(13) . . . . ?
C40 C39 N5 C43 56.0(16) . . . . ?
C40 C39 N5 C51 -61.0(16) . . . . ?
C44 C43 N5 C47 -65.5(13) . . . . ?
C44 C43 N5 C39 56.3(14) . . . . ?
C44 C43 N5 C51 175.7(10) . . . . ?
C52 C51 N5 C47 65.4(14) . . . . ?
C52 C51 N5 C39 -58.5(14) . . . . ?
C52 C51 N5 C43 -176.1(10) . . . . ?
