#------------------------------------------------------------------------------
#$Date: 2021-06-15 04:02:23 +0300 (Tue, 15 Jun 2021) $
#$Revision: 266448 $
#$URL: file:///home/coder/svn-repositories/cod/cif/1/56/34/1563423.cif $
#------------------------------------------------------------------------------
#
# This file is available in the Crystallography Open Database (COD),
# http://www.crystallography.net/
#
# All data on this site have been placed in the public domain by the
# contributors.
#
data_1563423
loop_
_publ_author_name
'Sasano, Yoshifumi'
'Maeda, Hiromitsu'
'Tanaka, Hiroki'
'Haketa, Yohei'
'Kobayashi, Yoichi'
'Ishibashi, Yukihide'
'Asahi, Tsuyoshi'
'Morimoto, Tatsuki'
'Yasuda, Nobuhiro'
'Sato, Ryuma'
'Shigeta, Yasuteru'
_publ_section_title
;
 Ion-pairing&#x00A0;\p-electronic systems: ordered arrangement and
 noncovalent interactions of negatively charged porphyrins
;
_journal_name_full               'Chemical Science'
_journal_paper_doi               10.1039/D1SC02260A
_journal_year                    2021
_chemical_formula_moiety         'C68 H41 F15 N8 Ni O'
_chemical_formula_sum            'C68 H41 F15 N8 Ni O'
_chemical_formula_weight         1329.80
_chemical_melting_point          ?
_space_group_crystal_system      monoclinic
_space_group_IT_number           14
_space_group_name_Hall           '-P 2ybc'
_space_group_name_H-M_alt        'P 1 21/c 1'
_atom_sites_solution_hydrogens   geom
_audit_creation_method           SHELXL-2014/7
_audit_update_record
;
2019-03-30 deposited with the CCDC.	2021-06-14 downloaded from the CCDC.
;
_cell_angle_alpha                90
_cell_angle_beta                 96.787(3)
_cell_angle_gamma                90
_cell_formula_units_Z            4
_cell_length_a                   8.4930(4)
_cell_length_b                   28.6109(13)
_cell_length_c                   22.8426(9)
_cell_measurement_reflns_used    29443
_cell_measurement_temperature    90(2)
_cell_measurement_theta_max      27.952
_cell_measurement_theta_min      1.260
_cell_volume                     5511.7(4)
_computing_cell_refinement       'Rapid Auto(Rigaku)'
_computing_data_collection       'Rapid Auto(Rigaku)'
_computing_data_reduction        'Rapid Auto(Rigaku)'
_computing_structure_refinement  'SHELXL-2014/7 (Sheldrick, 2014)'
_computing_structure_solution    'SHELXS-97 (Sheldrick, 1990)'
_diffrn_ambient_temperature      90(2)
_diffrn_detector_area_resol_mean 29
_diffrn_measured_fraction_theta_full 0.984
_diffrn_measured_fraction_theta_max 0.984
_diffrn_measurement_device_type  'Rigaku Saturn 724'
_diffrn_measurement_method       'Oscillation Photograph'
_diffrn_radiation_monochromator  'Si(111) Channel Cut'
_diffrn_radiation_type           Synchrotron
_diffrn_radiation_wavelength     0.78192
_diffrn_reflns_av_R_equivalents  0.1161
_diffrn_reflns_av_unetI/netI     0.1506
_diffrn_reflns_Laue_measured_fraction_full 0.984
_diffrn_reflns_Laue_measured_fraction_max 0.984
_diffrn_reflns_limit_h_max       10
_diffrn_reflns_limit_h_min       -9
_diffrn_reflns_limit_k_max       32
_diffrn_reflns_limit_k_min       -34
_diffrn_reflns_limit_l_max       27
_diffrn_reflns_limit_l_min       -27
_diffrn_reflns_number            29443
_diffrn_reflns_point_group_measured_fraction_full 0.984
_diffrn_reflns_point_group_measured_fraction_max 0.984
_diffrn_reflns_theta_full        27.952
_diffrn_reflns_theta_max         27.952
_diffrn_reflns_theta_min         1.260
_diffrn_source                   'synchrotron radiation SPring-8 BL40XU'
_exptl_absorpt_coefficient_mu    0.589
_exptl_absorpt_correction_T_max  1.000
_exptl_absorpt_correction_T_min  0.236
_exptl_absorpt_correction_type   multi-scan
_exptl_absorpt_process_details   'ABSCOR (T.Higashi, 2001)'
_exptl_crystal_colour            red
_exptl_crystal_density_diffrn    1.603
_exptl_crystal_density_meas      ?
_exptl_crystal_description       needle
_exptl_crystal_F_000             2704
_exptl_crystal_size_max          0.060
_exptl_crystal_size_mid          0.010
_exptl_crystal_size_min          0.010
_refine_diff_density_max         0.493
_refine_diff_density_min         -1.001
_refine_diff_density_rms         0.100
_refine_ls_extinction_method     none
_refine_ls_goodness_of_fit_ref   1.060
_refine_ls_hydrogen_treatment    constr
_refine_ls_matrix_type           full
_refine_ls_number_parameters     840
_refine_ls_number_reflns         9787
_refine_ls_number_restraints     0
_refine_ls_restrained_S_all      1.060
_refine_ls_R_factor_all          0.1726
_refine_ls_R_factor_gt           0.0956
_refine_ls_shift/su_max          0.001
_refine_ls_shift/su_mean         0.000
_refine_ls_structure_factor_coef Fsqd
_refine_ls_weighting_details
'w=1/[\s^2^(Fo^2^)+(0.1076P)^2^] where P=(Fo^2^+2Fc^2^)/3'
_refine_ls_weighting_scheme      calc
_refine_ls_wR_factor_gt          0.1942
_refine_ls_wR_factor_ref         0.2334
_reflns_Friedel_coverage         0.000
_reflns_number_gt                5721
_reflns_number_total             9787
_reflns_threshold_expression     'I > 2\s(I)'
_cod_data_source_file            d1sc02260a2.cif
_cod_data_source_block           shelxl
_cod_depositor_comments
;
The following automatic conversions were performed:

data item '_chemical_melting_point' value 'not measured' was changed
to '?' -- the value is undefined or not given.

data item '_exptl_crystal_density_meas' value 'not measured' was
changed to '?' -- the value is perceived as not measured.

Automatic conversion script
Id: cif_fix_values 7556 2019-12-06 15:28:31Z antanas 
;
_cod_original_sg_symbol_H-M      'P 21/c'
_cod_database_code               1563423
_shelx_shelxl_version_number     2014/7
_shelx_space_group_comment
;
The symmetry employed for this shelxl refinement is uniquely defined
by the following loop, which should always be used as a source of
symmetry information in preference to the above space-group names.
They are only intended as comments.
;
_shelx_estimated_absorpt_t_min   0.965
_shelx_estimated_absorpt_t_max   0.994
_shelx_res_file
;

    shelxl.res created by SHELXL-2014/7


TITL ydkr_a.res in P2(1)/c
REM  Yadorkari-X generated
CELL 0.78192 8.4930 28.6109 22.8426 90.0000 96.7870 90.0000
ZERR 4.0 0.0004 0.0013 0.0009 0.0000 0.0030 0.0000
LATT 1
SYMM -X, 1/2+Y, 1/2-Z
REM  SPGR P21/c monoclinic
SFAC C H F N Ni O
DISP    C     0.00409    0.00201        13.88
DISP    H     0.00000    0.00000         0.67
DISP    F     0.02148    0.01270        66.00
DISP    N     0.00779    0.00411        24.46
DISP    Ni    0.32318    1.32332      5923.63
DISP    O     0.01350    0.00752        41.15
UNIT 272 164 60 32 4 4
SIZE 0.06 0.01 0.01
TEMP -183.0
L.S. 20
FMAP 2
PLAN -20
ACTA
CONF
LIST 4
BOND $H

WGHT    0.107600
FVAR       1.36087   0.63270   0.63317
C1    1    0.890199    0.593872    0.362618    11.00000    0.02495    0.03216 =
         0.02696   -0.00315    0.00642   -0.00410
C2    1    0.825657    0.640213    0.361054    11.00000    0.02664    0.03254 =
         0.02095   -0.00136    0.01074   -0.00653
C3    1    0.839171    0.668820    0.411828    11.00000    0.04206    0.03880 =
         0.02588   -0.00153    0.00837   -0.00297
AFIX  43
H1    2    0.873274    0.659284    0.451121    11.00000   -1.20000
AFIX   0
C4    1    0.794277    0.712387    0.393816    11.00000    0.04233    0.03811 =
         0.02713   -0.00709    0.00736    0.00255
AFIX  43
H2    2    0.793744    0.739399    0.417977    11.00000   -1.20000
AFIX   0
C5    1    0.748160    0.710202    0.332125    11.00000    0.01775    0.03736 =
         0.02148   -0.00464    0.00306   -0.00344
C6    1    0.690474    0.746910    0.296366    11.00000    0.02360    0.02838 =
         0.02739   -0.00138    0.00732    0.00077
C7    1    0.619939    0.741394    0.239494    11.00000    0.02387    0.01870 =
         0.02516    0.00190    0.01226   -0.00091
C8    1    0.521532    0.775455    0.206931    11.00000    0.03538    0.03098 =
         0.02539    0.00127    0.00956    0.00392
AFIX  43
H3    2    0.514204    0.807609    0.216625    11.00000   -1.20000
AFIX   0
C9    1    0.441396    0.753914    0.160250    11.00000    0.01833    0.02602 =
         0.02666    0.00532    0.00760    0.00278
AFIX  43
H4    2    0.364877    0.767540    0.131585    11.00000   -1.20000
AFIX   0
C10   1    0.494376    0.706307    0.162339    11.00000    0.02288    0.02047 =
         0.02563    0.00355    0.01157    0.00433
C11   1    0.442700    0.672555    0.119946    11.00000    0.02188    0.03214 =
         0.02006   -0.00755    0.00826   -0.00572
C12   1    0.526990    0.630623    0.115611    11.00000    0.03353    0.02730 =
         0.02460   -0.00542    0.01657   -0.00127
C13   1    0.505235    0.599745    0.066203    11.00000    0.02918    0.02207 =
         0.03083   -0.00353    0.00624    0.00954
AFIX  43
H5    2    0.421875    0.600765    0.034597    11.00000   -1.20000
AFIX   0
C14   1    0.624584    0.569204    0.073022    11.00000    0.02873    0.03062 =
         0.03050   -0.00288    0.01768   -0.00132
AFIX  43
H6    2    0.645181    0.545403    0.045943    11.00000   -1.20000
AFIX   0
C15   1    0.716015    0.578699    0.128400    11.00000    0.03240    0.02595 =
         0.01983    0.00064    0.00860    0.00202
C16   1    0.842805    0.553081    0.153514    11.00000    0.02394    0.02849 =
         0.02116    0.00044    0.00826   -0.00313
C17   1    0.904212    0.556236    0.213428    11.00000    0.02698    0.02405 =
         0.03321    0.00297    0.01396    0.00669
C18   1    1.009936    0.524458    0.243325    11.00000    0.03866    0.03736 =
         0.03105   -0.00512    0.00283    0.00545
AFIX  43
H7    2    1.068603    0.500825    0.226301    11.00000   -1.20000
AFIX   0
C19   1    1.011935    0.534318    0.302496    11.00000    0.03359    0.03340 =
         0.02887    0.00684    0.00806    0.00501
AFIX  43
H8    2    1.070115    0.518022    0.334236    11.00000   -1.20000
AFIX   0
C20   1    0.914479    0.571967    0.307027    11.00000    0.02802    0.02193 =
         0.02705   -0.00152    0.00670    0.00247
C21   1    0.684660    0.795082    0.322370    11.00000    0.02424    0.02808 =
         0.02367   -0.00247    0.00690   -0.00193
C22   1    0.781830    0.830748    0.307515    11.00000    0.03333    0.03101 =
         0.02656   -0.00130    0.00432    0.00274
C23   1    0.768086    0.876018    0.326770    11.00000    0.02789    0.03254 =
         0.02230    0.00506   -0.00678   -0.00717
C24   1    0.652359    0.887142    0.362288    11.00000    0.04335    0.02615 =
         0.02605   -0.00663    0.00472    0.00023
C25   1    0.555804    0.852537    0.378773    11.00000    0.02448    0.03446 =
         0.03251   -0.00267    0.00677    0.00472
C26   1    0.571637    0.807379    0.358692    11.00000    0.04110    0.02844 =
         0.02706   -0.00210    0.00778   -0.01433
C27   1    0.299759    0.681225    0.077370    11.00000    0.02994    0.02551 =
         0.02133   -0.00286    0.00558    0.00247
C28   1    0.307120    0.698007    0.020034    11.00000    0.02829    0.03228 =
         0.02627    0.00003    0.01301   -0.00073
C29   1    0.175422    0.701676   -0.020450    11.00000    0.04347    0.02803 =
         0.01749    0.00191    0.00095    0.00091
C30   1    0.031575    0.688815   -0.005163    11.00000    0.02953    0.03034 =
         0.02936   -0.00735   -0.00449    0.00264
C31   1    0.015885    0.673644    0.051245    11.00000    0.02758    0.02133 =
         0.02862    0.00164    0.00672   -0.00246
C32   1    0.150886    0.671162    0.091403    11.00000    0.03948    0.02197 =
         0.02253   -0.00096    0.00738    0.00426
C33   1    0.911231    0.516392    0.117774    11.00000    0.02820    0.02548 =
         0.01812    0.00035    0.00264   -0.00008
C34   1    1.049734    0.525253    0.092755    11.00000    0.03554    0.02461 =
         0.02158    0.00389    0.00718    0.00236
C35   1    1.121137    0.491366    0.060508    11.00000    0.02591    0.03539 =
         0.02439   -0.00069    0.00865    0.00146
C36   1    1.051548    0.448418    0.052394    11.00000    0.03613    0.02886 =
         0.02346   -0.00033    0.00678    0.00748
C37   1    0.913461    0.438368    0.075907    11.00000    0.03572    0.03190 =
         0.03141   -0.00435    0.00687   -0.00578
C38   1    0.847280    0.472517    0.108536    11.00000    0.02453    0.03928 =
         0.02989   -0.00431    0.00658    0.00513
C39   1    0.548899    0.553745    0.392190    11.00000    0.03498    0.03549 =
         0.02713   -0.00039    0.00768   -0.00591
C40   1    0.497169    0.591850    0.423772    11.00000    0.04791    0.03827 =
         0.02698   -0.00091    0.01264    0.00326
C41   1    0.549942    0.595577    0.486018    11.00000    0.07965    0.04076 =
         0.03432   -0.00531    0.00003    0.00629
C42   1    0.500255    0.634988    0.515441    11.00000    0.08356    0.03759 =
         0.03600    0.00143    0.01441    0.01110
AFIX  43
H9    2    0.535047    0.639169    0.556177    11.00000   -1.20000
AFIX   0
C43   1    0.401940    0.667588    0.486059    11.00000    0.08657    0.04573 =
         0.03346   -0.00223    0.02201    0.00595
AFIX  43
H10   2    0.367298    0.693271    0.507585    11.00000   -1.20000
AFIX   0
C44   1    0.352050    0.664568    0.427220    11.00000    0.06709    0.04362 =
         0.04176    0.00223    0.01381    0.01368
AFIX  43
H11   2    0.284187    0.687803    0.408271    11.00000   -1.20000
AFIX   0
C45   1    0.402316    0.626595    0.394870    11.00000    0.05877    0.03680 =
         0.02695    0.00293    0.00819    0.01369
C46   1    0.500116    0.549694    0.331241    11.00000    0.03100    0.03772 =
         0.02876    0.00108    0.01085    0.00157
C47   1    0.406071    0.584933    0.301495    11.00000    0.03829    0.03865 =
         0.03020    0.00524    0.01286    0.00390
C48   1    0.362588    0.581761    0.240498    11.00000    0.03497    0.04297 =
         0.02494    0.01020    0.00350    0.00263
AFIX  43
H12   2    0.298070    0.605101    0.220124    11.00000   -1.20000
AFIX   0
C49   1    0.415377    0.544083    0.210703    11.00000    0.03928    0.03581 =
         0.02434   -0.00174    0.01434   -0.00603
AFIX  43
H13   2    0.386834    0.542140    0.169291    11.00000   -1.20000
AFIX   0
C50   1    0.508184    0.508931    0.238461    11.00000    0.03402    0.03666 =
         0.02696   -0.00818    0.00537   -0.00315
AFIX  43
H14   2    0.540298    0.483151    0.216497    11.00000   -1.20000
AFIX   0
C51   1    0.553910    0.511786    0.298905    11.00000    0.02692    0.02543 =
         0.03139    0.00385    0.00721   -0.00404
C52   1    0.642251    0.518065    0.421633    11.00000    0.03949    0.03645 =
         0.02680    0.00274    0.00818   -0.00318
C53   1    0.695583    0.480333    0.389582    11.00000    0.03280    0.03552 =
         0.02917    0.00293    0.00438    0.00285
C54   1    0.782138    0.444862    0.419524    11.00000    0.04266    0.03969 =
         0.02867   -0.00094    0.00998    0.00590
AFIX  43
H15   2    0.810678    0.417830    0.399048    11.00000   -1.20000
AFIX   0
C55   1    0.826962    0.449209    0.479982    11.00000    0.04343    0.04634 =
         0.03745    0.01477    0.00636    0.00757
AFIX  43
H16   2    0.889017    0.425195    0.500030    11.00000   -1.20000
AFIX   0
C56   1    0.784187    0.487181    0.511558    11.00000    0.06790    0.05627 =
         0.02189   -0.00200   -0.00187    0.00692
AFIX  43
H17   2    0.818483    0.489509    0.552572    11.00000   -1.20000
AFIX   0
C57   1    0.690192    0.522219    0.482982    11.00000    0.06552    0.05605 =
         0.02417   -0.00028   -0.00332    0.01035
PART 2
C58A  1    0.651195    0.559855    0.580181    21.00000    0.03833
AFIX  23
H58A  2    0.557347    0.574683    0.594302    21.00000   -1.20000
H58B  2    0.660885    0.527380    0.595132    21.00000   -1.20000
AFIX   0
C59A  1    0.798742    0.587301    0.598924    21.00000    0.04784
AFIX  23
H59A  2    0.795248    0.617419    0.577473    21.00000   -1.20000
H59B  2    0.892792    0.569658    0.589481    21.00000   -1.20000
AFIX   0
C60A  1    0.811136    0.596421    0.666624    21.00000    0.04793
AFIX 137
H60A  2    0.722102    0.615996    0.675320    21.00000   -1.50000
H60B  2    0.911168    0.612439    0.679629    21.00000   -1.50000
H60C  2    0.807927    0.566559    0.687465    21.00000   -1.50000
AFIX   0
PART 3
C58B  1    0.767625    0.577823    0.566066   -21.00000    0.04509
AFIX  23
H58C  2    0.869875    0.561310    0.565515   -21.00000   -1.20000
H58D  2    0.785822    0.611958    0.564579   -21.00000   -1.20000
AFIX   0
C59B  1    0.688493    0.564444    0.619327   -21.00000    0.02965
AFIX  23
H59C  2    0.579128    0.577014    0.614116   -21.00000   -1.20000
H59D  2    0.680383    0.529943    0.620402   -21.00000   -1.20000
AFIX   0
C60B  1    0.766089    0.580282    0.676434   -21.00000    0.02510
AFIX 137
H60D  2    0.872057    0.566381    0.683698   -21.00000   -1.50000
H60E  2    0.702952    0.570655    0.707599   -21.00000   -1.50000
H60F  2    0.775263    0.614425    0.676280   -21.00000   -1.50000
AFIX   0
PART 4
C61A  1    0.206302    0.650012    0.307184    31.00000    0.02576
AFIX  23
H61A  2    0.144903    0.631923    0.275312    31.00000   -1.20000
H61B  2    0.135861    0.657050    0.337619    31.00000   -1.20000
AFIX   0
C62A  1    0.263224    0.694060    0.283113    31.00000    0.03188
AFIX  23
H62A  2    0.344762    0.708426    0.312158    31.00000   -1.20000
H62B  2    0.312009    0.687488    0.246705    31.00000   -1.20000
AFIX   0
C63A  1    0.129993    0.726302    0.270006    31.00000    0.02747
AFIX 137
H63A  2    0.040510    0.709728    0.248237    31.00000   -1.50000
H63B  2    0.162010    0.752271    0.246058    31.00000   -1.50000
H63C  2    0.098225    0.738503    0.306944    31.00000   -1.50000
AFIX   0
PART 5
C61B  1    0.332458    0.670055    0.301114   -31.00000    0.04573
AFIX  23
H61C  2    0.384383    0.695505    0.325638   -31.00000   -1.20000
H61D  2    0.377407    0.668851    0.263080   -31.00000   -1.20000
AFIX   0
C62B  1    0.154296    0.676154    0.291910   -31.00000    0.04300
AFIX  23
H62C  2    0.113094    0.676781    0.330674   -31.00000   -1.20000
H62D  2    0.105672    0.649182    0.269406   -31.00000   -1.20000
AFIX   0
C63B  1    0.103068    0.725248    0.255630   -31.00000    0.03631
AFIX 137
H63D  2    0.152088    0.751966    0.277612   -31.00000   -1.50000
H63E  2   -0.012540    0.728647    0.251381   -31.00000   -1.50000
H63F  2    0.139459    0.724071    0.216511   -31.00000   -1.50000
AFIX   0
PART 0

C64   1    0.736782    0.444583    0.293853    11.00000    0.03516    0.03197 =
         0.03283    0.00597    0.00752   -0.00003
AFIX  23
H26   2    0.841675    0.437660    0.315881    11.00000   -1.20000
H27   2    0.755640    0.459218    0.256031    11.00000   -1.20000
AFIX   0
C65   1    0.651493    0.399397    0.280690    11.00000    0.02917    0.03729 =
         0.04148   -0.00062    0.01413   -0.00199
AFIX  23
H28   2    0.546237    0.405480    0.258453    11.00000   -1.20000
H29   2    0.635171    0.383505    0.317997    11.00000   -1.20000
AFIX   0
C66   1    0.749056    0.368001    0.244263    11.00000    0.03989    0.05113 =
         0.05055   -0.00696    0.01801   -0.00512
AFIX 137
H48   2    0.760873    0.383256    0.206619    11.00000   -1.50000
H49   2    0.694673    0.337999    0.236840    11.00000   -1.50000
H50   2    0.854009    0.362671    0.266039    11.00000   -1.50000
AFIX   0
C67   1   -0.166985    0.769949    0.113922    11.00000    0.08425    0.05072 =
         0.12837   -0.01239    0.06857   -0.00596
AFIX 137
H39   2   -0.235765    0.767471    0.076459    11.00000   -1.50000
H40   2   -0.221737    0.787583    0.142244    11.00000   -1.50000
H41   2   -0.141593    0.738577    0.129482    11.00000   -1.50000
AFIX   0
C68   1   -0.021614    0.793973    0.104413    11.00000    0.05429    0.05838 =
         0.07578    0.01595    0.02469    0.01224
N1    4    0.769308    0.664771    0.311637    11.00000    0.02641    0.02814 =
         0.01807    0.00121    0.00527   -0.00470
N2    4    0.605146    0.698469    0.209822    11.00000    0.02874    0.02317 =
         0.02359    0.00603    0.00925    0.00424
N3    4    0.654282    0.617299    0.155278    11.00000    0.02829    0.02992 =
         0.01071   -0.00028    0.00740    0.00130
N4    4    0.845081    0.587270    0.252667    11.00000    0.02801    0.02158 =
         0.02400    0.00590    0.00561    0.00198
N5    4    0.640001    0.561062    0.513144    11.00000    0.11668    0.06556 =
         0.02505   -0.00902   -0.01852    0.05539
N6    4    0.350217    0.620966    0.334596    11.00000    0.09514    0.04750 =
         0.02557    0.00459    0.00144    0.03122
N7    4    0.654361    0.479209    0.328356    11.00000    0.03066    0.03388 =
         0.02425   -0.00456    0.00564    0.00359
N8    4    0.089224    0.811581    0.096533    11.00000    0.05771    0.11817 =
         0.11636    0.05774    0.01629    0.00541
O1    6    0.938463    0.573138    0.410506    11.00000    0.05000    0.04559 =
         0.02389    0.00428    0.00065    0.00320
F1    3    0.895514    0.821245    0.272320    11.00000    0.03677    0.04166 =
         0.03517   -0.00594    0.01718   -0.00445
F2    3    0.865547    0.909529    0.311258    11.00000    0.05341    0.02966 =
         0.04077   -0.00137    0.01537   -0.00726
F3    3    0.632534    0.931195    0.378993    11.00000    0.04754    0.02860 =
         0.03833   -0.00819    0.00206    0.00039
F4    3    0.442139    0.863063    0.412837    11.00000    0.03528    0.04478 =
         0.04366   -0.01285    0.01869    0.00059
F5    3    0.470250    0.774771    0.374406    11.00000    0.04266    0.03928 =
         0.04344   -0.00873    0.02295   -0.00367
F6    3    0.449634    0.710452    0.003913    11.00000    0.03459    0.04945 =
         0.02705    0.00137    0.01069   -0.00284
F7    3    0.186153    0.716964   -0.075580    11.00000    0.04865    0.05303 =
         0.02072    0.01258    0.00468    0.00285
F8    3   -0.098598    0.689192   -0.045290    11.00000    0.03965    0.04158 =
         0.03274    0.00005   -0.00205   -0.00203
F9    3   -0.126045    0.661385    0.066467    11.00000    0.02829    0.04509 =
         0.04044    0.00403    0.00854   -0.00199
F10   3    0.132728    0.656089    0.146469    11.00000    0.04053    0.04159 =
         0.02168    0.00227    0.00874   -0.00044
F11   3    1.120138    0.566925    0.099202    11.00000    0.03438    0.02768 =
         0.03594   -0.00304    0.01210   -0.00064
F12   3    1.254115    0.501887    0.037141    11.00000    0.03583    0.03835 =
         0.03379   -0.00353    0.01828    0.00061
F13   3    1.117802    0.415817    0.020578    11.00000    0.03577    0.03354 =
         0.03587   -0.00848    0.01703   -0.00100
F14   3    0.847746    0.395838    0.067529    11.00000    0.04336    0.03150 =
         0.05711   -0.01476    0.02181   -0.00704
F15   3    0.712497    0.460728    0.130922    11.00000    0.03394    0.03927 =
         0.05025   -0.01056    0.02394   -0.00477
NI1   5    0.718148    0.641795    0.232418    11.00000    0.02824    0.02692 =
         0.01925   -0.00076    0.00841    0.00047

HKLF 4 1 1 0 0 0 1 0 0 0 1

REM  ydkr_a.res in P2(1)/c
REM R1 =  0.0956 for    5721 Fo > 4sig(Fo)  and  0.1726 for all    9787 data
REM    840 parameters refined using      0 restraints

END

WGHT      0.1077      0.0000

REM Highest difference peak  0.493,  deepest hole -1.001,  1-sigma level  0.100
Q1    1   0.5981  0.6457  0.1803  11.00000  0.05    0.40
Q2    1   0.7661  0.6923  0.3183  11.00000  0.05    0.39
Q3    1  -0.1103  0.7593  0.1804  11.00000  0.05    0.37
Q4    1  -0.0386  0.6409 -0.0826  11.00000  0.05    0.36
Q5    1   0.0275  0.7406  0.1394  11.00000  0.05    0.35
Q6    1   0.1286  0.7890  0.1387  11.00000  0.05    0.34
Q7    1   0.9606  0.3541  0.2738  11.00000  0.05    0.34
Q8    1   0.3033  0.5999  0.1779  11.00000  0.05    0.34
Q9    1   1.0348  0.5873  0.0300  11.00000  0.05    0.33
Q10   1   1.0476  0.5795  0.0417  11.00000  0.05    0.33
Q11   1   0.4323  0.6129  0.0099  11.00000  0.05    0.33
Q12   1   0.8992  0.6339  0.2750  11.00000  0.05    0.33
Q13   1   0.8281  0.5606  0.5686  11.00000  0.05    0.33
Q14   1  -0.0727  0.6418 -0.0711  11.00000  0.05    0.32
Q15   1   0.6810  0.6879  0.2628  11.00000  0.05    0.32
Q16   1   0.7882  0.6810  0.1915  11.00000  0.05    0.32
Q17   1   0.8290  0.6456  0.2874  11.00000  0.05    0.32
Q18   1   0.9423  0.6572  0.2152  11.00000  0.05    0.32
Q19   1   0.8242  0.3913  0.4087  11.00000  0.05    0.32
Q20   1  -0.0868  0.7200  0.0330  11.00000  0.05    0.32
;
_shelx_res_checksum              42307
_shelx_hkl_file
;
   0   0   1   26.15   14.63
   0   0   1   15.72   12.17
   0   0  -1   18.76   12.05
   0   0  -1   -0.03    9.16
   0   0   213938.16  459.84
   0   0   214647.32  459.31
   0   0  -214048.63  475.72
   0   0  -214548.14  454.12
   0   0   3    0.04   72.21
   0   0   3   -9.72   43.76
   0   0  -3  -13.15   46.22
   0   0  -3   10.31   51.83
   0   0   4 8249.56  439.61
   0   0   4 8209.82  399.84
   0   0  -4 8194.50  321.26
   0   0  -4 7451.41  339.58
   0   0   5  -17.96  124.16
   0   0   5    1.19  106.07
   0   0  -5    3.89   84.74
   0   0  -5   95.36   74.88
   0   0   664469.86 4210.90
   0   0  -673619.24 4261.89
   0   0   7  110.73  154.52
   0   0  -7  -32.95   75.49
   0   0   811918.49  844.33
   0   0  -811589.49  550.40
   0   0   9   -6.65  199.81
   0   0  -9 -177.10   99.58
   0   0  1031199.64 2080.74
   0   0 -1028909.27 1522.94
   0   0  11  -63.23  217.68
   0   0 -11   96.53  114.36
   0   0  1222054.29 1464.26
   0   0 -1221777.89 1180.74
   0   0  13  -14.35  206.46
   0   0 -13  203.02  123.82
   0   0  14 3156.61  456.89
   0   0 -14 3534.40  298.73
   0   0  15  312.90  306.72
   0   0 -15 -159.47  126.17
   0   0  16 1563.53  693.84
   0   0 -16 3166.74  298.46
   0   0  17  -96.84  388.38
   0   0 -17 -137.64  211.44
   0   0  18 -139.07  450.64
   0   0 -18  362.57  229.19
   0   0  19    2.89  517.17
   0   0 -19  485.71  263.23
   0   0  20 2918.06  708.15
   0   0 -20 3282.06  500.07
   0   0  21   17.11  397.70
   0   0 -21  130.90  254.17
   0   0  22  280.96  771.44
   0   0 -22  764.72  352.58
   0   0  23   79.10  584.44
   0   0 -23  -49.16  267.37
   0   0  24  381.18  872.41
   0   0 -24  703.73  402.71
   0   0  25   53.06  800.40
   0   0 -25  218.28  256.36
   0   0  26 1076.02  829.66
   0   0 -26  986.23  367.88
   0   0  27 1883.48  945.70
   0   0 -27 -133.38  423.95
   0   1   0   -6.76   12.16
   0  -1   0   -4.78    8.14
   0   1   0   -2.81    5.24
   0  -1   115445.08  440.53
   0  -1   115984.19  531.35
   0   1   115914.68  544.13
   0   1  -116113.52  469.21
   0  -1  -115879.42  449.17
   0   1  -116526.54  529.95
   0   1   216810.49  549.33
   0  -1   218358.13  696.69
   0   1   216945.53  695.30
   0  -1   215143.90  498.87
   0  -1  -216593.88  551.01
   0   1  -218757.12  693.37
   0  -1  -216721.69  627.45
   0   1  -215869.76  540.79
   0   1   3 1803.61  180.74
   0   1   3 1960.30  124.43
   0  -1   3 2011.03  140.86
   0  -1   3 2540.34  181.88
   0   1  -3 1826.08  144.76
   0   1  -3 1850.54  113.67
   0  -1  -3 1980.79  148.42
   0  -1  -3 1838.50  127.12
   0  -1   4 2002.74  156.65
   0   1   4 2482.47  189.37
   0  -1   4 2023.24  191.23
   0   1   4 2533.29  245.28
   0  -1  -4 2776.39  186.41
   0  -1  -4 2265.44  140.09
   0   1  -4 2013.20  152.10
   0   1  -4 1968.80  121.61
   0   1   537674.98 2171.64
   0   1   539963.00 1925.88
   0  -1   537521.24 1875.23
   0  -1   538565.98 2076.04
   0   1  -540718.78 2077.05
   0   1  -537544.06 1858.38
   0  -1  -534661.02 1703.92
   0  -1  -536850.59 1753.04
   0  -1   6 2107.17  250.44
   0   1   6 1453.45  212.88
   0  -1  -6 1961.73  199.09
   0   1  -6 2012.05  226.31
   0  -1   7 6372.73  477.30
   0   1   7 5178.95  509.72
   0  -1  -7 5866.48  367.85
   0   1  -7 6045.87  299.59
   0  -1   8 4354.58  326.99
   0   1   8 4050.34  466.51
   0   1  -8 4306.83  328.01
   0  -1  -8 4462.01  260.39
   0   1   9  892.10  209.56
   0  -1   9  786.59  249.33
   0  -1  -9  790.75  140.65
   0   1  -9  785.87  142.46
   0  -1  1010194.68  661.94
   0   1  1010977.16  924.85
   0   1 -1011514.28  720.95
   0  -1 -1011441.52  719.78
   0   1  11115976.010204.03
   0  -1  11126546.210868.87
   0  -1 -11118155.5 9543.28
   0   1 -11118904.4 9563.41
   0   1  1220694.66 1687.56
   0  -1  1223194.53 1713.31
   0   1 -1222860.57 1212.42
   0  -1 -1222369.71 1216.93
   0   1  13 3129.37  597.01
   0  -1  13 3182.28  414.99
   0   1 -13 3125.03  286.91
   0  -1 -13 3574.88  291.25
   0   1  1413534.78 1119.64
   0  -1  1414558.12 1365.50
   0   1 -1415363.79  998.18
   0  -1 -1414405.83  821.71
   0   1  15 1818.45  429.26
   0  -1  15 2001.62  554.47
   0   1 -15 2258.35  325.46
   0  -1 -15 2207.09  258.34
   0   1  16 6722.76  733.32
   0  -1  16 6563.11  711.18
   0   1 -16 5262.83  549.94
   0  -1 -16 5687.36  468.21
   0   1  17 9456.08 1009.65
   0  -1  17 9852.79  972.14
   0   1 -17 9881.10  820.56
   0  -1 -17 9049.43  790.94
   0   1  18  918.96  362.95
   0  -1  18  212.07  524.26
   0   1 -18  239.84  199.13
   0  -1 -18  712.08  255.88
   0   1  19 1668.58  615.91
   0  -1  19 1433.18  776.35
   0   1 -19 1931.30  297.96
   0  -1 -19 2400.60  396.88
   0   1  20  294.06  621.67
   0  -1  20 1883.26  581.17
   0   1 -20 1812.96  387.63
   0  -1 -20 1821.73  395.86
   0   1  21  -33.35  569.04
   0  -1  21  497.19  530.36
   0  -1 -21 1165.89  373.81
   0   1 -21 1383.31  355.74
   0   1  22  963.65  865.01
   0  -1  22  853.86  892.61
   0  -1 -22 1200.41  418.54
   0   1 -22 1254.38  401.42
   0  -1  23  199.27  720.44
   0   1  23  348.25  729.79
   0   1 -23  351.56  316.27
   0  -1 -23  275.47  328.75
   0   1  24 1387.29  918.85
   0  -1  24 1642.52  910.96
   0  -1 -24  616.79  310.37
   0   1 -24  739.51  415.88
   0   1  25  974.81  855.24
   0  -1  25  561.64  612.48
   0   1 -25  185.41  275.02
   0  -1 -25  380.63  281.03
   0  -1  26 1738.68 1033.59
   0   1  26  159.14 1019.64
   0   1 -26  524.29  328.46
   0  -1 -26  728.71  337.43
   0   1  27 1956.68  649.95
   0  -1  27 1826.95  893.49
   0  -1 -27 -230.97  293.85
   0   1 -27 -224.47  378.61
   0  -2   022804.31  771.35
   0   2   023006.03  798.52
   0   2   021199.50  666.84
   0  -2   021190.40  662.87
   0   2   195976.15 5907.32
   0  -2  -192278.56 5620.88
   0   2   2 8999.68  282.22
   0  -2   2 9378.25  338.20
   0   2   2 9712.31  452.03
   0  -2   2 9581.52  423.37
   0   2  -2 9539.33  404.75
   0  -2  -2 9622.61  312.99
   0   2  -210069.60  337.49
   0  -2  -2 9307.85  400.89
   0  -2   3 9753.65  508.74
   0  -2   3 8909.15  391.62
   0   2   3 8446.99  511.28
   0   2   310447.07  329.61
   0  -2  -3 9538.99  471.65
   0   2  -3 9064.54  316.63
   0  -2  -3 9578.43  367.06
   0   2  -3 8134.96  374.40
   0   2   4 2310.57  168.07
   0  -2   4 3234.59  170.72
   0  -2   4 3107.93  222.50
   0   2   4 2421.08  237.76
   0   2  -4 2283.17  186.65
   0   2  -4 2545.60  176.53
   0  -2  -4 3236.84  238.54
   0  -2  -4 3123.96  156.80
   0   2   5 2088.20  142.98
   0  -2   5 2692.68  229.92
   0  -2   5 2553.31  177.57
   0   2   5 2031.32  304.42
   0  -2  -5 2659.30  206.73
   0   2  -5 2095.51  175.52
   0   2  -5 2422.43  170.51
   0  -2  -5 2618.01  233.41
   0   2   6 3122.29  369.29
   0  -2   6 2762.46  217.29
   0  -2  -6 3088.61  253.59
   0  -2  -6 3349.94  243.79
   0   2  -6 3138.01  208.39
   0  -2   718535.23 1050.54
   0   2   717547.70 1161.72
   0  -2  -716444.84  844.97
   0   2  -718212.30  942.56
   0   2   8  854.73  201.84
   0  -2   8  884.11  223.88
   0  -2  -8  958.16  172.69
   0   2  -8  515.32  190.05
   0  -2   9  444.18  209.51
   0   2   9  500.23  260.85
   0  -2  -9  305.63  111.75
   0   2  -9  455.47  123.76
   0  -2  10 1503.94  344.60
   0   2  10 1595.73  295.37
   0  -2 -10 1544.02  250.21
   0   2 -10 1531.75  254.05
   0   2  1115773.59 1305.72
   0  -2  1115301.86  965.21
   0   2 -1116907.21 1025.53
   0  -2 -1116408.47  861.14
   0  -2  12  624.51  281.60
   0   2  12  231.70  252.63
   0  -2 -12  691.79  211.51
   0   2 -12  760.71  223.55
   0  -2  13  399.14  266.50
   0   2  13   57.95  287.42
   0   2 -13   59.71  116.73
   0  -2 -13   89.38  118.79
   0   2  14 2834.41  749.79
   0  -2  14 5757.73  743.31
   0  -2 -14 5406.76  399.15
   0   2 -14 5722.51  486.03
   0   2  15 2319.18  448.91
   0  -2  15 2721.12  431.47
   0   2 -15 2465.57  362.31
   0  -2 -15 2601.56  360.04
   0  -2  16  274.04  389.53
   0   2  16  478.53  425.60
   0   2 -16  179.96  153.10
   0  -2 -16  422.20  213.84
   0  -2  17 1305.70  453.54
   0   2  17 1720.27  701.08
   0  -2 -17 2171.17  353.90
   0   2 -17 1771.22  348.16
   0  -2  18  527.32  573.97
   0   2  18 1439.84  672.63
   0   2 -18 1677.76  330.78
   0  -2 -18  938.95  234.93
   0   2  19  348.22  577.86
   0  -2  19  980.42  517.48
   0  -2 -19  688.28  210.75
   0   2 -19  261.91  215.91
   0   2  20 -130.64  523.20
   0  -2  20  173.85  374.72
   0   2 -20  243.08  176.97
   0  -2 -20   92.16  188.76
   0   2  21  807.86  801.64
   0  -2  21  166.82  727.29
   0  -2 -21 1028.43  283.33
   0   2 -21 1102.43  356.43
   0  -2  22  659.48  851.97
   0   2  22  857.26  924.24
   0  -2 -22 1315.43  324.05
   0   2 -22 1536.39  413.63
   0   2  23 -279.01  865.58
   0  -2  23  164.13  569.34
   0  -2 -23  742.81  285.52
   0   2 -23 1206.14  370.51
   0   2  24  150.41  800.85
   0  -2  24 -428.68  581.55
   0  -2 -24  550.52  258.90
   0   2 -24  334.65  252.57
   0  -2  25 3235.61 1324.82
   0   2  25 3399.51 1355.83
   0  -2 -25 2641.88  460.40
   0   2 -25 2134.99  452.11
   0   2  26 1443.96 1100.15
   0  -2  26 1417.47 1063.45
   0  -2 -26  597.15  367.12
   0   2 -26  864.48  476.31
   0   2  27 3019.09 1524.27
   0  -2  27 2472.40 1080.51
   0   2 -27 1589.48  630.56
   0  -3   0  -12.88   50.83
   0  -3   0   36.28   27.97
   0   3   0  -23.61   53.06
   0   3   151855.79 2700.98
   0   3   156569.13 2644.52
   0  -3   152921.15 2580.72
   0  -3   153447.42 2661.63
   0  -3  -154323.97 2779.59
   0   3  -155081.30 2743.63
   0   3  -150634.74 2425.17
   0  -3  -153399.58 2545.75
   0   3   2 4086.47  282.78
   0  -3   2 3626.36  178.58
   0  -3   2 3814.23  238.12
   0   3   2 3155.71  128.00
   0   3  -2 3671.72  173.89
   0   3  -2 3732.42  242.74
   0  -3  -2 3727.15  163.65
   0  -3  -2 3895.66  245.73
   0  -3   3    3.37  122.06
   0   3   3   11.89   38.10
   0  -3   3   38.94   81.94
   0   3   3  107.67  135.40
   0   3  -3   26.78   49.69
   0  -3  -3  -22.13   49.37
   0   3  -3  235.58  117.93
   0  -3  -3    5.56  106.03
   0  -3   4   92.84   83.34
   0  -3   4  538.95  184.36
   0   3   4  -34.94  180.19
   0   3   4  201.62   81.43
   0   3  -4  319.12   94.96
   0  -3  -4  334.29  143.37
   0  -3  -4  300.82   73.96
   0   3  -4  261.62  151.59
   0   3   525279.37 1555.88
   0  -3   525276.00 1266.35
   0  -3   528111.36 1593.47
   0   3  -524577.99 1297.23
   0  -3  -526087.17 1227.12
   0  -3  -523215.71 1253.46
   0   3   6 5767.96  562.37
   0  -3   6 5848.12  309.98
   0  -3  -6 5763.68  314.62
   0  -3  -6 6040.14  280.92
   0   3  -6 6606.71  441.36
   0  -3   7  764.66  146.36
   0   3   7  966.24  276.45
   0  -3  -7  807.19  153.72
   0   3  -7  763.05  175.15
   0   3   810563.11  872.65
   0  -3   8 9723.77  538.12
   0   3  -810469.44  519.34
   0  -3  -811063.25  508.43
   0  -3   9  814.06  183.13
   0   3   9 1307.19  330.99
   0   3  -9  907.23  211.81
   0  -3  -9  646.49  142.83
   0  -3  10 6074.97  445.46
   0   3  10 5884.80  724.37
   0   3 -10 6501.65  514.99
   0  -3 -10 5637.55  370.73
   0   3  11 1233.10  399.95
   0  -3  11  948.28  246.99
   0   3 -11  650.44  173.72
   0  -3 -11 1477.65  225.11
   0   3  1216313.87 1397.25
   0  -3  1215857.60 1004.84
   0   3 -1214215.00  919.59
   0  -3 -1213352.75  878.72
   0  -3  1329149.82 2166.89
   0   3  1329577.24 2138.31
   0   3 -1329583.69 1836.77
   0  -3 -1328223.73 1597.75
   0   3  14 6436.29  950.71
   0  -3  14 8709.81  900.44
   0  -3 -14 7833.42  480.59
   0   3 -14 6148.23  559.89
   0  -3  15  227.42  305.45
   0   3  15    5.65  255.24
   0   3 -15 -117.21  132.11
   0  -3 -15 -192.52  172.38
   0   3  16 4743.67  908.21
   0  -3  16 4377.21  771.88
   0   3 -16 5018.28  504.52
   0  -3 -16 3906.58  379.67
   0  -3  17 4800.77  863.02
   0   3  17 4934.21 1003.04
   0   3 -17 5329.04  429.91
   0  -3 -17 4831.93  446.06
   0   3  18   26.35  383.63
   0  -3  18  168.87  465.16
   0  -3 -18  642.67  257.61
   0   3 -18  462.24  259.75
   0  -3  19 2936.83  926.54
   0   3  19 4375.82 1080.16
   0  -3 -19 4700.37  577.93
   0   3 -19 3311.61  538.94
   0   3  20  126.57  554.20
   0  -3  20 1336.34  355.20
   0   3 -20  -72.79  188.38
   0  -3 -20   87.83  267.67
   0   3  21  132.53  567.77
   0  -3  21   72.94  539.44
   0   3 -21   78.27  186.86
   0  -3 -21  235.62  198.14
   0   3  22  178.16  730.89
   0  -3  22  220.27  681.20
   0  -3 -22  168.82  254.75
   0   3 -22 1144.75  325.51
   0  -3  23  195.93  887.60
   0   3  23  235.88  958.28
   0   3 -23 1369.03  413.28
   0  -3 -23 1378.90  330.00
   0  -3  24  692.31  638.21
   0   3  24 -476.84  719.97
   0  -3 -24   24.30  247.08
   0   3 -24   39.91  219.88
   0  -3 -24  242.52  236.04
   0  -3  25 1598.67  775.14
   0   3  25 2348.54 1092.53
   0  -3 -25  483.84  378.35
   0   3 -25 1297.35  346.19
   0   3  26 1016.01 1064.36
   0  -3  26 1300.33 1031.17
   0  -3 -26  411.10  357.65
   0   3 -26  855.12  449.13
   0   3  27  781.56 1159.10
   0  -3  27 2534.57 1105.61
   0   3 -27  307.19  480.54
   0  -4   022086.43  923.22
   0   4   022480.96  979.03
   0  -4   021059.92  726.61
   0   4   1  855.51  139.42
   0   4   1  701.05   69.85
   0  -4   1  736.19   83.15
   0  -4   1  503.21   68.05
   0   4  -1  328.41  103.70
   0  -4  -1  819.92  120.71
   0  -4  -1  757.61  100.41
   0   4  -1  956.74  106.97
   0   4   210698.37  612.50
   0  -4   210510.81  511.44
   0   4   211017.09  379.11
   0  -4   210028.06  453.37
   0   4  -210084.94  434.71
   0  -4  -210629.83  387.24
   0   4  -210369.45  510.23
   0  -4  -210859.08  562.82
   0  -4   3 7643.10  387.71
   0   4   3 8019.65  541.01
   0   4   3 7183.46  252.12
   0  -4   3 7580.71  494.51
   0   4  -3 7705.09  501.12
   0   4  -3 7781.15  367.97
   0  -4  -3 6713.90  463.56
   0  -4  -3 8029.46  366.90
   0  -4   4  855.84  111.53
   0   4   4  476.13  101.57
   0  -4   4 1006.13  212.63
   0   4   4  613.54  200.09
   0   4  -4  873.06  213.02
   0  -4  -4  896.86  132.97
   0   4  -4  766.52   91.84
   0  -4  -4  365.19  192.12
   0  -4   5  927.50  125.59
   0   4   5  698.14  281.97
   0  -4   5 1251.08  260.67
   0  -4  -5  920.28  146.54
   0  -4  -5  753.22  209.16
   0   4  -5 1331.99  215.32
   0   4   6 6447.38  597.55
   0  -4   6 6234.60  332.28
   0   4  -6 6089.17  342.18
   0  -4  -6 6284.53  465.20
   0  -4  -6 7223.05  317.59
   0  -4   7 8719.38  563.76
   0   4   7 9833.68  804.20
   0   4  -7 9677.75  613.70
   0  -4  -7 9484.66  433.49
   0   4   8  107.65  210.45
   0  -4   8  -55.26  140.96
   0   4  -8  156.09   91.44
   0  -4  -8  -31.25   83.42
   0  -4   9  239.16  140.67
   0   4   9  188.76  193.80
   0  -4  -9  177.35  108.95
   0   4  -9  403.20  174.99
   0  -4  1011670.21  682.12
   0   4  1010122.24  996.96
   0   4 -10 9094.50  544.95
   0  -4 -10 9758.28  636.36
   0  -4  11 -182.80  206.98
   0   4  11   64.42  284.25
   0   4 -11   70.76  129.54
   0  -4 -11  335.19  155.40
   0   4  12 9504.07 1037.61
   0  -4  12 9071.99  803.19
   0  -4 -12 9338.18  544.86
   0   4 -12 9183.14  652.81
   0   4  13  223.56  360.79
   0  -4  13  195.64  211.68
   0  -4 -13  448.25  188.93
   0   4 -13  400.09  192.02
   0   4  14 1525.66  586.31
   0  -4  14 1966.85  342.61
   0  -4 -14 1904.50  298.30
   0   4 -14 1999.72  247.39
   0  -4  15  450.08  327.51
   0   4  15  526.28  317.01
   0  -4 -15  352.38  223.62
   0   4 -15  401.83  217.77
   0   4  16  -48.63  372.50
   0  -4  16  156.06  317.39
   0   4 -16   20.71  136.76
   0  -4 -16   66.29  137.35
   0  -4  17  295.88  433.15
   0   4  17  336.15  372.46
   0  -4 -17  576.02  260.79
   0   4 -17  518.41  250.60
   0  -4  18 1067.40  472.56
   0   4  18  390.28  565.08
   0   4 -18  382.87  200.19
   0  -4 -18  588.02  208.84
   0   4  19 1524.72 1326.91
   0  -4  19 7000.74  910.48
   0  -4 -19 6763.18  605.05
   0   4 -19 7528.88  712.06
   0  -4  20  975.49  656.01
   0   4  20 1177.02  565.31
   0   4 -20  799.71  263.84
   0  -4 -20 1494.16  378.51
   0  -4  21  424.48  453.65
   0   4  21   -1.30  532.68
   0   4 -21   39.37  177.20
   0  -4 -21 -112.72  255.09
   0  -4  22 1510.07 1179.67
   0   4  22 6383.23 1321.08
   0   4 -22 3307.77  597.46
   0  -4 -22 3600.25  651.03
   0  -4  23  139.30  733.81
   0   4  23  284.49  808.20
   0  -4 -23   86.80  383.33
   0   4 -23  947.32  359.86
   0   4  24 5171.47 1822.37
   0  -4  24 7416.15 1274.12
   0   4 -24 5808.57  642.63
   0   4  25 1541.05  699.67
   0  -4  25 -788.86  620.20
   0   4 -25  150.86  299.63
   0  -4 -25 -108.11  234.03
   0   4  26 2282.58 1179.72
   0  -4  26 3051.64 1143.58
   0  -4 -26  112.29  388.90
   0   4 -26 1811.58  499.32
   0   4  27 1507.43 1223.87
   0  -4  27 1047.95 1103.87
   0   4 -27  507.68  352.18
   0  -5   0  -52.15   47.36
   0   5   0   22.01   70.10
   0  -5   0  -17.97   85.46
   0  -5   125479.23 1175.63
   0  -5   124300.28 1044.36
   0   5   124377.68 1257.25
   0   5   125991.26 1044.62
   0  -5  -124722.00 1083.22
   0   5  -125720.46 1197.51
   0  -5  -124643.10 1241.16
   0   5  -124346.76 1118.16
   0  -5   2 1821.13  121.51
   0   5   2 1352.90  231.76
   0  -5   2 1503.95  189.08
   0   5   2 1278.80  102.29
   0   5  -2 1636.66  209.39
   0   5  -2 1106.56  146.99
   0  -5  -2 1652.22  153.33
   0  -5  -2 1513.37  206.32
   0   5   317051.02  943.90
   0  -5   314167.04  685.57
   0   5   313552.64  548.49
   0  -5   314956.83  750.51
   0   5  -314635.72  685.89
   0  -5  -314046.29  833.19
   0   5  -314890.93  848.56
   0  -5  -316341.33  746.73
   0   5   4 6180.71  277.72
   0  -5   4 6570.07  316.51
   0  -5   4 7751.29  534.28
   0   5   4 7173.99  570.49
   0   5  -4 8001.50  507.89
   0  -5  -4 6304.15  514.50
   0  -5  -4 7862.85  386.38
   0  -5   5 5507.63  374.11
   0  -5   5 6479.50  515.61
   0   5   5 5562.30  536.30
   0   5  -5 5489.48  459.95
   0  -5  -5 6034.83  348.45
   0  -5  -5 6702.34  469.78
   0  -5   6  196.34  142.11
   0   5   6  584.22  235.17
   0   5  -6  433.69  182.01
   0  -5  -6  246.57  121.64
   0   5   7 2036.14  410.83
   0  -5   7 2119.19  197.05
   0   5  -7 2842.43  277.93
   0  -5  -7 2396.14  230.01
   0  -5   8  -42.20  150.58
   0   5   8  202.08  223.80
   0  -5  -8 -209.56  121.27
   0   5  -8   -2.60  154.80
   0   5   9  109.12  242.15
   0  -5   9    8.44  121.34
   0  -5  -9  -53.52  136.58
   0   5  -9  301.04  148.93
   0  -5  10 8410.86  662.95
   0   5  10 8213.34  915.16
   0   5 -10 9393.21  637.72
   0  -5 -10 7626.61  583.42
   0  -5  11 3625.42  334.02
   0   5  11 4182.01  494.64
   0  -5 -11 3363.83  379.44
   0   5 -11 4460.82  421.96
   0  -5  1212177.63  829.27
   0   5  1214081.25 1277.23
   0   5 -1213341.50  892.17
   0  -5 -1211704.19  814.94
   0  -5  13  700.07  224.33
   0   5  13 1109.31  445.47
   0  -5 -13  725.93  226.41
   0   5 -13  833.36  223.86
   0   5  14  730.45  503.80
   0  -5  14 1118.56  410.20
   0  -5 -14 1140.83  269.95
   0   5 -14 1565.34  283.60
   0  -5  15   74.51  337.32
   0   5  15  184.55  433.68
   0  -5 -15  434.45  163.21
   0   5 -15  568.63  173.69
   0  -5  16 1947.26  578.27
   0   5  16  774.07  730.89
   0   5 -16 2703.85  374.45
   0  -5 -16 2771.67  394.00
   0   5  17   27.55  379.34
   0  -5  17  571.29  235.74
   0   5 -17 -178.28  181.16
   0  -5 -17 -100.91  136.67
   0   5  18 4702.16 1287.87
   0  -5  18 7648.66 1099.41
   0   5 -18 6827.84  696.73
   0  -5 -18 6290.67  704.56
   0   5  19  824.44  521.44
   0  -5  19  139.70  305.69
   0   5 -19  -62.44  231.26
   0  -5 -19  231.19  252.55
   0  -5  20  501.89  580.41
   0   5  20 2894.25  678.77
   0  -5 -20  371.77  235.92
   0   5 -20  222.72  300.55
   0  -5  21  423.64  413.64
   0   5  21  684.41  485.25
   0  -5 -21  305.62  228.54
   0   5 -21  127.93  294.67
   0  -5  22 2015.99  773.79
   0   5  22 2190.99  921.33
   0  -5 -22  946.17  460.16
   0   5 -22  809.11  408.53
   0  -5  23  536.38  682.21
   0   5  23 2835.41 1011.01
   0   5 -23 1170.57  321.68
   0  -5 -23 1271.72  484.85
   0  -5  24 1590.72  885.48
   0   5  24 2548.71  998.15
   0   5 -24  897.89  417.17
   0  -5 -24  245.56  467.77
   0  -5  25  536.34  524.71
   0   5  25  -80.31  849.14
   0  -5 -25  167.93  274.46
   0   5 -25   28.79  336.47
   0  -5  26  704.57  798.74
   0   5  26  559.83  968.19
   0   5 -26  200.46  273.60
   0  -5 -26  199.99  310.13
   0  -6   0 2633.78  224.19
   0   6   1 1398.73  123.79
   0  -6   1 1611.95  125.51
   0  -6   1 1704.22  181.90
   0   6   1 1453.40  224.03
   0  -6  -1 1719.64  212.20
   0  -6  -1  952.18  167.16
   0   6  -1 1429.16  159.84
   0   6  -1 1619.81  172.71
   0   6   2 3762.26  205.75
   0  -6   2 4537.43  303.03
   0  -6   2 4043.28  284.69
   0   6   2 4108.01  379.82
   0   6  -2 4197.36  270.78
   0  -6  -2 4208.97  260.43
   0   6  -2 4168.89  332.30
   0  -6  -2 4536.29  351.71
   0   6   324645.27 1078.19
   0  -6   326318.50 1288.95
   0  -6   326758.19 1352.65
   0   6   328011.78 1572.07
   0   6  -326465.15 1299.43
   0  -6  -326440.50 1268.90
   0  -6  -324585.01 1446.85
   0   6  -328318.33 1475.05
   0  -6   414691.23  653.45
   0   6   415335.32  948.83
   0   6  -414822.47  849.48
   0  -6  -415410.18  778.07
   0  -6  -412827.79  856.69
   0   6   5  902.39  257.82
   0  -6   5  744.84  118.43
   0  -6   5  316.83  232.29
   0   6  -5  570.92  192.75
   0  -6  -5  733.45  108.60
   0  -6  -5  500.03  217.01
   0  -6   6 2713.73  272.35
   0   6   6 2419.47  422.34
   0   6  -6 2188.91  330.90
   0  -6  -6 2926.48  188.03
   0   6   7 4467.50  580.14
   0  -6   7 5857.95  406.38
   0   6  -7 5707.30  476.12
   0  -6  -7 4844.40  280.02
   0  -6   8  190.01  162.20
   0   6   8  145.61  262.83
   0  -6  -8  213.13  144.97
   0   6  -8  236.47  170.80
   0  -6   923695.88 1476.67
   0   6   922944.52 1885.85
   0  -6  -923458.12 1362.62
   0   6  -925934.31 1544.76
   0  -6  10 4136.61  340.95
   0   6  10 3950.85  650.97
   0   6 -10 3476.49  398.00
   0  -6 -10 4429.07  304.54
   0  -6  11  258.75  226.92
   0   6  11  116.05  337.45
   0  -6 -11  536.80  190.82
   0   6 -11  361.89  200.66
   0  -6  12 1506.16  302.05
   0   6  12 1022.85  480.12
   0   6 -12 1043.05  200.17
   0  -6 -12 1764.01  255.91
   0   6  13 7441.33  795.40
   0  -6  13 7987.19  805.99
   0   6 -13 8889.61  550.05
   0  -6 -13 7711.69  623.87
   0   6  14  -13.92  366.25
   0  -6  14  418.94  259.27
   0   6 -14  180.97  138.18
   0  -6 -14   60.41  184.47
   0  -6  15 1249.10  479.22
   0   6  15 1606.77  616.11
   0   6 -15 1869.21  319.66
   0  -6 -15 1480.86  235.88
   0  -6  16 1081.47  437.16
   0   6  16 1050.88  576.01
   0   6 -16  892.47  295.49
   0  -6 -16  806.97  286.00
   0   6  17  366.66  495.16
   0  -6  17  137.14  266.86
   0   6 -17  356.84  175.73
   0  -6 -17  255.09  177.62
   0  -6  18 2102.02  479.72
   0   6  18 1063.23  775.19
   0   6 -18 1878.56  369.96
   0  -6 -18 1265.80  393.86
   0   6  19 1719.40  884.00
   0  -6  19 2942.51  751.53
   0   6 -19 1399.39  439.10
   0  -6 -19 2528.49  350.65
   0  -6  20   81.88  312.91
   0   6  20  639.22  393.39
   0   6 -20 -126.20  234.66
   0  -6 -20   55.88  268.08
   0  -6  21 1441.25  786.68
   0   6  21 3194.02  916.67
   0  -6 -21 1404.36  465.94
   0   6 -21 1013.95  418.53
   0   6  22 7292.52 1374.24
   0  -6  22 1864.78  816.31
   0  -6 -22 4586.01  524.51
   0   6 -22 1474.14  589.24
   0  -6  23 2288.53  830.61
   0   6  23 2418.93  767.53
   0  -6 -23  722.68  474.28
   0   6 -23  892.64  319.38
   0   6  24 2852.12 1156.92
   0  -6  24 2352.48  988.66
   0   6 -24 1045.36  455.28
   0  -6 -24  766.46  517.66
   0  -6  25 4367.70 1114.21
   0   6  25 3466.15 1314.77
   0   6 -25  795.80  395.62
   0  -6 -25 1813.02  600.39
   0  -6  26 1389.27  868.22
   0   6  26 2167.68 1428.40
   0   6 -26 1129.13  570.15
   0  -6 -26 1920.90  488.47
   0  -7   0  227.50  127.29
   0  -7   0    1.62  106.67
   0   7   0   28.50   84.18
   0   7   0  -24.15   60.10
   0  -7   1 1874.70  129.85
   0   7   1 2011.36  158.64
   0  -7   1 2156.44  202.94
   0   7   1 2077.78  148.93
   0  -7  -1 1668.76  189.23
   0   7  -1 1716.25  212.50
   0  -7  -1 2284.84  237.43
   0   7  -1 1360.59  203.90
   0  -7   2 4851.09  314.84
   0   7   2 5451.62  259.76
   0  -7   2 5160.78  331.74
   0   7   2 5821.47  445.26
   0  -7  -2 4881.50  399.67
   0   7  -2 5554.66  345.36
   0  -7  -2 5001.42  337.64
   0   7  -2 5044.70  341.43
   0  -7   323812.69 1220.10
   0   7   323772.66 1367.99
   0   7   321851.77  896.87
   0  -7   323697.63 1184.06
   0  -7  -322864.01 1319.59
   0  -7  -324407.26 1210.96
   0   7  -323177.15 1338.12
   0  -7   4 9337.23  590.49
   0   7   4 9385.88  689.15
   0  -7   4 8380.28  487.85
   0  -7  -4 8170.41  588.91
   0   7  -4 9993.77  641.54
   0  -7  -4 8926.07  505.09
   0  -7   5 9915.90  560.30
   0  -7   5 9350.98  692.61
   0   7   5 8847.67  738.72
   0   7  -510136.68  668.75
   0  -7  -5 9463.12  730.56
   0  -7  -511342.53  529.27
   0   7   6 2318.05  322.68
   0  -7  -6 1986.93  219.17
   0   7  -6 1282.78  320.64
   0  -7   741549.16 2307.87
   0   7   742669.16 2997.78
   0  -7  -743095.35 2453.67
   0   7  -741184.42 2636.96
   0  -7   8 2996.53  252.64
   0   7   8 2253.66  489.00
   0  -7  -8 2831.44  307.68
   0   7  -8 2651.32  386.50
   0  -7   910830.72  605.15
   0   7   9 9314.76  974.03
   0  -7  -910071.83  680.79
   0   7  -9 8558.84  671.45
   0  -7  10 2722.47  256.03
   0   7  10 2603.49  548.46
   0  -7 -10 2262.37  326.05
   0   7 -10 2182.72  363.19
   0   7  1111919.78 1243.85
   0  -7  1112809.27  912.41
   0  -7 -1111874.85  695.06
   0   7 -1111523.57  791.77
   0  -7  12  846.02  261.64
   0   7  12  558.53  412.76
   0   7 -12  591.43  223.00
   0  -7 -12  471.78  156.11
   0   7  13 5502.42  864.20
   0  -7  13 4419.75  415.33
   0   7 -13 5233.87  500.27
   0  -7 -13 4640.75  468.38
   0   7  14  577.47  434.06
   0  -7  14  570.23  216.60
   0   7 -14  132.01  233.52
   0  -7 -14  124.51  208.66
   0   7  1526638.72 2345.30
   0  -7  1528317.15 2003.85
   0  -7 -1527581.97 1711.28
   0   7 -1528671.11 1891.38
   0  -7  16 2679.05  633.32
   0   7  16 3336.22  874.32
   0   7 -16 3353.19  415.90
   0  -7 -16 2377.41  338.25
   0   7  17 2474.54  837.47
   0  -7  17 2193.34  572.82
   0   7 -17 1769.99  295.72
   0  -7 -17 2060.94  412.12
   0   7  18  356.32  436.58
   0  -7  18  152.75  412.06
   0   7 -18  345.09  261.83
   0  -7 -18  406.89  209.36
   0  -7  19 1013.98  453.36
   0   7  19 1874.57  787.49
   0   7 -19  805.79  358.14
   0  -7 -19 1196.38  389.20
   0   7  20  639.86  601.00
   0  -7  20  161.08  457.85
   0   7 -20   74.71  258.65
   0  -7 -20   79.97  204.47
   0  -7  21 3396.83  811.00
   0   7  21 5049.67 1049.58
   0   7 -21 4848.23  616.79
   0  -7 -21 3696.19  710.30
   0   7  22 1524.18  737.19
   0  -7  22  301.41  586.94
   0   7 -22   58.97  223.56
   0  -7 -22  308.14  344.12
   0   7  23 2010.03  904.62
   0  -7  23 1075.11  713.66
   0   7 -23  592.30  371.13
   0  -7 -23  219.98  295.82
   0   7  24  163.94  839.66
   0  -7  24  699.71  492.91
   0  -7 -24  293.74  383.85
   0   7 -24   25.93  331.66
   0  -7  25  899.43  957.72
   0   7  25 1890.04 1115.23
   0  -7 -25  730.38  509.41
   0   7 -25  669.96  318.14
   0  -7  26  963.81  610.65
   0   7  26 1319.99  961.18
   0   7 -26   44.80  377.44
   0  -7 -26 -124.84  442.48
   0  -8   059860.13 3985.68
   0   8   065422.50 3667.86
   0   8   067625.49 3976.79
   0  -8   066923.05 4149.40
   0  -8   144249.75 2280.25
   0  -8   145199.46 2500.36
   0   8   143147.55 2217.30
   0   8   142109.05 2086.60
   0  -8  -146426.57 2749.77
   0  -8  -139160.07 2414.42
   0   8  -149539.97 2626.26
   0   8   246133.59 2747.29
   0  -8   246105.46 2585.72
   0   8   248819.43 2543.61
   0  -8   246263.58 2604.09
   0  -8  -245859.92 2555.81
   0   8  -248118.74 2778.97
   0  -8  -246873.58 2928.49
   0   8   3 5155.39  413.66
   0  -8   3 4896.69  327.21
   0  -8   3 5195.69  340.69
   0   8  -3 5943.75  431.80
   0  -8  -3 4535.28  331.05
   0  -8  -3 5106.28  428.74
   0  -8   4 2593.52  245.60
   0  -8   4 2852.69  260.42
   0   8   4 3086.00  327.71
   0   8  -4 3020.55  301.30
   0  -8  -4 2615.61  294.01
   0  -8  -4 2476.12  257.27
   0  -8   5 4582.73  344.85
   0   8   5 4347.90  494.13
   0   8  -5 3664.88  434.29
   0  -8  -5 4762.93  353.86
   0  -8   6  212.88  101.51
   0   8   6   49.42  180.97
   0  -8  -6   34.33  151.36
   0   8  -6  163.05  195.32
   0   8   7 2665.03  442.98
   0  -8   7 2474.28  290.33
   0  -8  -7 1802.69  275.90
   0   8  -7 3408.31  325.11
   0  -8   810207.76  572.52
   0   8   8 8269.94  924.68
   0  -8  -810279.19  679.48
   0   8  -810095.77  759.23
   0  -8   9 3973.02  310.14
   0   8   9 3865.19  626.54
   0  -8  -9 3301.10  376.17
   0   8  -9 4646.72  497.15
   0  -8  1041733.30 2478.99
   0   8  1038172.55 3100.96
   0  -8 -1039744.11 2514.82
   0   8 -1038885.89 2519.78
   0  -8  11   88.83  209.50
   0   8  11  231.91  333.77
   0   8 -11  159.23  182.61
   0  -8 -11  521.94  191.02
   0  -8  12  515.15  181.41
   0   8  12  215.35  390.43
   0  -8 -12  394.28  154.10
   0   8 -12  268.11  204.73
   0  -8  13 1100.78  236.69
   0   8  13  932.04  508.52
   0   8 -13 1133.26  199.92
   0  -8 -13 1056.50  205.41
   0  -8  14 4152.32  475.02
   0   8  14 4156.36  865.34
   0  -8 -14 4097.89  382.98
   0   8 -14 4237.24  493.69
   0   8  15 1777.04  711.13
   0  -8  15 1736.25  364.79
   0  -8 -15 2054.36  292.16
   0   8 -15 2342.05  341.12
   0   8  16 -304.50  426.24
   0  -8  16 -226.39  210.69
   0  -8 -16   36.98  159.67
   0   8 -16  -76.92  147.07
   0  -8  17  780.88  348.53
   0   8  17  301.29  657.69
   0  -8 -17  918.29  335.32
   0   8 -17 1266.58  322.90
   0   8  18  414.36  721.67
   0  -8  18 1254.23  504.45
   0  -8 -18  500.84  360.08
   0   8 -18 1163.40  315.15
   0   8  19  648.28  462.84
   0  -8  19  370.23  441.27
   0   8 -19  271.84  278.51
   0  -8 -19  319.21  233.09
   0  -8  20  255.79  529.50
   0   8  20 1978.06  706.18
   0   8 -20  182.19  221.48
   0  -8 -20  436.01  335.34
   0  -8  21  996.97  499.14
   0   8  21 2273.59  864.67
   0  -8 -21  642.17  306.06
   0   8 -21  729.80  369.29
   0  -8  22 -182.14  445.89
   0   8  22  639.92  431.34
   0  -8 -22 -148.14  282.13
   0   8 -22  -28.94  176.39
   0  -8  23 1621.34  595.03
   0   8  23 1891.37 1006.10
   0  -8 -23  877.85  484.54
   0   8 -23  407.72  407.97
   0   8  24 1648.06  775.43
   0  -8  24 1598.71  844.10
   0  -8 -24  996.61  374.19
   0   8 -24  586.27  305.12
   0   8  25 3507.05 1277.46
   0  -8  25 1227.99  737.16
   0  -8 -25 1277.03  604.14
   0   8 -25 1195.39  510.17
   0   8  26 1323.69 1076.96
   0  -8  26 1066.97  917.21
   0   8 -26  223.43  307.62
   0  -8 -26  685.65  495.78
   0   9   0   27.26  109.23
   0  -9   0   28.93  122.83
   0   9   0   20.34   80.38
   0  -9   1  976.34   97.76
   0  -9   1  931.33  178.65
   0   9   1 1159.86  153.01
   0   9   1  879.63  123.07
   0  -9  -1  650.84  193.79
   0   9  -1  892.28  194.05
   0  -9   2  -41.18   90.50
   0   9   2   70.38  165.90
   0   9   2  417.67   81.89
   0  -9  -2  446.23  152.40
   0  -9  -2  -42.04  122.10
   0   9  -2  -13.59  128.44
   0   9   318586.20 1130.14
   0  -9   317215.54  935.13
   0  -9   317301.73  911.98
   0  -9  -316328.08  957.17
   0   9  -318893.50 1010.46
   0  -9   410120.34  483.46
   0   9   4 9412.77  751.23
   0  -9   410044.29  637.01
   0  -9  -4 9595.69  583.31
   0   9  -410985.44  690.26
   0  -9   5 4498.12  286.77
   0   9   5 5563.49  527.52
   0  -9  -5 5005.57  382.38
   0   9  -5 4085.03  475.22
   0  -9   617615.28  900.68
   0   9   618208.81 1330.03
   0  -9  -619280.30 1128.65
   0   9  -618376.12 1271.01
   0  -9   7  766.90  149.54
   0   9   7  808.08  317.34
   0   9  -7  658.26  284.36
   0  -9  -7  827.71  173.42
   0  -9   8 1074.55  246.01
   0   9   8  860.10  383.83
   0  -9  -8 1067.92  228.20
   0   9  -8 1366.96  311.64
   0   9   9 4405.94  696.11
   0  -9   9 5715.60  475.17
   0  -9  -9 4844.29  359.98
   0   9  -9 5511.69  539.26
   0   9  1012521.15 1259.87
   0  -9  1013115.37  762.18
   0  -9 -1014244.94  786.33
   0   9 -1012024.89  863.31
   0  -9  1114411.92  845.43
   0   9  1114886.79 1381.95
   0   9 -1112111.62  939.97
   0  -9 -1113768.03  815.10
   0  -9  12 7160.59  654.76
   0   9  12 7875.15  977.15
   0  -9 -12 7302.13  617.78
   0   9 -12 7254.79  580.39
   0   9  13  475.07  431.77
   0  -9  13  756.59  267.96
   0  -9 -13  319.27  171.62
   0   9 -13  501.55  228.69
   0   9  1413053.93 1545.33
   0  -9  1412015.95 1065.23
   0   9 -1414445.93 1000.26
   0  -9 -1411686.86  812.40
   0  -9  15 1545.48  407.00
   0   9  15 1078.36  584.89
   0  -9 -15  852.43  318.23
   0   9 -15 1004.97  238.14
   0  -9  16 9261.02 1028.43
   0   9  16 7383.08 1341.52
   0   9 -16 7678.67  582.51
   0  -9 -16 9087.92  686.42
   0   9  17  400.86  344.06
   0  -9  17  166.36  313.64
   0  -9 -17   57.73  180.98
   0   9 -17  -68.01  223.42
   0  -9  18 4663.80  981.44
   0   9  18 5898.56 1333.36
   0  -9 -18 5729.27  733.94
   0   9 -18 6436.21  699.48
   0  -9  19 2110.07  567.70
   0   9  19 4068.25 1048.35
   0   9 -19 2827.51  495.77
   0  -9 -19 3036.28  574.59
   0  -9  20 2036.07  698.41
   0   9  20 4842.41  985.37
   0   9 -20 5074.93  481.37
   0  -9  21  -17.55  539.56
   0   9  21 2129.92  702.47
   0   9 -21  -45.41  302.84
   0  -9 -21  325.45  353.59
   0  -9  22 1769.32  836.59
   0   9  22 3284.67 1084.19
   0   9 -22 1194.04  466.65
   0  -9 -22 1559.49  409.95
   0  -9  23    2.24  394.55
   0   9  23  779.58  706.65
   0   9 -23  -39.00  213.83
   0  -9 -23  274.59  345.60
   0   9  24  817.94 1161.07
   0  -9  24 1015.08  948.32
   0  -9 -24 1109.48  570.79
   0   9 -24 1552.19  484.36
   0  -9  25 -123.66  502.07
   0   9  25  742.35  641.77
   0  -9 -25   59.01  303.74
   0   9 -25  180.23  244.13
   0  -9  26 1642.66  855.27
   0   9  26 1221.42 1090.50
   0   9 -26   27.50  418.94
   0 -10   0  344.92  150.15
   0  10   0  345.02  137.01
   0  10   0   99.01  102.95
   0 -10   1 1113.35  178.60
   0  10   1  428.45  116.87
   0 -10   1  866.93  110.55
   0  10   1  606.29  147.59
   0  10  -1  966.35  190.60
   0 -10  -1 1146.46  198.98
   0 -10   229652.03 1580.59
   0 -10   234395.67 1854.37
   0  10  -235949.67 2001.77
   0  10   359905.68 4029.45
   0 -10   358410.24 3579.20
   0 -10   351918.18 3216.92
   0  10  -362288.38 3891.51
   0 -10  -361296.56 3841.98
   0 -10   4 9493.11  581.76
   0  10   4 9975.18  789.09
   0  10  -410446.69  743.23
   0 -10  -411190.99  733.89
   0  10   5 2113.91  364.80
   0 -10   5 2111.18  246.58
   0  10  -5 2169.81  309.46
   0 -10  -5 1483.75  279.44
   0 -10   618285.25 1096.86
   0  10   619599.49 1412.99
   0  10  -620608.42 1284.47
   0 -10  -618700.00 1046.24
   0  10   7 3084.58  473.26
   0 -10   7 2220.02  299.55
   0  10  -7 3286.85  348.61
   0 -10  -7 1580.28  255.73
   0 -10   8 4507.58  445.56
   0  10   8 4958.42  568.59
   0 -10  -8 4820.26  505.41
   0  10  -8 5614.74  487.97
   0  10   922643.14 1823.36
   0 -10   921621.77 1221.19
   0  10  -922328.49 1482.42
   0 -10  -921208.43 1224.71
   0 -10  10  115.95  182.06
   0  10  10   87.95  298.89
   0 -10 -10  277.41  173.57
   0  10 -10  -60.61  189.06
   0 -10  11 1855.47  346.43
   0  10  11 1557.63  514.98
   0 -10 -11 1936.82  329.01
   0  10 -11 2060.46  338.43
   0  10  12  257.81  354.99
   0 -10  12  531.67  189.27
   0  10 -12  752.14  222.51
   0 -10 -12  572.66  247.10
   0  10  13 2185.68  627.76
   0 -10  13 1470.90  302.64
   0 -10 -13 2179.51  359.25
   0  10 -13 2162.70  336.93
   0 -10  14  844.78  312.03
   0  10  14  776.85  511.61
   0 -10 -14  642.05  215.21
   0  10 -14  574.75  266.37
   0  10  15  225.65  416.29
   0 -10  15 -313.82  249.33
   0  10 -15  274.01  225.10
   0 -10 -15  209.10  237.66
   0 -10  16  308.12  364.74
   0  10  16  603.25  538.93
   0 -10 -16   99.48  291.83
   0  10 -16  689.75  291.12
   0  10  17 3883.09 1062.51
   0 -10  17 4878.04  746.83
   0 -10 -17 2533.69  594.28
   0  10 -17 4424.63  525.98
   0 -10  18  -64.45  245.00
   0  10  18   -0.14  467.44
   0  10 -18  -15.21  216.22
   0 -10 -18   77.35  182.78
   0 -10  19  560.37  432.67
   0  10  19 1865.37  838.65
   0 -10 -19  802.58  322.37
   0  10 -19 2154.51  385.88
   0  10  20  737.29  650.12
   0 -10  20  357.84  453.94
   0  10 -20   21.90  286.54
   0 -10 -20  325.04  339.27
   0  10  21   88.94  679.30
   0 -10  21  119.54  539.52
   0  10 -21  260.42  215.28
   0 -10 -21  114.55  259.26
   0  10  22   94.26  804.70
   0 -10  22  582.83  457.09
   0  10 -22  292.29  335.43
   0 -10 -22  497.31  411.43
   0 -10  23  463.47  707.99
   0  10  23  371.71  939.69
   0 -10 -23  836.70  344.60
   0  10 -23  411.01  383.96
   0  10  24  803.19 1060.08
   0 -10  24  993.20  845.94
   0  10 -24  736.17  423.61
   0 -10 -24  773.84  520.62
   0  10  25 3570.49 1383.84
   0 -10  25 2471.23  800.22
   0  10 -25 1440.38  545.81
   0 -10 -25 1290.73  495.93
   0  10 -26 2083.13  627.08
   0  11   0  100.44  112.37
   0  11   0  -26.14   78.20
   0 -11   0 -127.74  128.97
   0  11   1 4584.20  308.16
   0 -11   1 5111.75  379.13
   0 -11  -1 3999.30  404.69
   0  11  -1 4497.37  395.58
   0  11   212009.62  615.31
   0 -11   210749.90  640.70
   0 -11   2 9272.89  501.45
   0  11  -212124.01  695.21
   0 -11  -210508.92  743.17
   0  11   315514.08 1038.97
   0 -11   316534.41  941.78
   0 -11  -316875.97 1002.35
   0  11  -314918.58  913.44
   0  11   4 7734.35  707.08
   0 -11   4 7885.30  448.25
   0  11  -4 9017.34  677.35
   0 -11  -4 7742.57  617.40
   0  11   5 6019.48  558.13
   0 -11   5 5540.21  444.90
   0  11  -5 6287.12  533.28
   0 -11  -5 5714.20  490.32
   0  11   6   -3.40  221.31
   0 -11   6  -86.72  149.66
   0 -11  -6  153.60  134.31
   0  11  -6  155.44  184.25
   0  11   7 1300.42  319.70
   0 -11   7 1102.00  176.92
   0 -11  -7 1103.94  192.48
   0  11  -7  641.78  304.45
   0  11   8 2144.57  488.11
   0 -11   8 2257.93  320.93
   0 -11  -8 1418.72  356.94
   0  11  -8 2974.59  369.87
   0  11   913132.13 1177.35
   0 -11   911825.31  864.14
   0 -11  -913095.70  969.82
   0  11  -913093.08 1000.14
   0 -11  10    1.87  171.91
   0  11  10  -39.64  283.28
   0 -11 -10  103.76  138.87
   0  11 -10   46.64  200.52
   0  11  11  850.84  422.68
   0 -11  11  456.92  182.34
   0 -11 -11  860.72  184.79
   0  11 -11  768.92  252.55
   0 -11  1214870.78 1114.30
   0  11  1216925.79 1449.60
   0  11 -1215096.92 1026.81
   0 -11 -1212677.87  855.87
   0 -11  1315581.74 1041.39
   0  11  1316677.30 1709.78
   0 -11 -1316200.14 1220.65
   0  11 -1315268.56 1063.40
   0  11  14 2920.31  749.44
   0 -11  14 2123.91  378.03
   0  11 -14 3508.78  413.61
   0 -11 -14 2304.58  334.30
   0  11  15  483.20  558.79
   0 -11  15  496.39  256.39
   0 -11 -15  849.68  317.51
   0  11 -15  936.52  301.35
   0  11  16 -172.53  453.29
   0 -11  16  167.18  235.63
   0  11 -16  150.61  182.99
   0 -11 -16   18.88  249.74
   0  11  17  473.18  723.55
   0 -11  17 1782.29  374.03
   0 -11 -17  631.17  401.75
   0  11 -17 1198.40  247.99
   0  11  18  896.88  850.02
   0 -11  18 1484.75  423.48
   0 -11 -18 1323.03  463.44
   0  11 -18 2115.30  412.42
   0 -11  19  430.95  398.17
   0  11  19 1195.52  763.05
   0 -11 -19  348.10  299.44
   0  11 -19 1628.66  368.62
   0  11  20  170.26  630.00
   0 -11  20  153.75  444.25
   0  11 -20  416.27  275.08
   0 -11 -20  -29.57  244.07
   0  11  21  413.75  843.21
   0 -11  21  512.55  576.96
   0  11 -21  944.10  367.27
   0 -11 -21  381.56  443.20
   0  11  22  322.95  783.29
   0 -11  22    6.32  428.51
   0  11 -22  175.51  247.86
   0 -11 -22  517.89  289.18
   0 -11  23    9.52  674.80
   0  11  23  289.68  904.39
   0  11 -23  196.41  362.88
   0 -11 -23 1081.53  458.82
   0  11  24   73.32  892.79
   0 -11  24  140.50  655.70
   0 -11 -24  503.33  320.64
   0  11 -24  -23.59  358.13
   0 -11  25 1157.20  646.54
   0  11 -25  752.94  455.04
   0 -11 -25   48.15  661.84
   0 -12   0 3426.27  355.98
   0  12   0 3349.03  315.30
   0  12   116091.59  858.94
   0 -12   115206.91  951.09
   0  12  -117148.09  974.58
   0 -12  -115069.08  981.51
   0  12   2 1288.52  190.53
   0 -12   2 1229.67  221.03
   0 -12  -2 1250.85  319.76
   0  12  -2 1312.58  276.60
   0  12   327109.13 1824.49
   0 -12   326296.39 1593.08
   0 -12  -326998.82 1688.60
   0  12  -329697.29 1739.95
   0  12   4 6293.80  643.39
   0 -12   4 5957.37  492.99
   0 -12  -4 6175.11  549.46
   0  12  -4 7335.77  570.87
   0  12   5  149.95  222.18
   0 -12   5  580.56  170.27
   0 -12  -5   87.27  147.48
   0  12  -5  424.19  219.48
   0  12   617151.00 1270.21
   0 -12   613944.58  905.98
   0  12  -615769.84 1067.77
   0 -12  -612906.65  830.33
   0  12   7  488.28  372.04
   0 -12   7 1176.59  179.21
   0  12  -7  930.73  294.67
   0 -12  -7 1228.80  269.92
   0 -12   8 9497.54  683.40
   0  12   8 9183.98  882.57
   0 -12  -810000.00  784.34
   0  12  -8 9622.32  837.16
   0 -12   9 2740.47  324.08
   0  12   9 1794.15  492.07
   0  12  -9 1602.30  373.25
   0 -12  -9 1424.03  352.60
   0 -12  10 -129.95  124.20
   0  12  10  175.56  232.97
   0 -12 -10  183.90  197.33
   0  12 -10 -111.18  192.59
   0 -12  11 4915.65  422.64
   0  12  11 6411.18  813.47
   0 -12 -11 5087.99  613.10
   0  12 -11 6581.04  629.40
   0  12  12 1116.34  512.28
   0 -12  12 1296.98  328.10
   0  12 -12 1195.03  310.74
   0 -12 -12  999.77  346.54
   0 -12  13  126.15  209.33
   0  12  13 -180.14  351.04
   0  12 -13   47.36  175.71
   0 -12 -13   16.97  238.71
   0  12  14  383.44  388.57
   0 -12  14  -86.34  171.35
   0 -12 -14  144.30  194.68
   0  12 -14  133.91  203.54
   0 -12  15 1392.91  338.82
   0  12  15 2048.04  734.20
   0 -12 -15 1620.17  434.42
   0  12 -15 2717.75  394.14
   0  12  16 6542.82 1251.18
   0 -12  16 6869.91  646.92
   0  12 -16 6058.00  536.95
   0 -12 -16 5009.41  730.76
   0 -12  1716390.50 1403.40
   0  12  1718063.25 2220.97
   0  12 -1717864.76 1313.32
   0 -12 -1711859.84 1352.27
   0 -12  18 9411.24  975.30
   0  12  1810643.09 1679.17
   0 -12 -18 7857.63 1001.33
   0  12 -18 8144.14  845.80
   0 -12  19 -308.91  342.63
   0  12  19  617.09  532.94
   0  12 -19 -104.59  175.24
   0 -12 -19  178.46  288.13
   0  12  20 1533.78  755.39
   0 -12  20  696.24  528.64
   0  12 -20  405.38  324.85
   0 -12 -20  318.76  405.55
   0 -12  21 2599.36  684.37
   0  12  21 2000.81  987.72
   0 -12 -21  443.52  386.90
   0  12 -21 1621.02  439.21
   0  12  22  901.17  626.33
   0 -12  22 -152.73  355.89
   0  12 -22 -109.86  265.50
   0 -12 -22   27.10  389.73
   0  12  2311117.23 2661.10
   0 -12  2312410.72 1655.14
   0  12 -2313763.10 1392.88
   0 -12 -2310564.65 1758.01
   0 -12  24   30.41  635.18
   0  12 -24  242.54  343.31
   0 -12 -24   74.20  515.27
   0 -12  25 7324.20 1257.38
   0  12 -25 5244.10  879.36
   0 -12 -25 1615.05 1238.70
   0 -13   0 -221.96  149.28
   0  13   0  202.85  146.56
   0 -13   1 1281.41  275.61
   0  13   1 1614.64  219.00
   0  13  -1 1991.83  296.83
   0 -13  -1 1648.15  298.04
   0 -13   2 1594.53  262.83
   0  13   2 2217.33  256.22
   0 -13  -2 1798.07  317.26
   0  13  -2 1240.94  267.31
   0 -13   3  324.40  185.26
   0  13   3  430.86  126.19
   0  13  -3  190.12  185.33
   0 -13  -3  277.10  183.95
   0  13   4 8339.65  781.40
   0 -13   4 8543.20  617.53
   0  13  -4 8833.86  675.28
   0 -13  -4 9490.44  736.72
   0 -13   5 6725.71  417.06
   0  13   5 8383.97  754.65
   0 -13  -5 7263.44  663.74
   0  13  -5 7586.86  714.43
   0 -13   675569.22 5619.41
   0  13   686266.60 6988.37
   0 -13  -696406.70 7360.84
   0  13  -676049.46 6098.73
   0  13   7  121.85  270.48
   0 -13   7   91.75  122.82
   0  13  -7  -51.46  245.48
   0 -13  -7  441.17  195.46
   0  13   8 3111.19  526.52
   0 -13   8 3309.27  392.89
   0 -13  -8 3791.82  362.23
   0  13  -8 4092.98  496.09
   0  13   9 2013.52  551.11
   0 -13   9 2788.24  348.01
   0  13  -9 2098.53  408.83
   0 -13  -9 2591.62  411.77
   0  13  1021349.92 1728.11
   0 -13  1017347.91 1074.41
   0  13 -1019223.25 1443.89
   0 -13 -1020039.86 1321.03
   0  13  11 6181.85  817.47
   0 -13  11 4555.73  409.42
   0  13 -11 4837.40  528.10
   0 -13  12   85.65  213.96
   0  13  12  451.12  352.70
   0 -13 -12   73.37  251.28
   0  13 -12   89.23  211.73
   0  13  13  464.52  462.69
   0 -13  13  362.75  273.81
   0  13 -13  665.71  274.41
   0 -13 -13  170.75  312.66
   0  13  14 2679.92  748.26
   0 -13  14 1476.42  340.76
   0 -13 -14 2260.65  395.00
   0  13 -14 2970.58  390.49
   0 -13  15 6560.65  629.96
   0  13  15 7442.09 1196.83
   0  13 -15 6676.80  666.86
   0 -13 -15 3457.88  815.17
   0  13  1615553.90 2011.43
   0 -13  1613917.76 1155.46
   0 -13 -1611138.29 1392.06
   0  13 -1616491.05 1269.46
   0  13  17 5281.49 1265.97
   0 -13  17 5017.76  661.06
   0 -13 -17 3973.85  623.03
   0  13 -17 6692.03  714.71
   0 -13  18 1126.23  410.02
   0  13  18 1016.61  824.14
   0  13 -18 1686.45  387.29
   0 -13 -18 1132.84  411.26
   0 -13  19 2626.15  528.83
   0  13  19 1831.41 1003.02
   0  13 -19 2826.54  484.67
   0 -13 -19 1108.91  491.72
   0  13  20   30.55  592.08
   0 -13  20  -21.75  415.79
   0 -13 -20 -220.89  392.08
   0  13 -20  -31.09  257.69
   0  13  21   87.62  610.91
   0 -13  21  130.22  419.95
   0 -13 -21  243.61  398.02
   0  13 -21  -49.80  191.34
   0  13  22 7069.06 1829.91
   0 -13  22 5553.65  948.60
   0  13 -22 6064.04  828.26
   0 -13  23  993.15  581.77
   0  13  23 1583.06 1035.43
   0 -13 -23  327.34  485.79
   0  13 -23 1038.15  425.80
   0 -13  24  203.07  747.54
   0  13 -24  629.81  406.70
   0 -13 -24  303.54  627.13
   0  13 -25  609.07  334.56
   0 -14   033314.26 2216.61
   0  14   034146.68 2175.28
   0 -14   1 4086.38  421.93
   0  14   1 4069.30  437.10
   0 -14  -1 3822.55  446.79
   0  14  -1 4960.52  460.46
   0 -14   2 -150.94  164.07
   0  14   2  -86.95  149.98
   0 -14  -2 -232.32  193.24
   0  14  -2   19.33  163.92
   0 -14   3 7255.53  578.29
   0  14   3 8745.27  520.87
   0 -14  -3 7360.60  776.12
   0  14  -3 7449.31  598.37
   0  14   4 1464.58  355.97
   0 -14   4 1441.89  265.70
   0  14  -4 1671.77  290.96
   0 -14  -4 1525.72  307.01
   0 -14   540666.66 2607.51
   0  14   541629.85 3056.05
   0  14  -544259.12 3109.46
   0 -14  -542912.39 2983.76
   0 -14   6 8298.22  506.91
   0  14   6 6702.64  815.19
   0 -14  -6 7629.21  739.09
   0  14  -6 8921.05  729.03
   0 -14   7  417.33  200.43
   0  14   7  544.61  324.32
   0  14  -7  531.32  239.12
   0 -14  -7  181.72  272.94
   0 -14   816662.86 1129.75
   0  14   816224.08 1450.28
   0 -14  -815449.73 1217.93
   0  14  -817911.94 1384.80
   0 -14   9 1878.82  330.18
   0  14   9 1618.89  518.11
   0  14  -9 1885.14  362.25
   0 -14  -9 1956.75  396.16
   0  14  10  765.03  462.20
   0 -14  10 1434.25  294.40
   0 -14 -10  725.17  340.46
   0  14 -10 1480.17  355.61
   0 -14  11 5189.05  466.43
   0  14  11 6880.19  813.41
   0 -14 -11 5545.18  559.05
   0  14 -11 6555.60  593.06
   0 -14  12 2662.18  409.97
   0  14  12 1700.94  675.84
   0  14 -12 2680.05  396.75
   0 -14 -12 1579.42  495.16
   0  14  13   15.26  432.04
   0 -14  13  516.44  281.89
   0  14 -13  565.65  265.25
   0 -14 -13   96.65  222.06
   0 -14  14  433.13  255.84
   0  14  14 1714.23  568.07
   0  14 -14 1346.58  296.15
   0 -14 -14  585.62  297.26
   0  14  15 1280.02  597.96
   0 -14  15  802.28  289.80
   0 -14 -15  566.82  417.85
   0  14 -15  932.19  314.56
   0 -14  16  369.30  231.32
   0  14  16  211.68  510.63
   0  14 -16  -61.27  265.35
   0 -14 -16  135.11  346.60
   0 -14  1726452.03 2100.63
   0  14  1731506.33 3482.19
   0  14 -1732840.58 2388.87
   0 -14 -1723408.53 2211.44
   0 -14  18  249.46  293.16
   0  14  18  177.40  603.24
   0  14 -18  238.87  264.87
   0 -14 -18  169.39  302.57
   0  14  19 4021.28 1187.31
   0 -14  19 2798.26  614.97
   0  14 -19 4542.46  571.70
   0 -14 -19 1758.25  606.95
   0 -14  20 1594.42  650.94
   0  14  20 2814.36 1027.85
   0  14 -20 2124.97  468.16
   0 -14 -20  722.48  507.27
   0 -14  21  938.00  562.39
   0  14  21 1552.75  814.39
   0 -14 -21  396.24  387.96
   0  14 -21   94.79  341.91
   0  14  22 1363.78  873.65
   0 -14  22  129.41  581.32
   0 -14 -22  663.18  560.98
   0  14 -22  283.38  378.15
   0 -14  23  374.60  490.73
   0 -14 -23  189.83  556.42
   0  14 -23  297.07  350.65
   0 -14  24  185.85  596.89
   0 -14 -24  216.59  514.19
   0  14 -24 1085.09  327.33
   0 -15   0  246.56  173.04
   0  15   0    5.69  163.98
   0  15   1 4968.09  463.43
   0 -15   1 3773.48  393.61
   0 -15  -1 5169.67  483.20
   0  15  -1 3560.14  409.52
   0  15   2  822.39  226.96
   0 -15   2  495.67  162.25
   0  15  -2  944.34  266.13
   0 -15  -2 1173.07  258.43
   0 -15   3   98.81  168.04
   0  15   3  270.53  168.06
   0  15  -3 -293.22  191.30
   0 -15  -3  250.36  206.31
   0 -15   4 3216.83  376.80
   0  15  -4 4102.76  480.84
   0 -15   514585.85  816.62
   0  15   513543.85 1172.58
   0 -15  -514273.35 1082.67
   0  15  -515791.57 1205.87
   0 -15   6  575.93  221.47
   0  15   6  953.66  293.86
   0 -15  -6  867.12  281.57
   0  15  -6  703.72  268.76
   0  15   7  319.36  342.30
   0 -15   7  458.52  162.85
   0  15  -7  686.78  265.33
   0 -15  -7  668.20  208.38
   0 -15   8  874.25  181.76
   0  15   8 1172.72  400.77
   0  15  -8  749.88  360.45
   0 -15  -8  561.86  341.41
   0 -15   9 4206.24  375.63
   0  15   9 4897.34  752.62
   0  15  -9 5356.48  559.04
   0 -15  -9 4597.01  593.70
   0  15  10 3989.77  878.69
   0 -15  10 5966.43  587.28
   0  15 -10 5322.66  663.79
   0 -15 -10 6279.53  574.77
   0 -15  11 1132.03  244.58
   0  15  11  896.03  514.69
   0  15 -11 1504.16  320.77
   0 -15 -11  989.82  377.88
   0 -15  1213358.09 1102.46
   0  15  1212271.92 1619.07
   0  15 -1214432.87 1222.18
   0 -15 -1213826.88 1119.54
   0  15  13 1826.29  762.00
   0 -15  13 2947.97  344.76
   0  15 -13 2672.66  455.27
   0 -15 -13 2224.53  421.23
   0 -15  14  500.09  236.15
   0  15  14  826.70  535.75
   0 -15 -14  210.45  373.42
   0  15 -14  582.98  265.13
   0 -15  15 4145.57  747.02
   0  15  15 4849.26 1129.90
   0 -15 -15 6461.49  907.63
   0  15 -15 6806.27  653.58
   0 -15  1622547.63 2172.44
   0  15  1625449.38 2919.67
   0  15 -1625745.67 1936.22
   0 -15 -1623208.58 2006.73
   0  15  17  526.51  554.35
   0 -15  17  523.56  398.73
   0  15 -17  654.47  345.21
   0 -15 -17  554.66  451.16
   0  15  18   86.25  617.66
   0 -15  18  439.18  421.25
   0  15 -18  367.58  286.81
   0 -15 -18  126.85  436.49
   0 -15  19 1438.62  447.12
   0  15  19 2649.99  914.47
   0 -15 -19  405.26  609.29
   0  15 -19 1157.11  412.79
   0 -15  20 1691.46  481.38
   0  15  20 2084.94 1034.60
   0 -15 -20 1517.14  689.41
   0  15 -20 1460.32  471.47
   0 -15  21  -81.87  365.49
   0  15  21  909.66  749.37
   0 -15 -21  384.52  487.38
   0  15 -21  221.97  314.28
   0 -15  22 1106.62  638.58
   0  15 -22  590.38  298.71
   0 -15 -22  407.43  445.54
   0 -15  23  260.44  690.42
   0 -15 -23  968.66  511.23
   0  15 -23  782.16  442.61
   0 -15  24  435.59  650.80
   0 -15 -24  887.91  800.93
   0  15 -24 1482.12  496.18
   0  16   0  132.08  203.60
   0 -16   0  136.49  178.94
   0 -16   117671.08 1233.80
   0  16   121127.77 1389.32
   0  16  -119252.68 1306.25
   0 -16  -119681.27 1385.71
   0  16   2 1372.37  281.48
   0 -16   2  961.85  287.83
   0  16  -2 2160.52  309.49
   0 -16  -2 1820.66  333.09
   0 -16   321484.08 1466.88
   0  16   324741.52 1601.75
   0  16  -321717.77 1587.07
   0 -16  -325067.66 1831.61
   0  16   4  131.41  189.89
   0 -16   4  442.43  194.00
   0 -16  -4  104.90  299.79
   0  16  -4  348.19  209.82
   0 -16   5 6871.85  444.54
   0  16   5 5553.61  714.22
   0  16  -5 7406.34  649.56
   0 -16  -5 5099.22  632.14
   0 -16   6  -76.96  172.15
   0  16   6   14.90  258.10
   0 -16  -6  237.80  217.45
   0  16  -6  370.54  241.57
   0 -16   710812.16  854.18
   0  16   711480.14 1194.89
   0  16  -711968.94  975.27
   0 -16  -711981.78 1043.95
   0 -16   8 -127.92  175.46
   0  16   8  -14.59  289.53
   0  16  -8   94.71  252.85
   0 -16  -8  -55.81  241.31
   0 -16   9 5814.37  607.10
   0  16   9 6702.51  912.09
   0 -16  -9 6505.77  807.92
   0  16  -9 6916.95  685.68
   0 -16  10  195.41  131.06
   0  16  10 -297.16  248.36
   0  16 -10  -47.12  211.90
   0 -16 -10 -258.21  220.46
   0  16  11  576.64  383.35
   0 -16  11   79.26  239.75
   0 -16 -11  200.21  299.16
   0  16  12  161.16  480.36
   0 -16  12  658.59  210.38
   0 -16 -12  292.02  381.43
   0  16 -12  818.45  333.16
   0  16  13 2158.96  677.25
   0 -16  13 2403.83  417.18
   0 -16 -13 1859.39  514.65
   0  16 -13 1149.78  396.37
   0 -16  14  502.60  333.24
   0  16  14  625.94  553.84
   0 -16 -14  580.41  399.73
   0  16 -14  429.60  312.09
   0 -16  15  470.71  327.98
   0  16  15  128.98  545.45
   0  16 -15  335.66  270.54
   0 -16 -15  341.02  380.69
   0 -16  16 6986.39  881.62
   0  16  16 4593.94 1273.35
   0  16 -16 7104.54  721.18
   0 -16 -16 3352.36  735.87
   0  16  17 -404.95  520.20
   0 -16  17  381.56  336.82
   0 -16 -17  -78.10  388.63
   0  16 -17  154.64  273.65
   0  16  18 1938.15  896.61
   0 -16  18 1478.12  558.73
   0 -16 -18 1370.58  656.75
   0  16 -18 1683.80  488.55
   0  16  19  510.59  634.17
   0 -16  19  661.53  431.11
   0  16 -19 -102.73  288.66
   0 -16 -19  302.23  461.74
   0  16  20  774.99  812.76
   0 -16  20  438.55  537.69
   0  16 -20  541.07  381.65
   0 -16 -20  885.47  423.73
   0 -16  21  969.07  487.16
   0 -16 -21  801.93  646.87
   0  16 -21  885.35  412.96
   0 -16  22  449.31  409.74
   0  16 -22  -88.90  349.82
   0 -16 -22  894.81  567.33
   0 -16  23  897.10  697.91
   0  16 -23  364.93  455.69
   0 -16 -23 1523.81  714.47
   0  16 -24  461.72  444.07
   0 -16 -24  695.87  525.01
   0 -17   0  -23.16  162.25
   0  17   0   11.88  185.21
   0  17   1 -189.71  174.37
   0 -17   1 -115.55  158.38
   0  17  -1   92.51  170.38
   0 -17  -1  136.71  199.68
   0 -17   2 1441.95  302.22
   0  17   2 1958.24  348.65
   0 -17  -2 1125.11  351.99
   0  17  -2 1687.88  368.45
   0 -17   3  113.70  183.81
   0  17   3  210.23  186.30
   0 -17  -3   34.15  236.75
   0  17  -3  125.11  227.17
   0  17   4   10.15  160.62
   0 -17   4  277.78  169.38
   0  17  -4 -207.92  211.13
   0 -17  -4  -72.92  264.33
   0 -17   5 9162.47  683.78
   0  17   5 8674.52  602.06
   0  17  -5 9282.49  866.33
   0 -17  -5 5580.01  727.18
   0 -17   6 3081.49  283.49
   0  17   6 1828.42  506.30
   0  17  -6 2200.09  477.75
   0 -17  -6 1871.02  430.00
   0 -17   7  -73.45  188.37
   0  17   7  -82.62  274.69
   0  17  -7  -38.11  250.21
   0 -17  -7 -120.50  224.43
   0  17   8 2484.06  468.50
   0 -17   8  774.13  211.10
   0 -17  -8  925.23  369.59
   0  17  -8 1030.49  394.09
   0 -17   910160.07  707.64
   0  17   910951.85 1193.81
   0  17  -910156.83  972.62
   0 -17  -9 7203.74 1021.28
   0 -17  10  338.31  258.44
   0  17  10  147.15  405.80
   0  17 -10  881.75  297.65
   0 -17 -10   99.14  369.94
   0  17  11 1344.89  514.21
   0 -17  11  712.54  233.46
   0  17 -11 1619.60  374.35
   0 -17 -11  503.96  297.08
   0  17  12  338.71  388.49
   0 -17  12  368.81  282.48
   0 -17 -12  562.68  361.33
   0  17 -12  302.42  315.71
   0 -17  13 1844.36  417.11
   0  17  13  984.70  696.62
   0  17 -13 1656.97  343.36
   0 -17 -13 1754.95  555.84
   0  17  14  526.82  526.85
   0 -17  14  277.11  239.11
   0  17 -14  712.75  303.35
   0 -17 -14  -36.71  412.18
   0 -17  15  863.01  326.90
   0  17  15 1041.14  757.47
   0  17 -15 1620.18  310.48
   0 -17 -15 1786.06  554.24
   0  17  16 5223.27 1461.91
   0 -17  16 5561.35  723.33
   0  17 -16 8004.55  764.37
   0 -17 -16 6500.81  843.55
   0  17  17  712.50  710.92
   0 -17  17  495.43  314.44
   0  17 -17  847.87  358.42
   0 -17 -17  233.15  500.42
   0  17  1812961.16 2071.63
   0 -17  1810911.77 1093.00
   0 -17 -18 8367.22 1200.19
   0  17 -1811292.98 1171.50
   0 -17  19 1395.61  480.59
   0  17 -19 1980.02  455.04
   0 -17 -19 1231.91  520.26
   0 -17  20 1288.69  652.22
   0  17 -20 1922.37  466.76
   0 -17 -20  529.68  519.00
   0 -17  21 1293.03  577.52
   0 -17 -21  847.05  463.33
   0  17 -21  167.05  382.37
   0 -17  22  511.58  509.45
   0 -17 -22  -99.15  374.00
   0  17 -22   50.12  322.31
   0 -17  23 1029.63  544.22
   0  17 -23 1155.24  495.60
   0 -17 -23  674.37  575.93
   0 -18   0 1758.66  394.65
   0  18   0 3225.78  414.77
   0  18   1  482.50  276.80
   0 -18   1  309.70  232.74
   0 -18  -1  828.60  273.49
   0  18  -1  625.39  245.92
   0 -18   214379.35 1105.23
   0  18   216426.40 1284.72
   0 -18  -215852.25 1267.26
   0  18  -217544.04 1285.52
   0 -18   3 4584.39  468.91
   0  18   3 4009.90  447.52
   0  18  -3 4622.15  504.99
   0 -18  -3 4793.09  589.32
   0 -18   414568.07 1071.24
   0  18   415874.44 1132.58
   0  18  -415435.26 1269.80
   0 -18  -415461.76 1400.25
   0 -18   5  586.30  174.70
   0  18   5  797.03  254.01
   0  18  -5  464.42  276.19
   0 -18  -5  593.90  400.67
   0 -18   6  482.27  172.94
   0  18   6  315.79  337.25
   0  18  -6  288.52  279.07
   0 -18  -6  774.65  286.03
   0 -18   7 1601.82  237.99
   0  18   7 1198.87  458.34
   0  18  -7 1266.91  416.36
   0 -18  -7 1115.43  395.55
   0 -18   819952.46 1232.74
   0  18   821300.18 1942.11
   0  18  -816661.26 1445.41
   0 -18  -819331.47 1703.46
   0 -18   9 4239.67  494.57
   0  18   9 2866.36  725.54
   0 -18  -9 3179.88  482.75
   0  18  -9 3164.46  583.18
   0 -18  10  147.04  174.61
   0  18  10  -78.49  396.61
   0  18 -10  398.27  304.90
   0 -18 -10  270.24  250.27
   0 -18  11 1181.43  330.93
   0  18  11 1107.32  549.93
   0  18 -11 1044.18  389.54
   0 -18 -11  193.21  478.90
   0 -18  12  398.68  229.25
   0  18  12  842.12  532.16
   0  18 -12  513.87  291.94
   0 -18 -12 1124.77  410.55
   0  18  13  906.26  593.79
   0 -18  13  626.83  359.41
   0  18 -13  720.51  331.68
   0 -18 -13 1270.44  450.56
   0  18  14 3113.95  813.52
   0 -18  14 3227.90  599.58
   0 -18 -14 2140.75  703.58
   0  18 -14 3288.20  553.68
   0  18  15  220.80  488.16
   0 -18  15   -0.91  297.22
   0 -18 -15  294.07  375.59
   0  18 -15   36.44  231.18
   0 -18  16 -233.46  310.88
   0  18  16  -13.27  516.54
   0  18 -16    1.65  255.16
   0 -18 -16 -193.84  408.00
   0  18  17  257.74  625.84
   0 -18  17  380.93  397.64
   0 -18 -17  -52.78  486.55
   0  18 -17  382.01  317.23
   0 -18  18  -65.19  367.20
   0  18 -18  230.63  322.16
   0 -18 -18  321.03  340.00
   0 -18  19 1083.11  642.60
   0 -18 -19 1528.37  710.22
   0  18 -19 1586.90  454.44
   0 -18  20  764.42  411.24
   0  18 -20  425.38  393.35
   0 -18 -20  862.32  623.96
   0 -18  21  227.44  351.48
   0 -18 -21  320.48  542.96
   0  18 -21   76.15  323.98
   0 -18  22  145.23  659.13
   0 -18 -22  997.66  675.94
   0 -18 -23  166.88  614.22
   0  19   0  -40.95  243.21
   0 -19   0 -165.07  218.36
   0 -19   1 1682.65  267.93
   0  19   1  499.38  283.47
   0 -19  -1  202.85  277.92
   0  19  -1  437.65  268.96
   0  19   2  484.65  327.94
   0 -19   2  407.64  277.98
   0 -19  -2 1905.89  342.89
   0  19  -2  876.60  334.46
   0  19   3  189.00  198.29
   0 -19   3  306.93  207.36
   0 -19  -3   25.10  260.89
   0  19  -3  114.08  224.31
   0  19   4 3477.25  508.81
   0 -19   4 4255.05  484.58
   0  19  -4 3281.87  515.59
   0 -19  -4 4408.46  642.67
   0 -19   5  343.22  167.47
   0  19   5  729.29  214.18
   0  19  -5  349.96  279.71
   0 -19  -5  203.10  294.51
   0 -19   6 5459.86  423.94
   0  19   6 5183.62  629.48
   0 -19  -6 4731.28  868.39
   0  19  -6 3857.69  605.05
   0 -19   7  198.89  167.47
   0  19   7  493.93  327.17
   0 -19  -7  -10.71  278.69
   0  19  -7  368.82  303.10
   0  19   8 4584.35  675.58
   0 -19   8 5059.69  558.91
   0 -19  -8 4588.77  713.10
   0  19  -8 3222.67  698.29
   0  19   913744.65 1574.66
   0 -19   914011.80 1108.53
   0  19  -912747.07 1188.25
   0 -19  -912564.26 1365.01
   0  19  10 1540.40  530.62
   0 -19  10  344.53  236.61
   0 -19 -10 1214.88  433.22
   0  19 -10 1598.75  409.83
   0 -19  11   14.51  260.08
   0  19  11  154.93  433.96
   0  19 -11  572.13  290.29
   0 -19 -11 -185.69  370.27
   0  19  12 5188.30 1108.63
   0 -19  12 7021.39  715.86
   0  19 -12 5250.60  697.94
   0 -19 -12 1524.72  957.29
   0  19  13  -67.42  420.42
   0 -19  13 -207.94  182.55
   0 -19 -13   -7.44  375.40
   0  19 -13  169.53  193.93
   0  19  14 6188.43 1152.49
   0 -19  14 7367.88  687.14
   0  19 -14 7971.41  820.91
   0 -19 -14 4318.21 1019.04
   0  19  15 4835.32 1246.02
   0 -19  15 5686.35  622.17
   0 -19 -15 4418.13  965.15
   0  19 -15 5200.75  624.20
   0  19  16 1973.73 1000.70
   0 -19  16 2049.34  452.24
   0 -19 -16 2498.68  770.18
   0  19 -16 2614.59  419.25
   0 -19  17 1896.86  465.23
   0  19 -17 2260.48  530.73
   0 -19 -17 2352.80  788.59
   0 -19  18 2008.24  502.95
   0 -19 -18 2729.18  897.08
   0  19 -18 3506.09  603.50
   0 -19  19 1836.34  455.69
   0 -19 -19 1302.84  825.38
   0  19 -19 1610.20  484.53
   0 -19  20  293.19  550.03
   0 -19 -20  821.74  662.67
   0 -19  21  562.22  622.00
   0 -19 -21 1019.84  561.03
   0 -19  22  345.21  577.15
   0 -19 -22   89.03  472.96
   0 -20   0  383.37  235.93
   0  20   0  227.62  297.27
   0  20   1   44.95  257.55
   0 -20   1  771.42  241.12
   0  20  -1  346.77  248.44
   0 -20  -1   37.39  255.71
   0  20   2  540.28  325.41
   0 -20   2  602.67  258.51
   0  20  -2  121.11  305.88
   0 -20  -2  317.63  304.52
   0  20   319299.60 1500.36
   0 -20   316296.22 1117.08
   0  20  -316212.83 1391.01
   0 -20  -318758.87 1640.81
   0 -20   415467.55 1210.20
   0  20   416138.94 1397.28
   0 -20  -415730.66 1480.79
   0  20  -413959.58 1266.57
   0  20   5 5380.82  662.67
   0 -20   5 4615.91  571.78
   0  20  -5 5087.07  663.13
   0 -20  -5 5839.26  802.98
   0  20   6 4294.88  622.01
   0 -20   6 5203.79  572.24
   0 -20  -6 4315.27  907.58
   0  20  -6 4854.37  726.63
   0  20   7 4644.99  556.92
   0 -20   7 5613.95  500.56
   0  20  -7 6884.86  722.15
   0 -20  -7 4124.36  732.43
   0 -20   8 1653.87  359.10
   0  20   8  864.24  508.33
   0  20  -8 1440.55  407.15
   0 -20  -8 1088.47  450.57
   0  20   9   69.05  449.26
   0 -20   9  251.82  292.82
   0  20  -9 1709.67  407.51
   0 -20  -9  457.29  396.45
   0 -20  10 6623.55  778.83
   0  20  10 9478.71 1257.10
   0  20 -10 8533.48  886.18
   0 -20 -10 7195.65 1078.28
   0  20  11 1818.26  522.52
   0 -20  11  345.57  273.05
   0 -20 -11 1535.32  513.29
   0  20 -11 1314.94  346.19
   0  20  12 1738.91  579.71
   0 -20  12 1248.30  360.95
   0  20 -12  436.10  369.12
   0 -20 -12  -20.07  376.03
   0  20  13 2063.23  859.60
   0 -20  13 3349.54  521.14
   0  20 -13 1629.79  541.82
   0 -20 -13 1055.15  724.86
   0  20  14 2278.72  980.50
   0 -20  14 4677.88  606.41
   0 -20 -14  861.47  849.98
   0  20 -14 2349.39  491.46
   0 -20  15   89.63  358.66
   0  20  15 1992.50  606.57
   0  20 -15  109.93  233.30
   0 -20 -15  455.87  543.19
   0 -20  16  867.19  534.90
   0  20 -16 1919.41  440.63
   0 -20 -16 2329.73  711.68
   0 -20  17 1451.26  519.05
   0  20 -17 1150.38  421.75
   0 -20 -17  612.98  470.36
   0 -20  18  933.50  497.55
   0 -20 -18  463.43  646.62
   0 -20  19  948.30  519.11
   0 -20 -19  548.03  689.08
   0 -20  20  426.14  373.36
   0 -20 -20  -33.56  437.59
   0 -20  21 1477.22  576.05
   0 -20 -21 1976.03  945.69
   0 -20 -22  829.82  847.94
   0 -21   0  153.09  217.71
   0  21   0    6.37  230.92
   0 -21   1   84.52  210.07
   0  21   1 -110.48  254.55
   0 -21  -1  -98.12  221.41
   0  21  -1   29.34  223.02
   0  21   2 2677.92  463.77
   0 -21   2 2586.98  472.14
   0 -21  -2 4306.68  566.03
   0  21  -2 1128.19  460.94
   0 -21   3  485.20  251.04
   0  21   3  307.49  276.30
   0  21  -3   -9.66  263.05
   0 -21  -3  389.22  309.93
   0  21   4 2314.91  496.71
   0 -21   4 2396.80  440.17
   0 -21  -4 3278.06  560.01
   0  21  -4 1603.56  476.29
   0 -21   510226.10  933.44
   0  21   510850.88 1084.98
   0 -21  -512592.36 1345.42
   0  21  -510790.42 1129.69
   0 -21   6   90.55  242.37
   0  21   6  -94.32  289.62
   0 -21  -6  197.34  352.60
   0  21  -6  645.23  329.19
   0 -21   7 7321.58  629.94
   0  21   7 8083.54  906.78
   0  21  -7 6604.11  872.03
   0 -21  -7 7438.69 1197.80
   0 -21   8   52.24  242.61
   0  21  -8  206.04  273.36
   0  21   9  234.78  380.94
   0 -21   9  -16.19  187.24
   0  21  -9  901.38  341.68
   0 -21  -9  -28.05  325.33
   0  21  10  531.83  569.30
   0 -21  10 1174.43  377.39
   0 -21 -10  851.11  506.84
   0  21 -10 1292.31  454.55
   0 -21  11 1187.97  367.15
   0  21  11 3625.21  787.59
   0 -21 -11 2833.01  671.91
   0  21 -11 2626.65  514.08
   0 -21  12  211.29  184.04
   0  21  12    1.89  419.24
   0  21 -12   59.27  209.72
   0 -21 -12 -523.81  251.74
   0 -21  13  357.52  348.57
   0  21  13  806.96  597.48
   0 -21 -13  540.22  537.16
   0  21 -13  500.98  375.39
   0 -21  14 2104.49  464.66
   0  21  14 1435.41  818.05
   0 -21 -14  579.07  709.85
   0  21 -14 1054.72  418.37
   0 -21  15 2575.13  618.65
   0 -21 -15 1402.29  862.30
   0 -21  16   59.96  350.22
   0 -21 -16  356.23  536.84
   0 -21  17 1027.27  500.26
   0 -21 -17  475.58  543.37
   0 -21  18  558.94  446.37
   0 -21 -18  -74.24  698.12
   0 -21  19 1211.18  373.69
   0 -21 -19  243.05  490.60
   0 -21 -19 -436.69  580.24
   0 -21  20  303.50  412.83
   0 -21 -20  793.07  683.49
   0 -21  21 1626.46  761.90
   0 -21 -21 1069.37  943.01
   0 -22   0  969.45  342.78
   0  22   0  898.61  426.23
   0  22   1  339.11  300.71
   0 -22   1  307.73  281.89
   0  22  -1  224.48  345.61
   0 -22  -1  299.40  300.63
   0  22   2 1949.83  452.34
   0 -22   2 2509.26  457.40
   0  22  -2 1288.84  434.24
   0 -22  -2 1117.60  453.19
   0 -22   317279.04 1440.97
   0  22  -314152.00 1299.53
   0 -22  -318045.59 1556.09
   0  22   415647.80 1546.43
   0 -22   415434.61 1140.93
   0  22  -416096.45 1577.87
   0 -22  -419424.66 1824.06
   0  22   5  367.29  318.56
   0 -22   5  217.46  258.29
   0  22  -5   59.07  352.28
   0 -22  -5  205.75  335.05
   0 -22   6 5829.64  656.04
   0  22   6 4090.54  737.87
   0  22  -6 3235.42  726.13
   0 -22  -6 4952.15  829.57
   0 -22   7 1004.75  352.81
   0  22   7 1027.39  393.71
   0  22  -7  664.36  385.27
   0  22   8 1951.97  524.35
   0 -22   8 1730.04  433.84
   0 -22  -8 1476.44  637.19
   0  22  -8 1972.68  563.20
   0 -22   9 1571.87  465.00
   0  22  -9 2537.37  597.34
   0  22  10 1637.72  779.57
   0 -22  10 4056.75  585.56
   0 -22 -10 1957.83  712.53
   0  22 -10 2782.10  645.57
   0 -22  11  212.02  270.27
   0  22  11 -238.74  416.51
   0 -22 -11  114.45  352.73
   0  22 -11  -13.53  282.27
   0  22  12 2246.58  705.49
   0 -22  12  342.38  314.98
   0 -22 -12 1974.11  572.43
   0  22 -12 1138.14  355.96
   0 -22  13  334.27  245.11
   0 -22 -13   80.78  474.21
   0 -22  14 -266.47  204.73
   0 -22 -14 1003.83  425.34
   0 -22  15  358.42  272.86
   0 -22 -15 -407.08  542.32
   0 -22  16  432.16  293.21
   0 -22 -16   10.69  625.47
   0 -22  17  511.77  326.45
   0 -22 -17   13.19  488.48
   0 -22  18  549.70  388.21
   0 -22 -18 1892.66  821.52
   0 -22  19 1195.50  593.07
   0 -22 -19  930.71  950.35
   0 -22  20  773.25  664.39
   0 -22 -20  962.66  944.10
   0  23   0  638.73  355.50
   0 -23   0  508.49  329.60
   0  23   1  -87.79  284.51
   0 -23   1  -78.58  170.14
   0  23  -1   72.58  286.51
   0 -23  -1  138.82  226.79
   0 -23   2   45.44  266.24
   0  23   2 -329.67  326.16
   0 -23  -2    9.78  282.71
   0  23  -2  522.04  271.89
   0  23   3   32.72  286.30
   0 -23   3  227.50  262.08
   0 -23  -3  -75.53  311.10
   0  23  -3  134.04  270.21
   0 -23   4 7570.18  781.64
   0  23   4 6353.41  928.62
   0 -23  -4 8674.96  995.88
   0  23  -4 3622.69  969.67
   0 -23   5 1833.80  437.36
   0  23   5 1794.50  510.22
   0  23  -5  833.10  473.97
   0 -23  -5 2119.58  547.46
   0 -23   6 4312.14  493.21
   0  23   6 5008.86  702.15
   0 -23  -6 3474.06  794.17
   0  23  -6 3472.30  709.53
   0 -23   7   27.40  298.56
   0  23   7  415.42  366.26
   0 -23  -7  888.71  423.06
   0  23  -7   78.00  322.29
   0  23   8 4592.04  808.07
   0 -23   8 6287.07  573.48
   0  23  -8 2133.51  756.61
   0 -23  -8 6960.61 1150.70
   0 -23   9  404.30  328.53
   0  23   9  313.41  396.29
   0  23  -9  262.22  416.21
   0 -23  -9  725.87  568.43
   0 -23  10 2701.38  515.01
   0  23  10 1298.47  710.50
   0 -23 -10 1316.19  607.19
   0 -23  11  148.93  319.80
   0  23  11  140.28  457.45
   0 -23 -11  227.02  404.57
   0 -23  12  348.04  288.01
   0 -23 -12 1101.02  501.61
   0 -23  13  691.65  318.55
   0 -23 -13 1447.44  604.06
   0 -23  14 2457.91  465.59
   0 -23 -14 2636.58  858.83
   0 -23  15   94.91  281.41
   0 -23 -15  965.58  555.73
   0 -23  16  681.89  359.99
   0 -23 -16 1423.41  722.39
   0 -23  17  563.75  357.22
   0 -23 -17 1423.66  780.85
   0 -23  18  763.64  552.25
   0 -23 -18  781.62  622.35
   0 -23  19  -45.99  440.37
   0 -23 -19  628.46  703.29
   0 -23 -20 1940.01 1224.63
   0 -24   0  379.04  353.01
   0  24   0  755.81  428.99
   0 -24   1   43.52  292.84
   0  24   1 -118.38  357.64
   0  24  -1  420.40  308.08
   0 -24  -1  140.41  282.11
   0 -24   2  299.94  294.69
   0  24   2  608.88  378.42
   0 -24  -2 -163.46  334.79
   0  24  -2  202.45  303.62
   0  24   3  -82.14  278.27
   0 -24   3   28.36  254.72
   0  24  -3  -60.61  309.40
   0 -24  -3  -24.93  285.62
   0 -24   4  172.65  274.06
   0  24   4  439.81  346.64
   0 -24  -4   29.84  339.23
   0  24  -4 -185.78  315.16
   0 -24   5  314.05  333.48
   0  24   5  603.63  450.68
   0 -24  -5  889.08  432.31
   0  24  -5  390.26  466.18
   0 -24   614628.35 1382.37
   0  24   612532.44 1589.43
   0  24  -612333.32 1628.64
   0 -24  -614830.07 1714.23
   0  24   7 2946.30  620.18
   0 -24   7 3265.94  613.86
   0 -24  -7 3179.29  810.10
   0 -24   8 1464.04  380.82
   0  24   8 1841.49  631.22
   0 -24  -8 3195.88  714.67
   0 -24   9 6822.52  904.11
   0  24   9 7202.67 1045.15
   0 -24  -9 6932.02 1247.17
   0  24  10  872.82  460.56
   0 -24  10  316.03  379.61
   0 -24 -10  690.95  669.72
   0 -24  11  134.93  323.18
   0 -24  12  212.10  264.88
   0 -24 -12  463.31  473.01
   0 -24  13  186.71  280.68
   0 -24 -13  924.07  504.85
   0 -24  14 2057.89  435.23
   0 -24 -14 1761.01  832.73
   0 -24  15  820.68  362.97
   0 -24 -15 1057.94  707.05
   0 -24  16  446.00  353.20
   0 -24 -16 1431.24  712.19
   0 -24  17  970.65  546.21
   0 -24 -17  917.01  827.26
   0 -24  18 1068.58  542.85
   0 -24 -18    5.29  582.93
   0 -24  19 1141.78  673.29
   0 -24 -19 1831.17 1047.44
   0 -25   0  -38.26  335.22
   0  25   0  629.13  351.89
   0  25   1  363.57  375.15
   0 -25   1  358.81  369.37
   0 -25  -1  576.54  361.97
   0  25   2   96.99  354.85
   0 -25   2  466.74  311.63
   0 -25  -2  -27.16  310.92
   0  25  -2  166.39  322.36
   0 -25   3  546.28  350.35
   0  25   3  143.10  458.56
   0 -25  -3  493.80  397.78
   0  25  -3  397.23  449.69
   0 -25   4   91.19  290.80
   0  25   4   93.45  410.09
   0 -25  -4  256.36  381.24
   0 -25   5 1718.34  473.20
   0  25   5 1711.67  618.83
   0 -25  -5 1424.79  525.18
   0  25   6 4155.12  759.37
   0 -25   6 2415.00  612.25
   0 -25  -6 2662.99  791.99
   0  25   716379.53 2026.53
   0 -25   717433.62 1443.85
   0 -25  -718047.18 2146.08
   0 -25   8  447.42  415.75
   0  25   8  831.55  524.12
   0 -25  -8 1539.08  513.64
   0  25   9  379.34  458.86
   0 -25   9  440.44  374.46
   0 -25  -9  467.66  536.85
   0 -25  10 2018.74  583.80
   0  25  10 1780.28  648.47
   0 -25 -10 1890.36  806.66
   0 -25  11  121.30  227.69
   0  25  11 -138.33  392.50
   0 -25  12   74.45  244.26
   0 -25  13 1630.27  396.02
   0 -25 -13  415.25  716.97
   0 -25  14 1792.05  407.12
   0 -25 -14  556.73  774.56
   0 -25  15  907.07  395.47
   0 -25 -15 1074.85  728.59
   0 -25  16  561.99  340.65
   0 -25 -16 -146.11  672.66
   0 -25  17 2885.75  800.06
   0 -25 -17 3062.17 1181.01
   0 -25  18  702.52  606.17
   0 -25 -18 1203.54  881.62
   0 -26   015882.55 1591.70
   0  26   011155.18 1682.49
   0 -26   1  826.34  475.23
   0  26   1  986.47  575.65
   0 -26  -1 1129.27  459.33
   0 -26   2 -201.91  285.42
   0  26   2   52.57  321.14
   0 -26  -2   92.43  293.05
   0  26   3 2214.58  660.26
   0 -26   3 1086.92  406.59
   0 -26  -3 1994.21  591.47
   0  26   4  295.62  472.13
   0 -26   4  350.88  340.29
   0 -26  -4  257.46  399.59
   0  26   5 1773.84  595.76
   0 -26   5  585.48  452.41
   0 -26  -5 1162.60  574.44
   0 -26   6 2507.92  608.95
   0  26   6 1947.10  776.60
   0 -26  -6 2221.41  730.40
   0  26   7   22.77  395.70
   0 -26   7  110.27  326.46
   0 -26  -7  211.04  423.59
   0  26   8  441.18  424.18
   0 -26   8  -40.66  334.52
   0 -26  -8  110.48  372.44
   0  26   9   51.16  470.45
   0 -26   9  274.04  278.56
   0 -26  -9 1074.41  549.33
   0  26  10  910.52  624.02
   0 -26  10  976.02  360.53
   0 -26  11  194.55  282.96
   0  26  11  258.13  451.32
   0 -26  12 1713.63  568.44
   0  26  12 4822.42  887.10
   0  26  13  510.82  313.34
   0 -26  13 1912.45  389.08
   0 -26  14  410.33  321.61
   0 -26 -14  348.91  606.74
   0 -26  15   65.25  310.32
   0 -26 -15  549.43  575.11
   0 -26  16  235.65  351.48
   0 -26 -16  811.97  506.68
   0 -26  17 1408.30  652.59
   0 -26 -17 1557.57  959.15
   0 -27   0 -200.86  362.90
   0 -27   1 4452.78  762.70
   0 -27  -1 4382.58  800.93
   0 -27   2  829.01  388.64
   0 -27  -2  -55.60  396.43
   0 -27   3  165.24  384.07
   0  27   3  369.10  524.83
   0 -27  -3  878.07  411.71
   0 -27   4 -124.50  334.99
   0  27   4  491.11  471.26
   0 -27  -4  309.85  394.30
   0  27   5  847.01  673.15
   0 -27   5 1317.47  498.86
   0 -27  -5  863.64  554.14
   0  27   6 1587.40  731.03
   0 -27   6 1621.15  560.45
   0 -27  -6 1371.88  695.54
   0 -27   7  326.66  318.99
   0  27   7 1623.33  599.36
   0 -27  -7  475.35  542.02
   0 -27   8  145.74  302.54
   0  27   8 1193.96  515.05
   0  27   9  386.57  536.23
   0 -27   9  663.43  448.14
   0  27  10  288.41  506.76
   0 -27  10  225.66  406.59
   0  27  11  837.08  675.98
   0 -27  11  838.65  507.98
   0 -27  12 1015.97  514.92
   0  27  12  752.11  645.48
   0  27  13 1691.25  625.64
   0 -27  13 2070.47  652.84
   0 -27  14 1864.21  647.46
   0  27  14 1589.61  655.63
   0 -27  15  397.15  361.25
   0 -27  16 2967.18  634.87
   0 -27 -16 2506.39  866.21
   0 -28   0  441.81  440.08
   0 -28   1  732.49  465.72
   0 -28  -1  843.53  476.26
   0 -28   2  492.98  469.18
   0 -28  -2 1133.63  487.89
   0 -28   3 2100.12  570.45
   0 -28  -3 1643.19  610.90
   0 -28   4 -263.10  330.16
   0 -28  -4  542.75  384.65
   0 -28   5  173.63  384.69
   0 -28  -5  323.22  437.42
   0 -28   6 4923.95  911.83
   0 -28  -6 3678.60  861.48
   0 -28   7   67.47  347.55
   0  28   8  235.12  563.98
   0 -28   8  762.28  466.24
   0 -28   9  428.42  475.21
   0  28   9  766.67  517.02
   0  28  10  108.00  550.33
   0 -28  10  524.28  443.54
   0  28  11  492.41  469.42
   0 -28  11 -307.88  352.25
   0 -28  12  491.92  449.54
   0  28  12  -19.59  618.23
   0  28  13  631.29  616.61
   0 -28  13  218.36  476.49
   0  28  14 1027.67  827.27
   0 -28  14 1215.90  605.46
   0  28  15  800.99  552.95
   0 -28  15 -405.19  398.88
   0 -29   0  647.04  463.42
   0 -29   1  807.60  554.88
   0 -29  -1 1890.55  594.07
   0 -29   2  308.06  360.81
   0 -29  -2  -58.60  388.23
   0 -29   3 -226.94  328.23
   0 -29  -3  189.02  353.61
   0 -29   4  564.32  466.70
   0 -29  -4  762.86  491.06
   0 -29   5  -34.99  349.20
   0 -29   6  438.04  450.10
   0 -29   7 4640.60  682.27
   0 -29   8   13.64  255.03
   0 -29   9 1811.85  500.87
   0 -29  10  560.83  374.26
   0 -29  11  190.67  325.81
   0 -29  12  482.80  376.12
   0 -29  13 1087.82  614.24
   0 -29  14 1375.11  677.78
   0 -30   0  726.34  506.04
   0 -30   1 2167.47  733.41
   0 -30  -1 3021.02  779.99
   0 -30   2  189.52  504.12
   0 -30  -2 1505.10  547.16
   0 -30   3 1191.10  552.75
   0 -30  -3 1105.18  587.14
   0 -30   4  180.51  414.18
   0 -30   5  427.59  471.59
   0 -30   6  571.19  515.69
   0 -30   7  154.76  423.08
   0 -30   8  592.25  517.55
   0 -30   9  305.85  485.52
   0 -30  10  839.35  602.85
   0 -30  11  203.00  472.26
   0 -30  12 -158.24  475.33
   0 -30  13  100.01  333.42
   0 -31   0  905.68  563.19
   0 -31   1  324.28  455.10
   0 -31  -1  463.23  466.37
   0 -31   2 -145.35  401.68
   0 -31   3   61.15  377.92
   0 -31   4  -40.14  389.74
   0 -31   5  744.76  568.04
   0 -31   6 1210.05  622.70
   0 -31   7  442.09  512.23
   0 -31   8 1401.49  674.07
   0 -31   9 1804.42  563.88
   0 -31  10 1069.20  493.16
   0 -31  11 2616.13  890.36
   0 -32   1  495.64  494.93
   0 -32   2  628.31  539.59
   0 -32   3   50.30  412.21
   0 -32   4  583.55  551.65
   0 -32   5  918.82  610.57
   0 -32   6  361.43  383.30
   0 -32   7  824.78  451.72
   0 -32   8 -442.06  557.43
   0 -32   9 1179.64  725.18
   0 -33   3 1177.80  661.99
   0 -33   4  258.94  506.15
   0 -33   5  805.49  633.30
   0 -33   6 1101.87  680.21
   0 -33   7  373.45  560.15
   1   0 -27  468.38  342.68
  -1   0  27 1903.98  841.71
   1   0 -26 1359.11  569.78
  -1   0  26 4007.82 1030.94
   1   0 -25  832.57  405.51
  -1   0  25   67.94  688.27
   1   0 -24  231.35  246.00
  -1   0  24 1004.68  584.34
   1   0 -23  105.51  205.90
  -1   0  23  -84.60  458.91
   1   0 -22 1438.84  415.36
  -1   0  22  336.96  672.74
   1   0 -21 -130.60  175.18
  -1   0  21  424.05  399.59
   1   0 -20 1250.66  280.82
  -1   0  20 2005.07  794.83
   1   0 -19 -151.39  247.88
  -1   0  19 -153.37  489.25
   1   0 -1828122.19 1850.24
  -1   0  1828967.22 3078.47
   1   0 -17  129.72  199.27
  -1   0  17 -167.05  292.70
   1   0 -16   94.05  154.77
  -1   0  16  666.77  306.95
   1   0 -15  112.97  190.43
  -1   0  15  131.50  370.44
   1   0 -1416606.41  931.62
  -1   0  1415325.86 1252.88
   1   0 -13  -83.51  109.89
  -1   0  13  360.19  272.20
   1   0 -1257633.48 3951.82
  -1   0  1254546.82 4033.20
   1   0 -11   90.31  197.36
  -1   0  11  362.75  289.12
   1   0 -1012184.69  825.52
  -1   0  10 9675.95  998.00
   1   0  -9  -49.07  113.66
  -1   0   9   36.89  223.26
   1   0  -8  232.66  189.26
  -1   0   8  236.64  176.11
   1   0  -7  106.31  163.39
  -1   0   7   -7.32  208.10
   1   0  -636590.18 2045.27
  -1   0   632957.01 2314.45
   1   0  -5  -59.55  101.49
   1   0  -5 -144.69  178.66
  -1   0   5   35.93  185.91
  -1   0   5  236.32  197.89
   1   0  -4  228.38  198.67
   1   0  -4  184.43  154.92
  -1   0   4    3.57  209.27
  -1   0   4  141.57  192.54
   1   0  -3   39.56  186.43
   1   0  -3   74.08  106.76
  -1   0   3  565.38  179.08
  -1   0   3   99.43  119.53
   1   0  -267662.05 4038.67
   1   0  -272773.76 4594.66
  -1   0   269859.43 4152.92
  -1   0   265399.99 3991.66
   1   0  -1  -43.18   94.05
   1   0  -1   30.28   92.17
  -1   0   1  -62.08   97.75
  -1   0   1   77.70   84.02
   1   0   018591.83  757.67
   1   0   019526.98  810.35
  -1   0   018678.63  765.41
  -1   0   018088.53  700.07
   1   0   1  -29.57   42.87
   1   0   1  -38.50   35.36
   1   0   1  150.70   50.92
   1   0   2   47.69   44.02
   1   0   2    9.20   57.03
  -1   0  -2  135.72   79.41
  -1   0  -2   24.26   47.03
   1   0   3  -17.77   64.53
   1   0   3  -74.79   40.93
  -1   0  -3   29.59   86.82
  -1   0  -3  -31.12   55.94
   1   0   4 5024.85  233.68
   1   0   4 5791.99  279.97
  -1   0  -4 5375.19  238.93
  -1   0  -4 6064.18  246.91
   1   0   5   90.59   71.63
   1   0   5  -24.07   87.70
  -1   0  -5   37.98   67.68
  -1   0  -5   65.59   71.61
   1   0   640625.46 2158.40
  -1   0  -644321.97 2302.16
   1   0   7   55.43  110.07
  -1   0  -7    7.66  100.15
   1   0   894244.01 6734.65
  -1   0  -897806.20 6826.22
   1   0   9  201.58  158.19
  -1   0  -9 -256.90  128.28
   1   0  10  164.08  163.48
  -1   0 -10  -38.11  135.55
   1   0  11  -24.71  195.25
  -1   0 -11 -106.90  143.42
   1   0  1255427.10 3966.13
  -1   0 -1252930.63 3491.08
   1   0  13 -196.55  177.25
  -1   0 -13    2.64  155.29
   1   0  14  267.14  317.37
  -1   0 -14  447.06  148.16
   1   0  15   15.37  288.94
  -1   0 -15  174.62  187.37
   1   0  16 2947.63  541.79
  -1   0 -16 4756.93  386.36
   1   0  17 -182.18  352.89
  -1   0 -17  193.13  208.75
   1   0  18 2731.26  538.90
  -1   0 -18 2279.03  329.72
   1   0  19 1095.03  435.20
  -1   0 -19    6.41  189.72
   1   0  2011702.82 1441.93
  -1   0 -2011884.20 1142.76
   1   0  21  -73.86  554.63
  -1   0 -21 -114.89  282.20
   1   0  22 5813.14 1661.48
  -1   0 -22 8879.27 1050.72
   1   0  23 -111.85  611.52
  -1   0 -23  -34.74  219.43
   1   0  2411041.07 2304.32
  -1   0 -24 9804.01  954.89
   1   0  25  471.87  625.97
  -1   0 -25  317.93  305.82
   1   0  26 2266.57  813.26
  -1   0 -26 -667.45  394.71
   1   1 -27  497.89  323.46
   1  -1 -27  513.92  330.35
  -1  -1  27  624.75 1060.30
  -1   1  27 2288.84 1117.99
   1  -1 -26  663.93  455.20
   1   1 -26 1287.90  463.06
  -1  -1  26 1329.93 1084.41
  -1   1  26 -487.89 1115.87
   1   1 -25 -279.51  349.29
   1  -1 -25  543.62  351.44
  -1  -1  25 1563.21  849.76
  -1   1  25 1278.04  868.21
   1  -1 -24  229.42  365.70
   1   1 -24  514.72  263.00
  -1  -1  24 1133.51  855.71
  -1   1  24 2267.51  861.23
   1   1 -23  -39.30  285.50
   1  -1 -23  192.50  201.22
  -1   1  23  -41.09  467.86
  -1  -1  23  262.05  647.55
   1   1 -22 1891.57  443.44
   1  -1 -22 1417.16  435.35
  -1  -1  22  731.62  926.38
  -1   1  22  963.83  698.14
   1   1 -21  -25.71  169.05
   1  -1 -21  -55.89  230.89
  -1  -1  21  225.55  500.46
  -1   1  21  290.47  372.64
   1  -1 -20  673.13  237.55
   1   1 -20  815.83  341.21
  -1  -1  20  485.66  664.41
  -1   1  20  474.99  691.98
   1   1 -19  185.18  199.31
   1  -1 -19  288.58  193.29
  -1   1  19 2018.18  573.51
  -1  -1  19  213.01  555.35
   1   1 -18  480.04  245.08
   1  -1 -18  256.05  254.49
  -1   1  18  120.96  356.94
  -1  -1  18 -361.79  492.65
   1  -1 -17  420.45  194.33
   1   1 -17  688.53  203.63
  -1   1  17  499.49  381.48
  -1  -1  17  596.17  495.13
   1  -1 -16 1463.06  316.99
   1   1 -16 1265.90  316.37
  -1   1  16  931.87  595.90
  -1  -1  16 1240.52  549.30
   1  -1 -15 3989.97  419.89
   1   1 -15 3985.55  439.69
  -1   1  15 3059.59  589.05
  -1  -1  15 3479.90  547.50
   1   1 -1419527.30 1153.12
   1  -1 -1417562.29 1041.38
  -1  -1  1420394.87 1478.18
  -1   1  1417738.19 1798.22
   1   1 -13 1907.42  252.58
   1  -1 -13 2317.90  320.47
  -1   1  13 1665.80  557.45
  -1  -1  13 1888.11  521.34
   1  -1 -12  -72.00  173.75
   1   1 -12  287.48  145.25
  -1   1  12  507.72  241.24
  -1  -1  12  -19.01  213.69
   1   1 -1129194.93 1672.41
   1  -1 -1128153.78 1628.83
  -1   1  1129122.81 2040.81
  -1  -1  1127916.25 2197.53
   1   1 -1011912.86  871.90
   1  -1 -1014236.35  776.17
  -1   1  1016173.11 1315.08
  -1  -1  1013152.90  903.39
   1   1  -9 5325.19  410.02
   1  -1  -9 5383.53  445.58
  -1  -1   9 4995.51  587.70
  -1   1   9 5788.49  694.33
   1   1  -8   91.71  121.84
   1  -1  -8   -7.74  112.52
  -1   1   8  364.27  243.74
  -1  -1   8   88.04  197.59
   1   1  -719424.69 1219.22
   1  -1  -716796.24  969.58
  -1  -1   717353.24 1164.59
  -1   1   717339.90 1312.24
   1   1  -648507.75 3177.86
   1  -1  -651370.28 3084.45
  -1   1   646759.41 3296.24
  -1  -1   645026.75 2716.74
   1   1  -5  857.12  281.07
   1  -1  -5  939.38  177.40
   1   1  -5  802.59  141.98
  -1   1   5  609.48  217.63
  -1  -1   5  658.63  185.51
  -1   1   5  584.18  179.84
   1   1  -4 7484.70  669.62
   1   1  -4 6389.84  420.83
   1  -1  -4 6449.06  426.70
   1  -1  -4 6831.92  524.98
  -1  -1   4 6816.97  575.71
  -1   1   4 6535.87  567.35
  -1   1   4 5840.50  605.07
  -1  -1   4 6467.31  535.29
   1   1  -327119.94 1730.10
   1  -1  -328177.61 1471.19
   1   1  -327981.83 1431.16
   1  -1  -327083.30 1539.11
  -1  -1   327634.66 1405.01
  -1   1   330238.65 1471.46
  -1  -1   324215.02 1335.57
  -1   1   329193.70 1775.96
   1  -1  -242125.00 2281.41
   1   1  -242282.77 2147.52
   1   1  -240926.29 2208.60
   1  -1  -239833.32 2124.04
  -1  -1   241187.40 2295.39
  -1   1   241346.38 2425.76
  -1  -1   240824.21 2192.98
  -1   1   240722.22 2201.67
   1  -1  -1 1834.94  188.81
   1   1  -1 1335.93  156.39
   1  -1  -1 1387.56  143.16
   1   1  -1 1660.14  149.04
  -1  -1   1 1682.49  157.81
  -1  -1   1 1524.14  135.19
  -1   1   1 1800.87  143.24
  -1   1   1 1320.88  206.77
   1   1   032462.09 1427.52
   1  -1   029845.29 1266.98
   1  -1   031313.05 1386.37
   1   1   032819.74 1389.38
  -1  -1   037148.61 1519.75
  -1  -1   031176.33 1306.11
  -1   1   029031.70 1204.77
  -1   1   029713.22 1465.15
   1   1   1110129.0 7009.13
   1   1   1106003.6 7008.26
  -1   1  -1101331.0 6682.75
   1   1   268519.30 3559.06
   1   1   268418.96 3924.76
   1  -1   271929.60 4020.46
   1  -1   268275.09 3634.61
  -1  -1  -278846.29 4141.63
  -1   1  -271538.52 4131.29
  -1   1  -275059.05 4050.82
   1   1   3 4537.79  162.15
   1   1   3 4448.16  201.85
   1  -1   3 4294.04  173.27
   1  -1   3 4635.70  233.94
  -1   1  -3 3795.89  166.59
  -1  -1  -3 3899.51  156.60
  -1  -1  -3 4937.04  284.77
  -1   1  -3 4099.75  201.80
   1   1   414984.97  621.66
   1   1   417235.35  661.08
   1  -1   417238.03  670.10
   1  -1   417094.83  753.34
  -1  -1  -418280.33  766.61
  -1   1  -416682.32  699.31
  -1  -1  -414629.10  570.54
  -1   1  -416161.46  676.38
   1   1   512534.72  539.28
   1  -1   511563.61  482.14
   1  -1   511270.64  427.59
  -1  -1  -510731.46  435.45
  -1  -1  -512659.19  602.06
  -1   1  -512273.14  547.21
  -1   1  -511060.80  491.43
   1   1   682719.66 5267.56
   1  -1   687541.76 5652.27
  -1   1  -683494.33 5160.21
  -1  -1  -687314.84 5654.69
  -1  -1  -679861.22 5040.79
   1  -1   766790.08 4049.48
   1   1   758509.55 3649.12
  -1  -1  -764398.13 3937.36
  -1   1  -764157.41 3769.57
   1   1   8  220.28  155.99
   1  -1   8  473.04  144.31
  -1  -1  -8  146.42   97.67
  -1   1  -8  236.66  126.93
   1   1   9  841.01  238.36
   1  -1   9 1236.03  223.65
  -1  -1  -9 1271.14  203.33
  -1   1  -9  781.93  189.51
   1   1  10 -211.25  166.05
   1  -1  10   47.94  170.02
  -1  -1 -10  182.06  142.47
  -1   1 -10   63.40  130.84
   1  -1  11   63.80  193.22
   1   1  11  105.00  215.83
  -1  -1 -11   75.99  158.09
  -1   1 -11   98.49  143.12
   1   1  12 9334.42  856.75
   1  -1  1210572.39  698.16
  -1  -1 -12 9665.26  682.14
  -1   1 -1210485.61  679.53
   1   1  13  932.88  353.49
   1  -1  13 1293.17  252.81
  -1  -1 -13  946.06  244.02
  -1   1 -13 1190.33  178.12
   1  -1  14  -99.93  162.03
   1   1  14  -31.89  240.34
  -1  -1 -14   68.46  164.51
  -1   1 -14  145.75  155.90
   1  -1  15  614.80  292.57
   1   1  15 -132.33  289.84
  -1   1 -15  -75.16  125.76
  -1  -1 -15  133.45  131.40
   1  -1  16  272.67  350.42
   1   1  16  191.25  354.59
  -1   1 -16  123.07  216.52
  -1  -1 -16  369.26  221.99
   1   1  17  429.71  356.43
   1  -1  17  912.05  341.63
  -1  -1 -17  842.87  223.65
  -1   1 -17  914.69  280.77
   1   1  18 2929.99  898.33
   1  -1  18 4646.73  882.24
  -1   1 -18 4012.84  413.81
  -1  -1 -18 3459.34  536.52
   1   1  19 5170.74 1088.04
   1  -1  19 4705.90 1006.88
  -1  -1 -19 4304.04  514.35
  -1   1 -19 5392.44  633.95
   1   1  20  121.46  494.76
   1  -1  20  858.10  474.30
  -1  -1 -20 -152.57  286.22
  -1   1 -20  241.42  286.53
   1   1  21  980.98  785.91
   1  -1  21 1003.42  797.72
  -1   1 -21 1196.09  423.01
  -1  -1 -21 1619.91  449.64
   1   1  22 3060.39 1257.97
   1  -1  22 2705.72 1193.95
  -1   1 -22 3958.18  703.33
  -1  -1 -22 3596.31  693.24
   1   1  23 1699.87  781.00
   1  -1  23  488.31  732.46
  -1  -1 -23  141.66  293.10
  -1   1 -23  636.02  287.88
   1   1  24 1958.21 1322.51
   1  -1  24 4805.13 1231.31
  -1  -1 -24 2898.27  514.52
  -1   1 -24 2739.21  510.86
   1   1  25 2663.24 1320.86
   1  -1  25 3681.57 1347.25
  -1   1 -25 2312.86  496.96
  -1  -1 -25 1820.84  675.77
   1   1  26 2457.40 1202.17
   1  -1  26 1401.37 1167.19
  -1  -1 -26 1976.49  611.12
  -1   1 -26  555.41  423.84
   1  -2 -27  197.86  328.36
   1   2 -27  842.70  439.45
  -1   2  27 2274.61 1084.26
  -1  -2  27  315.99  761.90
   1   2 -26  196.86  281.25
   1  -2 -26  285.69  396.41
  -1  -2  26 1363.06  679.12
  -1   2  26  798.74  959.71
   1   2 -25 2690.88  663.55
   1  -2 -25 3978.49  687.42
  -1  -2  25 4230.39 1157.85
  -1   2  25 5927.13 1605.25
   1   2 -24  173.44  257.06
   1  -2 -24  316.09  337.19
  -1  -2  24 1130.75  770.81
  -1   2  24 1361.93  825.13
   1   2 -23  415.42  352.57
   1  -2 -23  642.71  252.22
  -1  -2  23 -230.10  766.62
  -1   2  23  504.98  811.26
   1  -2 -22  571.84  221.23
   1   2 -22   26.98  313.94
  -1   2  22  222.44  512.82
  -1  -2  22  315.76  687.97
   1  -2 -21  598.82  329.27
   1   2 -21  819.59  342.25
  -1   2  21  130.35  515.73
  -1  -2  21  638.06  712.45
   1  -2 -20  183.99  280.41
   1   2 -20  536.57  216.25
  -1  -2  20  468.30  616.34
  -1   2  20  104.52  619.54
   1   2 -1915400.59 1264.48
   1  -2 -1915522.09 1227.38
  -1   2  1915749.28 2077.34
  -1  -2  1913975.10 1936.50
   1   2 -18  -54.38  145.65
   1  -2 -18   97.20  147.20
  -1  -2  18  -18.77  394.99
  -1   2  18  152.83  327.18
   1   2 -1711824.46  973.24
   1  -2 -1712080.17  820.70
  -1   2  1711092.12 1593.81
  -1  -2  1711857.14 1521.13
   1   2 -16 -242.26  203.38
   1  -2 -16 -225.85  200.31
  -1   2  16   95.38  303.95
  -1  -2  16   85.71  385.59
   1   2 -15 3137.09  344.53
   1  -2 -15 3108.21  394.44
  -1   2  15 3432.99  773.18
  -1  -2  15 2711.37  696.87
   1  -2 -14 2581.39  273.15
   1   2 -14 3259.93  319.43
  -1   2  14 2744.41  704.78
  -1  -2  14 3164.56  592.62
   1   2 -13  557.46  175.43
   1  -2 -13  360.36  225.35
  -1  -2  13 1018.02  349.21
  -1   2  13  602.46  419.17
   1  -2 -12  132.87  127.94
   1   2 -12  105.34  142.48
  -1  -2  12  -63.50  195.10
  -1   2  12  415.54  324.33
   1   2 -1121886.92 1434.99
   1  -2 -1122527.33 1383.49
  -1  -2  1123191.34 1506.85
  -1   2  1122181.08 1947.01
   1   2 -10 9002.89  586.94
   1  -2 -10 7697.85  459.25
  -1  -2  10 8619.74  820.06
  -1   2  10 8510.83  756.34
   1  -2  -9 8067.08  584.76
   1   2  -9 7667.42  510.83
  -1  -2   9 7221.09  725.88
  -1   2   9 8249.88  698.55
   1   2  -8 3008.90  411.95
   1  -2  -8 2614.92  294.69
  -1  -2   8 2781.60  306.86
  -1   2   8 2470.01  380.28
   1   2  -745954.06 2791.80
   1  -2  -747487.60 2773.46
  -1  -2   742443.35 2548.53
  -1   2   744696.58 2926.73
   1   2  -664563.34 4135.01
   1  -2  -662316.69 3850.66
  -1  -2   660211.33 3977.21
  -1   2   658118.34 4362.14
   1   2  -516043.66 1294.19
   1  -2  -519485.17 1079.60
  -1  -2   517000.64 1037.02
  -1   2   520147.83 1022.32
  -1   2   518444.76 1159.45
   1   2  -4 3068.61  196.89
   1   2  -4 3256.56  342.51
   1  -2  -4 3482.50  399.82
   1  -2  -4 3464.19  234.51
  -1   2   4 2602.48  353.84
  -1  -2   4 3024.96  338.29
  -1  -2   4 2789.54  419.15
  -1   2   4 3033.81  340.79
   1   2  -331660.94 1542.85
   1   2  -331634.30 2095.82
   1  -2  -332134.75 1763.04
   1  -2  -334188.38 1790.08
  -1  -2   328967.36 1802.65
  -1   2   334767.66 1835.59
  -1   2   332105.24 2066.54
  -1  -2   331432.26 1677.28
   1   2  -2 2667.97  270.31
   1  -2  -2 3019.23  259.95
   1  -2  -2 3696.70  339.49
   1   2  -2 3556.72  208.53
  -1  -2   2 3079.01  236.50
  -1  -2   2 2910.62  225.76
  -1   2   2 3842.04  229.04
  -1   2   2 3713.99  394.56
   1  -2  -1 4314.37  238.79
   1   2  -1 5136.88  210.56
   1  -2  -1 5106.57  343.62
   1   2  -1 4477.19  284.81
  -1   2   1 4642.18  202.42
  -1  -2   1 4692.37  249.40
  -1   2   1 4755.56  294.60
  -1  -2   1 4407.75  236.59
   1  -2   010944.57  390.17
   1   2   0 9871.64  437.60
   1  -2   0 9533.39  422.89
   1   2   010537.06  340.94
  -1  -2   010472.61  344.81
  -1   2   0 9810.11  543.24
  -1  -2   0 8368.93  335.32
  -1   2   010091.39  314.45
   1   2   1  667.01  109.30
   1   2   1  806.53  108.57
   1  -2   1  694.08  130.09
   1  -2   1  450.20   53.69
  -1   2  -1  672.38   48.09
  -1   2  -1  295.29   95.31
   1   2   2  273.68   68.73
   1   2   2  198.13   34.41
   1  -2   2  218.46   79.69
   1  -2   2  170.47   33.83
  -1   2  -2  200.95   47.67
  -1  -2  -2  196.57   28.64
  -1   2  -2  319.33   98.23
   1   2   321935.36  824.16
   1   2   322224.52  983.75
   1  -2   320946.77  880.83
   1  -2   324872.08  913.35
  -1  -2  -325452.99 1216.24
  -1  -2  -320097.05  703.23
  -1   2  -324636.95  919.49
  -1   2  -320248.25  845.84
   1   2   410119.64  387.07
   1  -2   410862.05  452.11
   1   2   410588.09  407.51
   1  -2   411997.25  449.57
  -1   2  -411261.88  515.45
  -1  -2  -411838.06  623.07
  -1  -2  -411814.37  401.58
  -1   2  -410988.78  438.34
   1   2   5153302.512070.94
   1  -2   5171389.113691.02
   1  -2   5151212.712126.32
  -1   2  -5162678.112763.48
  -1  -2  -5153240.612328.93
  -1  -2  -5138737.910990.15
   1   2   6 6600.88  372.34
   1  -2   6 6849.36  385.10
  -1  -2  -6 5113.26  249.67
  -1  -2  -6 6244.74  381.88
  -1   2  -6 5859.80  307.29
   1  -2   7  155.02   99.72
   1   2   7  308.81  143.71
  -1  -2  -7  220.91  137.08
  -1   2  -7  420.93  108.22
   1  -2   816292.60  785.99
   1   2   814822.98  868.13
  -1  -2  -815961.90  874.43
  -1   2  -815577.84  683.29
   1   2   9 2032.67  293.28
   1  -2   9 1571.36  245.35
  -1  -2  -9 1489.51  252.91
  -1   2  -9 1145.74  212.96
   1   2  10  314.26  197.72
   1  -2  10   81.56  125.18
  -1  -2 -10  110.12  114.63
  -1   2 -10  104.92  100.80
   1  -2  1123145.79 1485.14
   1   2  1124585.42 1642.48
  -1  -2 -1124504.40 1463.08
  -1   2 -1123608.35 1355.54
   1   2  12   28.19  226.35
   1  -2  12 -106.97  139.72
  -1   2 -12  244.02  136.81
  -1  -2 -12  -23.02  152.41
   1  -2  13 5310.59  586.64
   1   2  13 5437.96  678.70
  -1   2 -13 5902.39  456.95
  -1  -2 -13 5096.14  383.33
   1   2  14  356.77  255.96
   1  -2  14  767.94  337.58
  -1   2 -14  952.63  215.88
  -1  -2 -14  603.57  231.81
   1   2  15 7477.29  862.24
   1  -2  15 5817.38  765.76
  -1   2 -15 6068.32  547.15
  -1  -2 -15 6480.58  590.81
   1   2  16  332.47  408.67
   1  -2  16  322.05  284.46
  -1  -2 -16  492.90  177.16
  -1   2 -16  414.13  165.89
   1  -2  17 6781.29  784.78
   1   2  17 8592.58 1120.05
  -1   2 -17 6706.72  527.35
  -1  -2 -17 7196.40  753.16
   1   2  18  603.68  418.64
   1  -2  18  621.55  503.50
  -1  -2 -18  995.69  331.86
  -1   2 -18  937.65  308.68
   1   2  19 2060.11  996.34
   1  -2  19 4226.77  950.72
  -1   2 -19 4712.24  579.29
  -1  -2 -19 4021.93  613.53
   1   2  20 1725.46  697.38
   1  -2  20 1965.41  609.20
  -1  -2 -20  239.45  271.71
  -1   2 -20  716.95  330.81
   1  -2  21 1929.71  641.71
   1   2  21  307.45  726.25
  -1  -2 -21  656.92  388.04
  -1   2 -21  512.38  349.09
   1   2  22  720.03  459.34
   1  -2  22  686.38  398.85
  -1  -2 -22  -92.37  328.83
  -1   2 -22  -59.58  299.57
   1  -2  23 1690.03  919.82
   1   2  23 3741.11  962.82
  -1   2 -23 1384.04  489.72
  -1  -2 -23  622.92  371.20
   1  -2  24 1657.05  726.63
   1   2  24 2128.18 1088.21
  -1   2 -24 1468.47  517.23
  -1  -2 -24 1081.68  401.27
   1   2  25  837.76  875.32
   1  -2  25 -555.47  784.18
  -1  -2 -25  596.57  448.39
  -1   2 -25  269.67  417.25
   1   2  26 -550.50  711.87
   1  -2  26  595.39  712.41
  -1  -2 -26  559.09  496.84
  -1   2 -26  720.59  468.72
   1   3 -27  417.71  465.94
  -1   3  27 1645.07  897.36
  -1  -3  27 1156.90 1144.42
   1   3 -26 1387.40  392.98
   1  -3 -26 1513.15  411.25
  -1   3  26 3189.70 1021.52
  -1  -3  26 2463.46 1290.17
   1   3 -25  -17.73  399.25
   1  -3 -25  584.31  394.95
  -1   3  25 2198.48  951.46
  -1  -3  25 1465.55  903.46
   1   3 -24  723.22  315.57
   1  -3 -24 1031.70  426.76
  -1  -3  24 2167.07  707.28
  -1   3  24 1605.51 1010.90
   1   3 -23 1956.57  503.14
   1  -3 -23 2256.89  495.50
  -1  -3  23 1101.69  805.21
  -1   3  23 2885.59 1152.98
   1  -3 -22 -519.87  267.59
   1   3 -22 -130.68  201.27
  -1  -3  22    7.70  449.79
  -1   3  22  635.85  471.24
   1   3 -21 1536.91  395.57
   1  -3 -21  616.79  270.09
  -1   3  21 1273.48  812.24
  -1  -3  21 1120.40  729.39
   1   3 -20  443.55  210.44
   1  -3 -20   62.06  198.66
  -1  -3  20   -9.26  545.73
  -1   3  20 1098.94  613.33
   1   3 -19  163.93  236.40
   1  -3 -19  -39.59  161.30
  -1  -3  19  113.84  454.65
  -1   3  19  709.03  371.35
   1  -3 -18 5044.66  564.33
   1   3 -18 5662.38  611.84
  -1  -3  18 4754.32 1048.83
  -1   3  18 2673.05 1118.85
   1   3 -17   24.41  151.53
   1  -3 -17  144.12  195.56
  -1  -3  17   37.26  384.13
  -1   3  17  108.51  306.27
   1  -3 -16   20.22  205.45
   1   3 -16  445.27  165.58
  -1  -3  16   13.59  379.36
  -1   3  16  438.96  446.42
   1  -3 -15  993.27  213.62
   1   3 -15 1432.31  330.70
  -1  -3  15 2061.34  369.61
  -1   3  15 2093.17  587.63
   1  -3 -1410498.33  656.90
   1   3 -1410544.63  827.01
  -1   3  1412174.51 1316.69
  -1  -3  1411259.48  927.77
   1   3 -13  544.81  182.93
   1  -3 -13  509.67  157.11
  -1  -3  13  535.50  256.77
  -1   3  13  168.55  411.19
   1   3 -12 4157.83  373.62
   1  -3 -12 5064.95  434.50
  -1  -3  12 5348.50  515.43
  -1   3  12 4815.99  599.96
   1   3 -11  898.69  301.71
   1  -3 -11  985.11  237.23
  -1   3  11  729.91  430.12
  -1  -3  11  813.53  249.36
   1   3 -10 2808.70  459.91
   1  -3 -10 3573.38  278.81
  -1  -3  10 3728.49  376.27
  -1   3  10 3021.22  486.66
   1   3  -927720.63 1893.54
   1  -3  -927231.00 1510.79
  -1  -3   926105.98 1574.53
  -1   3   925918.60 2149.68
   1   3  -8 7502.96  678.30
   1  -3  -8 6318.83  429.65
  -1  -3   8 7088.07  609.48
  -1   3   8 6481.67  600.08
   1   3  -7  576.34  256.40
   1  -3  -7  456.81  122.05
  -1  -3   7  597.87  225.21
  -1   3   7  663.08  246.05
   1   3  -6 1371.83  344.96
   1  -3  -6 1335.99  200.18
  -1  -3   6 1326.57  244.48
  -1   3   6 1275.25  295.91
   1  -3  -5  719.45  155.39
   1   3  -5  411.17  215.71
  -1  -3   5  651.10  136.30
  -1   3   5  721.79  313.68
  -1   3   5  641.23  203.81
   1   3  -4 2856.94  166.32
   1   3  -4 2738.69  460.67
   1  -3  -4 2625.20  412.23
   1  -3  -4 2746.07  254.33
  -1  -3   4 2774.79  285.33
  -1   3   4 3250.88  301.67
  -1  -3   4 3662.92  312.59
  -1   3   4 3655.16  375.69
   1  -3  -3116377.9 9262.88
   1  -3  -3123662.1 8866.29
   1   3  -3122215.6 8763.96
   1   3  -3125327.310255.93
  -1   3   3126865.6 9580.69
  -1  -3   3118297.9 8712.17
  -1  -3   3121514.6 9414.18
  -1   3   3119342.3 9505.24
   1   3  -2 3891.81  441.98
   1   3  -2 4571.96  207.51
   1  -3  -2 4614.43  418.76
   1  -3  -2 4677.71  253.54
  -1  -3   2 4587.69  249.85
  -1  -3   2 5193.50  418.79
  -1   3   2 4655.30  249.45
  -1   3   2 4438.76  371.32
   1  -3  -1 3099.59  232.05
   1   3  -1 3449.27  129.97
   1   3  -1 3448.40  252.71
   1  -3  -1 2735.68  142.34
  -1  -3   1 3046.90  279.36
  -1  -3   1 3380.45  135.69
  -1   3   1 3373.22  180.35
  -1   3   1 2800.54  266.12
   1   3   018583.67  847.63
   1   3   020678.83  635.75
   1  -3   019115.69 1013.53
   1  -3   019058.47  710.43
  -1  -3   019026.88  631.60
  -1  -3   020937.64  839.04
  -1   3   018966.00  927.97
   1   3   125960.11 1116.80
   1  -3   124140.05 1254.28
   1   3   124367.12 1137.76
   1  -3   127578.36  936.11
  -1   3  -124483.51 1158.35
  -1   3  -129386.02 1016.03
   1  -3   2 6226.99  299.86
   1   3   2 5467.91  250.34
   1   3   2 5450.07  196.96
   1  -3   2 5742.60  163.64
  -1   3  -2 6288.05  192.36
  -1  -3  -2 6571.72  389.80
  -1   3  -2 5328.50  267.10
   1   3   310732.61  429.77
   1   3   311727.29  437.13
   1  -3   312223.00  403.68
   1  -3   312067.70  582.97
  -1  -3  -310756.66  612.15
  -1   3  -310846.49  538.46
  -1   3  -310670.09  365.97
  -1  -3  -310080.06  320.42
   1   3   4 6393.85  282.30
   1  -3   4 6430.69  276.80
   1  -3   4 6169.83  352.86
  -1  -3  -4 5662.91  195.38
  -1  -3  -4 5467.34  309.93
  -1   3  -4 5745.75  327.47
  -1   3  -4 5811.66  220.84
   1  -3   5173309.315144.93
   1   3   5175874.415077.34
   1  -3   5191918.516779.38
  -1   3  -5198616.816639.67
  -1  -3  -5166471.214844.68
  -1  -3  -5174243.614706.89
   1   3   614606.43  679.97
   1  -3   614101.21  652.54
  -1  -3  -612796.66  544.97
  -1   3  -615062.27  642.89
  -1  -3  -613397.62  719.76
   1   3   716777.78  947.04
   1  -3   717116.18  906.27
  -1   3  -716974.80  790.95
  -1  -3  -715829.00  774.33
   1   3   8 9535.05  601.68
   1  -3   810157.93  605.43
  -1  -3  -8 8899.37  574.33
  -1   3  -8 8997.19  492.56
   1   3   9 2470.85  337.50
   1  -3   9 1814.83  229.17
  -1  -3  -9 1431.15  207.41
  -1   3  -9 3055.96  249.95
   1   3  10 4710.91  501.25
   1  -3  10 3697.97  322.35
  -1  -3 -10 4825.72  331.04
  -1   3 -10 5132.59  373.39
   1  -3  1111203.86  862.84
   1   3  1113520.97 1003.62
  -1  -3 -1112719.95  857.21
  -1   3 -1112930.69  776.24
   1  -3  12  587.97  213.55
   1   3  12  360.48  268.07
  -1  -3 -12  158.55  146.29
  -1   3 -12  529.01  176.79
   1   3  13  947.24  377.95
   1  -3  13  860.27  313.44
  -1   3 -13 1204.97  208.62
  -1  -3 -13  622.28  185.91
   1   3  14  832.91  412.70
   1  -3  14 1316.14  347.65
  -1   3 -14 1217.70  241.17
  -1  -3 -14  822.43  206.26
   1   3  15 1270.12  444.10
   1  -3  15 1047.38  289.29
  -1  -3 -15 1098.51  208.53
  -1   3 -15  598.19  184.01
   1  -3  16 4638.21  519.11
   1   3  16 3223.59  753.84
  -1  -3 -16 3226.95  512.27
  -1   3 -16 3935.30  445.28
   1  -3  17 1508.09  529.23
   1   3  17 1604.24  611.83
  -1   3 -17 1938.71  341.66
  -1  -3 -17 1616.49  385.11
   1   3  18 1394.91  592.31
   1  -3  18  498.64  504.19
  -1  -3 -18  512.00  242.52
  -1   3 -18  951.05  288.90
   1   3  19  282.14  536.64
   1  -3  19  452.89  458.72
  -1   3 -19  180.17  259.83
  -1  -3 -19  386.79  290.13
   1   3  20 7580.41 1122.34
   1  -3  20 8275.20  980.97
  -1  -3 -20 7370.62  741.92
  -1   3 -20 7145.32  806.62
   1   3  21  342.34  446.71
   1  -3  21 1703.22  562.36
  -1  -3 -21   76.89  332.54
  -1   3 -21   69.99  292.22
   1   3  22 1186.80  793.21
   1  -3  22 1634.95  692.76
  -1  -3 -22  576.05  425.96
  -1   3 -22  399.34  371.38
   1   3  23 2104.62  898.90
   1  -3  23 1618.10  767.94
  -1  -3 -23  793.48  338.59
  -1   3 -23  374.47  408.13
   1   3  24  652.07 1028.06
   1  -3  24 1569.71  945.71
  -1   3 -24  829.29  486.58
  -1  -3 -24 1567.06  541.40
   1  -3  25 2533.55  873.82
   1   3  25 1403.69 1269.16
  -1  -3 -25  989.05  666.93
  -1   3 -25 2520.04  615.10
   1   3  26  152.59  673.54
   1  -3  26 1008.52  837.28
  -1   3 -26  309.94  438.69
  -1  -3 -26  162.77  473.95
   1   4 -27  373.03  475.76
  -1  -4  27 2113.03 1159.56
  -1   4  27 2122.73 1263.18
   1   4 -26 1280.20  391.41
   1  -4 -26 1740.55  415.47
  -1   4  26 2649.58 1026.13
  -1  -4  26 2168.24  923.35
   1  -4 -25  307.99  267.39
   1   4 -25   76.06  368.86
  -1  -4  25  178.45  605.40
  -1   4  25 1089.74  666.61
   1   4 -24 2246.82  471.32
   1  -4 -24 2892.31  597.65
  -1   4  24 6078.59 1479.04
  -1  -4  24 4234.74 1329.80
   1   4 -23  194.67  305.10
   1  -4 -23   89.69  302.94
  -1  -4  23  -10.20  688.99
  -1   4  23 1106.94  705.89
   1   4 -22   -8.10  181.59
   1  -4 -22  193.47  238.37
  -1  -4  22 -112.46  485.61
  -1   4  22 -408.35  404.15
   1   4 -21 3443.16  518.47
   1  -4 -21 2086.20  490.18
  -1  -4  21 1314.89  708.04
  -1   4  21 1951.26 1055.46
   1   4 -20  417.26  201.66
   1  -4 -20 -209.35  261.46
  -1   4  20  707.90  603.04
  -1  -4  20  302.58  390.24
   1  -4 -19  133.01  223.41
   1   4 -19 -102.96  174.40
  -1  -4  19  106.41  454.08
  -1   4  19 1561.74  512.05
   1   4 -18 1588.19  360.15
   1  -4 -18 1042.11  342.41
  -1   4  18 1398.93  542.78
  -1  -4  18 1256.03  593.24
   1   4 -1711482.22  928.37
   1  -4 -1711140.74  906.89
  -1   4  1710466.73 1629.67
  -1  -4  1710932.03 1391.28
   1   4 -1612035.14 1003.68
   1  -4 -1611235.38  888.80
  -1   4  1612565.01 1594.14
  -1  -4  1611893.53 1103.50
   1  -4 -15 2983.13  304.97
   1   4 -15 4019.97  466.74
  -1   4  15 3051.11  804.33
  -1  -4  15 3611.12  529.80
   1   4 -14 4368.31  513.91
   1  -4 -14 3852.22  326.96
  -1  -4  14 4967.13  534.37
  -1   4  14 5111.88  858.00
   1   4 -13  409.64  251.06
   1  -4 -13  876.71  168.48
  -1  -4  13  596.91  347.40
  -1   4  13  659.68  337.28
   1   4 -12 2967.22  462.21
   1  -4 -12 3028.73  262.13
  -1  -4  12 2902.57  517.00
  -1   4  12 2272.82  652.00
   1  -4 -1127682.94 1542.55
   1   4 -1127953.66 1696.64
  -1  -4  1131858.34 2209.08
  -1   4  1127842.55 2072.51
   1   4 -10   59.16  164.11
   1  -4 -10   97.33  105.72
  -1   4  10  112.10  212.19
  -1  -4  10 -196.78  164.59
   1   4  -9  702.23  267.65
   1  -4  -9  364.33  124.25
  -1  -4   9  281.99  168.81
  -1   4   9  912.99  369.52
   1  -4  -8  303.44  110.41
   1   4  -8  365.05  261.42
  -1  -4   8  364.16  210.51
  -1   4   8  489.92  332.38
   1   4  -7  553.17  220.19
   1  -4  -7  710.80  112.41
  -1  -4   7  576.96  216.14
  -1   4   7  466.34  351.68
   1   4  -6 1887.27  293.79
   1  -4  -6 1636.20  191.34
  -1   4   6 1461.45  422.56
  -1  -4   6 1798.79  186.97
   1   4  -5 2767.58  450.52
   1  -4  -5 2601.09  202.09
  -1  -4   5 2937.84  271.33
  -1   4   5 2436.87  199.35
  -1   4   5 2508.46  486.96
   1   4  -4  153.48   85.41
   1   4  -4  142.87  256.44
   1  -4  -4  243.77  150.90
   1  -4  -4  131.24   95.28
  -1   4   4  140.41  125.30
  -1  -4   4  134.12  145.15
  -1   4   4    0.22  262.39
  -1  -4   4  295.48   94.73
   1   4  -3 4559.08  499.31
   1   4  -3 3084.65  188.28
   1  -4  -3 3274.02  418.06
   1  -4  -3 3904.68  220.92
  -1  -4   3 3811.99  259.29
  -1  -4   3 3846.05  403.29
  -1   4   3 3870.29  246.87
  -1   4   3 4532.25  497.17
   1   4  -237725.26 2123.19
   1  -4  -236139.67 2220.64
   1   4  -235540.02 1552.63
   1  -4  -238233.30 1658.49
  -1  -4   237763.76 2046.84
  -1   4   237369.94 2401.28
  -1  -4   236957.78 1702.73
  -1   4   237413.78 1814.26
   1   4  -111483.62  352.81
   1  -4  -110857.48  684.76
   1   4  -110773.00  721.60
   1  -4  -110008.59  318.65
  -1   4   110724.96  412.37
  -1  -4   110036.42  329.01
  -1  -4   111167.58  522.40
  -1   4   111792.04  647.62
   1   4   0 3175.05  228.59
   1   4   0 3007.20   97.65
   1  -4   0 3574.88  324.54
  -1  -4   0 2634.64  225.41
  -1   4   0 2774.78  354.29
  -1  -4   0 3020.63   91.89
   1   4   1  563.07   94.28
   1  -4   1  388.15  172.71
   1   4   1  574.20  105.63
  -1   4  -1  420.29  121.23
   1   4   2 3477.08  155.63
   1   4   2 3800.52  262.75
   1  -4   2 3467.04  286.51
  -1  -4  -2 3084.40  222.11
  -1   4  -2 2834.28  192.32
  -1   4  -2 3093.50   96.14
   1   4   3 7953.49  346.46
   1  -4   3 8338.92  486.34
   1   4   3 8626.52  390.39
  -1  -4  -3 7703.66  571.68
  -1   4  -3 8666.17  492.13
  -1   4  -3 8815.62  278.72
  -1  -4  -3 9171.87  293.58
   1   4   4 4553.56  251.87
   1  -4   4 4357.25  194.03
   1  -4   4 4948.18  335.78
  -1  -4  -4 4994.37  173.92
  -1   4  -4 4975.97  205.37
   1   4   5  214.73  109.39
   1  -4   5  368.05  101.09
   1  -4   5  243.48   98.19
  -1  -4  -5  180.87   64.66
  -1  -4  -5  270.87  117.38
  -1   4  -5  179.51   79.77
   1   4   690737.08 6464.60
   1  -4   6109657.9 7707.38
  -1   4  -6111212.0 7334.52
  -1  -4  -696136.54 6455.57
  -1  -4  -698044.19 7261.64
   1  -4   772634.59 4573.59
   1   4   768723.14 4395.60
  -1  -4  -765163.65 4002.56
  -1  -4  -762363.47 3742.65
  -1   4  -766693.10 3934.07
   1   4   812474.01  820.89
   1  -4   813622.73  778.04
  -1  -4  -811829.36  637.36
  -1   4  -812665.23  639.79
   1  -4   9 7664.48  457.67
   1   4   9 8903.74  656.28
  -1  -4  -9 8193.36  591.77
  -1   4  -9 6893.34  364.06
   1  -4  10 4470.19  460.77
   1   4  10 4677.64  528.39
  -1  -4 -10 4095.76  428.72
  -1   4 -10 5152.59  368.27
   1   4  11  325.31  263.85
   1  -4  11  263.67  207.93
  -1  -4 -11  606.64  198.73
  -1   4 -11  252.70  163.30
   1   4  12 5087.66  627.89
   1  -4  12 4471.12  403.71
  -1  -4 -12 5409.94  383.64
  -1   4 -12 5285.16  335.49
   1   4  13 7514.09  853.50
   1  -4  13 8032.85  696.20
  -1  -4 -13 8209.06  540.82
  -1   4 -13 7719.77  455.80
   1   4  1416712.61 1625.41
   1  -4  1417298.89 1378.99
  -1  -4 -1416556.05 1183.60
  -1   4 -1416860.84 1084.91
   1   4  15 1265.98  511.35
   1  -4  15 1404.10  393.80
  -1   4 -15 1148.86  257.45
  -1  -4 -15 1023.05  306.21
   1   4  1611855.35 1384.36
   1  -4  1611656.62 1204.18
  -1   4 -16 9540.84  791.89
  -1  -4 -1610239.74  762.45
   1  -4  17  871.92  440.88
   1   4  17  451.33  539.74
  -1  -4 -17  917.39  230.40
  -1   4 -17  684.55  273.09
   1   4  18 -112.94  447.95
   1  -4  18   47.08  354.23
  -1  -4 -18  182.30  254.63
  -1   4 -18  169.03  214.03
   1   4  19  -75.47  499.66
   1  -4  19  134.04  449.60
  -1  -4 -19  189.58  215.41
  -1   4 -19  348.24  250.24
   1   4  20 1940.90  726.44
   1  -4  20  312.29  601.27
  -1  -4 -20  501.71  403.73
  -1   4 -20 1060.44  348.82
   1  -4  21 1722.48  512.41
   1   4  21 3355.79  852.39
  -1  -4 -21  250.85  339.97
  -1   4 -21 1777.63  408.99
   1  -4  22  385.05  689.19
   1   4  22 1745.06  801.56
  -1  -4 -22  548.78  438.86
  -1   4 -22  689.58  373.90
   1  -4  23 1032.99  668.57
   1   4  23 -138.22  768.25
  -1   4 -23 -197.36  348.86
  -1  -4 -23  831.07  300.14
   1   4  24 2247.50  906.37
   1  -4  24  838.00  774.78
  -1  -4 -24 1028.88  352.73
  -1   4 -24 -247.89  401.20
   1   4  25 -129.20  930.09
   1  -4  25   66.41  846.18
  -1  -4 -25  -75.02  475.21
  -1   4 -25 1065.53  430.98
   1   4  26 -240.00  696.18
   1  -4  26  261.37  632.86
  -1  -4 -26  775.49  482.58
  -1   4 -26  176.67  435.87
   1   5 -27  -57.04  288.20
  -1   5  27 1277.58 1057.24
  -1  -5  27 1790.31  697.98
   1   5 -26 1570.95  472.89
   1  -5 -26  120.42  345.19
  -1   5  26 3237.97 1201.17
  -1  -5  26 2081.42 1078.86
   1   5 -25 -508.64  224.12
   1  -5 -25  517.59  226.28
  -1  -5  25  153.71  711.61
  -1   5  25  691.06  575.82
   1  -5 -24 1395.35  368.31
   1   5 -24 1227.68  502.66
  -1  -5  24 2626.17 1107.62
  -1   5  24 3749.93 1218.35
   1  -5 -23  956.01  306.14
   1   5 -23  870.28  436.27
  -1   5  23 1544.97 1013.18
  -1  -5  23 1540.27  619.93
   1   5 -22 7932.93  721.81
   1  -5 -22 7098.74  714.63
  -1   5  22 7832.80 1413.05
  -1  -5  22 4578.90 1635.88
   1   5 -21  106.46  258.10
   1  -5 -21   17.05  180.75
  -1  -5  21 -145.48  516.76
  -1   5  21  815.76  606.46
   1   5 -20 2391.31  485.85
   1  -5 -20 2171.12  346.23
  -1  -5  20  670.45  878.41
  -1   5  20 3540.38 1037.88
   1   5 -19  958.29  260.94
   1  -5 -19  778.05  243.84
  -1   5  19 3616.50  756.18
  -1  -5  19  556.76  446.08
   1   5 -18   -8.71  175.28
   1  -5 -18  309.89  169.95
  -1   5  18  283.50  515.76
  -1  -5  18  183.02  417.20
   1   5 -17  213.86  266.87
   1  -5 -17  239.66  164.02
  -1  -5  17  195.87  413.72
  -1   5  17  180.65  499.13
   1   5 -16 2384.44  427.99
   1  -5 -16 2323.60  287.38
  -1  -5  16 1853.04  653.28
  -1   5  16 2379.67  770.81
   1   5 -15 1325.74  301.68
   1  -5 -15  828.06  250.20
  -1  -5  15  512.66  311.70
  -1   5  15  471.12  543.47
   1   5 -14  258.70  173.71
   1  -5 -14  410.07  198.58
  -1  -5  14  315.21  331.81
  -1   5  14  389.72  423.72
   1  -5 -13 5434.42  486.41
   1   5 -13 6398.99  565.67
  -1  -5  13 6299.73  762.34
  -1   5  13 5583.75  968.08
   1   5 -12 2440.05  386.90
   1  -5 -12 1911.61  280.21
  -1   5  12 1292.84  452.10
  -1  -5  12 2211.97  342.02
   1   5 -1120726.58 1344.90
   1  -5 -1121208.00 1127.16
  -1  -5  1119992.91 1465.73
  -1   5  1119913.82 1604.53
   1  -5 -1035531.23 1963.40
   1   5 -1035297.13 2524.80
  -1  -5  1033144.28 2332.38
  -1   5  1034252.21 2905.87
   1   5  -9 1348.13  278.78
   1  -5  -9 1242.96  231.06
  -1  -5   9 1219.14  232.18
  -1   5   9 1449.19  357.90
   1   5  -8  982.42  319.12
   1  -5  -8 2020.09  176.91
  -1  -5   8 1812.37  295.74
  -1   5   8 1768.25  489.60
   1   5  -7 8668.45  691.58
   1  -5  -7 8941.32  486.64
  -1   5   7 8297.93  910.30
  -1  -5   7 9024.14  609.98
   1   5  -6 3029.55  486.38
   1  -5  -6 2763.46  226.80
  -1   5   6 2296.85  503.14
  -1  -5   6 2720.30  228.32
   1  -5  -512764.37  588.19
   1   5  -512709.75  853.31
  -1  -5   512212.96  656.03
  -1   5   514897.26  934.04
   1   5  -430442.34 1474.11
   1   5  -433742.29 1999.44
   1  -5  -432426.06 1489.58
  -1   5   433162.66 1630.85
  -1   5   430542.18 2218.68
  -1  -5   432286.24 1624.99
   1   5  -3 4908.96  229.24
   1  -5  -3 4163.87  360.75
   1  -5  -3 4137.28  207.04
   1   5  -3 4997.17  498.39
  -1  -5   3 3849.65  338.46
  -1  -5   3 4425.26  255.01
  -1   5   3 4427.86  240.07
  -1   5   3 4769.98  570.91
   1   5  -210211.55  779.18
   1   5  -2 9871.54  360.03
   1  -5  -210279.90  583.64
   1  -5  -2 9616.79  311.56
  -1  -5   2 9254.19  374.46
  -1  -5   2 9236.12  644.04
  -1   5   2 9727.97  804.41
  -1   5   2 9794.76  366.50
   1   5  -1  524.37  173.96
   1  -5  -1  809.35   48.86
   1   5  -1  915.37   63.48
   1  -5  -1  691.82  221.78
  -1  -5   1  517.75  137.35
  -1  -5   1  579.51   64.63
  -1   5   1  945.26  195.95
  -1   5   1  618.59   69.00
   1   5   0 2172.45  278.55
   1  -5   0 2238.88  309.60
   1  -5   0 2064.06   74.41
   1   5   0 2380.15  105.75
  -1   5   0 2732.47  272.59
  -1  -5   0 2150.34  148.72
  -1  -5   0 2481.88   99.81
   1   5   1   45.34   74.34
   1   5   1  153.52   87.24
   1  -5   1   96.52  102.62
  -1  -5  -1   69.96   35.65
  -1  -5  -1   -4.74   44.13
  -1   5  -1   74.22   59.42
   1  -5   231362.06 1406.30
   1   5   233714.30 1440.56
   1  -5   235955.77 1809.95
  -1  -5  -236206.11 1578.98
  -1  -5  -233805.36 1849.41
  -1   5  -230713.25 1721.99
  -1   5  -233588.35 1292.47
   1   5   310885.93  463.10
   1  -5   3 9615.56  427.38
   1  -5   310173.52  566.17
  -1  -5  -310172.03  379.07
  -1   5  -3 9099.82  289.94
  -1  -5  -310654.51  669.22
   1   5   4  196.45   96.30
   1  -5   4  256.70   92.06
   1  -5   4  328.49  141.39
  -1   5  -4  302.09   63.16
  -1  -5  -4  258.49   78.15
  -1  -5  -4  102.31  117.29
   1  -5   581269.88 5325.27
   1  -5   575063.95 4804.01
   1   5   581298.80 5148.27
  -1  -5  -582227.03 5344.21
  -1   5  -581237.73 4796.72
  -1  -5  -575829.71 4618.46
   1   5   628441.28 1463.31
   1  -5   627932.69 1364.74
   1  -5   626739.11 1378.61
  -1  -5  -626141.88 1189.99
  -1  -5  -628664.85 1650.07
  -1   5  -626416.86 1205.70
   1   5   7 4990.04  417.74
   1  -5   7 4754.15  317.00
  -1  -5  -7 5853.78  281.34
  -1   5  -7 5798.08  282.85
  -1  -5  -7 4200.25  447.49
   1  -5   8  110.90  116.41
   1   5   8  263.05  187.27
  -1  -5  -8   82.28  155.04
  -1   5  -8  148.55  111.88
   1   5   927615.02 1865.84
   1  -5   928371.60 1727.71
  -1   5  -928844.22 1554.25
  -1  -5  -929582.90 1809.59
   1   5  10 4949.91  580.38
   1  -5  10 4962.40  354.73
  -1   5 -10 4797.18  372.09
  -1  -5 -10 4404.08  459.43
   1   5  11  -12.08  202.83
   1  -5  11   81.90  127.48
  -1   5 -11   -6.83  127.42
  -1  -5 -11  156.01  170.87
   1  -5  12 1296.92  299.98
   1   5  12 1021.61  419.17
  -1  -5 -12 1299.66  217.26
  -1   5 -12 1764.73  229.78
   1   5  13 8050.82  953.62
   1  -5  13 9875.11  638.52
  -1  -5 -13 7579.89  686.20
  -1   5 -13 9039.40  610.65
   1  -5  14  293.99  261.22
   1   5  14  377.36  365.44
  -1  -5 -14  553.74  232.98
  -1   5 -14  325.84  197.50
   1   5  15  705.86  482.50
   1  -5  15 1222.19  388.43
  -1  -5 -15 1210.06  305.36
  -1   5 -15  916.47  249.17
   1  -5  16 4956.81  530.32
   1   5  16 3267.08  619.36
  -1  -5 -16 4646.54  572.56
  -1   5 -16 4060.00  450.51
   1  -5  17  275.97  241.79
   1   5  17  -24.40  403.56
  -1   5 -17 -131.84  189.47
  -1  -5 -17  208.00  232.17
   1   5  18  782.20  726.13
   1  -5  18 2413.78  568.19
  -1   5 -18 2300.45  355.75
  -1  -5 -18  582.56  320.29
   1  -5  19  880.00  483.27
   1   5  19  406.77  620.79
  -1  -5 -19  471.76  266.13
  -1   5 -19  679.99  291.34
   1  -5  20 1710.59  737.43
   1   5  20 2413.38  860.48
  -1  -5 -20 1388.41  506.11
  -1   5 -20 1615.99  404.08
   1   5  21 2122.67  654.03
   1  -5  21 1238.48  744.81
  -1   5 -21 1229.70  417.85
  -1  -5 -21 1400.98  376.99
   1  -5  22 2103.40  679.79
   1   5  22 3067.43  763.25
  -1  -5 -22 1333.43  570.40
  -1   5 -22 1514.43  471.23
   1   5  23 1285.98  620.41
   1  -5  23  397.99  527.75
  -1  -5 -23 -284.78  329.61
  -1   5 -23 -118.30  267.57
   1   5  24 2846.17  892.98
   1  -5  24 2175.86 1015.26
  -1  -5 -24 1612.18  464.75
  -1   5 -24 1482.41  520.58
   1   5  25  432.83  666.41
   1  -5  25  649.34  613.91
  -1   5 -25  273.77  292.45
  -1  -5 -25  480.69  463.15
   1  -5  26 1879.93  978.29
   1   5  26 1054.32 1096.53
  -1  -5 -26  313.67  548.54
  -1   5 -26  535.63  354.96
   1   6 -26  471.59  416.03
   1  -6 -26  301.53  448.08
  -1  -6  26  579.39  977.43
  -1   6  26 1549.92 1052.84
   1   6 -25 1294.18  367.34
   1  -6 -25 1019.28  509.90
  -1   6  25 2251.30  935.15
  -1  -6  25 1944.66  848.54
   1   6 -24  502.98  362.37
   1  -6 -24  245.22  372.43
  -1  -6  24  387.93  552.30
  -1   6  24 1277.93  922.03
   1   6 -23  532.57  403.18
   1  -6 -23  933.10  393.39
  -1  -6  23 1139.93  808.43
  -1   6  23  725.84  954.91
   1   6 -22 1459.97  360.75
   1  -6 -22 1620.46  481.12
  -1  -6  22 1245.89  911.69
  -1   6  22 3106.61 1095.15
   1   6 -21   33.96  295.41
   1  -6 -21  277.06  295.57
  -1  -6  21   57.81  435.62
  -1   6  21 1208.14  519.23
   1  -6 -20  -79.21  238.93
   1   6 -20 -152.05  252.57
  -1  -6  20  418.53  447.02
  -1   6  20 1309.76  573.64
   1  -6 -19 1576.29  377.14
   1   6 -19 1165.81  286.21
  -1  -6  19  994.48  665.12
  -1   6  19 2505.86  858.01
   1   6 -18   80.53  196.61
   1  -6 -18  252.75  225.81
  -1  -6  18  -77.34  302.23
  -1   6  18  315.68  396.43
   1   6 -17 3319.52  394.89
   1  -6 -17 3696.65  367.80
  -1  -6  17 2502.38  732.71
  -1   6  17 3450.11  755.78
   1   6 -16 1682.23  268.42
   1  -6 -16 1080.28  221.08
  -1  -6  16  690.16  489.28
  -1   6  16  886.19  691.50
   1   6 -15  572.24  299.70
   1  -6 -15  986.16  259.26
  -1  -6  15 1144.45  323.69
  -1   6  15  645.28  585.57
   1  -6 -14   63.09  151.68
   1   6 -14  -71.06  178.64
  -1  -6  14 -158.30  254.77
  -1   6  14  116.10  255.01
   1   6 -13 5583.11  610.54
   1  -6 -13 4984.79  373.93
  -1  -6  13 6004.16  516.79
  -1   6  13 4764.34  954.03
   1   6 -12 1803.13  272.24
   1  -6 -12 2009.56  275.82
  -1   6  12 1539.64  598.82
  -1  -6  12 1770.85  405.91
   1   6 -11  360.10  200.77
   1  -6 -11  296.22  173.32
  -1  -6  11   35.11  246.52
  -1   6  11  357.01  375.55
   1   6 -1041535.38 3054.06
   1  -6 -1040418.56 2444.01
  -1  -6  1039664.81 2716.64
  -1   6  1039004.02 3303.83
   1  -6  -910999.57  554.16
   1   6  -910520.90  961.34
  -1  -6   910184.82  643.04
  -1   6   910165.07 1130.78
   1  -6  -8 8234.21  491.50
   1   6  -8 8184.82  824.62
  -1  -6   8 8536.58  535.03
  -1   6   8 7829.30  739.77
   1   6  -7 7849.67  826.62
   1  -6  -7 7330.02  434.83
  -1   6   7 7513.00  874.92
  -1  -6   7 7988.80  531.01
   1  -6  -6 5104.84  236.58
   1   6  -6 4675.53  607.68
  -1   6   6 4904.55  651.91
  -1  -6   6 4342.32  283.34
   1  -6  -5 4892.26  279.59
   1   6  -5 5376.75  484.64
  -1  -6   5 5470.72  351.26
  -1   6   5 5995.15  672.43
   1   6  -4 9420.32  650.04
   1  -6  -4 8200.91  365.95
  -1  -6   4 9171.32  462.21
  -1   6   4 8520.55  370.86
  -1   6   4 8640.28  838.54
   1   6  -3 1475.04  136.30
   1  -6  -3 1489.93  111.75
   1   6  -3 2657.52  354.05
  -1  -6   3 1672.53  148.35
  -1   6   3 1930.29  373.56
  -1   6   3 1344.50  120.88
   1   6  -226471.99 1728.26
   1   6  -226130.41 1123.87
   1  -6  -226366.46 1006.74
  -1  -6   225694.26 1110.06
  -1  -6   225090.75 1321.47
  -1   6   226092.16 1533.80
  -1   6   227017.20 1107.39
   1  -6  -1 5566.44  396.15
   1   6  -1 6001.63  548.46
   1   6  -1 6635.84  244.13
  -1   6   1 5773.96  176.05
  -1  -6   1 6896.35  250.05
  -1  -6   1 6680.99  422.86
  -1   6   1 7589.56  616.45
   1   6   0 6229.48  373.19
   1   6   0 6228.81  222.94
   1  -6   0 6207.82  419.54
   1  -6   0 5914.77  390.35
  -1  -6   0 5818.11  338.05
  -1  -6   0 5994.00  192.48
  -1   6   0 5826.31  176.16
   1   6   129821.24 1565.36
   1  -6   127183.10 1580.52
   1   6   130490.86 1543.89
  -1  -6  -130342.60 1353.93
  -1  -6  -129762.11 1185.22
   1   6   210743.29  415.64
   1  -6   211254.95  685.05
   1  -6   210814.46  409.39
  -1  -6  -210308.60  434.49
   1   6   312520.92  535.65
   1  -6   314194.93  611.58
   1  -6   312258.46  679.74
  -1  -6  -311614.42  535.51
  -1  -6  -312743.78  766.63
  -1   6  -311578.95  415.45
   1   6   412023.05  558.67
   1  -6   412158.16  588.33
   1  -6   411680.06  686.32
  -1  -6  -416097.54  901.07
  -1  -6  -412392.88  573.88
  -1   6  -412003.07  437.05
   1  -6   516480.53  828.67
   1   6   517868.21  969.26
   1  -6   517256.87  920.39
  -1  -6  -517499.85  787.28
  -1  -6  -519005.36  936.65
  -1   6  -515839.24  622.40
   1   6   6 1308.83  197.79
   1  -6   6 1418.80  156.61
   1  -6   6 1065.54  222.99
  -1  -6  -6 1186.20  172.61
  -1   6  -6  795.34  127.79
   1   6   7 3095.28  339.33
   1  -6   7 2860.09  309.81
  -1  -6  -7 2505.87  200.33
  -1  -6  -7 2690.46  272.37
  -1   6  -7 3213.29  226.43
   1  -6   8 9375.14  527.43
   1   6   8 9104.10  653.76
  -1  -6  -8 7626.26  572.95
  -1   6  -810623.45  515.40
   1  -6   911015.35  754.25
   1   6   911724.80  837.78
  -1  -6  -911048.85  726.54
  -1   6  -910770.74  592.19
   1   6  10 2438.97  385.59
   1  -6  10 1595.15  283.71
  -1  -6 -10 1277.21  291.37
  -1   6 -10 1432.35  218.92
   1   6  11 1156.18  360.27
   1  -6  11  912.46  187.23
  -1  -6 -11 1011.27  254.65
  -1   6 -11  781.08  196.66
   1  -6  12 1635.74  294.23
   1   6  12  617.23  397.61
  -1   6 -12 1243.93  220.21
  -1  -6 -12  928.72  205.26
   1   6  13 5861.27  734.09
   1  -6  13 5510.15  558.48
  -1  -6 -13 4541.76  509.95
  -1   6 -13 3984.51  391.68
   1   6  14 2652.04  874.66
   1  -6  14 6952.37  677.73
  -1   6 -14 6297.57  400.43
  -1  -6 -14 6370.40  512.26
   1   6  1514840.40 1628.97
   1  -6  1515551.76 1074.63
  -1  -6 -1515410.53 1028.22
  -1   6 -1515555.87  892.82
   1   6  16 -113.89  357.83
   1  -6  16  224.28  200.73
  -1  -6 -16 -263.81  161.70
  -1   6 -16   37.40  177.42
   1   6  17  919.46  729.53
   1  -6  17 1780.60  396.92
  -1  -6 -17 1727.79  337.68
  -1   6 -17 2402.15  350.89
   1   6  18 5553.75 1224.69
   1  -6  18 7278.54  786.13
  -1  -6 -18 4678.16  754.26
  -1   6 -18 6722.30  650.53
   1   6  19 3104.12  969.12
   1  -6  19 1376.10  548.40
  -1  -6 -19 3138.47  596.37
  -1   6 -19 3392.84  463.52
   1   6  20 1219.75  716.13
   1  -6  20  381.44  398.80
  -1  -6 -20  736.02  302.20
  -1   6 -20  902.61  321.27
   1   6  21  729.46  589.88
   1  -6  21   29.76  493.34
  -1  -6 -21 -219.73  324.63
  -1   6 -21  252.16  258.22
   1   6  22 1801.40  762.92
   1  -6  22  455.03  605.05
  -1  -6 -22  282.99  290.92
  -1   6 -22  370.52  342.96
   1   6  23 1418.83  842.86
   1  -6  23  954.30  724.92
  -1  -6 -23 1269.81  443.90
  -1   6 -23   43.88  274.74
   1   6  24  294.23  760.42
   1  -6  24  858.49  475.10
  -1  -6 -24  192.60  292.09
  -1   6 -24  -36.06  235.28
   1   6  25 1107.64 1087.90
   1  -6  25  594.87  848.86
  -1   6 -25  735.61  434.51
  -1  -6 -25  490.32  527.20
   1  -6  26 1569.96  981.52
  -1  -6 -26  334.92  658.54
  -1   6 -26  488.55  484.69
   1   7 -26  439.27  305.56
   1  -7 -26  637.70  466.78
  -1  -7  26  197.16  985.06
  -1   7  26  674.75 1073.45
   1   7 -25 1606.71  510.38
   1  -7 -25  896.16  554.46
  -1   7  25 2336.96  943.79
  -1  -7  25 1606.57  778.22
   1   7 -24  561.55  380.96
   1  -7 -24  177.86  384.01
  -1   7  24 1807.94  912.51
  -1  -7  24  -59.93  760.35
   1   7 -23 5447.46  593.62
   1  -7 -23 3596.45  730.96
  -1   7  23 5673.64 1269.58
  -1  -7  23 5269.40 1430.94
   1   7 -22  751.57  402.86
   1  -7 -22 1124.49  416.57
  -1  -7  22  280.56  544.78
  -1   7  22 3188.22  954.02
   1   7 -21 1182.36  390.80
   1  -7 -21  771.74  279.97
  -1   7  21  817.24  864.80
  -1  -7  21  722.16  680.95
   1   7 -20  -41.45  256.64
   1  -7 -20   40.96  184.47
  -1  -7  20  -84.27  460.54
  -1   7  20  831.63  439.64
   1   7 -19 1049.83  344.71
   1  -7 -19 1002.66  355.34
  -1  -7  19  629.86  469.05
  -1   7  19 1838.11  794.99
   1   7 -18  855.58  343.86
   1  -7 -18 2065.42  401.69
  -1  -7  18 3772.12  659.27
  -1   7  18 2686.46  880.87
   1  -7 -17 1513.87  359.20
   1   7 -17 1823.19  403.42
  -1  -7  17 1369.05  439.43
  -1   7  17 2117.88  820.66
   1   7 -16  512.40  298.74
   1  -7 -16  491.53  187.93
  -1  -7  16  757.56  436.02
  -1   7  16  324.22  418.20
   1  -7 -15 7258.09  626.07
   1   7 -15 6854.82  695.57
  -1  -7  15 8820.61  991.76
  -1   7  15 6885.88 1228.20
   1  -7 -14 1552.20  293.28
   1   7 -14 2028.34  394.61
  -1   7  14 1204.57  468.62
  -1  -7  14 1488.17  445.17
   1   7 -13 2278.55  325.98
   1  -7 -13 2841.92  332.61
  -1  -7  13 2579.73  378.12
  -1   7  13 3776.18  542.26
   1   7 -12 3631.70  567.25
   1  -7 -12 3588.17  287.60
  -1  -7  12 4232.80  519.82
  -1   7  12 2316.64  557.56
   1  -7 -11   93.08  140.09
   1   7 -11   88.78  168.76
  -1  -7  11  -46.46  151.16
  -1   7  11   12.64  319.98
   1   7 -10 6248.42  772.35
   1  -7 -10 6821.60  501.26
  -1  -7  10 7506.44  662.69
  -1   7  10 7150.46  973.12
   1   7  -9 2664.83  595.19
   1  -7  -9 3699.86  340.09
  -1  -7   9 3917.48  443.20
  -1   7   9 3104.50  701.14
   1   7  -8 9082.02  759.08
   1  -7  -8 9128.44  523.44
  -1   7   8 7749.42  983.52
  -1  -7   8 7818.22  606.44
   1  -7  -746453.39 2460.57
   1   7  -744835.54 3031.43
  -1  -7   746105.99 2812.91
  -1   7   745734.40 3558.19
   1   7  -613929.46 1166.23
   1  -7  -614791.48  699.75
  -1  -7   613866.96  766.86
  -1   7   614427.93 1032.51
   1   7  -519990.98 1480.17
   1  -7  -518607.80  830.74
  -1  -7   517681.06  821.88
  -1   7   518413.61 1462.77
   1   7  -415737.61 1152.84
   1  -7  -416113.30  634.04
  -1  -7   416009.50  748.76
  -1   7   414351.59  589.97
  -1   7   415643.48 1204.01
   1   7  -312703.91  949.43
   1   7  -312739.97  560.30
   1  -7  -312962.74  473.22
  -1   7   312516.84  478.31
  -1   7   313310.14 1033.20
  -1  -7   314389.40  624.09
   1   7  -2 4489.53  380.41
   1   7  -2 4460.71  230.40
   1  -7  -2 4001.03  156.70
  -1   7   2 4128.95  511.28
  -1  -7   2 3916.72  213.48
   1   7  -1 1724.43  281.99
   1   7  -1 1287.85  113.26
   1  -7  -1 1284.69   87.70
  -1  -7   1 1425.67  111.30
  -1   7   1 1767.72  242.86
   1   7   026175.46 1090.91
   1   7   029167.74 1630.06
   1  -7   029548.57 1610.79
  -1  -7   030173.50 1228.78
  -1   7   024856.80  955.78
  -1   7   027365.65  955.91
   1   7   128986.79 1608.24
   1  -7   131213.20 1832.92
  -1  -7  -132756.72 1605.37
  -1  -7  -132621.31 1410.06
  -1   7  -130222.73 1302.14
  -1   7  -135079.48 1326.79
   1   7   211432.59  606.97
   1  -7   210550.28  398.08
   1  -7   210672.93  691.17
  -1  -7  -210934.99  508.05
  -1   7  -2 9077.22  367.69
  -1  -7  -210979.12  456.32
   1   7   345273.08 2311.52
   1  -7   339927.22 2031.31
   1  -7   341846.37 2251.33
  -1  -7  -342423.02 2211.64
  -1  -7  -341850.71 2354.39
   1   7   4 2592.61  248.15
   1  -7   4 2467.30  272.58
   1  -7   4 2770.62  251.57
  -1  -7  -4 2950.86  260.64
  -1  -7  -4 2579.19  213.82
  -1   7  -4 2329.79  131.15
   1   7   5 1249.19  173.47
   1  -7   5 1114.49  151.96
   1  -7   5 1004.26  173.98
  -1  -7  -5 1394.18  243.20
  -1  -7  -5  984.55  171.60
  -1   7  -5 1099.07  100.51
   1   7   6  471.44  169.38
   1  -7   6  420.97  168.89
   1  -7   6  320.87  168.75
  -1  -7  -6  277.94  200.50
  -1  -7  -6  290.53  101.47
  -1   7  -6  605.30   97.01
   1   7   7 3452.51  336.95
   1  -7   7 3324.02  270.29
  -1  -7  -7 3571.56  406.24
  -1  -7  -7 2967.29  220.27
  -1   7  -7 3176.62  228.95
   1   7   821152.51 1275.84
   1  -7   818452.01 1000.45
  -1  -7  -818506.55 1291.98
  -1   7  -817976.69  917.95
   1   7   9 2310.34  463.79
   1  -7   9 3564.36  371.85
  -1  -7  -9 2907.24  434.82
  -1   7  -9 3193.98  275.97
   1   7  10  -49.72  233.46
   1  -7  10   75.42  127.43
  -1  -7 -10   76.15  147.77
  -1   7 -10  153.65  125.48
   1   7  11 1089.18  358.15
   1  -7  11  685.54  184.33
  -1   7 -11  773.68  181.96
  -1  -7 -11 1088.53  254.26
   1   7  12  673.24  369.07
   1  -7  12  658.64  198.74
  -1  -7 -12  262.12  182.90
  -1   7 -12 1188.74  197.10
   1   7  13 2316.20  594.32
   1  -7  13 4072.61  484.90
  -1  -7 -13 3253.56  471.09
  -1   7 -13 4249.18  379.57
   1   7  14  745.95  484.84
   1  -7  14 1283.88  259.69
  -1  -7 -14  517.99  227.88
  -1   7 -14 1258.95  227.74
   1   7  15   84.43  317.34
   1  -7  15 -147.44  217.03
  -1  -7 -15   34.69  205.41
  -1   7 -15   19.48  153.53
   1   7  16  752.92  408.89
   1  -7  16  -30.57  306.77
  -1  -7 -16   93.87  240.94
  -1   7 -16  110.77  137.55
   1   7  17 -154.70  433.91
   1  -7  17  185.03  323.01
  -1  -7 -17  -73.91  257.80
  -1   7 -17  253.66  200.73
   1   7  18  894.01  614.47
   1  -7  18  852.57  439.68
  -1  -7 -18  974.71  363.17
  -1   7 -18  494.39  277.69
   1   7  19 3132.42 1017.32
   1  -7  19 2984.43  777.18
  -1  -7 -19 2523.24  477.00
  -1   7 -19 3782.23  489.70
   1   7  20  833.67  546.67
   1  -7  20 -198.19  417.26
  -1  -7 -20 -100.05  310.75
  -1   7 -20  199.60  241.32
   1   7  21 1810.05  749.33
   1  -7  21  577.29  617.58
  -1  -7 -21  661.82  416.18
  -1   7 -21  438.79  244.87
   1   7  22  557.98  682.30
   1  -7  22  404.53  390.61
  -1  -7 -22 -500.66  242.27
  -1   7 -22  -34.45  201.18
   1   7  23 4429.75 1481.28
   1  -7  23 3736.45  858.10
  -1   7 -23 3110.32  647.82
  -1  -7 -23 3312.21  771.26
   1   7  24 2802.68  989.90
   1  -7  24   -0.85  789.39
  -1  -7 -24  164.25  423.60
  -1   7 -24  682.55  390.44
   1  -7  25 2240.94 1118.14
  -1  -7 -25 2337.50  820.24
  -1   7 -25 1334.10  552.14
   1  -7  26 2085.82  918.92
  -1   7 -26 2136.78  647.79
   1   8 -26  463.21  469.39
   1  -8 -26 1252.44  528.91
  -1   8  26 1394.84 1203.29
  -1  -8  26  492.68  727.88
   1   8 -25  601.79  437.65
   1  -8 -25  892.84  358.86
  -1  -8  25  288.97  930.22
  -1   8  25 1220.34  825.35
   1   8 -24 1586.60  491.19
   1  -8 -24 1156.54  388.85
  -1  -8  24 2086.46 1004.45
  -1   8  24  776.89 1170.52
   1   8 -23 2138.99  410.12
   1  -8 -23 1625.08  431.49
  -1  -8  23 3769.10  821.81
  -1   8  23 3242.83  956.68
   1   8 -22 6861.09  853.83
   1  -8 -22 6499.70  895.32
  -1  -8  22 4289.49 1441.91
  -1   8  22 8084.59 1818.16
   1   8 -21  691.38  358.58
   1  -8 -21  197.94  344.04
  -1  -8  21  292.84  625.07
  -1   8  21 2267.24  807.30
   1  -8 -20  292.73  302.35
   1   8 -20  150.98  300.16
  -1  -8  20  266.62  398.04
  -1   8  20 1791.78  688.60
   1   8 -19  360.45  346.35
   1  -8 -19  588.35  225.59
  -1  -8  19  152.08  506.23
  -1   8  19  672.69  683.05
   1   8 -18 1236.26  415.73
   1  -8 -18 1437.95  376.28
  -1   8  18 2619.26  821.22
  -1  -8  18 1147.21  467.37
   1   8 -1725191.26 1919.93
   1  -8 -1723974.81 1844.65
  -1  -8  1725014.51 2500.53
  -1   8  1727401.10 3061.10
   1   8 -1626997.64 2055.30
   1  -8 -1627981.89 1812.83
  -1   8  1629361.71 2623.53
  -1  -8  1631619.03 2439.71
   1  -8 -15  303.06  210.04
   1   8 -15  115.62  167.41
  -1   8  15  735.72  485.38
  -1  -8  15  153.08  316.64
   1   8 -14 6219.95  662.37
   1  -8 -14 5692.86  414.67
  -1   8  14 4612.04 1036.42
  -1  -8  14 4703.87  555.16
   1   8 -1319443.88 1477.50
   1  -8 -1322140.99 1351.63
  -1   8  1320832.10 2155.31
  -1  -8  1321242.12 1705.58
   1   8 -12 1641.02  398.23
   1  -8 -12 1099.16  247.56
  -1  -8  12 1271.19  362.87
  -1   8  12 1650.38  550.32
   1   8 -11 3775.94  579.00
   1  -8 -11 3267.17  352.68
  -1  -8  11 3710.80  371.46
  -1   8  11 4437.13  752.98
   1   8 -10 3871.10  608.62
   1  -8 -10 4369.01  372.76
  -1  -8  10 4167.29  395.72
  -1   8  10 4507.75  566.35
   1   8  -9  750.51  422.18
   1  -8  -9 1371.01  226.49
  -1  -8   9 1482.52  213.19
  -1   8   9 1552.89  505.45
   1   8  -831131.12 2156.19
   1  -8  -831270.31 1745.02
  -1  -8   830834.89 1745.88
  -1   8   833132.49 2664.31
   1   8  -7  173.53  317.39
   1  -8  -7  338.91   98.91
  -1  -8   7  240.03  163.91
  -1   8   7  659.93  335.75
   1   8  -6 8041.16  628.25
   1  -8  -6 6908.26  390.54
  -1  -8   6 7025.57  377.15
  -1   8   6 6846.86  807.02
   1   8  -5 5237.96  628.73
   1  -8  -5 5216.03  283.66
  -1  -8   5 4728.37  263.49
  -1   8   5 5633.89  678.07
   1   8  -4  798.50  298.88
   1  -8  -4  862.91   94.47
  -1  -8   4  839.71  143.40
  -1   8   4  864.80  333.30
  -1   8   4  509.68   92.81
   1   8  -346560.38 2862.37
   1  -8  -348788.09 2386.56
  -1  -8   349086.98 2552.76
  -1   8   349140.39 3341.39
  -1   8   340127.99 1934.49
   1   8  -215060.16  665.64
   1   8  -214280.82  840.17
   1  -8  -215367.23  574.91
  -1  -8   215367.12  651.07
  -1   8   212980.26  455.30
  -1   8   215078.08  914.15
   1   8  -119956.38 1250.53
   1  -8  -118494.30  743.83
  -1  -8   119680.76  783.00
  -1   8   120577.52 1365.66
   1   8   062557.77 3610.97
   1  -8   068605.94 4876.03
   1   8   068903.43 4326.82
  -1   8   063044.86 3412.80
  -1   8   069376.60 3585.54
  -1  -8   078147.90 4271.43
   1   8   1 1408.25  158.72
   1  -8   1  907.30  222.73
  -1  -8  -1  995.69  103.37
  -1   8  -1  828.92   52.29
  -1  -8  -1  975.63  112.97
  -1   8  -1  808.30   95.71
   1   8   2 4777.88  271.30
   1  -8   2 4140.82  408.02
   1  -8   2 4425.80  185.64
  -1  -8  -2 4064.43  281.22
  -1  -8  -2 4745.05  247.64
  -1   8  -2 4554.83  240.03
   1   8   3 7017.52  311.26
   1  -8   3 6794.51  463.57
   1  -8   3 6856.70  335.35
  -1  -8  -3 7167.89  407.34
  -1  -8  -3 6910.47  499.08
  -1   8  -3 6545.39  297.92
   1   8   4  711.93  158.86
   1  -8   4  863.69  188.12
   1  -8   4  892.35  159.39
  -1  -8  -4  655.63  128.79
  -1  -8  -4  590.77  222.55
  -1   8  -4  515.21   90.36
   1   8   5  332.17  171.17
   1  -8   5  295.76  127.66
   1  -8   5  560.31  138.90
  -1  -8  -5  293.61  158.46
  -1  -8  -5  359.67  110.08
  -1   8  -5  183.00   86.33
   1   8   6 9333.01  567.87
   1  -8   610483.40  625.89
   1  -8   6 9321.55  501.75
  -1  -8  -6 9117.92  565.08
  -1  -8  -6 7714.28  416.82
  -1   8  -6 8135.59  408.00
   1   8   745368.31 3082.65
   1  -8   751345.73 3268.54
  -1  -8  -752830.05 3366.94
  -1   8  -753395.46 2955.48
   1   8   8 9882.92  669.12
   1  -8   8 7628.31  618.20
  -1  -8  -8 8896.11  732.12
  -1   8  -8 8765.09  451.31
   1   8   9 5447.74  660.27
   1  -8   9 7040.48  438.18
  -1  -8  -9 6498.84  651.87
  -1   8  -9 7180.10  423.79
   1   8  10  216.57  265.69
   1  -8  10   70.42  193.92
  -1  -8 -10  122.59  168.34
  -1   8 -10  417.43  142.76
   1   8  11 1462.47  416.53
   1  -8  11 1449.05  290.23
  -1  -8 -11  851.18  254.05
  -1   8 -11 1573.00  226.07
   1   8  12  791.41  464.59
   1  -8  12 1667.90  235.82
  -1  -8 -12 1500.60  276.19
  -1   8 -12 1469.26  226.88
   1   8  13 1842.67  633.01
   1  -8  13 2893.67  330.42
  -1  -8 -13 2143.94  365.57
  -1   8 -13 3063.77  313.68
   1   8  1420754.07 1875.94
   1  -8  1418477.21 1450.57
  -1  -8 -1417759.82 1403.54
  -1   8 -1420155.05 1254.48
   1   8  1511452.04 1419.52
   1  -8  1510208.44 1001.17
  -1  -8 -15 9635.59  943.54
  -1   8 -15 9803.10  737.54
   1   8  16 1726.90  646.27
   1  -8  16  683.03  307.24
  -1  -8 -16  896.59  282.34
  -1   8 -16 1691.57  224.54
   1  -8  17 2522.65  492.69
   1   8  17 2307.28  887.74
  -1   8 -17 3822.45  413.98
  -1  -8 -17 1962.82  391.12
   1   8  18 1831.58  815.66
   1  -8  18 2084.44  420.94
  -1  -8 -18 1318.90  346.48
  -1   8 -18 1251.62  351.99
   1   8  19  223.90  474.46
   1  -8  19 -140.89  253.44
  -1  -8 -19   -7.39  259.96
  -1   8 -19   52.71  190.42
   1   8  20 7857.60 1633.43
   1  -8  20 6911.14  932.40
  -1  -8 -20 6416.14  980.32
  -1   8 -20 8020.60  651.28
   1   8  21 2990.49  936.50
   1  -8  21 1326.43  496.38
  -1  -8 -21  567.42  364.80
  -1   8 -21 1472.29  383.73
   1   8  22 1991.60  852.35
   1  -8  22 1001.52  495.94
  -1  -8 -22 -586.19  516.92
  -1   8 -22  620.47  343.40
   1   8  23 2780.41 1204.92
   1  -8  23 3355.00  925.89
  -1  -8 -23 1783.64  725.78
  -1   8 -23 1031.72  505.67
   1   8  24 1005.39 1079.26
   1  -8  24 1471.48  808.38
  -1  -8 -24  556.36  637.14
  -1   8 -24  836.42  433.35
   1  -8  25 1546.17  647.01
  -1  -8 -25 1233.37  482.88
  -1   8 -25  220.80  314.43
   1   9 -26 3097.82  739.80
   1  -9 -26 2988.00  615.90
  -1  -9  26 4489.18 1153.67
  -1   9  26 3475.52 1830.88
   1  -9 -25  138.90  347.05
   1   9 -25  782.83  442.95
  -1  -9  25 2736.29  908.58
  -1   9  25  670.80  781.16
   1   9 -24 1193.98  370.72
   1  -9 -24 1488.14  539.38
  -1  -9  24  729.05  993.99
  -1   9  24 2505.67 1197.80
   1   9 -23 1076.44  390.25
   1  -9 -23   42.85  421.20
  -1  -9  23  955.41  537.41
  -1   9  23   99.41  954.02
   1   9 -22  304.49  378.70
   1  -9 -22  935.77  400.80
  -1  -9  22 1112.56  670.48
  -1   9  22  -70.47  638.17
   1  -9 -21 4282.38  540.76
   1   9 -21 6916.47  722.05
  -1  -9  21 1044.63  876.01
  -1   9  21 4774.98 1105.39
   1  -9 -20 1752.74  475.99
   1   9 -20 2028.77  346.75
  -1   9  20 2797.25 1027.02
  -1  -9  20 1525.85  758.81
   1   9 -19 1412.16  340.13
   1  -9 -19 2190.27  425.79
  -1  -9  19  678.60  508.01
  -1   9  19 3133.64  908.76
   1  -9 -18  519.66  223.12
   1   9 -18  567.74  318.15
  -1  -9  18  391.43  495.56
  -1   9  18  203.72  482.17
   1   9 -17 2376.35  474.74
   1  -9 -17 2512.00  419.99
  -1   9  17 1593.43  893.01
  -1  -9  17 1794.20  548.22
   1  -9 -16  737.72  203.86
   1   9 -16  446.83  305.62
  -1   9  16  735.38  599.92
  -1  -9  16  368.24  411.19
   1  -9 -15 -105.44  185.46
   1   9 -15  180.33  244.02
  -1  -9  15   96.03  214.13
  -1   9  15   67.37  411.20
   1  -9 -14 8557.26  701.43
   1   9 -14 7979.52  651.23
  -1  -9  14 8725.03  965.19
  -1   9  14 8123.37 1283.61
   1   9 -13 4965.53  507.80
   1  -9 -13 4137.94  349.81
  -1  -9  13 4743.82  605.14
  -1   9  13 4961.84  921.33
   1  -9 -12 1031.61  188.69
   1   9 -12 1711.36  295.63
  -1  -9  12 1123.39  268.81
  -1   9  12 1694.39  412.67
   1   9 -11 3807.50  603.51
   1  -9 -11 3354.15  273.44
  -1  -9  11 4395.77  400.45
  -1   9  11 2354.03  727.54
   1  -9 -10  765.63  194.00
   1   9 -10  427.65  372.21
  -1  -9  10  747.25  184.12
  -1   9  10  567.48  319.85
   1   9  -9  474.26  395.14
   1  -9  -9  658.24  135.74
  -1   9   9  731.65  425.44
  -1  -9   9  720.98  181.37
   1  -9  -8   39.14  123.83
   1   9  -8  -54.28  288.84
  -1  -9   8   28.05  154.36
  -1   9   8  298.14  304.02
   1   9  -7  176.85  230.31
   1  -9  -7  316.74  133.45
  -1  -9   7  197.31  169.63
  -1   9   7  356.50  329.40
   1   9  -6 8060.60  680.15
   1  -9  -6 7317.60  433.55
  -1   9   6 7660.17  889.22
  -1  -9   6 7484.40  478.74
   1  -9  -5  190.94  106.14
   1   9  -5  575.09  282.81
  -1  -9   5  267.67  136.90
  -1   9   5  417.92  218.07
   1  -9  -472538.13 4391.53
  -1  -9   470092.48 4478.74
  -1   9   475962.39 5857.30
   1   9  -3 4615.59  505.09
   1  -9  -3 3900.20  211.93
  -1   9   3 4231.45  413.03
  -1  -9   3 3955.17  256.47
   1   9  -2 4044.77  470.92
  -1  -9   2 3832.29  208.04
  -1   9   2 4393.51  521.74
   1   9  -113608.16  614.09
   1   9  -114065.60  935.50
   1  -9  -112717.77  524.62
  -1   9   114529.38  846.64
  -1   9   113294.30  453.09
  -1  -9   114947.47  608.80
   1   9   0 3341.36  215.02
   1   9   0 3765.31  395.80
   1  -9   0 2981.67  284.48
  -1  -9   0 3424.20  170.30
  -1   9   0 3039.71  105.59
  -1   9   0 3040.07  161.86
   1   9   1 9918.54  599.69
   1  -9   1 9021.92  527.65
  -1  -9  -1 8324.16  442.32
  -1  -9  -1 8955.30  361.55
  -1   9  -1 8718.13  325.26
  -1   9  -1 9010.68  376.04
   1   9   2 9127.31  445.34
   1  -9   2 9030.18  325.36
   1  -9   2 9300.21  527.66
  -1  -9  -2 9645.39  475.63
  -1   9  -2 9573.53  430.93
  -1  -9  -2 7555.53  386.61
   1   9   3  210.62   93.62
   1  -9   3  208.33  109.72
   1  -9   3  305.70   92.36
  -1  -9  -3  211.17  184.91
  -1  -9  -3  114.94  131.99
  -1   9  -3  260.91   98.06
   1   9   412437.04  613.73
   1  -9   412019.62  719.82
   1  -9   411866.17  608.82
  -1  -9  -412242.99  678.45
  -1  -9  -410332.29  638.13
  -1   9  -4 9739.46  476.53
   1  -9   5  196.86  111.71
   1   9   5  -63.79  113.14
   1  -9   5   44.51  114.71
  -1   9  -5  157.84   69.83
  -1  -9  -5    2.47  196.96
  -1  -9  -5  209.56  106.81
   1  -9   635345.87 2070.86
   1   9   635568.51 2035.80
   1  -9   633648.86 2027.27
  -1  -9  -634738.51 2312.58
  -1  -9  -632448.14 1879.31
  -1   9  -634413.17 1725.63
   1  -9   726319.60 1455.94
   1   9   729029.91 1710.19
  -1   9  -726337.31 1304.37
  -1  -9  -726926.15 1871.56
   1  -9   8 2307.10  227.94
   1   9   8 1679.99  307.05
  -1  -9  -8 1272.91  272.49
  -1   9  -8 1994.35  213.26
   1   9   9  357.68  217.52
   1  -9   9  456.71  195.68
  -1   9  -9  288.19  148.44
  -1  -9  -9  -23.07  232.53
   1   9  10  369.52  249.91
   1  -9  10  214.56  151.74
  -1  -9 -10  330.70  186.55
  -1   9 -10  540.58  147.61
   1  -9  11 3304.45  300.88
   1   9  11 1762.26  521.68
  -1  -9 -11 2413.79  347.56
  -1   9 -11 3036.84  290.90
   1   9  12  454.92  278.97
   1  -9  12  124.18  215.78
  -1  -9 -12  -86.10  187.04
  -1   9 -12  437.57  164.27
   1   9  13 7222.85  839.85
   1  -9  13 7405.01  702.43
  -1  -9 -13 5172.66  598.12
  -1   9 -13 7961.57  536.85
   1   9  14 3755.71  611.11
   1  -9  14 2306.01  334.29
  -1  -9 -14 1693.59  524.63
  -1   9 -14 2842.15  332.60
   1   9  15 1776.98  719.80
   1  -9  15 2506.80  499.40
  -1  -9 -15 1342.65  392.27
  -1   9 -15 3190.17  350.17
   1   9  16 4484.27 1242.51
   1  -9  16 6639.61  847.55
  -1  -9 -16 9027.81  772.43
  -1   9 -16 6609.76  478.85
   1   9  17  666.42  603.85
   1  -9  17  600.06  383.47
  -1  -9 -17  425.50  412.26
  -1   9 -17  693.72  265.11
   1   9  18   22.76  533.70
   1  -9  18  295.62  281.32
  -1  -9 -18  325.16  370.91
  -1   9 -18   72.35  229.36
   1   9  19  471.24  679.85
   1  -9  19  829.28  337.45
  -1  -9 -19  864.12  326.54
  -1   9 -19   26.20  280.13
   1   9  20 1154.01  803.17
   1  -9  20  834.57  442.40
  -1  -9 -20  862.18  390.79
  -1   9 -20  803.89  336.61
   1   9  21  551.06  732.79
   1  -9  21  363.32  523.04
  -1  -9 -21  494.67  463.75
  -1   9 -21  247.68  292.68
   1   9  22 1232.71 1034.16
   1  -9  22 2582.23  731.30
  -1  -9 -22  480.65  655.61
  -1   9 -22 1361.16  426.67
   1   9  23 2318.88  856.07
   1  -9  23  709.30  667.66
  -1   9 -23  209.58  252.24
  -1  -9 -23  278.60  381.10
   1  -9  24 3093.60 1090.65
  -1  -9 -24 1995.86  860.40
  -1   9 -24 2337.76  579.71
   1  -9  25  463.78  618.35
  -1  -9 -25  387.86  461.47
  -1   9 -25  582.22  405.64
   1  10 -26  192.70  278.18
  -1  10  26  254.19  979.39
   1  10 -25  321.02  449.96
   1 -10 -25  959.70  501.55
  -1 -10  25  475.56  931.82
  -1  10  25 1791.44 1124.57
   1  10 -24  730.14  440.97
   1 -10 -24  477.43  488.22
  -1 -10  24 1344.45  598.61
  -1  10  24 1033.41 1072.77
   1  10 -23  994.50  391.20
   1 -10 -23  588.11  324.97
  -1 -10  23  210.44  745.70
  -1  10  23  130.11  968.92
   1  10 -22  336.86  393.15
   1 -10 -22 1107.03  413.45
  -1 -10  22  577.17  698.20
  -1  10  22  618.23  933.05
   1 -10 -21  784.11  399.99
   1  10 -21  570.66  270.85
  -1  10  21  172.03  840.46
  -1 -10  21  825.09  467.04
   1  10 -2010841.02  847.12
   1 -10 -20 8592.86  845.98
  -1 -10  2010801.15 1584.80
  -1  10  2014743.16 2156.13
   1 -10 -19  451.72  336.28
   1  10 -19  535.42  261.18
  -1 -10  19  351.26  401.38
  -1  10  19 1539.08  742.95
   1  10 -1811620.40  897.13
   1 -10 -1813191.93  983.29
  -1 -10  1811531.34 1653.12
  -1  10  1816284.62 2166.51
   1  10 -1710857.40 1011.37
   1 -10 -1710271.25  966.48
  -1 -10  17 9797.40 1284.12
  -1  10  1712079.50 1792.05
   1  10 -16 7273.92  744.16
   1 -10 -16 7292.21  609.07
  -1 -10  16 8601.39  819.73
  -1  10  16 5918.58 1404.00
   1  10 -1514042.05 1286.73
   1 -10 -1514973.89 1130.62
  -1  10  1515590.08 1952.44
  -1 -10  1516083.24 1544.54
   1  10 -14 -142.29  243.23
   1 -10 -14  308.96  195.15
  -1 -10  14   31.58  197.67
  -1  10  14  386.66  418.88
   1  10 -13 2990.81  544.06
   1 -10 -13 2811.04  364.17
  -1 -10  13 2607.19  386.04
  -1  10  13 3168.01  592.45
   1 -10 -12 6128.25  529.15
   1  10 -12 7841.41  841.47
  -1  10  12 7814.09 1062.69
  -1 -10  12 6754.48  741.57
   1 -10 -11 6411.97  413.28
   1  10 -11 7409.19  783.92
  -1  10  11 6965.82 1000.87
  -1 -10  11 6103.64  605.03
   1 -10 -1014707.98  920.63
   1  10 -1015068.02 1335.55
  -1 -10  1015706.87 1085.21
  -1  10  1015197.43 1557.19
   1  10  -9  165.77  341.76
   1 -10  -9  283.06  160.21
  -1 -10   9  353.97  142.20
  -1  10   9 -155.27  350.28
   1 -10  -8 3860.91  354.28
   1  10  -8 3330.82  676.36
  -1 -10   8 4721.86  433.50
  -1  10   8 5955.29  723.29
   1  10  -7 1420.70  469.82
   1 -10  -7 1613.84  164.16
  -1 -10   7 1418.61  246.86
  -1  10   7 1825.13  507.50
   1  10  -6 1451.41  449.91
   1 -10  -6 1428.49  197.82
  -1 -10   6 1299.33  222.20
  -1  10   6  863.13  441.01
   1  10  -5 3178.72  541.52
   1 -10  -5 2984.34  231.49
  -1 -10   5 2605.05  205.70
  -1  10   5 2596.64  521.16
   1  10  -4  572.23  278.85
   1 -10  -4  238.96  107.14
  -1 -10   4  544.58  135.68
  -1  10   4  652.00  226.10
   1  10  -315684.81 1088.11
   1 -10  -315705.34  704.96
  -1 -10   314190.01  689.12
  -1  10   312367.08  493.51
  -1  10   314242.05  943.71
   1  10  -2 9720.20  788.75
  -1  10   210185.40  855.46
  -1 -10   2 9198.82  411.26
   1  10  -1  257.69  209.49
   1  10  -1  248.79  103.30
   1 -10  -1  248.90  172.08
  -1  10   1  180.43   47.19
  -1 -10   1  223.51   93.22
  -1  10   1  146.57   70.06
   1 -10   0  -30.17  183.28
   1  10   0  155.57  189.88
   1  10   0  293.42  105.70
  -1  10   0  129.21   79.05
  -1 -10   0  129.78   72.12
  -1  10   0  102.62   45.44
   1  10   1 9884.92  631.14
   1 -10   1 9979.87  571.21
  -1 -10  -1 8557.19  365.78
  -1 -10  -1 9944.35  518.63
  -1  10  -1 8304.88  328.75
  -1  10  -1 9142.71  419.08
   1  10   2   -1.16  138.76
   1 -10   2  167.41  107.08
   1 -10   2  -75.98   43.83
  -1 -10  -2   -4.56   68.55
  -1 -10  -2  -10.14   85.88
   1  10   3  490.03  126.52
   1 -10   3  321.51  128.96
   1 -10   3  315.97   96.55
  -1 -10  -3  132.00  109.41
  -1 -10  -3  799.13  136.21
  -1  10  -3  259.63  121.91
   1 -10   4 1541.14  252.55
   1  10   4 1618.58  177.18
   1 -10   4 1042.36  188.03
  -1 -10  -4 1098.92  184.18
  -1  10  -4 1578.42  174.89
   1  10   5  121.12  123.21
   1 -10   5 -102.66  151.53
   1 -10   5    8.78  133.92
  -1 -10  -5  216.59  197.76
  -1  10  -5    1.42  110.07
  -1 -10  -5  133.60  117.65
   1  10   618659.18 1051.76
   1 -10   619650.10 1051.53
   1 -10   616744.30  896.48
  -1 -10  -615532.35 1051.91
  -1 -10  -615049.96  872.72
  -1  10  -616459.88  768.22
   1  10   7   45.37  139.92
   1 -10   7 -116.80  108.07
  -1 -10  -7  554.69  192.53
  -1  10  -7   13.77   77.32
   1 -10   8 4901.91  361.17
   1  10   8 5001.42  474.88
  -1 -10  -8 4239.67  427.15
  -1  10  -8 4468.50  315.82
   1 -10   9 2359.16  365.70
   1  10   9 3636.66  417.26
  -1  10  -9 3074.52  285.88
  -1 -10  -9 3632.94  365.59
   1  10  10 5445.70  686.12
   1 -10  10 5121.06  541.81
  -1  10 -10 7010.13  421.81
  -1 -10 -10 5263.40  631.13
   1 -10  11 1067.47  273.68
   1  10  11  692.42  336.88
  -1  10 -11 1169.40  194.94
  -1 -10 -11  711.51  243.61
   1  10  12 5342.24  694.21
   1 -10  12 5361.93  554.16
  -1 -10 -12 5455.82  669.28
  -1  10 -12 5469.81  431.10
   1  10  13 6344.93  864.31
   1 -10  13 5535.80  467.31
  -1 -10 -13 4554.98  546.04
  -1  10 -13 5833.38  443.84
   1  10  1426265.04 2446.48
   1 -10  1425557.47 1981.56
  -1 -10 -1424383.59 2127.46
  -1  10 -1426845.09 1640.35
   1  10  1514247.95 1644.51
   1 -10  1513723.07 1009.79
  -1 -10 -1511418.53 1290.85
  -1  10 -1514547.31  978.21
   1  10  1611090.51 1621.06
   1 -10  1612523.72 1224.52
  -1 -10 -16 9875.29 1252.43
  -1  10 -1613251.18  965.71
   1 -10  17  -49.89  316.34
   1  10  17  253.67  485.12
  -1 -10 -17 -220.82  342.92
  -1  10 -17  438.87  211.37
   1  10  18 2732.53  978.82
   1 -10  18 4386.79  718.95
  -1 -10 -18 1838.49  504.28
  -1  10 -18 3149.43  454.27
   1  10  19  461.66  623.55
   1 -10  19  723.61  447.13
  -1 -10 -19  106.88  419.27
  -1  10 -19  269.59  263.78
   1 -10  20 1193.24  547.37
   1  10  20  337.16  800.97
  -1 -10 -20  630.99  528.66
  -1  10 -20  905.80  335.96
   1  10  21 5099.96 1111.19
   1 -10  21 2500.67  800.15
  -1  10 -21 1443.42  461.58
  -1 -10 -21 1543.36  715.51
   1 -10  22 1266.58  587.64
   1  10  22  -66.78  841.15
  -1 -10 -22  232.82  390.92
  -1  10 -22  586.93  343.15
   1 -10  23  858.83  583.72
  -1  10 -23  -40.99  294.96
  -1 -10 -23   64.62  473.38
   1 -10  24 1959.57  620.03
  -1 -10 -24  156.18  669.81
  -1  10 -24  616.11  424.61
   1 -10  25  314.82  525.21
  -1 -10 -25 -102.76  425.40
  -1  10 -25  418.64  276.15
   1  11 -25  989.98  532.72
   1 -11 -25 1150.28  446.95
  -1 -11  25 1769.07  979.18
  -1  11  25 2070.42 1293.11
   1  11 -24  394.83  267.58
   1 -11 -24   70.21  306.30
  -1 -11  24  240.74  505.41
  -1  11  24  297.99  899.28
   1 -11 -23 1364.99  543.99
   1  11 -23 1393.90  345.08
  -1  11  23  806.34 1158.05
  -1 -11  23 1574.60  893.99
   1 -11 -22  -71.41  252.64
   1  11 -22  242.99  241.78
  -1  11  22  181.54  759.88
  -1 -11  22  694.83  427.56
   1 -11 -21  617.39  404.95
   1  11 -21  904.47  374.00
  -1  11  21  195.21  858.61
  -1 -11  21   47.43  630.93
   1 -11 -20  244.47  334.09
   1  11 -20  440.70  349.10
  -1 -11  20  171.83  529.62
  -1  11  20   -2.22  713.45
   1 -11 -19  488.20  342.70
   1  11 -19  263.71  342.81
  -1  11  19  691.99  712.55
  -1 -11  19  501.08  533.74
   1  11 -18  209.87  208.35
   1 -11 -18  138.81  270.11
  -1  11  18  214.29  571.49
  -1 -11  18  -11.76  284.17
   1 -11 -17 1009.57  362.68
   1  11 -17 1392.28  380.70
  -1  11  17  511.81  549.58
  -1 -11  17  930.51  522.97
   1 -11 -16 1914.56  340.24
   1  11 -16 2740.42  464.97
  -1 -11  16 3489.33  485.99
  -1  11  16 1934.05  903.06
   1  11 -15 3854.99  570.96
   1 -11 -15 3263.22  362.62
  -1  11  15 3927.77  940.52
  -1 -11  15 2710.12  476.82
   1 -11 -14 1028.10  229.80
   1  11 -14 1816.39  450.07
  -1 -11  14 1296.51  419.59
  -1  11  14  904.74  634.75
   1 -11 -13   65.99  126.50
   1  11 -13  -26.83  253.63
  -1 -11  13  -61.66  239.68
  -1  11  13   36.77  376.76
   1  11 -12  908.31  343.71
   1 -11 -12  588.02  211.97
  -1 -11  12  215.52  194.06
  -1  11  12  286.35  336.98
   1  11 -11 1433.79  433.32
   1 -11 -11 1408.12  257.60
  -1 -11  11 1094.99  239.54
  -1  11  11  796.96  402.91
   1  11 -10 2676.97  452.57
   1 -11 -10 3822.32  373.30
  -1 -11  10 4303.65  438.17
  -1  11  10 3241.97  721.48
   1  11  -923532.98 2000.87
   1 -11  -923214.64 1346.36
  -1 -11   921531.29 1423.12
  -1  11   923245.18 2081.17
   1 -11  -8 6935.98  499.39
   1  11  -8 8273.65  894.00
  -1  11   8 7577.18  949.83
  -1 -11   8 7092.37  453.30
   1 -11  -7 3066.75  303.42
   1  11  -7 2945.56  612.78
  -1 -11   7 3875.49  343.65
  -1  11   7 2746.50  642.37
   1 -11  -6 1181.05  193.77
   1  11  -6 1446.77  326.51
  -1 -11   6  830.97  222.67
  -1  11   6 2068.12  451.33
   1 -11  -550919.61 3102.05
   1  11  -554370.11 4070.65
  -1 -11   551010.65 3141.38
  -1  11   551560.17 4074.02
   1  11  -4 9465.26  835.04
   1 -11  -4 7592.32  434.26
  -1 -11   4 8428.65  500.32
  -1  11   4 9264.44  900.65
   1 -11  -3  291.93   89.10
   1  11  -3  266.65  246.78
  -1  11   3  170.10  193.35
  -1 -11   3  199.18  116.93
  -1  11   3  133.33   51.58
   1  11  -2 4325.57  463.74
  -1 -11   2 2743.97  217.66
  -1  11   2 2551.68  454.10
   1 -11  -1102923.7 8281.09
   1  11  -1102368.0 8208.22
  -1 -11   1105240.9 7351.69
  -1  11   1113848.2 7759.82
  -1  11   192061.86 6158.04
   1  11   035137.09 1954.57
   1 -11   029578.76 1789.45
  -1 -11   032063.50 1533.47
  -1  11   027319.57 1352.85
   1 -11   115451.37  857.50
   1  11   116393.06  943.80
  -1  11  -113019.21  558.14
  -1 -11  -114211.25  600.51
  -1  11  -114925.35  703.58
  -1 -11  -111477.55  671.41
   1  11   2 1538.21  246.75
   1 -11   2  991.49   77.79
   1 -11   2 1432.23  252.98
  -1  11  -2 1395.78  156.13
  -1 -11  -2  985.19  138.53
  -1 -11  -2  748.60  159.63
   1 -11   3 3124.93  267.92
   1 -11   3 3633.20  226.41
   1  11   3 3625.25  352.98
  -1 -11  -3 3907.78  281.10
  -1 -11  -3 2685.29  271.74
  -1  11  -3 3098.13  264.38
   1 -11   4 5709.51  395.83
   1  11   4 5568.96  369.81
   1 -11   4 5350.88  342.51
  -1 -11  -4 5445.86  392.83
  -1 -11  -4 6165.81  455.98
  -1  11  -4 5485.44  375.09
   1  11   5 5509.59  399.20
   1 -11   5 5580.50  351.28
   1 -11   5 4149.08  436.94
  -1 -11  -5 4564.63  539.31
  -1 -11  -5 4164.91  362.49
  -1  11  -5 5340.96  318.59
   1  11   612598.36  846.07
   1 -11   611362.61  670.61
  -1 -11  -612711.22  873.03
  -1  11  -614847.09  800.56
   1 -11   7 1062.47  191.69
   1  11   7  963.11  236.04
  -1  11  -7 1088.28  151.65
  -1 -11  -7 1373.39  267.40
   1 -11   8 -135.97  114.34
   1  11   8  122.40  168.07
  -1  11  -8   -4.74   86.82
  -1 -11  -8 -123.59  199.34
   1  11   9   -8.92  194.35
   1 -11   9  166.68  157.39
  -1  11  -9  -80.32   99.02
  -1 -11  -9  -20.34  148.72
   1 -11  10  809.16  257.81
   1  11  10  963.51  303.74
  -1 -11 -10  669.23  314.13
  -1  11 -10  991.62  199.52
   1  11  11  219.88  238.87
   1 -11  11   39.33  189.80
  -1 -11 -11   97.18  174.42
  -1  11 -11  114.57  131.99
   1  11  12  245.26  315.18
   1 -11  12  186.86  217.56
  -1 -11 -12  547.90  273.66
  -1  11 -12   47.66  151.36
   1  11  13  706.39  366.46
   1 -11  13  516.19  204.22
  -1 -11 -13  531.97  344.98
  -1  11 -13  765.92  210.76
   1  11  14  448.29  505.00
   1 -11  14  827.19  344.55
  -1  11 -14 1003.37  226.90
   1 -11  15  203.40  192.11
   1  11  15  -83.88  394.46
  -1 -11 -15  114.78  305.47
  -1  11 -15   54.37  176.97
   1  11  16 2349.70  786.36
   1 -11  16 2906.32  532.98
  -1 -11 -16 1441.16  426.02
  -1  11 -16 2367.75  358.13
   1  11  17  774.43  608.79
   1 -11  17  741.53  396.86
  -1 -11 -17  139.51  320.94
  -1  11 -17  926.39  265.17
   1 -11  18 1338.52  487.17
   1  11  18 1191.00  747.49
  -1 -11 -18  993.66  535.10
  -1  11 -18 1143.76  324.55
   1  11  19 1339.24  889.73
   1 -11  19 1670.05  630.22
  -1 -11 -19 1409.07  631.15
  -1  11 -19 1755.07  386.64
   1  11  2012404.22 2123.03
   1 -11  2012278.29 1624.07
  -1 -11 -20 8616.79 1542.93
  -1  11 -2013036.96 1144.32
   1  11  21 1669.76 1027.95
   1 -11  21 2685.65  758.81
  -1 -11 -21 1012.77  518.48
  -1  11 -21 1659.47  423.77
   1 -11  22   62.96  432.83
  -1 -11 -22  -83.06  295.95
  -1  11 -22   65.05  244.13
   1 -11  23 1549.39  581.46
  -1  11 -23   16.60  241.17
  -1 -11 -23  538.14  546.91
   1 -11  24  815.97  547.75
  -1 -11 -24 -116.01  447.42
  -1  11 -24  785.73  384.67
   1 -11  25 3909.35 1069.96
  -1  11 -25 3897.08  758.95
   1  12 -25  859.25  379.93
   1 -12 -25 1041.02  594.70
  -1  12  25  780.42 1237.47
  -1 -12  25 1555.83  947.12
   1 -12 -24  963.68  628.37
   1  12 -24 1812.45  531.55
  -1 -12  24 1736.64  732.24
  -1  12  24 1231.78 1296.85
   1 -12 -23 1379.65  456.17
   1  12 -23 1723.42  549.50
  -1 -12  23 3391.04  983.62
  -1  12  23 1096.23 1229.80
   1 -12 -22 1762.50  659.62
   1  12 -22 3516.61  617.43
  -1  12  22 2200.46 1326.29
  -1 -12  22 2578.39  730.36
   1  12 -21  761.97  377.29
   1 -12 -21  564.87  309.48
  -1  12  21  510.91  877.93
  -1 -12  21  867.81  644.65
   1 -12 -20 1597.46  521.97
   1  12 -20 1725.78  538.65
  -1 -12  20 1830.16  600.54
  -1  12  20 2047.12 1041.96
   1  12 -19 1921.78  577.05
  -1  12  19 3525.91 1157.69
  -1 -12  19 4011.24  797.61
   1 -12 -18  612.44  299.02
   1  12 -18  144.97  313.27
  -1  12  18 -222.62  603.44
  -1 -12  18  -30.24  308.17
   1  12 -17 5919.44  743.44
   1 -12 -17 6629.00  770.02
  -1  12  17 5040.85 1409.23
  -1 -12  17 7128.29 1026.73
   1 -12 -16  805.36  305.90
   1  12 -16  405.54  358.07
  -1  12  16   14.46  610.43
  -1 -12  16  511.04  398.24
   1 -12 -15  207.97  245.82
   1  12 -15  312.85  286.34
  -1 -12  15   71.60  239.89
  -1  12  15  599.27  515.69
   1  12 -14 1916.18  513.64
   1 -12 -14 1914.19  373.82
  -1 -12  14 1760.99  499.35
  -1  12  14 1938.13  556.93
   1  12 -13 3786.34  631.80
   1 -12 -13 4219.62  461.56
  -1 -12  13 3251.90  533.05
  -1  12  13 3777.70  911.10
   1 -12 -12  102.74  134.43
   1  12 -12  -12.61  300.48
  -1 -12  12   89.17  225.66
  -1  12  12  574.77  379.56
   1 -12 -11   -8.71  176.54
   1  12 -11  166.73  313.28
  -1 -12  11  335.65  223.54
  -1  12  11  619.64  382.42
   1 -12 -10 8633.17  632.48
   1  12 -10 9332.11 1069.96
  -1 -12  10 7652.41  675.44
  -1  12  10 8286.11 1116.63
   1  12  -9 1125.71  445.72
   1 -12  -9  826.97  224.37
  -1 -12   9 1015.81  195.94
  -1  12   9 1221.30  483.48
   1  12  -8 1435.46  496.78
   1 -12  -8 1353.82  247.74
  -1  12   8 1784.51  527.00
  -1 -12   8 2368.90  279.53
   1  12  -7 2740.60  620.84
   1 -12  -7 3602.87  368.74
  -1 -12   7 3625.08  271.10
  -1  12   7 2654.49  661.73
   1  12  -614787.05 1279.84
   1 -12  -613935.39  850.79
  -1  12   612183.06 1293.13
  -1 -12   612626.37  684.20
   1 -12  -5 4337.93  369.55
   1  12  -5 3803.41  658.29
  -1  12   5 5299.62  694.66
  -1 -12   5 4788.17  368.91
   1  12  -4 6561.42  715.93
   1 -12  -4 5792.46  414.61
  -1 -12   4 6754.91  426.61
  -1  12   4 5923.67  797.14
   1  12  -331018.22 2172.91
   1 -12  -329106.95 1597.52
  -1  12   326340.09 2092.76
  -1 -12   326453.62 1379.13
   1 -12  -221732.43 1105.02
   1  12  -222562.88 1616.31
  -1  12   220731.45 1374.72
  -1 -12   222050.35 1111.15
   1  12  -110429.44  868.95
   1 -12  -110323.48  931.97
  -1  12   1 9091.79  419.62
  -1 -12   1 9425.69  469.64
   1 -12   026220.94 1673.64
   1  12   029614.77 1835.84
  -1  12   020550.78  934.93
  -1 -12   027480.60 1317.83
  -1  12   022135.48 1111.06
   1  12   117326.99 1171.92
   1 -12   115140.50 1097.07
  -1 -12  -113899.21  710.29
  -1  12  -116160.57  841.85
  -1  12  -117236.80  747.70
   1  12   210473.15  723.98
   1 -12   2 9365.74  596.37
  -1 -12  -210023.86  559.90
  -1  12  -210350.82  575.67
   1  12   3 1690.42  282.72
   1 -12   3 2075.65  152.55
   1 -12   3 1748.61  215.57
  -1 -12  -3 1223.16  219.76
  -1 -12  -3 2056.12  194.48
  -1  12  -3  903.72  222.37
   1  12   4  731.36  154.67
   1 -12   4  262.27  136.97
   1 -12   4  526.51  165.70
  -1  12  -4  716.03  142.49
   1  12   5 -175.43  125.76
   1 -12   5 -119.28  127.97
   1 -12   5  178.85  156.82
  -1 -12  -5   -8.62  139.54
  -1  12  -5   22.93  123.72
   1  12   6 1285.04  244.31
   1 -12   6 1663.33  278.14
  -1 -12  -6 1107.13  338.07
  -1  12  -6 1274.00  219.97
   1  12   710793.34  725.56
   1 -12   7 9249.89  703.27
  -1 -12  -710752.49  798.30
  -1  12  -7 9251.14  490.08
   1  12   8 3736.84  410.99
   1 -12   8 4030.03  315.15
  -1 -12  -8 4432.78  586.68
  -1  12  -8 3210.95  228.32
   1  12   9 7861.73  681.91
   1 -12   9 6414.27  594.20
  -1 -12  -9 7493.81  756.62
  -1  12  -9 7155.51  412.64
   1  12  10 1142.06  339.51
   1 -12  10 1430.94  295.23
  -1 -12 -10 1660.78  392.17
  -1  12 -10 1555.92  209.68
   1  12  1119316.72 1572.50
   1 -12  1117848.04 1337.39
  -1 -12 -1119821.09 1400.05
  -1  12 -1120955.35 1173.19
   1  12  12 1431.49  494.31
   1 -12  12 1262.87  327.89
  -1 -12 -12 1452.93  417.10
  -1  12 -12 1522.92  244.25
   1  12  1310999.79 1158.72
   1 -12  13 8831.39  671.80
  -1  12 -13 9192.12  650.41
  -1 -12 -13 8675.25 1001.13
   1  12  14  762.05  494.65
   1 -12  14  759.25  316.81
  -1 -12 -14  619.90  406.40
  -1  12 -14  975.56  249.25
   1  12  15 8503.28 1178.25
   1 -12  15 7029.51  655.27
  -1 -12 -15 5494.21  742.88
  -1  12 -15 8025.57  627.63
   1  12  16 1071.93  582.72
   1 -12  16  820.23  275.14
  -1 -12 -16  541.23  454.03
  -1  12 -16  758.01  262.45
   1  12  17  440.57  590.17
   1 -12  17  642.42  395.62
  -1 -12 -17  188.51  444.97
  -1  12 -17  665.40  267.95
   1  12  18 1121.03  841.36
   1 -12  18 1695.92  531.91
  -1 -12 -18 1604.95  469.39
  -1  12 -18 1818.73  364.84
   1  12  19 5052.38 1322.62
   1 -12  19 6960.62 1136.44
  -1 -12 -19 6312.26  916.81
  -1  12 -19 7707.47  768.07
   1  12  20 2825.66 1328.22
   1 -12  20 4592.67  960.92
  -1 -12 -20 3459.28  761.76
  -1  12 -20 4988.21  633.25
   1 -12  21  456.32  466.35
  -1 -12 -21 -202.51  483.94
  -1  12 -21  316.18  276.31
   1 -12  22  452.47  580.23
  -1 -12 -22  756.77  558.47
  -1  12 -22  274.23  322.57
   1 -12  23 1598.08  758.29
  -1 -12 -23 1753.88  725.45
  -1  12 -23  744.74  430.68
   1 -12  24  193.18  938.01
  -1 -12 -24 1578.06  582.99
  -1  12 -24 1339.27  477.21
   1 -12  25  -70.83  549.12
  -1  12 -25  476.58  388.71
   1 -13 -25 1190.98  591.79
   1  13 -25  843.58  494.77
  -1 -13  25  336.93  676.31
  -1  13  25  731.60 1225.14
   1  13 -24 1027.88  427.83
   1 -13 -24  479.86  380.02
  -1  13  24 -130.17 1062.99
  -1 -13  24  153.52  798.82
   1 -13 -23 1407.34  595.01
   1  13 -23 1458.77  387.37
  -1  13  23 2239.70 1221.90
  -1 -13  23  882.94  642.87
   1 -13 -22  438.82  305.51
   1  13 -22  147.90  261.02
  -1  13  22 1691.92  853.12
  -1 -13  22  534.56  614.83
   1  13 -21 1152.52  304.64
   1 -13 -21  524.52  486.30
  -1  13  21  343.98  978.82
  -1 -13  21 1797.22  715.64
   1 -13 -20  947.41  373.22
   1  13 -20 1442.18  357.72
  -1  13  20 2306.65  740.43
  -1 -13  20 1083.07  739.76
   1  13 -19  245.62  330.56
   1 -13 -19  129.92  341.68
  -1  13  19  959.87  682.43
  -1 -13  19  386.03  463.24
   1 -13 -18 8845.79 1007.39
   1  13 -18 8814.72  952.02
  -1  13  18 3699.68 1303.06
  -1 -13  18 9916.34  999.25
   1 -13 -17 7501.86  812.77
   1  13 -17 5956.30  751.50
  -1  13  17 4871.50 1508.01
  -1 -13  17 5838.09 1067.97
   1  13 -1611912.96 1208.03
   1 -13 -1611900.05 1130.72
  -1 -13  1612549.98 1351.24
  -1  13  1611912.36 1931.49
   1  13 -15 6965.12  802.92
   1 -13 -15 7259.24  775.07
  -1  13  15 6414.88 1353.22
  -1 -13  15 6416.68  715.72
   1 -13 -14  664.78  279.74
   1  13 -14  408.29  377.54
  -1  13  14   58.23  386.58
  -1 -13  14  431.34  258.75
   1 -13 -13  444.89  179.50
   1  13 -13  399.66  376.66
  -1  13  13  175.74  485.89
  -1 -13  13  396.10  288.25
   1 -13 -12   55.53  189.83
   1  13 -12  279.95  296.47
  -1  13  12  441.34  385.64
  -1 -13  12  -56.31  226.61
   1 -13 -1113415.65  941.19
   1  13 -1112882.92 1264.43
  -1 -13  1111344.78  961.40
  -1  13  1114683.21 1580.18
   1 -13 -10 2088.51  317.57
   1  13 -10 1808.24  594.63
  -1 -13  10 2378.01  279.43
  -1  13  10 1585.72  655.38
   1 -13  -9   57.27  160.33
   1  13  -9  323.28  319.66
  -1 -13   9  144.51  178.42
  -1  13   9  269.20  257.15
   1  13  -8 4173.97  672.57
   1 -13  -8 2814.61  394.86
  -1 -13   8 3794.49  393.25
  -1  13   8 6296.47  741.88
   1  13  -7 1994.62  509.37
   1 -13  -7 1577.63  278.63
  -1  13   7 1847.74  389.00
  -1 -13   7 1881.17  273.22
   1 -13  -6 9699.40  664.68
   1  13  -611481.60 1071.13
  -1  13   610305.25  879.99
  -1 -13   6 9285.58  643.53
   1  13  -5   72.38  262.62
   1 -13  -5   39.82  140.35
  -1  13   5  -42.88  280.55
  -1 -13   5  128.87  133.70
   1  13  -414202.50 1191.25
   1 -13  -413286.44  892.84
  -1  13   414332.39 1046.76
  -1 -13   413342.28  774.94
   1  13  -3 6013.10  680.95
   1 -13  -3 5328.77  370.95
  -1  13   3 4620.47  515.62
  -1 -13   3 5944.74  396.02
   1 -13  -2  163.58  268.63
   1  13  -2  132.13  236.40
  -1  13   2   52.13   45.77
  -1 -13   2  110.29  113.57
  -1  13   2   80.23   82.60
   1  13  -1  808.57  313.62
   1 -13  -1  873.08  297.82
  -1  13   1  736.27   82.13
  -1 -13   1  688.91  159.38
  -1  13   1  581.28  118.68
   1 -13   0 1983.81  346.27
   1  13   0 1678.58  369.29
  -1  13   0 1283.41  159.33
  -1 -13   0 1917.36  197.33
   1 -13   1  400.36  241.69
   1  13   1  705.49  252.60
  -1  13  -1  535.84  154.68
  -1 -13  -1  501.32  116.96
  -1  13  -1  275.00   78.63
   1  13   216947.59 1113.07
   1 -13   212532.25  985.57
  -1 -13  -214366.83  762.16
  -1  13  -214134.83  802.63
   1  13   315275.69  860.78
   1 -13   310821.56  834.85
  -1 -13  -313422.18  761.92
  -1  13  -313566.85  824.68
   1 -13   4  735.96  172.53
   1  13   4  825.13  241.76
   1 -13   4  686.90  146.12
  -1  13  -4  390.72  151.33
  -1 -13  -4  708.00  189.17
   1  13   510582.58  695.39
   1 -13   5 7671.90  463.10
   1 -13   5 9554.95  577.94
  -1 -13  -510107.06  684.42
  -1  13  -510143.02  657.30
   1  13   6 5204.85  424.28
   1 -13   6 3843.17  331.74
  -1  13  -6 3923.32  316.14
  -1 -13  -6 4332.07  526.39
   1  13   7 1878.25  306.25
   1 -13   7 2410.90  228.66
  -1  13  -7 1515.96  208.79
  -1 -13  -7  899.21  395.34
   1 -13   8 6209.94  553.92
   1  13   8 6155.11  566.25
  -1  13  -8 6091.39  381.27
  -1 -13  -8 5937.72  729.30
   1  13   9 6001.14  565.88
   1 -13   9 5777.68  551.79
  -1  13  -9 5463.83  350.36
  -1 -13  -9 6651.99  805.61
   1 -13  10 3087.47  311.13
   1  13  10 2528.14  467.90
  -1 -13 -10 2658.14  512.76
  -1  13 -10 3102.18  296.64
   1 -13  11 2392.77  428.84
   1  13  11 2397.26  559.29
  -1  13 -11 3824.79  314.67
  -1 -13 -11 1845.96  559.36
   1 -13  12   75.50  214.63
   1  13  12  294.85  268.61
  -1  13 -12  115.73  150.79
  -1 -13 -12   44.37  289.51
   1  13  13  229.33  355.09
   1 -13  13   24.27  166.92
  -1 -13 -13  126.68  291.19
  -1  13 -13  193.96  167.30
   1  13  14   48.82  339.38
   1 -13  14  124.91  258.56
  -1  13 -14  248.14  193.73
  -1 -13 -14  286.00  334.98
   1  13  15 4654.45  877.08
   1 -13  15 3838.89  450.65
  -1  13 -15 4145.85  419.69
  -1 -13 -15 1470.83  517.02
   1 -13  16 1653.47  461.99
   1  13  16 1783.33  699.48
  -1  13 -16 1488.94  312.16
  -1 -13 -16 1002.97  548.73
   1 -13  17 7909.74  985.96
   1  13  17 9517.87 1416.51
  -1  13 -17 7775.34  702.81
  -1 -13 -17 5473.85  856.06
   1  13  1811460.87 1824.04
   1 -13  18 9609.44 1247.66
  -1  13 -1812827.52 1012.52
  -1 -13 -18 8637.08 1439.45
   1 -13  19 1171.96  602.84
   1  13  19  783.17  937.57
  -1 -13 -19 1460.94  715.37
  -1  13 -19 2777.98  429.77
   1 -13  20  207.29  458.51
  -1  13 -20  374.73  279.44
  -1 -13 -20  115.57  489.79
   1 -13  21 4755.36 1051.94
  -1  13 -21 5545.47  664.21
  -1 -13 -21 4338.73 1103.76
   1 -13  22 3038.17  786.10
  -1  13 -22  672.65  427.09
  -1 -13 -22 1669.68  550.89
   1 -13  23 1137.82  486.07
  -1  13 -23   94.00  268.45
  -1 -13 -23 -793.05  342.35
   1 -13  24  595.23  741.72
  -1 -13 -24 1155.43  731.33
  -1  13 -24  754.75  428.36
   1  14 -25 1029.26  507.52
   1 -14 -25  809.47  548.03
  -1  14  25  867.51 1289.32
   1 -14 -24   14.20  523.94
   1  14 -24  908.60  426.47
  -1  14  24  653.17  795.87
  -1 -14  24  362.38  812.92
   1 -14 -23 1506.92  513.22
   1  14 -23 3523.15  619.64
  -1  14  23 2927.60 1035.14
  -1 -14  23 1280.70  742.83
   1  14 -22 1558.54  508.20
   1 -14 -22  781.70  577.02
  -1 -14  22 1593.77  852.28
  -1  14  22 2280.42  855.12
   1  14 -21  -12.85  409.42
   1 -14 -21 1147.86  430.78
  -1  14  21 1148.99  861.55
  -1 -14  21  115.32  457.00
   1  14 -20 1332.39  510.92
   1 -14 -20 1092.03  386.42
  -1  14  20 3765.61 1055.13
  -1 -14  20 1865.30  715.51
   1  14 -19  257.11  330.69
   1 -14 -19  192.34  352.63
  -1  14  19  327.19  710.38
  -1 -14  19  555.00  477.26
   1  14 -18 8946.48  987.98
   1 -14 -18 8342.10 1068.77
  -1  14  1810128.43 1885.24
  -1 -14  1811007.54 1099.37
   1  14 -17 1072.99  397.22
   1 -14 -17 1601.54  420.74
  -1 -14  17  827.64  526.68
  -1  14  17  930.45  826.45
   1  14 -16  849.68  385.56
   1 -14 -16  609.61  345.27
  -1  14  16  331.48  658.49
  -1 -14  16  785.52  435.43
   1  14 -15   92.61  371.77
   1 -14 -15  392.53  274.08
  -1 -14  15  388.65  260.28
  -1  14  15 -323.05  526.21
   1 -14 -14 5368.85  542.41
   1  14 -14 6300.10  844.40
  -1  14  14 6705.21 1186.40
  -1 -14  14 5854.77  575.58
   1 -14 -13 1339.38  336.84
   1  14 -13 1214.91  490.08
  -1 -14  13 1324.34  384.64
  -1  14  13 1265.54  660.73
   1  14 -1211092.28 1163.87
   1 -14 -1210136.12  747.17
  -1 -14  1211750.70 1009.60
  -1  14  1213093.18 1555.42
   1  14 -11  171.93  315.40
   1 -14 -11   26.76  221.60
  -1 -14  11  141.75  157.71
  -1  14  11  352.21  419.47
   1 -14 -10 4059.89  458.89
   1  14 -10 2162.31  747.91
  -1  14  10 3523.00  803.38
  -1 -14  10 4065.28  365.39
   1  14  -9 4417.29  725.08
  -1  14   9 3422.07  805.73
  -1 -14   9 4211.44  446.39
   1  14  -813246.80 1273.38
   1 -14  -812533.02  840.26
  -1  14   811213.90 1319.39
  -1 -14   811834.11  826.03
   1  14  -7  741.08  366.55
   1 -14  -7  411.44  189.66
  -1  14   7  554.58  278.74
  -1 -14   7  155.73  186.78
   1  14  -6 8859.48 1029.95
   1 -14  -611055.38  716.43
  -1 -14   6 9548.27  674.55
  -1  14   6 9916.08  884.14
   1 -14  -5  305.33  166.86
   1  14  -5  303.33  308.45
  -1 -14   5  252.48  159.53
  -1  14   5  218.93  341.81
   1 -14  -4  409.11  166.97
   1  14  -4  486.16  286.55
  -1  14   4  372.66  317.59
  -1 -14   4   28.59  149.51
   1  14  -326444.56 2021.38
   1 -14  -326039.47 1488.30
  -1 -14   325719.97 1426.14
  -1  14   323986.09 1995.18
   1 -14  -2 -104.02  266.36
   1  14  -2  -56.19  230.97
  -1  14   2  -23.36   91.48
  -1 -14   2  175.12  110.16
   1  14  -1 5194.86  617.12
   1 -14  -1 4338.92  449.04
  -1  14   1 4527.14  313.91
  -1 -14   1 5124.71  349.11
   1 -14   0 5125.15  466.53
   1  14   0 6155.15  648.06
  -1  14   0 5234.13  407.94
  -1 -14   0 5681.71  353.42
   1 -14   113548.39 1054.91
   1  14   114180.60 1075.19
  -1 -14  -113883.83  698.80
  -1  14  -113028.37  709.69
   1  14   2  109.17  141.04
   1 -14   2 -240.97  188.46
  -1  14  -2 -258.92  122.30
  -1  14  -2   68.57   83.96
  -1 -14  -2 -249.85  125.71
   1 -14   3 2153.00  314.41
   1  14   3 1438.95  349.39
  -1  14  -3 1486.88  273.46
  -1 -14  -3 2286.85  223.43
   1 -14   4 7054.56  442.87
   1  14   410711.13  756.17
   1 -14   4 8869.49  566.63
  -1 -14  -4 8621.38  565.82
  -1  14  -410448.11  655.70
   1  14   5 3768.16  330.53
   1 -14   5 2732.51  288.90
   1 -14   5 2942.37  284.98
  -1 -14  -5 3314.48  354.02
  -1  14  -5 2276.24  263.25
   1 -14   619538.24 1131.07
   1  14   620409.39 1274.60
  -1 -14  -618904.73 1415.51
  -1  14  -618244.66 1040.67
   1  14   7 1800.28  355.36
   1 -14   7 2668.19  344.68
  -1 -14  -7 2016.47  446.55
  -1  14  -7 2782.60  259.47
   1 -14   829962.34 1793.61
   1  14   831632.95 2254.32
  -1  14  -828447.67 1598.97
  -1 -14  -830204.95 2423.72
   1 -14   9   20.78  142.25
   1  14   9  224.12  215.82
  -1  14  -9  148.07  104.36
  -1 -14  -9  346.37  282.45
   1 -14  10  658.48  184.97
   1  14  10  498.17  277.04
  -1  14 -10  427.79  145.04
  -1 -14 -10  561.99  375.18
   1 -14  11 2233.28  282.34
   1  14  11 2121.20  516.25
  -1  14 -11 1756.63  243.27
  -1 -14 -11  960.57  465.94
   1 -14  12 3106.72  511.57
   1  14  12 2897.85  734.36
  -1  14 -12 5107.74  391.22
  -1 -14 -12 2840.78  668.16
   1 -14  13  244.32  271.89
   1  14  13  577.70  347.74
  -1  14 -13  493.31  201.12
  -1 -14 -13  145.76  365.91
   1 -14  14 7141.06  641.76
   1  14  14 8193.23 1011.27
  -1  14 -14 8055.37  639.77
  -1 -14 -14 9432.95 1162.73
   1 -14  15 3475.29  623.31
   1  14  15 4147.88  929.16
  -1  14 -15 4496.23  422.71
  -1 -14 -15 2374.98  764.90
   1 -14  16 1613.94  473.93
   1  14  16 1679.11  647.26
  -1  14 -16 2012.38  328.40
  -1 -14 -16 1047.69  447.72
   1 -14  1713415.75 1352.75
   1  14  1713492.79 1750.09
  -1  14 -1713525.82 1063.46
  -1 -14 -1710656.40 1585.56
   1 -14  18 1905.18  422.81
  -1 -14 -18  769.59  692.00
  -1  14 -18 2124.93  377.91
   1 -14  19  161.14  317.17
  -1 -14 -19  778.72  387.87
  -1  14 -19  632.12  287.36
   1 -14  20 1426.82  514.18
  -1  14 -20 2685.25  455.38
  -1 -14 -20 1410.37  558.19
   1 -14  21 1350.12  444.39
  -1  14 -21  588.23  377.07
  -1 -14 -21  807.09  469.93
   1 -14  22 1129.63  548.01
  -1 -14 -22  556.01  430.10
  -1  14 -22   59.58  325.28
   1 -14  23   24.71  571.78
  -1  14 -23   84.67  320.34
  -1 -14 -23  742.89  564.77
   1 -14  24 1285.75  841.71
  -1  14 -24 1300.57  489.82
  -1 -14 -24 1152.47  848.77
   1  15 -24 1137.80  376.45
   1 -15 -24  340.40  521.78
  -1 -15  24  259.05  827.55
  -1  15  24 1217.51 1202.13
   1 -15 -23 1051.22  621.97
   1  15 -23  485.29  316.74
  -1  15  23 -187.85 1025.75
  -1 -15  23  559.38  722.25
   1  15 -22  956.38  316.24
   1 -15 -22  607.93  618.22
  -1  15  22 -118.13 1047.91
  -1 -15  22  773.20  750.23
   1 -15 -21  -10.74  285.27
   1  15 -21  356.26  275.27
  -1  15  21 1149.66  811.55
  -1 -15  21  304.13  434.43
   1 -15 -20 1583.41  605.15
   1  15 -20 1850.61  568.26
  -1 -15  20 1668.46  761.71
  -1  15  20 4159.00 1107.87
   1  15 -19 1723.99  497.77
   1 -15 -19 1116.94  522.48
  -1 -15  19 1633.11  520.28
  -1  15  19 2762.55  984.42
   1 -15 -18   72.12  314.04
   1  15 -18  -96.21  294.94
  -1  15  18  990.29  599.76
  -1 -15  18  346.05  433.46
   1  15 -17 -164.54  325.98
   1 -15 -17  111.49  292.60
  -1 -15  17  184.92  370.94
  -1  15  17  864.90  550.82
   1  15 -16  990.43  410.64
   1 -15 -16  835.71  377.54
  -1 -15  16  591.55  471.24
  -1  15  16  965.51  720.04
   1 -15 -15 1401.25  423.39
   1  15 -15 2890.04  569.55
  -1 -15  15 1206.30  401.57
  -1  15  15 1776.52  805.47
   1  15 -14 2783.07  629.46
   1 -15 -14 1194.31  549.01
  -1 -15  14 4158.88  438.06
  -1  15  14 1684.59  962.44
   1  15 -13 2274.50  607.54
   1 -15 -13 1293.42  378.86
  -1 -15  13 3614.00  501.64
  -1  15  13 3194.71  832.44
   1 -15 -12  152.40  267.77
   1  15 -12  175.64  371.44
  -1 -15  12  325.71  254.90
  -1  15  12  495.84  490.20
   1 -15 -11  -23.53  220.24
   1  15 -11   40.58  310.25
  -1  15  11  177.71  285.03
  -1 -15  11  139.75  210.93
   1  15 -10  598.67  439.38
   1 -15 -10  292.55  269.47
  -1 -15  10  843.40  197.66
  -1  15  10  640.67  489.52
   1  15  -9  444.74  366.04
   1 -15  -9  253.37  218.72
  -1 -15   9  241.28  206.15
  -1  15   9  244.12  400.18
   1  15  -8   85.59  314.04
   1 -15  -8   76.39  185.86
  -1 -15   8   96.15  174.98
  -1  15   8  272.71  337.35
   1 -15  -713712.81  926.61
   1  15  -712764.91 1351.84
  -1 -15   713087.56  885.14
  -1  15   712436.77 1157.52
   1  15  -6 7498.35  857.73
   1 -15  -6 5818.27  538.80
  -1  15   6 7071.02  893.51
  -1 -15   6 6402.66  501.68
   1  15  -5 1589.80  403.11
   1 -15  -5 1219.70  262.14
  -1  15   5 1225.79  418.14
  -1 -15   5  628.41  214.81
   1  15  -4 6323.89  764.06
   1 -15  -4 5926.68  450.21
  -1  15   4 6054.07  596.30
  -1 -15   4 6637.15  473.61
   1 -15  -326546.06 2159.91
   1  15  -333925.55 2542.52
  -1  15   333598.99 1860.85
  -1 -15   331616.18 1831.10
   1  15  -2  185.92  244.79
  -1 -15   2  234.99  123.44
  -1  15   2  -17.22   77.28
   1  15  -118397.88 1388.14
   1 -15  -116693.37 1359.68
  -1  15   114728.65  845.25
  -1 -15   116050.44  861.94
   1 -15   014490.02 1162.43
   1  15   016099.21 1265.14
  -1 -15   013457.69  798.69
  -1  15   014093.46  878.37
   1  15   1  469.58  196.27
   1 -15   1  778.24  256.05
  -1 -15  -1  195.73  121.70
  -1  15  -1  266.96   64.78
  -1  15  -1  454.88  167.80
   1 -15   2 1380.23  262.15
   1  15   2 2029.75  350.72
  -1  15  -2 1679.09  244.63
   1 -15   310437.65  804.00
   1  15   310847.94  886.27
  -1 -15  -311290.86  666.31
  -1  15  -310730.72  741.85
   1 -15   4  215.88  240.47
   1 -15   4  421.61  124.25
   1  15   4 1098.39  203.20
  -1  15  -4  409.94  205.51
  -1 -15  -4  680.46  175.01
   1  15   5  630.38  202.06
   1 -15   5 1074.13  184.70
  -1 -15  -5  962.65  272.85
  -1  15  -5  574.92  188.59
   1  15   6 4790.60  477.21
   1 -15   6 4174.79  461.45
  -1  15  -6 4382.28  375.85
  -1 -15  -6 3853.60  570.55
   1 -15   7  237.07  176.88
   1  15   7 -133.24  178.17
  -1 -15  -7  192.46  226.85
  -1  15  -7   71.65  157.24
   1  15   8 3951.89  423.09
   1 -15   8 2216.88  384.07
  -1  15  -8 2143.55  232.89
  -1 -15  -8 3019.98  507.85
   1  15   9  675.03  274.25
   1 -15   9  393.88  240.51
  -1  15  -9  569.21  160.27
  -1 -15  -9  528.72  351.13
   1 -15  10  439.10  224.56
   1  15  10  305.06  261.52
  -1  15 -10  177.08  125.02
  -1 -15 -10  166.94  335.43
   1 -15  11 2969.54  434.07
   1  15  11 1994.91  595.93
  -1  15 -11 2934.37  290.59
  -1 -15 -11 4258.01  723.54
   1 -15  12  298.83  228.52
   1  15  12 1401.66  480.24
  -1 -15 -12  983.11  430.69
  -1  15 -12 1482.96  251.88
   1  15  13 1900.62  502.16
   1 -15  13  790.64  377.98
  -1 -15 -13  576.91  386.29
  -1  15 -13 2156.00  280.39
   1 -15  14  770.51  254.30
   1  15  14  569.38  435.11
  -1  15 -14  768.11  243.30
  -1 -15 -14  592.21  331.30
   1 -15  15 3176.06  553.53
   1  15  15 3153.53  829.16
  -1 -15 -15 1857.41  779.10
  -1  15 -15 3819.32  443.49
   1 -15  16  169.84  203.12
   1  15  16 -156.39  412.76
  -1 -15 -16   -8.00  375.92
  -1  15 -16  -20.02  191.39
   1 -15  17  -74.75  206.73
  -1 -15 -17  120.47  401.46
  -1  15 -17   87.41  170.90
   1 -15  18  134.25  262.18
  -1  15 -18  330.65  242.27
  -1 -15 -18   -9.76  312.68
   1 -15  19   41.84  278.92
  -1  15 -19  345.60  259.46
  -1 -15 -19  235.04  468.46
   1 -15  20 4087.10  651.40
  -1  15 -20 2980.66  416.40
  -1 -15 -20 2310.66  925.66
   1 -15  21 -213.96  386.06
  -1  15 -21  484.64  329.61
  -1 -15 -21 1859.46  592.67
   1 -15  22 1042.93  423.42
  -1  15 -22  445.01  344.39
  -1 -15 -22 -277.31  635.15
   1 -15  23  847.86  518.13
  -1 -15 -23  602.68  730.65
   1  16 -24  524.91  433.61
   1 -16 -24  -97.73  615.08
   1  16 -23  924.56  460.28
   1 -16 -23  414.99  666.21
  -1  16  23  379.52 1059.87
  -1 -16  23  433.64  776.12
   1 -16 -22  522.99  446.00
   1  16 -22  459.81  414.53
  -1  16  22  968.74  709.45
  -1 -16  22  913.69  539.13
   1 -16 -21  496.03  513.18
   1  16 -21  192.21  403.69
  -1  16  21 1120.28  814.40
  -1 -16  21  -59.38  547.72
   1  16 -20  824.20  420.28
   1 -16 -20 -101.23  541.44
  -1 -16  20  430.23  587.30
  -1  16  20 1840.19  860.99
   1  16 -19 1245.01  457.25
   1 -16 -19  650.39  568.47
  -1  16  19 2172.52  920.11
  -1 -16  19  841.68  468.92
   1  16 -18 1281.48  466.58
   1 -16 -18 1966.44  593.18
  -1 -16  18 1021.91  621.76
  -1  16  18 3145.00  962.53
   1 -16 -17 4586.05  913.00
   1  16 -17 5881.43  680.64
  -1 -16  17 7388.17 1034.81
  -1  16  17 7336.08 1545.43
   1  16 -16  360.29  354.72
   1 -16 -16  646.02  389.51
  -1 -16  16  281.91  302.02
  -1  16  16  368.61  639.15
   1  16 -15 1808.39  566.33
   1 -16 -15 1038.91  372.56
  -1  16  15 1044.43  842.46
  -1 -16  15 2889.09  509.43
   1  16 -14   61.58  316.88
   1 -16 -14  -37.93  278.28
  -1 -16  14  299.50  273.48
  -1  16  14 -146.25  355.53
   1 -16 -13  402.86  392.40
   1  16 -13  907.63  476.79
  -1 -16  13 1620.06  389.67
  -1  16  13 1289.15  658.75
   1 -16 -12  883.63  398.09
   1  16 -12 1117.16  533.65
  -1  16  12 1071.49  678.54
  -1 -16  12 1970.21  380.39
   1 -16 -11 5443.65  609.76
   1  16 -11 2871.34  740.17
  -1  16  11 3730.19  706.79
  -1 -16  11 3861.57  548.56
   1  16 -10  241.05  463.79
   1 -16 -10  625.50  226.70
  -1 -16  10  765.95  265.99
  -1  16  10 1493.81  521.39
   1  16  -9 3151.09  679.76
   1 -16  -9 1955.57  450.85
  -1 -16   9 3536.24  318.18
  -1  16   9 4082.82  754.97
   1  16  -8 4491.68  814.69
   1 -16  -8 5313.44  566.15
  -1  16   8 5284.44  907.49
  -1 -16   8 5155.29  506.24
   1  16  -710387.68 1152.68
   1 -16  -7 8675.38  769.16
  -1 -16   7 9391.23  707.55
  -1  16   7 9515.65 1177.60
   1 -16  -6  601.16  247.41
   1  16  -6  532.55  331.21
  -1  16   6  600.99  384.43
  -1 -16   6  468.50  199.90
   1 -16  -5  778.99  230.76
   1  16  -5 1062.56  423.57
  -1 -16   5 1378.73  234.79
  -1  16   5 1307.99  437.71
   1  16  -429542.27 2335.48
   1 -16  -429991.56 1861.04
  -1  16   426386.71 2321.18
  -1 -16   429947.98 1804.37
   1  16  -3  100.83  264.48
   1 -16  -3 -199.95  302.40
  -1 -16   3  224.17  135.83
  -1  16   3  -14.32  102.52
   1 -16  -214831.86 1296.30
   1  16  -213557.84 1227.66
  -1 -16   214311.78  846.50
  -1  16   214758.01  829.47
   1  16  -1  276.92  281.73
   1 -16  -1  283.67  191.00
  -1 -16   1  228.37  144.50
  -1  16   1  214.90  138.31
   1 -16   0 1991.18  384.35
   1  16   0 1916.61  436.52
  -1 -16   0 1680.03  243.64
  -1  16   0 1633.30  215.60
   1  16   1  -65.82  238.73
   1 -16   1  239.59  213.00
  -1 -16  -1  -56.65  117.64
  -1  16  -1   21.04   67.15
  -1  16  -1   53.24  110.30
   1  16   2  266.31  263.51
   1 -16   2  370.34  225.61
  -1  16  -2  136.88  103.17
  -1 -16  -2  212.62  141.29
  -1  16  -2  188.73  122.83
   1 -16   314995.29 1107.88
   1  16   318938.18 1376.98
  -1  16  -314716.31 1040.38
  -1 -16  -316214.68  990.30
   1 -16   4 1175.46  264.76
   1  16   4  744.84  302.27
  -1 -16  -4 1018.96  200.76
  -1  16  -4  802.16  180.55
   1  16   5  640.74  200.76
   1 -16   5 1223.35  247.84
  -1 -16  -5  465.74  266.55
  -1  16  -5  244.50  242.42
   1 -16   6  917.62  230.05
  -1  16  -6  104.78  165.98
   1  16   7   66.06  198.19
   1 -16   7  -69.93  131.45
  -1 -16  -7   90.29  242.33
  -1  16  -7  131.92  134.93
   1 -16   8  179.42  198.43
   1  16   8  -61.91  209.96
  -1  16  -8   66.74  138.00
  -1 -16  -8  322.39  255.48
   1  16   9 7246.74  748.26
   1 -16   9 6237.81  621.61
  -1 -16  -9 5735.10  829.35
  -1  16  -9 6383.94  455.92
   1 -16  10  774.67  194.68
   1  16  10  728.95  347.58
  -1 -16 -10  930.60  384.23
  -1  16 -10  185.91  143.93
   1 -16  11 2530.99  318.04
   1  16  11 2352.91  492.96
  -1 -16 -11 1900.70  618.23
   1  16  12 -180.33  283.06
   1 -16  12   12.83  224.54
  -1 -16 -12  647.61  362.49
  -1  16 -12  103.17  181.86
   1  16  13  453.16  406.60
   1 -16  13  331.87  236.72
  -1 -16 -13  660.57  316.81
  -1  16 -13 1536.01  272.25
   1  16  14 7898.84 1037.31
   1 -16  14 5511.12  735.75
  -1 -16 -14 4297.73  721.40
  -1  16 -14 7915.80  614.30
   1 -16  15  190.79  202.62
   1  16  15  193.47  382.40
  -1 -16 -15   95.34  284.03
  -1  16 -15  100.01  206.81
   1 -16  16  441.69  242.50
  -1 -16 -16  -38.18  434.97
  -1  16 -16   87.68  213.73
   1 -16  17 6499.01  925.68
  -1  16 -17 8448.62  715.98
  -1 -16 -17 4456.45  993.43
   1 -16  18  530.29  426.63
  -1 -16 -18  833.90  571.30
  -1  16 -18  463.06  293.89
   1 -16  19 1747.01  598.44
  -1  16 -19 2032.66  422.63
  -1 -16 -19 1603.54  793.02
   1 -16  20  431.71  392.69
  -1 -16 -20   22.00  387.18
  -1  16 -20  100.44  270.58
   1 -16  21   43.89  536.70
  -1 -16 -21  813.87  476.29
   1 -16  22 1865.90  733.74
  -1 -16 -22 1077.90  653.71
   1 -16  23  720.60  727.30
  -1 -16 -23  860.14  602.43
   1  17 -23 1462.56  554.30
   1 -17 -23  760.01  593.51
  -1 -17  23 1900.62  689.37
   1  17 -22  283.69  349.79
   1 -17 -22   78.83  536.01
  -1 -17  22  170.23  621.10
  -1  17  22  -13.61  846.35
   1  17 -21 1130.76  535.40
   1 -17 -21 1151.24  704.07
  -1 -17  21  919.62  734.07
  -1  17  21 2405.67 1109.79
   1  17 -20 2505.56  571.66
   1 -17 -20 1931.36  725.93
  -1 -17  20  875.09  579.93
  -1  17  20 1298.10 1175.27
   1  17 -1910263.32 1108.33
   1 -17 -19 5970.00 1351.22
  -1 -17  1910892.51 1532.99
  -1  17  1912252.69 1737.32
   1 -17 -18 1642.46  658.95
   1  17 -18 2003.15  504.71
  -1 -17  18 2054.98  672.49
  -1  17  18 1607.92 1084.42
   1 -17 -17  442.96  399.60
   1  17 -17  128.08  354.12
  -1 -17  17  195.00  304.58
  -1  17  17   31.73  652.36
   1  17 -16 1338.02  476.61
   1 -17 -16 1515.65  541.46
  -1  17  16 1279.08  652.27
  -1 -17  16 1313.58  567.95
   1  17 -15  753.51  455.71
   1 -17 -15  383.32  424.02
  -1 -17  15  978.98  404.79
  -1  17  15  283.29  677.91
   1  17 -14  912.25  466.20
   1 -17 -14  372.54  300.52
  -1 -17  14  961.21  378.79
  -1  17  14  563.37  641.50
   1  17 -13 1062.68  510.18
   1 -17 -13 1393.86  448.84
  -1 -17  13 1026.63  387.68
  -1  17  13 1051.49  717.32
   1 -17 -12  778.61  343.10
   1  17 -12  377.82  430.76
  -1  17  12  399.70  551.58
  -1 -17  12  466.32  313.67
   1 -17 -11   71.15  276.27
   1  17 -11  127.12  414.27
  -1 -17  11  209.95  261.40
  -1  17  11  703.72  345.49
   1  17 -10 1882.73  847.05
   1 -17 -10 5030.05  610.53
  -1  17  10 5385.81  941.31
  -1 -17  10 4466.05  535.13
   1  17  -9 9720.19 1163.04
   1 -17  -9 7912.01  863.52
  -1  17   9 9868.07 1310.15
  -1 -17   9 8487.44  739.63
   1  17  -8 2821.28  623.70
   1 -17  -8 1596.33  417.47
  -1 -17   8 2849.77  370.13
  -1  17   8 2875.19  676.38
   1  17  -723070.87 2025.97
   1 -17  -716183.53 1510.37
  -1 -17   720102.16 1359.50
  -1  17   722382.26 2138.25
   1  17  -6 4185.39  752.63
   1 -17  -6 3686.63  471.75
  -1 -17   6 4972.37  438.13
  -1  17   6 3624.31  575.78
   1  17  -512930.27 1280.24
   1 -17  -511743.22  866.67
  -1  17   513167.47 1268.06
  -1 -17   512141.73  829.22
   1  17  -4  329.58  336.64
   1 -17  -4  248.48  292.10
  -1 -17   4  508.73  184.10
  -1  17   4  358.51  174.78
   1  17  -3  356.27  269.12
   1 -17  -3 -200.91  308.87
  -1 -17   3  233.14  140.45
  -1  17   3  -48.30  121.39
   1 -17  -2 1810.94  489.02
   1  17  -2 1314.87  492.23
  -1 -17   2 2725.44  272.51
  -1  17   2 1960.85  264.80
   1  17  -124952.84 2089.97
   1 -17  -128456.85 2154.33
  -1 -17   126283.88 1574.52
  -1  17   124959.61 1557.06
   1 -17   013807.39 1208.37
   1  17   015047.57 1327.76
  -1 -17   013747.37  894.99
  -1  17   014471.87 1008.02
   1  17   1 5183.45  596.11
   1 -17   1 2998.78  466.20
  -1 -17  -1 3814.89  333.53
  -1  17  -1 2495.02  280.54
   1  17   2  184.83  265.82
   1 -17   2  216.62  219.58
  -1 -17  -2  133.20  124.37
  -1  17  -2   94.41  123.05
   1  17   3 1774.54  352.54
   1 -17   3 1129.51  305.48
  -1 -17  -3 1111.97  214.62
  -1  17  -3  970.13  210.38
   1 -17   4 1671.19  245.54
   1  17   4 1327.15  349.54
  -1  17  -4 1124.52  211.08
  -1 -17  -4 1052.70  267.21
   1  17   5 1822.61  381.09
   1 -17   5 2070.88  349.20
  -1 -17  -5 2843.71  307.70
  -1  17  -5 1286.50  261.81
   1 -17   6 2030.75  266.85
   1  17   6 2980.30  425.09
  -1 -17  -6 2212.18  371.53
  -1  17  -6 1004.78  248.44
   1  17   7 3070.61  380.94
   1 -17   7 2934.91  307.36
  -1  17  -7 1959.86  293.93
  -1 -17  -7 2082.71  496.99
   1 -17   810368.24  738.66
   1  17   811501.60  990.92
  -1  17  -811373.34  886.97
  -1 -17  -811696.40 1127.12
   1 -17   9 6024.28  495.45
   1  17   9 6394.37  698.78
  -1  17  -9 5457.81  425.99
  -1 -17  -9 4426.42  774.80
   1  17  10  296.21  279.25
   1 -17  10  303.89  164.19
  -1 -17 -10   60.22  322.22
  -1  17 -10   54.75  122.27
   1  17  11  250.44  280.68
   1 -17  11  222.21  219.50
  -1 -17 -11  196.47  348.15
  -1  17 -11  -29.54  127.48
   1 -17  12 1629.52  328.51
   1  17  12 3842.05  550.58
  -1 -17 -12  946.69  504.75
  -1  17 -12 3253.34  325.06
   1  17  13  610.02  369.18
   1 -17  13  428.97  300.84
  -1 -17 -13  -67.82  338.27
  -1  17 -13  552.39  209.18
   1  17  1412308.13 1618.52
   1 -17  1412266.30 1017.32
  -1 -17 -1412485.25 1701.57
  -1  17 -1415906.87 1043.87
   1 -17  15  310.38  278.43
  -1 -17 -15  259.61  290.18
  -1  17 -15  -15.51  204.93
   1 -17  16  498.06  355.47
  -1 -17 -16  329.29  347.67
  -1  17 -16  311.15  232.05
   1 -17  17 1835.00  413.82
  -1 -17 -17 1179.84  748.22
  -1  17 -17 2418.86  404.98
   1 -17  18  636.17  296.38
  -1  17 -18  505.97  245.86
  -1 -17 -18  333.42  414.73
   1 -17  19  368.43  280.08
  -1 -17 -19 -356.19  520.11
   1 -17  20 1156.48  401.30
  -1 -17 -20  805.27  750.32
   1 -17  21 2091.75  601.29
  -1 -17 -21 2455.03  964.44
   1 -17  22 1318.87  508.37
  -1 -17 -22  514.21  854.17
  -1 -17 -23  320.64  715.99
   1  18 -23  -27.92  386.60
   1 -18 -23 -159.96  591.84
  -1 -18  23 1287.41  683.14
   1  18 -22 1192.18  473.61
   1 -18 -22  717.29  721.74
  -1 -18  22  546.69  746.64
   1  18 -21  207.96  288.18
   1 -18 -21  170.51  525.49
  -1  18  21   68.40  844.65
  -1 -18  21  242.20  397.11
   1  18 -20 7032.35  837.56
   1 -18 -20 2911.25  789.63
  -1 -18  20 3517.03 1117.82
  -1  18  20 2858.65 1704.88
   1  18 -19  884.59  472.29
   1 -18 -19  883.15  485.98
  -1 -18  19 2407.24  640.43
  -1  18  19  938.42 1029.79
   1 -18 -18  685.68  522.04
   1  18 -18  299.84  356.11
  -1 -18  18  471.08  361.61
  -1  18  18  755.48  821.92
   1  18 -17  303.77  375.50
   1 -18 -17  181.09  447.57
  -1  18  17  291.50  678.64
  -1 -18  17  485.35  449.06
   1 -18 -1611045.22 1071.72
   1  18 -16 8511.32 1054.23
  -1  18  16 6121.46 1842.07
  -1 -18  16 9977.99 1209.37
   1  18 -15  157.08  402.70
   1 -18 -15  485.78  379.10
  -1 -18  15  266.00  264.09
  -1  18  15   82.16  608.06
   1  18 -14 4443.88  738.92
   1 -18 -14 2424.56  654.13
  -1 -18  14 2893.15  468.41
  -1  18  14 3191.98 1047.87
   1  18 -13 1655.96  519.58
   1 -18 -13 1138.85  461.26
  -1 -18  13 1044.52  302.22
  -1  18  13 1230.35  719.68
   1  18 -12  259.38  342.59
   1 -18 -12 -209.79  261.85
  -1 -18  12   74.44  173.79
  -1  18  12  101.02  435.25
   1  18 -11 -155.76  357.47
   1 -18 -11 -117.65  258.10
  -1 -18  11   17.19  169.26
  -1  18  11  119.64  406.47
   1  18 -10 2814.79  779.55
   1 -18 -10 2389.93  569.99
  -1 -18  10 3852.13  382.93
  -1  18  10 3922.81  898.93
   1  18  -9 3535.95  801.81
   1 -18  -9 3212.06  571.91
  -1 -18   9 4766.34  509.73
  -1  18   9 3629.08  646.19
   1  18  -827291.81 2492.97
   1 -18  -817420.27 1802.69
  -1 -18   827632.90 1826.60
  -1  18   828373.54 2704.38
   1  18  -716649.79 1803.87
   1 -18  -716749.22 1415.72
  -1 -18   718107.48 1246.47
  -1  18   715060.66 1389.82
   1  18  -6 1820.14  498.64
   1 -18  -6  666.01  253.81
  -1  18   6  986.83  462.95
  -1 -18   6 1305.01  265.25
   1  18  -5  476.11  337.77
   1 -18  -5   52.14  196.92
  -1 -18   5  355.28  184.54
  -1  18   5 -118.29  335.92
   1  18  -4 2220.91  507.55
   1 -18  -4 2825.38  697.13
  -1 -18   4 3016.78  339.56
  -1  18   4 2741.53  284.64
   1  18  -3 -314.54  278.20
   1 -18  -3  -73.01  283.51
  -1 -18   3   88.40  146.15
  -1  18   3  134.72  123.08
   1  18  -2    5.82  275.32
   1 -18  -2    9.52  252.18
  -1  18   2   58.49  138.91
  -1 -18   2   89.58  141.93
   1  18  -1 5764.82  725.45
   1 -18  -1 5296.45  545.80
  -1 -18   1 5261.75  436.19
  -1  18   1 3922.85  381.61
   1  18   0  553.52  345.73
   1 -18   0  410.95  315.88
  -1 -18   0  633.88  165.00
  -1  18   0  446.77  168.41
   1  18   1 1467.27  436.02
   1 -18   1 1687.13  377.65
  -1 -18  -1 1883.75  255.56
  -1  18  -1  489.36  284.79
   1  18   2  590.05  322.47
   1 -18   2  391.42  253.35
  -1 -18  -2  490.35  161.38
  -1  18  -2  324.06  204.40
   1  18   312136.29 1088.70
   1 -18   311125.00  934.75
  -1 -18  -311553.15  851.34
  -1  18  -3 9092.52  834.95
   1  18   4 3589.57  495.74
   1 -18   4 2627.84  419.43
  -1 -18  -4 1823.46  355.11
  -1  18  -4 1876.31  344.81
   1  18   5  481.83  304.20
   1 -18   5  864.50  254.30
  -1 -18  -5  117.19  208.25
  -1  18  -5  458.80  186.92
   1  18   610871.85  969.88
   1 -18   6 9839.39  694.16
  -1 -18  -6 7486.94  669.37
   1  18   7 6486.39  608.84
   1 -18   7 6555.92  511.26
  -1 -18  -7 5508.37  581.47
  -1  18  -7 5327.43  478.42
   1  18   8  966.75  337.98
   1 -18   8 1467.21  251.94
  -1 -18  -8 1934.66  459.81
  -1  18  -8 1059.18  309.87
   1  18   9  465.32  268.81
   1 -18   9  224.66  184.14
  -1 -18  -9  480.05  332.23
  -1  18  -9  287.43  153.07
   1  18  1015909.53 1446.71
   1 -18  1014145.65 1148.79
  -1 -18 -1011574.04 1434.84
  -1  18 -1014782.09  966.23
   1  18  11 2190.06  680.13
   1 -18  11 2570.46  481.88
  -1  18 -11 2837.51  281.19
  -1 -18 -11 3373.84  701.75
   1 -18  12  924.72  263.19
   1  18  12  849.25  519.63
  -1 -18 -12  563.25  395.92
  -1  18 -12 1301.87  277.84
   1 -18  13 1109.98  426.15
  -1 -18 -13  868.31  668.27
  -1  18 -13 2572.36  358.71
   1 -18  14  286.35  333.20
  -1 -18 -14  348.28  535.07
  -1  18 -14  682.69  213.24
   1 -18  15  100.25  222.08
  -1 -18 -15  188.07  505.72
  -1  18 -15  369.10  198.02
   1 -18  16 2544.22  477.03
  -1 -18 -16 1892.33  713.32
  -1  18 -16 3747.67  403.06
   1 -18  17  517.46  383.95
  -1 -18 -17  191.74  620.48
   1 -18  18  677.94  437.84
  -1 -18 -18 1073.18  640.23
   1 -18  19  247.22  447.59
  -1 -18 -19 1101.06  622.77
   1 -18  20 1610.98  531.83
  -1 -18 -20  229.49  557.49
   1 -18  21 1976.44  651.70
  -1 -18 -21  134.11  582.53
   1 -18  22  412.01  567.62
  -1 -18 -22  337.31  513.58
   1 -19 -22 1094.21  507.77
   1  19 -22  578.28  497.79
  -1 -19  22  133.49  507.53
   1  19 -21  277.34  416.18
   1 -19 -21  310.92  420.39
  -1 -19  21  329.02  597.48
   1  19 -20  392.31  392.32
   1 -19 -20  -96.62  398.39
  -1 -19  20  649.30  419.78
  -1  19  20  355.25  838.25
   1  19 -19  768.79  375.73
   1 -19 -19 1100.20  479.75
  -1 -19  19  581.95  600.64
  -1  19  19  684.51  963.75
   1 -19 -18 1183.44  580.60
   1  19 -18  590.99  402.80
  -1 -19  18  670.20  555.96
  -1  19  18 1038.75  895.17
   1  19 -17  -49.48  309.48
   1 -19 -17  124.72  382.52
  -1 -19  17   14.66  279.83
  -1  19  17  257.64  595.46
   1  19 -16    1.42  438.59
   1 -19 -16  260.37  319.80
  -1 -19  16  518.57  278.79
  -1  19  16  310.95  694.98
   1  19 -15  254.35  351.68
   1 -19 -15 -340.12  360.31
  -1 -19  15  219.61  322.77
  -1  19  15  226.06  544.79
   1  19 -14  498.07  413.84
   1 -19 -14  184.79  379.60
  -1 -19  14  394.19  340.72
  -1  19  14 -365.15  580.44
   1  19 -13 1526.07  435.37
   1 -19 -13  -51.39  420.27
  -1 -19  13  258.05  342.54
  -1  19  13  408.11  623.94
   1 -19 -12  572.76  387.40
   1  19 -12  389.84  463.46
  -1 -19  12  524.25  330.08
  -1  19  12  288.96  585.51
   1  19 -11  752.59  495.12
   1 -19 -11  485.44  353.85
  -1 -19  11  329.46  298.70
  -1  19  11  742.33  576.14
   1  19 -10 7629.72 1160.80
   1 -19 -10 5614.62  922.75
  -1 -19  10 8131.12  780.97
  -1  19  10 7662.04 1284.25
   1  19  -9 3744.98  777.07
   1 -19  -9 2192.84  580.47
  -1 -19   9 3278.44  472.92
  -1  19   9 3748.26  870.57
   1  19  -8 -119.66  381.06
   1 -19  -8  257.54  271.18
  -1  19   8  229.50  398.67
  -1 -19   8  157.87  162.43
   1  19  -7 8472.33 1226.13
   1 -19  -7 8926.18  926.38
  -1 -19   7 9123.31  763.61
  -1  19   7 6226.19 1111.85
   1  19  -6 9329.56 1084.55
   1 -19  -6 5116.17  564.84
  -1 -19   6 9306.82  681.05
  -1  19   6 7055.65 1012.11
   1  19  -5 8218.84 1071.55
   1 -19  -5 7678.57 1211.44
  -1 -19   5 7784.36  659.05
  -1  19   5 8285.44  700.52
   1 -19  -411673.02 1380.06
   1  19  -4 8861.72 1113.07
  -1 -19   4 9329.45  737.19
   1  19  -3 7288.10  848.77
   1 -19  -3 7469.02  966.31
  -1 -19   3 7672.97  582.79
  -1  19   3 6361.97  531.68
   1  19  -213520.71 1346.70
   1 -19  -211252.35 1224.27
  -1 -19   211284.59  783.09
  -1  19   210357.45  877.20
   1  19  -1  376.60  297.19
   1 -19  -1  -43.11  250.23
  -1 -19   1   12.63  151.48
  -1  19   1    1.89  141.24
   1  19   0 2347.38  636.03
   1 -19   0 3274.80  442.62
  -1 -19   0 3921.95  379.83
  -1  19   0 2377.95  322.28
   1  19   1  -17.40  295.80
   1 -19   1  190.95  228.41
  -1 -19  -1  -84.64  154.37
  -1  19  -1  168.15  184.00
   1  19   2  498.24  402.42
   1 -19   2  828.79  221.19
  -1 -19  -2  937.65  221.48
  -1  19  -2  438.76  246.85
   1  19   3   40.15  309.94
   1 -19   3  531.01  239.93
  -1 -19  -3  103.90  150.17
  -1  19  -3   60.38  216.87
   1  19   4 4704.06  665.84
   1 -19   4 3945.34  527.27
  -1 -19  -4 3674.75  446.87
   1  19   5 2307.20  486.42
   1 -19   5 2205.26  297.84
  -1 -19  -5 2063.44  326.17
  -1  19  -5 1715.78  300.39
   1  19   6 2101.59  497.21
   1 -19   6 2158.69  297.92
  -1 -19  -6 1345.03  331.94
  -1  19  -6 1428.70  306.04
   1  19   7  235.69  310.01
   1 -19   7  342.29  188.35
  -1  19  -7  327.68  176.12
  -1 -19  -7  583.45  330.83
   1 -19   8 2629.24  342.07
  -1  19  -8 2561.95  406.21
   1  19   9 8219.76  842.77
   1 -19   9 8331.90  643.88
  -1 -19  -9 7084.90  776.06
  -1  19  -9 6592.07  533.12
   1  19  10  568.09  368.69
   1 -19  10  660.34  280.60
  -1  19 -10  287.34  181.55
   1  19  11  575.11  354.07
   1 -19  11  344.98  207.30
  -1 -19 -11 1039.70  402.11
  -1  19 -11  172.88  159.39
   1 -19  12 1269.52  439.97
  -1 -19 -12 2004.69  625.78
  -1  19 -12 2056.39  294.71
   1 -19  13  241.18  213.03
  -1 -19 -13  699.79  441.23
  -1  19 -13  147.04  222.26
   1 -19  14 2601.99  504.46
  -1 -19 -14 1254.55  798.85
   1 -19  15 2460.72  521.07
  -1 -19 -15 1480.16  850.47
   1 -19  16 1766.22  360.89
  -1 -19 -16  575.06  790.47
   1 -19  17  581.23  275.87
  -1 -19 -17 -213.41  452.68
   1 -19  18  446.61  298.65
  -1 -19 -18 1025.00  705.87
   1 -19  19  654.22  318.88
  -1 -19 -19 -272.13  516.34
   1 -19  20 -153.13  270.20
  -1 -19 -20 1207.06  627.42
   1 -19  21  459.25  346.70
  -1 -19 -21  -17.93  805.86
  -1 -19 -22 2895.73 1407.29
   1 -20 -22  553.19  752.64
  -1 -20  22  928.53  751.16
   1  20 -21 2190.06  632.52
   1 -20 -21 2074.74  887.85
  -1 -20  21 1229.76  671.17
   1  20 -20   42.70  371.33
   1 -20 -20  393.97  521.45
  -1 -20  20  108.48  526.09
   1  20 -19  994.99  482.28
   1 -20 -19  922.27  515.18
  -1 -20  19 1857.43  669.52
  -1  20  19 1330.85 1099.41
   1  20 -18  821.96  425.97
   1 -20 -18  805.24  616.93
  -1 -20  18 1165.47  442.88
  -1  20  18  865.91  985.97
   1 -20 -17 1804.14  682.45
   1  20 -17 1085.07  556.24
  -1 -20  17 1257.63  708.64
  -1  20  17 4539.81 1077.13
   1  20 -16 2532.78  800.12
   1 -20 -16 2841.13  859.74
  -1  20  16 4570.80 1223.94
  -1 -20  16 3356.36  754.86
   1 -20 -15 1091.37  496.83
   1  20 -15 1594.03  622.77
  -1 -20  15 2471.11  429.10
  -1  20  15 2380.38  987.79
   1  20 -14 1663.53  572.89
   1 -20 -14  216.51  540.97
  -1 -20  14 1427.72  361.70
  -1  20  14 1537.58  816.44
   1  20 -13 1839.10  483.70
   1 -20 -13  436.42  454.73
  -1 -20  13  710.40  389.40
  -1  20  13  109.38  503.72
   1  20 -12  797.72  542.24
   1 -20 -12 1229.47  453.96
  -1 -20  12  884.64  389.13
  -1  20  12  742.79  500.12
   1  20 -11 3171.61  835.58
   1 -20 -11 3512.81  540.63
  -1 -20  11 2480.54  522.18
  -1  20  11 3735.20  944.07
   1  20 -10  416.96  469.39
   1 -20 -10  209.57  385.01
  -1 -20  10  411.74  217.83
  -1  20  10  660.29  549.15
   1  20  -9 3057.10  732.65
   1 -20  -9 1765.03  554.59
  -1 -20   9 2567.64  337.40
  -1  20   9 2653.24  784.27
   1  20  -8 6943.66  914.77
   1 -20  -8 4301.63  734.11
  -1 -20   8 6203.81  638.39
  -1  20   8 3076.14 1001.79
   1  20  -7 3408.49  881.12
   1 -20  -7 3689.08  504.63
  -1 -20   7 4182.19  505.97
  -1  20   7 2910.44  808.16
   1  20  -6  260.58  413.38
   1 -20  -6    4.13  212.19
  -1 -20   6  601.39  228.15
   1  20  -5 1502.43  535.68
   1 -20  -5 1627.24  645.82
  -1 -20   5 1394.74  300.21
  -1  20   5 1015.50  286.87
   1  20  -4 1953.21  563.83
   1 -20  -4 1959.92  567.92
  -1 -20   4 2101.34  330.84
  -1  20   4 1228.30  309.95
   1  20  -3  551.79  399.19
   1 -20  -3  400.64  399.70
  -1 -20   3  387.37  216.41
  -1  20   3  438.64  222.63
   1  20  -2 2353.76  602.11
   1 -20  -2 3318.60  560.87
  -1 -20   2 1874.29  311.37
  -1  20   2 1763.80  311.95
   1  20  -1  140.56  379.59
   1 -20  -1  707.70  338.18
  -1 -20   1  466.50  206.00
  -1  20   1  159.16  188.47
   1  20   0 2674.34  592.52
  -1 -20   0 1944.46  342.90
  -1  20   0 1979.24  298.01
   1  20   1 3040.91  564.15
   1 -20   1 1775.46  439.05
  -1 -20  -1 2180.99  325.55
  -1  20  -1 1074.68  274.84
   1  20   2  320.87  455.73
   1 -20   2 1255.41  244.19
  -1 -20  -2  793.22  253.97
  -1  20  -2  815.82  216.29
   1 -20   3  309.97  237.21
   1  20   3 -265.06  298.61
  -1 -20  -3   46.00  175.36
  -1  20  -3   55.38  217.36
   1  20   4 5819.53  759.99
   1 -20   4 4864.83  633.47
  -1 -20  -4 5058.57  561.40
  -1  20  -4 3617.14  516.38
   1  20   5 5538.38  817.75
   1 -20   5 4955.46  605.11
  -1 -20  -5 4739.57  579.74
  -1  20  -5 4283.65  461.57
   1  20   6 2589.87  455.42
   1 -20   6 3229.17  482.97
  -1 -20  -6 2820.04  397.00
  -1  20  -6 1605.45  448.41
   1  20   7 7555.05  888.11
   1 -20   7 7138.50  720.11
  -1 -20  -7 6988.29  652.27
  -1  20  -7 5166.14  531.88
   1 -20   8 2345.05  357.93
   1  20   8 3151.03  593.11
  -1 -20  -8 2707.20  627.13
   1  20   9 5824.59  688.68
   1 -20   9 3041.08  418.76
  -1  20  -9 3156.46  547.58
  -1 -20  -9 2898.40  558.05
   1  20  10 -123.53  334.13
   1 -20  10  784.90  308.77
  -1 -20 -10  579.72  328.64
  -1  20 -10  594.19  196.97
   1 -20  11  795.62  262.62
  -1 -20 -11  851.66  350.28
   1 -20  12 2101.43  479.03
  -1 -20 -12 2329.56  672.61
   1 -20  13 1032.32  394.34
  -1 -20 -13 1039.24  589.86
   1 -20  14 3933.72  504.76
  -1 -20 -14 3337.87  700.38
   1 -20  1510255.67 1021.94
  -1 -20 -15 4703.24  977.44
   1 -20  16  653.01  352.92
  -1 -20 -16 -207.28  619.20
   1 -20  17 -439.24  356.95
  -1 -20 -17  318.41  607.95
   1 -20  18 1304.28  533.06
  -1 -20 -18 1631.92  672.67
   1 -20  19  291.75  379.84
  -1 -20 -19 -415.08  625.46
   1 -20  20  755.05  550.65
  -1 -20 -20 1548.56  928.90
   1 -20  21  957.76  553.16
  -1 -20 -21  475.52  692.81
   1 -21 -21 1482.68  840.42
  -1 -21  21  456.95  766.65
   1 -21 -20  741.26  623.26
  -1 -21  20    9.84  427.46
   1  21 -19  190.02  429.06
   1 -21 -19 1201.54  503.55
  -1 -21  19  859.19  599.34
   1 -21 -18  860.46  623.17
  -1 -21  18 -122.39  561.17
  -1  21  18 1918.05  899.34
   1  21 -17  195.13  349.01
   1 -21 -17 -317.78  468.18
  -1 -21  17  105.05  319.21
  -1  21  17  980.58  690.60
   1  21 -16  503.12  508.59
   1 -21 -16  733.87  554.32
  -1 -21  16  343.84  449.60
  -1  21  16 1464.24  823.04
   1  21 -15  100.23  434.51
   1 -21 -15  939.37  476.12
  -1 -21  15  322.55  402.15
  -1  21  15   23.26  693.89
   1  21 -14 -482.19  352.65
   1 -21 -14  648.17  356.49
  -1 -21  14  -90.80  289.57
  -1  21  14  170.31  531.44
   1  21 -13  954.61  488.09
   1 -21 -13  973.70  544.18
  -1 -21  13  499.96  289.50
  -1  21  13  523.66  710.45
   1  21 -12  100.05  390.55
   1 -21 -12 -576.09  376.67
  -1 -21  12   31.09  209.04
  -1  21  12 1403.90  508.57
   1  21 -11 1026.12  607.97
   1 -21 -11  982.76  517.71
  -1 -21  11  805.93  284.90
  -1  21  11 2100.69  703.81
   1  21 -10 2642.59  738.11
   1 -21 -10 2535.00  620.89
  -1 -21  10 1742.46  467.09
  -1  21  10 1851.48  818.67
   1  21  -9 8467.47 1324.30
   1 -21  -9 8412.20 1100.94
  -1 -21   9 9171.71  907.31
  -1  21   9 8669.73 1439.34
   1  21  -8  554.49  433.00
   1 -21  -8  258.93  346.53
  -1 -21   8  807.24  311.70
  -1  21   8  487.26  511.27
   1  21  -720980.98 2333.25
   1 -21  -718107.62 1657.99
  -1 -21   721839.40 1650.19
   1  21  -6  268.06  481.11
   1 -21  -6 1399.12  564.32
  -1 -21   6  420.66  262.33
  -1  21   6  389.01  265.54
   1  21  -5  456.37  383.74
   1 -21  -5  402.14  445.21
  -1 -21   5  425.70  244.96
  -1  21   5  396.12  225.94
   1  21  -411536.86 1366.77
   1 -21  -411229.59 1433.56
  -1 -21   410357.96  874.61
  -1  21   410167.03  856.55
   1  21  -314810.80 1643.23
   1 -21  -315722.12 1665.13
  -1 -21   314364.16 1084.01
  -1  21   313885.14 1173.85
   1  21  -2  179.91  371.53
   1 -21  -2 -325.66  324.53
  -1 -21   2 -103.18  182.26
  -1  21   2 -117.50  181.46
   1  21  -1 4230.02  827.62
   1 -21  -1 4485.40  541.36
  -1 -21   1 4915.20  470.50
  -1  21   1 2546.68  420.80
   1  21   0  202.41  411.64
   1 -21   0   -6.19  317.38
  -1 -21   0  249.15  182.50
  -1  21   0  561.20  200.48
   1  21   1 7085.73  938.43
   1 -21   1 6769.80  752.99
  -1 -21  -1 5782.53  568.41
  -1  21  -1 4149.09  471.61
   1  21   2 1929.90  563.76
   1 -21   2 2055.21  415.42
  -1 -21  -2 1942.73  273.18
  -1  21  -2  891.96  265.09
   1  21   3 4826.04  966.95
   1 -21   3 6246.49  596.70
  -1 -21  -3 6465.52  641.32
  -1  21  -3 5780.30  583.31
   1  21   4 -203.77  316.15
   1 -21   4 -180.78  172.66
  -1 -21  -4 -164.24  181.34
  -1  21  -4  451.84  206.20
   1  21   5 9034.83 1019.13
   1 -21   5 6728.35  602.99
  -1 -21  -5 5310.75  684.66
  -1  21  -5 5278.96  679.75
   1  21   6 1180.32  399.30
   1 -21   6  580.82  323.82
  -1 -21  -6  871.78  311.98
  -1  21  -6  125.47  235.86
   1  21   7 1592.90  409.19
   1 -21   7 2572.53  395.90
  -1 -21  -7 1786.33  371.55
  -1  21  -7  739.34  281.20
   1  21   8   41.85  355.23
   1 -21   8  127.42  284.57
  -1 -21  -8  577.69  269.65
   1  21   9 1201.28  401.12
   1 -21   9 1309.18  311.29
  -1 -21  -9 2321.57  566.69
   1 -21  10 2079.17  444.69
  -1 -21 -10 1079.90  599.54
   1 -21  11  191.50  205.74
  -1 -21 -11  278.00  284.79
   1 -21  12  688.56  354.77
  -1 -21 -12  357.17  487.19
   1 -21  13  656.67  358.63
  -1 -21 -13  633.30  392.65
   1 -21  14  241.95  259.45
  -1 -21 -14 1331.34  544.71
   1 -21  15 1074.73  337.59
  -1 -21 -15 1698.61  712.65
   1 -21  16 1219.11  445.43
  -1 -21 -16  746.20  523.17
   1 -21  17  -85.42  365.65
  -1 -21 -17 1116.12  601.09
   1 -21  18  548.75  415.10
  -1 -21 -18   35.25  712.60
   1 -21  19 1643.32  623.68
  -1 -21 -19 1449.05 1018.78
   1 -21  20  719.18  526.29
  -1 -21 -20  541.44  645.27
  -1 -21 -21 -487.74  888.44
   1 -22 -21  611.39  806.74
   1 -22 -20  719.65  820.85
  -1 -22  20 1104.33  710.55
   1 -22 -19  -64.29  477.53
  -1 -22  19  814.16  421.44
   1 -22 -18  785.41  573.19
  -1 -22  18 -126.46  520.53
   1  22 -17  676.32  513.54
   1 -22 -17  717.37  691.50
  -1 -22  17 1688.31  565.69
  -1  22  17 1622.65 1008.44
   1  22 -16 1695.46  742.10
   1 -22 -16  801.90  786.04
  -1 -22  16 2494.24  499.37
  -1  22  16 3860.49 1170.90
   1  22 -15  673.19  506.83
   1 -22 -15  850.48  642.93
  -1 -22  15  578.98  467.53
  -1  22  15  713.51  825.60
   1  22 -14  622.00  459.19
   1 -22 -14 -533.64  529.46
  -1 -22  14  510.13  380.23
  -1  22  14  566.79  678.27
   1  22 -13 1703.37  557.73
   1 -22 -13 2547.28  737.39
  -1 -22  13 1534.41  544.71
  -1  22  13 2692.53  956.69
   1  22 -12 -202.23  435.45
   1 -22 -12 1035.57  437.84
  -1 -22  12 -101.16  320.12
  -1  22  12  360.13  582.36
   1  22 -11  406.78  411.52
   1 -22 -11  104.87  396.22
  -1 -22  11  142.49  300.73
  -1  22  11  365.25  553.42
   1  22 -10 5506.06 1105.88
   1 -22 -10 5088.95  859.35
  -1 -22  10 6836.03  771.02
  -1  22  10 4732.62 1252.76
   1  22  -912921.43 1626.49
   1 -22  -9 7936.29 1215.03
  -1 -22   913279.26 1134.67
  -1  22   910387.25 1214.48
   1  22  -8 1393.08  568.21
   1 -22  -8  974.90  443.99
  -1 -22   8 2029.39  407.45
  -1  22   8  681.33  634.73
   1  22  -7 6157.18 1186.15
   1 -22  -7 6185.25 1349.36
  -1 -22   7 5687.24  701.36
  -1  22   7 5724.89  729.49
   1  22  -613294.79 1708.79
   1 -22  -617477.46 2370.26
  -1 -22   619111.05 1464.63
  -1  22   619355.63 1619.80
   1  22  -5 9300.50 1303.99
   1 -22  -5 9398.94 1359.25
  -1 -22   5 9203.57  832.37
  -1  22   5 7618.50  762.27
   1  22  -414895.73 1632.19
   1 -22  -415649.05 1747.40
  -1 -22   413602.30 1101.46
  -1  22   412314.96 1187.66
   1  22  -3 3712.46  691.49
   1 -22  -3 3186.25  695.94
  -1 -22   3 2233.82  403.45
  -1  22   3 1831.72  401.13
   1  22  -2 1743.16  656.04
   1 -22  -2 1899.03  561.24
  -1 -22   2 2324.83  312.18
  -1  22   2  640.21  337.19
   1  22  -1    0.62  377.40
   1 -22  -1  156.64  332.56
  -1 -22   1  159.16  174.29
  -1  22   1   61.54  194.83
   1  22   0   39.50  394.49
   1 -22   0  398.71  317.09
  -1 -22   0  167.30  179.50
  -1  22   0  110.52  212.73
   1  22   1 1358.61  500.20
   1 -22   1  634.04  353.44
  -1 -22  -1  739.11  279.59
  -1  22  -1  503.95  249.08
   1  22   2  622.60  436.09
   1 -22   2  860.19  361.92
  -1 -22  -2  473.68  271.85
  -1  22  -2 1111.09  345.21
   1  22   3  782.95  566.73
   1 -22   3  838.28  412.04
  -1 -22  -3 1569.02  299.74
  -1  22  -3  866.58  291.26
   1  22   4  587.28  470.30
   1 -22   4  835.09  365.89
  -1 -22  -4  337.29  237.66
  -1  22  -4  694.06  234.10
   1  22   510467.31 1258.32
   1 -22   5 8228.82  940.70
  -1 -22  -5 8957.14  959.68
   1  22   6 1667.91  611.81
   1 -22   6 2011.77  437.48
  -1 -22  -6 1788.59  414.84
   1 -22   7 2000.30  333.70
   1  22   7 1586.41  592.07
  -1 -22  -7 2001.73  411.47
   1  22   8 1337.10  636.60
   1 -22   8 2107.50  452.47
  -1 -22  -8 1727.46  428.21
   1  22   9 -274.48  351.61
   1 -22   9  132.06  199.10
  -1 -22  -9  652.11  375.89
   1  22  10 -106.21  271.86
   1 -22  10  383.07  275.47
   1 -22  11 2468.80  418.19
  -1 -22 -11 2265.70  746.38
   1 -22  12  225.05  288.87
  -1 -22 -12  -99.46  396.38
   1 -22  13 1009.84  406.61
  -1 -22 -13  738.79  593.73
   1 -22  14 1251.47  493.23
  -1 -22 -14 2524.98  758.27
   1 -22  15 2894.08  458.42
  -1 -22 -15 2502.26  939.12
   1 -22  16 3156.83  465.43
  -1 -22 -16  346.07  952.31
   1 -22  17 1474.35  393.54
  -1 -22 -17  743.74  614.30
   1 -22  18 1442.59  415.27
  -1 -22 -18  940.21  905.42
   1 -22  19  779.11  385.79
  -1 -22 -19  160.09  814.56
  -1 -22 -20 1417.63 1052.17
   1 -23 -20  219.80  820.43
  -1 -23  20 1264.60  696.80
   1 -23 -19  356.45  675.08
   1 -23 -19  527.04  577.30
  -1 -23  19  303.89  589.58
   1 -23 -18  401.79  663.07
  -1 -23  18  101.14  366.33
   1 -23 -17  318.81  562.02
  -1 -23  17 1041.00  531.91
   1 -23 -16  734.47  618.57
  -1 -23  16   78.10  444.81
   1  23 -15  242.84  450.55
   1 -23 -15  504.65  595.11
  -1 -23  15  270.82  315.52
  -1  23  15  690.42  751.20
   1  23 -14  260.57  455.09
   1 -23 -14  466.90  533.32
  -1 -23  14  162.47  373.71
  -1  23  14  177.85  682.38
   1  23 -13  238.35  396.68
   1 -23 -13  625.71  521.80
  -1 -23  13  246.13  395.61
  -1  23  13 1328.36  711.51
   1 -23 -12 1530.13  706.06
   1  23 -12 1509.30  741.38
  -1 -23  12 2470.13  580.21
  -1  23  12 2946.50  951.14
   1  23 -11  617.11  423.50
   1 -23 -11  191.45  423.02
  -1 -23  11  130.61  309.35
  -1  23  11 -283.24  558.46
   1  23 -10 3021.14  919.08
   1 -23 -10 2845.44  741.73
  -1 -23  10 4031.72  627.68
  -1  23  10 2664.86  976.72
   1 -23  -9 6228.94  823.15
   1  23  -9 4728.32 1157.72
  -1 -23   9 7645.97  815.40
  -1  23   9 2793.06 1175.09
   1  23  -811292.84 1573.32
   1 -23  -811911.40 1504.68
  -1 -23   810738.92 1045.18
  -1  23   8 7282.94 1026.84
   1  23  -7 1057.50  511.16
   1 -23  -7  685.18  703.86
  -1  23   7  191.56  331.68
  -1 -23   7  999.16  345.22
   1  23  -6 4666.96 1258.80
   1 -23  -6 8973.00 1389.72
  -1 -23   6 8866.20  847.97
  -1  23   6 6942.97  768.94
   1  23  -511645.05 1489.92
   1 -23  -513527.74 1419.20
  -1 -23   512584.37 1094.50
  -1  23   510750.37 1171.36
   1  23  -4   24.48  364.04
   1 -23  -4 -159.97  357.94
  -1 -23   4  191.02  219.96
  -1  23   4  -55.94  209.85
   1  23  -3  606.34  487.42
   1 -23  -3  786.41  485.78
  -1 -23   3  479.99  285.32
  -1  23   3  590.45  333.77
   1  23  -2 1250.24  472.28
   1 -23  -2  371.91  469.83
  -1 -23   2 1171.51  284.79
  -1  23   2  243.47  291.24
   1  23  -1 1069.29  440.67
   1 -23  -1  348.52  355.54
  -1 -23   1  164.67  241.66
  -1  23   1  267.72  234.32
  -1  23   1  102.14  243.52
   1  23   0  498.84  454.50
   1 -23   0  202.42  383.03
  -1 -23   0  594.93  254.86
  -1  23   0  173.65  255.17
   1  23   1 2205.00  594.74
   1 -23   1 1661.08  410.47
  -1 -23  -1  719.65  319.54
  -1  23  -1  273.74  275.96
   1  23   2 2848.93  876.55
   1 -23   2 4005.51  641.03
  -1 -23  -2 3237.63  508.80
   1  23   3  578.49  481.24
   1 -23   3  315.85  354.33
  -1 -23  -3  352.08  252.85
   1  23   4 3526.39 1071.35
   1 -23   4 7073.23  845.23
  -1 -23  -4 6643.58  663.55
   1  23   5 -219.67  385.55
   1 -23   5   37.27  192.45
  -1 -23  -5  142.31  222.46
   1  23   6  158.93  392.27
   1 -23   6  173.28  285.44
  -1 -23  -6  197.18  239.87
   1  23   7 2723.56  772.90
   1 -23   7 2721.91  571.61
  -1 -23  -7 3972.42  651.79
   1  23   8 4424.08  973.76
   1 -23   8 6172.41  794.05
  -1 -23  -8 6205.85  855.84
   1  23   9  282.19  432.83
   1 -23   9  601.54  350.72
   1  23  10 1596.50  593.09
   1 -23  10 1262.71  452.14
   1  23  11  558.68  334.79
   1 -23  11  101.44  232.74
   1 -23  12 1212.50  452.93
  -1 -23 -12  993.81  472.94
   1 -23  13  648.45  376.85
  -1 -23 -13  397.87  546.42
   1 -23  14  228.90  338.99
  -1 -23 -14  203.53  491.35
   1 -23  15  198.96  248.55
  -1 -23 -15  111.86  534.30
   1 -23  16 1509.24  393.70
  -1 -23 -16 1755.56  849.52
   1 -23  17  286.98  297.31
  -1 -23 -17  537.18  655.03
   1 -23  18 1182.58  420.19
  -1 -23 -18 1860.24  696.07
   1 -23  19 1101.68  422.19
  -1 -23 -19 1688.38  962.56
   1 -24 -19  479.72  629.64
  -1 -24  19  590.16  647.45
   1 -24 -18 1837.25  955.25
  -1 -24  18  859.38  527.89
   1 -24 -17  702.55  789.00
  -1 -24  17  630.50  544.14
   1 -24 -16  843.07  635.13
  -1 -24  16 1689.63  621.28
   1 -24 -15  719.63  641.13
  -1 -24  15  360.56  346.68
   1 -24 -14 1621.36  578.12
  -1 -24  14 1384.51  435.76
  -1  24  14 2157.09 1001.50
   1  24 -13  560.81  497.28
   1 -24 -13  833.00  547.97
  -1 -24  13  115.42  421.93
  -1  24  13  910.58  719.95
   1  24 -12  611.40  636.10
   1 -24 -12 1075.06  514.43
  -1 -24  12  849.12  471.43
  -1  24  12 1207.24  794.99
   1  24 -11  705.64  585.27
   1 -24 -11  496.01  468.91
  -1 -24  11    7.91  366.36
  -1  24  11 1383.83  617.65
   1  24 -10 -158.04  526.38
   1 -24 -10  247.14  342.73
  -1 -24  10  164.94  336.45
  -1  24  10 1374.98  553.49
   1  24  -9 4422.23 1164.57
   1 -24  -9 4298.99 1066.46
  -1 -24   9 6457.15  782.99
  -1  24   9 4171.11  633.15
   1  24  -8 2244.78  784.94
   1 -24  -8 2260.48  934.48
  -1  24   8 1043.00  471.89
  -1 -24   8 1922.43  480.11
   1  24  -7  135.10  585.76
   1 -24  -7  840.26  595.06
  -1 -24   7  436.08  342.36
  -1  24   7  746.04  321.30
   1 -24  -6 4955.51 1180.74
  -1 -24   6 6002.24  562.32
  -1  24   6 3843.96  767.36
   1  24  -5 2697.65  949.09
   1 -24  -5 6247.57  959.04
  -1 -24   5 4142.97  590.84
  -1  24   5 2500.24  535.61
   1  24  -4 1278.46  575.48
   1 -24  -4 2300.76  666.43
  -1 -24   4 1427.42  392.71
  -1  24   4 1235.35  447.44
   1  24  -3 1308.28  457.09
   1 -24  -3  177.49  432.89
  -1 -24   3  228.71  262.42
  -1  24   3  -42.55  264.75
   1 -24  -2  -63.03  443.67
  -1 -24   2  534.83  254.06
  -1  24   2  240.73  273.17
   1  24  -1 3534.64  837.10
   1 -24  -1 1057.77  481.87
  -1 -24   1 3296.54  431.38
   1  24   0  378.75  488.52
   1 -24   0  200.77  401.30
  -1 -24   0  352.19  255.30
   1  24   1 1542.21  647.66
   1 -24   1 2694.45  551.03
  -1 -24  -1 1955.65  457.79
   1  24   2  397.87  407.30
   1 -24   2  548.09  352.32
  -1 -24  -2   93.70  261.05
   1  24   3  472.92  554.32
   1 -24   3 1256.32  410.13
  -1 -24  -3  406.77  309.51
   1  24   4  731.65  575.10
   1 -24   4  475.44  285.06
  -1 -24  -4  728.19  299.85
   1  24   5 4417.71 1000.28
   1 -24   5 5107.30  740.07
  -1 -24  -5 3133.68  659.32
   1  24   612514.04 1422.30
   1 -24   6 6812.02  719.90
  -1 -24  -6 8904.09  939.81
   1 -24   7  476.96  408.86
   1  24   7 1874.00  569.94
   1  24   8 1199.26  519.74
   1 -24   8  562.13  294.02
   1  24   9  619.66  505.29
   1 -24   9  323.20  363.86
   1  24  10  925.25  437.69
   1 -24  10   21.48  241.23
   1 -24  11  126.35  259.88
   1  24  11 1315.06  496.35
   1 -24  12    5.15  350.38
   1  24  12  604.11  369.51
   1 -24  13 -208.62  343.01
   1 -24  14  950.24  412.30
  -1 -24 -14  196.47  450.72
   1 -24  15 1405.60  419.94
  -1 -24 -15 2528.26  630.42
   1 -24  16 1548.12  427.40
  -1 -24 -16 2626.76  691.18
   1 -24  17  188.13  312.60
  -1 -24 -17  530.14  483.79
   1 -24  18 2331.19  513.21
  -1 -24 -18 1276.13 1087.83
   1 -25 -18 1193.28  844.17
  -1 -25  18  138.90  637.90
   1 -25 -17 1273.75  758.37
  -1 -25  17  310.16  391.47
   1 -25 -16  769.66  548.79
  -1 -25  16  644.43  559.26
   1 -25 -15  882.00  753.21
  -1 -25  15  974.67  589.19
   1 -25 -14  -43.59  453.92
  -1 -25  14   -1.97  249.68
   1 -25 -13 1110.25  589.24
  -1 -25  13  140.85  452.11
  -1  25  13  736.30  767.31
   1 -25 -12 1130.68  564.28
  -1 -25  12  362.07  485.31
  -1  25  12 1385.26  761.99
   1 -25 -11  800.09  500.23
  -1 -25  11  628.67  428.84
  -1  25  11  555.34  689.94
   1  25 -10  412.70  616.27
   1 -25 -10  422.26  604.65
  -1 -25  10  726.35  405.64
  -1  25  10  611.07  339.37
   1  25  -9  -69.66  481.21
   1 -25  -9  349.48  632.18
  -1 -25   9  194.64  308.42
  -1  25   9   22.72  319.74
   1 -25  -8 3916.00 1126.40
   1  25  -8 3776.18 1100.88
  -1  25   8 4037.42  735.00
  -1 -25   8 4554.19  741.44
   1 -25  -7  561.00  632.70
   1  25  -7  724.87  662.09
  -1 -25   7  779.99  383.44
  -1  25   7  551.23  395.71
   1  25  -6 3403.64 1274.63
  -1  25   6 5673.12  822.66
  -1 -25   6 7354.82  809.49
   1  25  -5  388.92  579.90
   1 -25  -5  444.17  548.23
  -1 -25   5  346.83  331.20
  -1  25   5  855.93  395.73
   1  25  -4  -39.83  421.60
   1 -25  -4  -80.01  380.87
  -1 -25   4  101.14  243.21
   1  25  -3 -152.96  393.87
   1 -25  -3  221.98  355.44
  -1 -25   3  -28.47  220.47
   1  25  -2 1565.93  544.37
   1 -25  -2 1506.87  532.83
  -1 -25   2  541.90  334.50
   1  25  -1 1883.41  847.76
   1 -25  -1 2162.37  719.72
  -1 -25   1 2640.53  450.44
   1 -25   0   37.47  269.91
   1  25   0  525.16  484.16
  -1 -25   0  261.93  265.21
   1  25   111131.66 1533.90
   1 -25   112363.69 1334.30
  -1 -25  -1 7845.94  871.23
   1 -25   2  769.82  426.45
   1  25   2 1525.56  561.58
  -1 -25  -2  232.10  277.34
   1 -25   3 1465.29  366.01
   1  25   3 1509.74  668.60
  -1 -25  -3  723.66  322.61
   1 -25   4  678.93  399.72
   1  25   4 1099.53  572.93
  -1 -25  -4  263.00  261.52
   1  25   5 2622.82 1016.30
   1 -25   5 6352.88  803.16
  -1 -25  -5 3196.92  677.35
   1  25   6 2644.75  799.56
   1 -25   6 1646.81  547.25
   1 -25   7  848.11  320.64
   1  25   7  982.98  591.74
   1 -25   8  303.71  400.19
   1  25   8  998.14  551.71
   1  25   9 1371.96  670.99
   1 -25   9 1248.39  367.45
   1  25  10 3275.87  821.94
   1 -25  10 1627.01  440.45
   1  25  11  139.83  438.05
   1 -25  11   71.15  318.11
   1  25  12 -117.60  442.60
   1 -25  12  120.95  307.00
   1  25  13 -179.95  473.96
   1 -25  13  177.19  323.35
   1  25  14  357.27  263.32
   1 -25  14  274.66  287.64
   1 -25  15  485.01  327.62
  -1 -25 -15 1331.60  671.93
   1 -25  16  149.16  287.72
  -1 -25 -16  578.42  607.15
   1 -25  17  997.38  381.58
  -1 -25 -17 -265.29  798.57
  -1 -25 -18  223.93  510.19
  -1 -26  17  470.71  416.65
  -1 -26  16  644.57  578.75
  -1 -26  15 3937.34  955.76
  -1 -26  14 1344.00  445.57
  -1 -26  13 1551.37  619.88
  -1 -26  12  197.89  397.99
   1 -26 -11  699.22  592.42
  -1 -26  11  127.40  384.81
  -1  26  11  244.39  317.88
   1 -26 -10 3015.32 1237.12
  -1 -26  10 2612.72  643.77
  -1  26  10 2003.33  560.82
   1 -26  -9 1059.03  773.68
  -1 -26   9 1827.73  540.58
   1  26  -8  399.82  646.08
   1 -26  -8 1466.78  681.17
  -1 -26   8  353.63  403.29
   1  26  -7  107.41  780.00
   1 -26  -7 2503.31  772.87
  -1 -26   7 1169.47  456.54
   1  26  -6  568.23  728.72
   1 -26  -6 2787.92  798.04
  -1 -26   6 1980.35  492.56
   1 -26  -5 1157.71  619.49
   1  26  -5  478.17  565.17
  -1 -26   5  723.41  378.89
   1  26  -4 2892.82  921.35
   1 -26  -4 1034.70  789.48
  -1 -26   4 2549.22  519.67
   1 -26  -3  161.36  459.24
   1  26  -3  292.72  495.47
  -1 -26   3  103.26  280.08
   1  26  -2  -19.13  438.38
   1 -26  -2  203.16  323.01
  -1 -26   2  366.60  278.79
   1 -26  -1  475.03  485.89
   1  26  -1  298.56  504.34
  -1 -26   1  511.69  260.57
   1  26   0 1480.96  607.46
   1 -26   0  439.71  474.86
  -1 -26   0  433.81  338.53
   1 -26   118401.64 1996.40
   1  26   114823.81 2147.23
   1  26   2 3555.89 1287.47
   1 -26   2 6195.63 1000.73
  -1 -26  -2 7555.06  869.07
   1  26   3  795.80  583.52
   1 -26   3  444.94  433.68
  -1 -26  -3  306.30  329.27
   1  26   4  101.62  569.27
   1 -26   4  492.98  404.20
   1  26   5 2856.40  893.09
   1 -26   5 1643.88  641.09
   1 -26   6   34.17  375.56
   1  26   6  991.77  561.60
   1  26   7  287.08  592.20
   1 -26   7  415.73  379.34
   1 -26   8  101.17  269.49
   1  26   8  675.21  520.62
   1  26   9 3432.87  995.69
   1 -26   9 2715.34  701.93
   1  26  10  160.50  476.23
   1 -26  10   23.16  335.34
   1 -26  1113322.16 1461.84
   1  26  1113192.02 2056.60
   1  26  12 2879.28 1005.90
   1 -26  12 3557.02  732.29
   1  26  13  340.46  521.21
   1 -26  13   19.79  254.41
   1  26  14 1010.13  613.46
   1 -26  14   60.88  289.71
   1  26  15 1022.88  567.26
   1 -26  15  584.57  356.01
   1 -26  16  541.51  340.96
   1 -26  17  921.98  406.51
  -1 -26 -17  372.86  826.13
  -1 -27  16 1396.58  725.75
  -1 -27  15  158.63  483.85
  -1 -27  14  389.54  362.08
  -1 -27  13  815.08  548.27
   1 -27 -12 1446.84  986.80
  -1 -27  12  348.54  495.27
   1 -27 -11 -381.56  720.52
  -1 -27  11   17.82  346.12
  -1 -27  10   61.35  248.36
   1 -27  -9  193.98  739.05
  -1 -27   9  701.94  317.75
   1 -27  -8 1738.34 1076.31
  -1 -27   8 2958.34  489.89
   1 -27  -7  888.02  684.99
  -1 -27   7  697.24  427.52
   1 -27  -6  781.40  604.88
  -1 -27   6  293.73  366.47
   1  27  -5  304.51  693.37
   1 -27  -5  230.10  446.33
  -1 -27   5 1135.02  396.99
   1 -27  -4 6654.18 1248.08
   1  27  -4 4393.59 1384.20
  -1 -27   4 5732.96  799.13
   1  27  -3 1080.20  776.31
   1 -27  -3 1860.26  660.06
  -1 -27   3 1227.25  458.90
   1  27  -2 8814.32 1545.21
   1 -27  -210295.50 1501.20
  -1 -27   2 7485.79  914.82
   1  27  -1  899.07  733.00
   1 -27  -1  637.18  555.77
  -1 -27   1 1045.88  328.89
   1  27   0  118.90  697.94
   1 -27   0  788.94  520.41
  -1 -27   0  877.36  352.84
   1  27   1 4527.08 1049.88
   1 -27   1 5377.05  818.59
  -1 -27  -1 1767.63  506.68
   1 -27   2  844.29  516.37
   1  27   2 1063.67  682.39
  -1 -27  -2  568.28  360.71
   1  27   3 -292.53  452.54
   1 -27   3  -78.29  391.56
   1  27   4  797.66  822.89
   1 -27   4 1907.63  609.22
   1  27   5 1305.60  619.93
   1 -27   5   -7.90  404.98
   1  27   6  678.17  618.05
   1 -27   6  436.29  318.37
   1  27   7 -271.97  542.61
   1 -27   7  303.44  364.20
   1  27   8 2503.77  885.67
   1 -27   8 2204.21  693.58
   1  27   9  825.35  599.66
   1 -27   9  121.49  421.54
   1  27  10  493.41  493.59
   1 -27  10  551.90  444.61
   1 -27  11  185.07  301.98
   1  27  11  809.24  617.34
   1  27  12  553.05  727.78
   1 -27  12  585.33  347.01
   1  27  13  265.37  684.90
   1 -27  13  647.82  350.06
   1 -27  14  306.49  314.90
   1  27  14  211.09  657.07
   1  27  15 1518.78  879.94
   1 -27  15  853.16  404.45
   1 -27  16  255.61  337.14
   1  27  16 1035.11  763.63
  -1 -28  15  305.48  399.73
  -1 -28  14 2101.69  775.23
  -1 -28  13 1554.13  684.23
  -1 -28  12 1617.55  678.88
   1 -28 -11 1346.74 1008.82
  -1 -28  11 1293.93  433.64
   1 -28 -10 -229.90  714.84
  -1 -28  10 -277.61  414.00
   1 -28  -9  605.52  609.09
  -1 -28   9 -109.47  357.48
   1 -28  -8 1768.50  735.38
  -1 -28   8  300.93  464.34
   1 -28  -7  905.03  699.93
  -1 -28   7  529.37  439.29
   1 -28  -6 1650.27  827.79
  -1 -28   6 1570.01  532.44
   1 -28  -5  658.88  707.86
  -1 -28   5 1106.13  458.08
   1 -28  -4  426.18  301.29
  -1 -28   4 -384.25  277.71
   1 -28  -3  886.08  563.58
  -1 -28   3  437.89  385.82
   1 -28  -2  -16.61  483.63
  -1 -28   2  294.76  322.62
   1  28  -1 1813.18  720.87
   1 -28  -1 1098.60  557.92
  -1 -28   1  323.58  388.84
   1  28   0  291.38  630.37
   1 -28   0  219.19  479.55
  -1 -28   0  393.99  321.79
   1  28   1 1293.03  889.81
   1 -28   1 1804.02  495.69
   1  28   2  726.40  674.86
   1 -28   2 1719.12  616.81
   1  28   3  579.96  659.82
   1 -28   3  282.40  465.69
   1  28   4  950.48  776.66
   1 -28   4  980.02  427.85
   1  28   5  457.05  621.54
   1 -28   5  192.41  411.17
   1  28   6  430.35  750.87
   1 -28   6  799.54  499.78
   1  28   7 1552.02  841.88
   1 -28   7 1110.63  594.88
   1  28   8 2893.73  878.48
   1 -28   8  831.84  445.04
   1  28   9   80.16  598.35
   1 -28   9  341.25  314.58
   1  28  10  437.37  844.52
   1 -28  10 1607.60  591.10
   1  28  11  150.21  458.15
   1 -28  11  419.18  441.55
   1  28  12  954.68  862.24
   1 -28  12 1085.28  570.69
   1  28  13 1423.03  874.96
   1 -28  13  606.97  542.14
   1  28  14  993.53  941.95
   1 -28  14  868.88  560.30
   1  28  15 1411.80  929.50
   1 -28  15  883.92  587.00
  -1 -29  14 2232.23  835.49
  -1 -29  13 1432.93  695.97
  -1 -29  12  871.77  449.10
  -1 -29  11  565.11  510.95
  -1 -29  10  627.52  504.53
   1 -29  -9  682.37  744.88
  -1 -29   9  439.53  471.27
   1 -29  -8 4859.81 1284.43
  -1 -29   8 3404.79  831.61
   1 -29  -7 1342.51  826.52
  -1 -29   7 1210.15  556.23
   1 -29  -6 1985.60  877.12
  -1 -29   6 1495.88  595.06
   1 -29  -5 1461.65  904.75
  -1 -29   5 2073.15  590.17
   1 -29  -4 -306.94  510.29
  -1 -29   4  415.89  354.08
   1 -29  -3 4120.44  877.78
  -1 -29   3 1423.17  532.87
   1 -29  -2 1219.76  578.14
  -1 -29   2  387.97  428.86
   1 -29  -1 8068.45 1299.71
  -1 -29   1 6974.44  937.23
   1 -29   0 1402.67  674.18
   1 -29   1  752.97  421.34
   1  29   2 1109.02  719.85
   1 -29   2  259.51  505.35
   1 -29   3  280.51  491.19
   1  29   3  720.17  685.41
   1  29   4 1268.28  660.87
   1 -29   4  531.45  574.99
   1 -29   5   75.02  346.39
   1  29   5 1890.40  711.03
   1  29   6  662.91  725.75
   1 -29   6  415.63  491.52
   1 -29   7 -171.11  376.18
   1  29   7  306.87  589.95
   1  29   8  426.11  718.36
   1 -29   8  453.23  491.82
   1 -29   9 -226.61  430.81
   1  29   9 1207.99  678.61
   1 -29  10  247.68  452.42
   1  29  10  172.87  635.89
   1  29  11 1941.92  985.28
   1 -29  11 1231.67  670.63
   1  29  12 1459.42  664.09
   1 -29  12  352.42  572.33
   1 -29  13  773.30  579.93
   1  29  13  973.52  912.30
  -1 -30  13 2601.24  680.41
  -1 -30  12 1576.37  756.25
  -1 -30  11 1837.52  713.82
  -1 -30  10  413.20  500.52
  -1 -30   9  562.75  512.02
   1 -30  -8  388.19  753.82
  -1 -30   8  561.38  495.38
   1 -30  -7 1411.38  830.07
  -1 -30   7  900.38  552.55
   1 -30  -6 -306.39  372.60
  -1 -30   6  228.71  338.56
   1 -30  -5 2075.83  775.04
  -1 -30   5 1037.18  542.41
   1 -30  -4 2834.28  906.51
  -1 -30   4 2020.69  630.14
   1 -30  -3 2787.72  739.92
  -1 -30   3  733.63  566.28
   1 -30  -2  761.43  612.58
   1 -30  -1 2537.17  849.61
   1 -30   0  315.33  377.03
   1 -30   1  895.06  619.36
   1 -30   2  406.91  509.53
   1 -30   3 2142.80  794.38
   1 -30   4   59.15  402.71
   1 -30   5  547.17  530.05
   1 -30   6 1091.78  445.56
   1 -30   7  992.49  444.82
   1  30   7  924.71  912.96
   1  30   8 1693.86  912.79
   1 -30   8 1063.23  481.32
   1  30   9 4911.88 1290.76
   1 -30   9 2353.17  686.27
   1  30  10 1167.18  847.13
   1 -30  10  364.80  396.48
   1 -30  11 2651.11  898.85
   1  30  11 3212.90 1239.55
   1 -30  12  393.36  387.86
   1  30  12  313.93  805.62
  -1 -31  11  246.14  372.25
  -1 -31  10  296.56  510.62
  -1 -31   9 1487.15  695.18
  -1 -31   8 1287.60  639.49
  -1 -31   7  856.84  419.19
   1 -31  -6  849.00  736.96
  -1 -31   6  841.65  553.70
   1 -31  -5  668.07  702.18
  -1 -31   5  711.37  496.41
   1 -31  -4 1275.54  796.31
   1 -31  -3 1339.76  726.40
   1 -31  -2 2705.18  913.37
   1 -31  -1 1849.56  601.54
   1 -31   0  724.06  625.97
   1 -31   1 1921.25  778.09
   1 -31   2 1109.97  665.03
   1 -31   3 1273.86  690.89
   1 -31   4  983.12  616.55
   1 -31   5 1081.98  642.62
   1 -31   6  545.83  569.03
   1 -31   7  615.26  590.70
   1 -31   8  556.39  586.03
   1 -31   9 -337.75  542.57
   1 -31  10  -87.17  468.67
   1 -31  11  768.83  649.47
  -1 -32   9  497.42  408.39
  -1 -32   8  504.61  554.48
  -1 -32   7 1023.27  629.43
   1 -32  -4  231.69  550.22
   1 -32  -3 1529.91  798.18
   1 -32  -2 -473.23  599.84
   1 -32  -1  350.78  573.69
   1 -32   0  668.27  653.99
   1 -32   1  890.60  651.57
   1 -32   2 1025.15  687.45
   1 -32   3  762.84  610.90
   1 -32   4  430.71  563.29
   1 -32   5  536.30  589.29
   1 -32   6 -190.66  514.44
   1 -32   7  202.98  532.03
   1 -32   8  -61.09  475.81
   1 -32   9  150.05  520.91
   1 -33  -2 1903.70  878.36
   1 -33  -1 1743.69  865.59
   1 -33   0 2588.45  930.96
   1 -33   1  262.31  556.98
   1 -33   2 2258.45  913.22
   1 -33   3 1146.68  703.57
   1 -33   4  364.83  570.72
   1 -33   5  530.83  630.10
   1 -33   6 1377.37  791.97
   1 -34  -1  406.64  475.63
   1 -34   0 1254.74  780.13
   1 -34   1  578.28  658.04
   1 -34   2  668.04  646.18
  -2   0  27 1894.67 1460.92
   2   0 -26  118.81  262.78
  -2   0  26 1032.09  870.47
   2   0 -25 -156.20  336.03
  -2   0  25 2826.17  840.81
   2   0 -24 8252.54  814.25
  -2   0  2410235.25 2139.61
   2   0 -23  213.50  334.58
  -2   0  23  638.11  564.66
   2   0 -22 1392.62  318.28
  -2   0  22  916.92  954.72
   2   0 -21   -0.16  260.04
  -2   0  21  517.11  565.74
   2   0 -20 1308.53  392.90
  -2   0  20 1159.11  590.90
   2   0 -19 -285.07  187.02
  -2   0  19  125.60  550.11
   2   0 -18  318.33  263.56
  -2   0  18  455.28  395.58
   2   0 -17  -87.41  228.49
  -2   0  17   96.80  422.31
   2   0 -16 -191.77  229.13
  -2   0  16  -24.85  310.06
   2   0 -15   81.32  148.64
  -2   0  15  216.47  282.27
   2   0 -1420973.43 1261.05
  -2   0  1416882.41 1929.89
   2   0 -13  -89.16  216.39
  -2   0  13 -351.37  357.02
   2   0 -12  769.15  232.28
  -2   0  12 1097.91  344.23
   2   0 -11 -116.05  208.80
  -2   0  11  351.54  301.50
   2   0 -1015517.68 1029.03
  -2   0  1012983.59 1105.37
   2   0  -9 -111.76  161.07
  -2   0   9   69.36  201.82
   2   0  -8  461.27  295.64
  -2   0   8  427.66  254.47
   2   0  -7  -23.85  157.72
  -2   0   7  110.67  184.52
   2   0  -6 5207.22  633.00
  -2   0   6 4038.07  614.17
   2   0  -5   54.92  171.37
  -2   0   5  127.60  244.64
   2   0  -4 1792.67  394.78
  -2   0   4 1429.76  390.87
   2   0  -3   40.21  176.07
   2   0  -3 -128.77  151.37
  -2   0   3  -62.90  113.33
  -2   0   3   58.49  210.30
   2   0  -284710.38 6247.46
   2   0  -289980.18 6311.86
  -2   0   288765.28 6463.90
  -2   0   286939.21 6126.58
   2   0  -1   13.51  169.55
   2   0  -1   59.76  140.10
  -2   0   1  -43.21  147.58
  -2   0   1   30.43  119.83
   2   0   017606.67  951.05
   2   0   015429.49  829.46
  -2   0   016675.98  906.89
  -2   0   015701.51  729.89
   2   0   1 -132.37  101.51
   2   0   1  -15.20  121.48
  -2   0  -1  -37.24  122.53
  -2   0  -1  -29.32   74.95
   2   0   2 4755.09  289.60
   2   0   2 5542.97  255.10
   2   0   2 5331.96  285.31
   2   0   2 4830.26  301.64
   2   0   3   46.91   78.73
   2   0   3   66.43   70.36
  -2   0  -3  -14.35   82.88
  -2   0  -3   -4.54   84.40
   2   0   413503.65  547.74
  -2   0  -412320.83  723.33
  -2   0  -411552.40  571.87
   2   0   5  149.22   91.50
  -2   0  -5    0.47   93.83
  -2   0  -5  208.48   99.30
   2   0   6 5248.18  309.65
  -2   0  -6 5925.21  428.74
   2   0   7   64.24   84.69
  -2   0  -7 -119.58  136.61
   2   0   8 5136.05  350.96
  -2   0  -8 3952.01  449.27
   2   0   9  125.08  132.33
  -2   0  -9   36.02  110.19
   2   0  10 3485.02  330.37
  -2   0 -10 2307.46  338.81
   2   0  11   84.26  150.34
  -2   0 -11   -4.57  152.40
   2   0  12  986.52  322.33
  -2   0 -12 2306.87  308.12
   2   0  13   40.10  200.18
  -2   0 -13 -172.39  177.12
   2   0  14 2066.42  424.01
  -2   0 -14 1689.29  261.35
   2   0  15  258.74  266.15
  -2   0 -15 -208.52  148.31
   2   0  16 2123.32  543.27
  -2   0 -16 1617.13  282.60
   2   0  17   35.69  351.95
  -2   0 -17  186.43  186.07
   2   0  18 7958.54  874.88
  -2   0 -18 6454.15  818.20
   2   0  19  462.15  443.65
  -2   0 -19   17.61  292.63
   2   0  2039797.57 4171.31
  -2   0 -2041923.97 3231.99
   2   0  21  -66.02  434.29
  -2   0 -21   16.53  284.49
   2   0  2211772.28 2034.06
  -2   0 -2211455.90 1153.88
   2   0  23 -409.80  588.48
  -2   0 -23   56.97  348.90
   2   0  24  226.80  941.79
  -2   0 -24 1388.49  566.43
   2   0  25 1452.97  954.05
  -2   0 -25  294.02  438.27
   2   0  26 1819.65 1425.53
  -2   0 -26 2116.47  908.60
   2   1 -27  163.97  419.39
  -2  -1  27  811.61  749.40
  -2   1  27  718.52  788.64
   2   1 -26   51.57  272.46
  -2   1  26 1553.19  672.06
  -2  -1  26  516.73  666.44
   2  -1 -25  553.69  389.41
   2   1 -25  180.17  382.34
  -2  -1  25 1156.42  685.28
  -2   1  25  944.81  690.39
   2  -1 -24  157.07  234.15
   2   1 -24  163.69  243.37
  -2  -1  24  297.40  553.88
  -2   1  24  823.61  765.25
   2  -1 -23 4599.87  617.75
   2   1 -23 2241.45  634.95
  -2   1  23 4644.06 1436.55
  -2  -1  23 5396.04 1382.42
   2   1 -22   89.07  295.76
   2  -1 -22  251.40  214.14
  -2  -1  22 1303.18  654.56
  -2   1  22  -96.26  490.93
   2  -1 -21 1584.09  428.14
   2   1 -21 1375.93  326.74
  -2   1  21 1947.08  967.90
  -2  -1  21 3023.07  693.56
   2   1 -20 2347.40  619.93
   2  -1 -20 5264.49  481.75
  -2   1  20 7383.72 1009.48
  -2  -1  20 5279.86  932.75
   2  -1 -19 2671.82  468.90
   2   1 -19 1710.15  460.65
  -2  -1  19 3642.74  927.64
  -2   1  19 4103.51  978.99
   2   1 -18  409.97  259.91
   2  -1 -18  650.72  226.78
  -2   1  18  990.78  461.64
  -2  -1  18 1951.32  460.19
   2  -1 -17 2655.92  446.60
   2   1 -17 3282.46  369.94
  -2  -1  17 2034.96  874.44
  -2   1  17 2672.92  883.05
   2   1 -16 3113.20  343.58
   2  -1 -16 2824.73  462.58
  -2   1  16 2848.76  811.87
  -2  -1  16 2048.98  588.64
   2   1 -15 1852.69  310.81
   2  -1 -15 3145.94  411.35
  -2  -1  15 2166.20  680.32
  -2   1  15 1480.87  684.23
   2   1 -1413245.33  856.74
   2  -1 -1413342.97  837.62
  -2  -1  1414766.27 1245.26
  -2   1  1413406.81 1561.30
   2  -1 -13 1698.45  335.44
   2   1 -13 1045.33  377.10
  -2   1  13 1527.41  561.14
  -2  -1  13 1663.84  399.35
   2   1 -12 7941.06  613.54
   2  -1 -12 8499.40  695.48
  -2   1  12 8125.51  821.76
  -2  -1  12 8260.03  804.94
   2   1 -11 4582.57  625.37
   2  -1 -11 4661.86  416.63
  -2  -1  11 3987.20  531.08
  -2   1  11 3421.25  760.70
   2   1 -1010710.49  951.01
   2  -1 -10 8921.96  802.42
  -2  -1  10 8896.67 1038.40
  -2   1  10 9464.58 1135.44
   2   1  -9  423.52  220.55
   2  -1  -9   62.15  197.17
  -2  -1   9  664.70  343.62
  -2   1   9  328.92  358.43
   2   1  -8  -63.69  169.34
   2  -1  -8   72.83  204.33
  -2  -1   8 -164.06  246.19
  -2   1   8  160.77  187.92
   2   1  -7 3865.57  458.38
   2  -1  -7 3604.08  386.97
  -2  -1   7 4438.79  586.07
  -2   1   7 3930.27  469.94
   2   1  -613011.90  922.55
   2  -1  -613934.49 1033.57
  -2  -1   611852.52 1058.64
  -2   1   613198.80  953.27
   2   1  -5  313.93  218.06
   2  -1  -5  414.50  289.29
  -2  -1   5  547.07  276.05
  -2   1   5  415.87  221.64
   2   1  -410402.47  784.74
   2  -1  -410581.49  688.28
  -2  -1   410891.16  875.70
  -2   1   4 9509.09  937.39
   2   1  -3  173.37  221.80
   2   1  -3   75.72  110.71
   2  -1  -3  -48.06  147.93
   2  -1  -3 -122.36  182.55
  -2  -1   3   56.22  188.39
  -2   1   3   35.41  152.45
  -2   1   3  105.69  217.52
   2   1  -225676.87 1434.91
   2  -1  -224630.71 1514.09
   2   1  -224159.66 1360.12
  -2  -1   224163.88 1447.55
  -2  -1   221000.03 1169.92
  -2   1   223502.24 1560.07
  -2   1   221696.87 1287.91
   2   1  -1 1923.44  268.86
   2   1  -1 2746.73  276.35
   2  -1  -1 1249.24  308.77
   2  -1  -1 2273.78  300.50
  -2  -1   1 2731.10  208.24
  -2  -1   1 2911.90  256.85
  -2   1   1 1453.35  352.77
  -2   1   1 2775.42  248.27
   2   1   0 6461.49  394.02
   2  -1   0 6203.82  446.27
   2   1   0 7274.64  526.22
   2  -1   0 6327.85  428.84
  -2  -1   0 5965.68  359.35
  -2   1   0 6525.66  512.10
  -2   1   0 7014.75  357.21
   2   1   1 3547.27  226.03
   2   1   1 3673.37  225.69
   2  -1   1 3259.54  297.45
   2  -1   1 3707.81  235.37
  -2   1  -1 3443.29  154.68
  -2  -1  -1 3416.66  218.08
  -2  -1  -1 3722.18  177.92
   2  -1   2  -94.49  103.81
   2   1   2  153.12   73.79
   2   1   2  202.04   61.21
   2   1   2  149.93  102.85
   2  -1   2  174.86   82.63
   2   1   2   -4.93   75.28
   2  -1   2   86.29  101.49
   2  -1   2   64.08   85.92
   2   1   313074.46  491.42
   2  -1   313596.24  596.87
   2  -1   314714.42  702.82
  -2   1  -315372.48  736.91
  -2  -1  -314703.25  821.08
  -2  -1  -314392.84  590.59
  -2   1  -313870.51  676.34
   2   1   410613.51  395.83
   2  -1   4 9219.00  479.71
  -2  -1  -4 9051.14  404.45
  -2  -1  -4 9979.50  648.54
  -2   1  -4 9512.84  466.75
  -2   1  -412535.60  634.80
   2   1   5 8747.28  363.76
   2  -1   5 8140.13  430.04
  -2  -1  -5 9085.91  592.01
   2   1   6  -38.81   80.32
   2  -1   6   36.49   98.16
  -2  -1  -6  132.72  134.03
  -2  -1  -6   17.72   63.12
  -2   1  -6   62.14  118.67
   2   1   7 9623.85  478.90
   2  -1   7 9372.89  538.35
  -2  -1  -7 9889.31  675.17
  -2   1  -7 9692.35  638.25
   2   1   811106.31  598.72
   2  -1   812064.08  695.59
  -2  -1  -812859.01  879.17
  -2   1  -813906.27  728.07
   2   1   9  811.92  178.95
   2  -1   9  704.43  195.72
  -2  -1  -9  514.90  255.40
  -2   1  -9  811.38  197.53
   2   1  1016355.83  955.56
   2  -1  1017282.52 1016.68
  -2  -1 -1018837.69 1243.85
  -2   1 -1015695.85  869.29
   2  -1  11 5818.04  473.76
   2   1  11 5570.96  465.00
  -2  -1 -11 3897.43  341.23
  -2   1 -11 4642.66  334.85
   2   1  12 8497.81  695.36
   2  -1  12 8950.28  686.91
  -2  -1 -12 8658.26  684.96
  -2   1 -12 9704.98  687.30
   2  -1  13 1121.91  303.53
   2   1  13 1343.43  307.68
  -2   1 -13  580.97  183.36
  -2  -1 -13 1006.76  259.45
   2   1  14 1138.38  326.11
   2  -1  14  676.87  314.62
  -2  -1 -14  684.80  277.80
  -2   1 -14  882.27  257.47
   2   1  15  643.23  404.41
   2  -1  15 1448.72  388.65
  -2  -1 -15  924.04  303.69
  -2   1 -15  857.54  292.88
   2   1  16  349.25  261.52
   2  -1  16  219.80  328.61
  -2  -1 -16  344.02  197.08
  -2   1 -16  257.90  245.68
   2   1  17 4051.31  744.47
   2  -1  17 3291.91  695.89
  -2  -1 -17 3632.10  566.70
   2  -1  18 2794.45  785.50
   2   1  18 3050.78  811.43
  -2  -1 -18 3399.78  597.59
  -2   1 -18 3508.75  593.60
   2   1  19 3332.65  763.92
   2  -1  19 2211.76  738.92
  -2   1 -19 1225.62  493.27
  -2  -1 -19 2792.86  534.60
   2  -1  20 2823.11  833.42
   2   1  20 2140.34  808.27
  -2  -1 -20 2019.07  426.39
   2   1  21  172.32  603.37
   2  -1  21 1013.49  578.14
  -2  -1 -21  423.83  373.91
  -2   1 -21   38.31  354.06
   2   1  22  391.73  487.52
   2  -1  22  188.19  631.73
  -2  -1 -22   84.46  298.95
  -2   1 -22 1022.48  409.56
   2   1  23  109.90  759.61
   2  -1  23  219.05  798.64
  -2  -1 -23  657.03  460.90
  -2   1 -23  743.42  331.20
   2   1  24 1169.33  735.04
   2  -1  24 1169.97  686.73
  -2  -1 -24   62.00  354.68
  -2   1 -24 -368.66  391.87
   2  -1  25 1238.80  862.78
   2   1  25  822.55  944.61
  -2  -1 -25  118.20  609.92
  -2   1 -25  410.95  498.94
   2  -1  26  916.85 1051.82
   2   1  26 1062.71 1037.51
  -2  -1 -26  113.81  671.62
  -2   1 -26  615.32  483.18
   2   2 -27  460.20  523.37
  -2  -2  27 2239.24 1268.82
  -2   2  27 3663.31 1342.18
   2   2 -26  170.76  240.89
   2  -2 -26  -12.34  234.99
  -2   2  26  808.58  868.14
  -2  -2  26  228.09  830.85
   2  -2 -25 1256.89  451.61
   2   2 -25  336.45  444.04
  -2  -2  25  721.46 1042.56
  -2   2  25 2915.97  854.83
   2   2 -24  156.61  423.24
   2  -2 -24 1316.53  403.94
  -2  -2  24 1654.53  965.01
  -2   2  24 1536.61  763.88
   2   2 -23 1298.15  369.52
   2  -2 -23 2097.08  358.54
  -2  -2  23 2346.59 1087.97
  -2   2  23 3271.54 1124.46
   2   2 -22   25.89  284.11
   2  -2 -22   84.56  265.38
  -2  -2  22  300.73  456.86
  -2   2  22  243.31  462.84
   2   2 -21  389.72  237.41
   2  -2 -21  289.42  233.28
  -2  -2  21 1624.36  510.93
  -2   2  21  301.55  717.24
   2   2 -20  154.39  216.81
   2  -2 -20  284.46  282.98
  -2   2  20  449.82  459.05
  -2  -2  20 1678.32  617.47
   2  -2 -19 -226.09  171.74
   2   2 -19   88.40  240.39
  -2  -2  19 -210.89  497.27
  -2   2  19  -34.85  526.60
   2  -2 -18  409.14  255.52
   2   2 -18  150.11  280.46
  -2  -2  18  218.66  367.19
  -2   2  18  119.36  409.75
   2   2 -17 1349.45  382.21
   2  -2 -17 1589.00  271.14
  -2  -2  17 2153.06  691.51
  -2   2  17  583.81  541.02
   2  -2 -16 2462.03  412.63
   2   2 -16 2932.30  490.30
  -2  -2  16 2274.90  796.88
  -2   2  16 3696.91  643.14
   2   2 -15 1022.67  341.67
   2  -2 -15 1370.70  332.67
  -2  -2  15 1297.63  410.85
  -2   2  15 1263.41  446.57
   2   2 -14  761.14  236.02
   2  -2 -14  813.71  198.96
  -2  -2  14  610.20  337.19
  -2   2  14  403.39  376.30
   2  -2 -13 4394.15  367.63
   2   2 -13 4415.25  559.17
  -2  -2  13 3743.91  768.13
  -2   2  13 4071.95  840.20
   2   2 -1212812.16  942.68
   2  -2 -1212027.89  754.96
  -2  -2  1211993.28 1291.07
  -2   2  1210721.67 1076.30
   2  -2 -11 2146.03  270.19
   2   2 -11 3319.89  377.57
  -2  -2  11 2088.61  584.14
  -2   2  11 2511.91  629.94
   2  -2 -10  420.25  289.94
   2   2 -10  690.41  363.56
  -2  -2  10  869.76  381.71
  -2   2  10  609.86  434.02
   2   2  -913295.56  961.84
   2  -2  -914386.38  851.21
  -2  -2   914542.88 1040.02
  -2   2   912913.48 1140.05
   2   2  -8 7538.55  819.38
   2  -2  -8 7725.76  549.53
  -2  -2   8 5903.21  768.36
  -2   2   8 6380.90  683.04
   2  -2  -7 3565.94  449.14
   2   2  -7 3117.96  608.43
  -2  -2   7 4150.67  552.95
  -2   2   7 3175.94  612.32
   2   2  -622832.77 1764.70
   2  -2  -623949.61 1542.21
  -2  -2   623037.76 1428.97
  -2   2   621326.52 1776.02
   2  -2  -513406.18  817.00
   2   2  -513849.07 1211.82
  -2  -2   513542.74 1039.26
  -2   2   514709.58 1219.54
   2   2  -421602.34 1666.83
   2  -2  -421857.66 1493.66
  -2   2   422892.55 1445.13
  -2  -2   421670.76 1486.82
  -2   2   422509.77 1422.56
   2   2  -3155608.414111.13
   2  -2  -3154640.113976.35
   2   2  -3164506.214474.83
  -2  -2   3166677.014912.52
  -2   2   3162020.515250.95
  -2   2   3158808.914052.03
   2   2  -256929.69 3398.84
   2  -2  -253897.79 3292.00
   2   2  -253714.62 3427.34
   2  -2  -250574.06 3533.62
  -2   2   251559.93 3110.64
  -2   2   254142.22 3779.57
  -2  -2   256997.23 3414.50
   2   2  -117166.13 1193.91
   2   2  -118584.51  889.69
   2  -2  -118993.73 1004.49
   2  -2  -116465.59  895.65
  -2  -2   116262.92  973.42
  -2   2   115938.56  794.72
  -2   2   115719.71 1138.36
  -2  -2   118105.95  961.20
   2   2   0  393.08  130.94
   2  -2   0  325.34  151.97
   2  -2   0  277.67  177.45
   2   2   0  553.01  148.00
  -2  -2   0  282.08  104.50
  -2   2   0  646.31  220.50
  -2   2   0  431.50   99.39
  -2  -2   0  361.88   97.91
   2   2   112983.68  564.24
   2  -2   113804.67  705.81
   2  -2   112373.28  545.99
   2   2   112933.19  720.24
   2  -2   112107.01  753.63
  -2  -2  -112097.44  511.13
  -2  -2  -113653.99  574.39
   2   2   220531.62  914.73
   2   2   219729.17 1000.89
   2  -2   219627.40 1014.26
   2  -2   220048.92 1081.05
   2  -2   219142.09  778.88
   2  -2   219838.00  817.35
   2   2   221377.62  824.53
   2   2   318970.57  704.52
   2  -2   318491.09  953.59
   2  -2   317757.19  775.69
  -2  -2  -319081.29 1073.86
  -2   2  -318759.74  876.66
  -2  -2  -318718.23  779.34
  -2   2  -320070.30  896.29
   2  -2   4 1498.94  171.00
   2   2   4 1211.17   82.57
  -2  -2  -4 1295.56  237.26
  -2   2  -4  969.34  164.45
   2   2   547131.46 2370.68
   2  -2   559136.40 3262.68
  -2  -2  -567492.80 4026.72
  -2   2  -557185.44 3176.10
  -2  -2  -543039.05 2220.59
   2  -2   620924.70  966.24
   2   2   623850.74 1000.06
  -2  -2  -622004.02 1315.07
  -2   2  -623572.15 1194.38
  -2  -2  -618111.94  821.07
   2   2   714372.07  666.73
   2  -2   714015.87  764.43
  -2  -2  -713419.34  788.17
  -2   2  -714932.71  829.76
   2   2   850352.91 2930.65
   2  -2   854457.68 3321.14
  -2   2  -850945.72 3118.15
  -2  -2  -854595.06 3684.10
   2   2   9 9283.76  580.45
   2  -2   9 9576.01  620.92
  -2  -2  -9 9523.60  764.58
  -2   2  -9 8759.52  594.44
   2   2  1010886.94  661.46
   2  -2  1011441.52  714.54
  -2  -2 -10 9654.51  680.24
  -2   2 -1010850.97  710.40
   2  -2  11  181.64  152.78
   2   2  11  -85.09  162.48
  -2   2 -11   20.62  134.99
  -2  -2 -11 -304.44  185.39
   2   2  12 1005.58  290.53
   2  -2  12 1654.20  273.01
  -2   2 -12 1006.68  181.79
  -2  -2 -12  770.31  193.88
   2   2  13 5259.94  580.94
   2  -2  13 4342.14  479.44
  -2  -2 -13 4102.57  483.32
  -2   2 -13 3575.25  427.90
   2  -2  14  875.42  332.71
   2   2  14  810.37  359.32
  -2  -2 -14  456.20  288.88
  -2   2 -14 1276.94  258.11
   2   2  15 1716.55  493.87
   2  -2  15 1908.57  348.90
  -2   2 -15 2087.96  358.69
  -2  -2 -15 2590.63  411.59
   2  -2  16 5181.41  799.87
   2   2  16 6153.30  843.87
  -2  -2 -16 4337.20  629.83
  -2   2 -16 5164.46  595.33
   2   2  17  281.37  367.50
   2  -2  17  382.50  329.78
  -2   2 -17    8.04  172.99
  -2  -2 -17  153.02  258.67
   2   2  18 5851.92  995.25
   2  -2  18 5688.12  927.47
  -2   2 -18 4929.56  661.10
  -2  -2 -18 5984.83  762.96
   2   2  19   72.52  398.99
   2  -2  19 -277.87  366.72
  -2  -2 -19   -7.23  268.06
  -2   2 -19  114.19  235.18
   2   2  20  -83.36  479.08
   2  -2  20   72.20  441.58
  -2  -2 -20  159.23  221.38
  -2   2 -20   42.94  289.21
   2   2  21 3656.65 1326.40
   2  -2  21 7176.97 1342.33
  -2  -2 -21 7030.02  975.98
  -2   2 -21 6102.84  859.40
   2   2  22 1000.58  620.43
   2  -2  22  -65.00  401.57
  -2  -2 -22    8.92  257.60
  -2   2 -22  212.40  336.12
   2   2  23 3453.70 1154.74
   2  -2  23 2584.19  996.71
  -2  -2 -23 1718.25  780.46
  -2   2 -23 2016.13  466.53
   2  -2  24 2708.41 1033.23
   2   2  24  883.34 1068.56
  -2  -2 -24 1555.58  532.63
  -2   2 -24  829.54  575.65
   2   2  25 1121.09 1219.97
   2  -2  25 2863.40 1167.45
  -2  -2 -25 1106.89  809.71
  -2   2 -25 1785.36  664.05
  -2  -3  27 4956.20 1402.35
  -2   3  27 2920.91 1445.51
   2  -3 -26 3995.23  528.80
   2   3 -26 2268.30  540.28
  -2  -3  26 5726.16 1226.06
  -2   3  26 5478.24 1782.29
   2  -3 -25  163.14  242.21
   2   3 -25    3.46  357.84
  -2  -3  25  798.28  594.39
  -2   3  25 1659.46  895.72
   2   3 -24  403.89  437.55
   2  -3 -24 1221.88  419.49
  -2  -3  24 1223.31  706.23
  -2   3  24 1338.67  774.12
   2   3 -23 4474.53  531.36
   2  -3 -23 4772.44  682.83
  -2  -3  23 5287.43 1145.27
  -2   3  23 4777.54 1638.66
   2   3 -22  408.86  376.68
  -2  -3  22  427.59  805.19
  -2   3  22 3223.76  904.92
   2   3 -21  837.06  396.99
   2  -3 -21 1193.50  371.61
  -2  -3  21 1327.08  793.56
  -2   3  21 1095.04  919.15
   2   3 -20  663.53  232.46
   2  -3 -20  663.30  237.25
  -2  -3  20  167.16  655.27
  -2   3  20  420.05  514.82
   2   3 -19  217.60  272.67
   2  -3 -19 1294.75  333.05
  -2  -3  19 1416.26  656.46
  -2   3  19 1343.91  711.11
   2   3 -18 1629.85  290.73
   2  -3 -18 1134.64  348.47
  -2  -3  18  562.94  516.45
  -2   3  18 1872.36  781.38
   2   3 -1718009.67 1213.41
   2  -3 -1719925.67 1504.87
  -2  -3  1721598.11 2325.18
  -2   3  1721321.04 2449.05
   2  -3 -16  -60.35  221.54
   2   3 -16  335.27  185.73
  -2  -3  16  137.54  431.72
  -2   3  16  428.81  470.48
   2  -3 -1511377.10  876.30
   2   3 -1511154.58  960.69
  -2  -3  1514028.39 1218.99
  -2   3  1510490.99 1558.99
   2  -3 -1415772.27  912.83
   2   3 -1415454.34 1063.98
  -2  -3  1414291.25 1534.57
  -2   3  1416550.37 1824.56
   2   3 -1336561.85 2629.20
   2  -3 -1338228.12 2499.71
  -2  -3  1333924.22 2572.00
  -2   3  1338584.84 3087.80
   2   3 -12  637.21  250.48
   2  -3 -12  613.17  244.03
  -2   3  12  676.58  342.14
  -2  -3  12  130.28  367.83
   2   3 -11 5013.11  633.87
   2  -3 -11 4097.82  460.61
  -2   3  11 3157.23  580.89
  -2  -3  11 3085.40  614.49
   2  -3 -10 4956.61  485.91
   2   3 -10 3607.03  667.67
  -2  -3  10 3626.57  659.53
  -2   3  10 5406.53  628.03
   2  -3  -9  590.48  226.53
   2   3  -9  341.38  364.52
  -2  -3   9  461.15  317.98
  -2   3   9  653.81  417.60
   2  -3  -8  114.99  186.35
   2   3  -8   50.87  305.03
  -2   3   8   -1.65  217.07
  -2  -3   8  126.95  236.89
   2  -3  -7 7686.52  682.02
   2   3  -7 6599.85  655.15
  -2   3   7 6717.56  867.06
  -2  -3   7 7940.11  711.73
   2  -3  -6 6821.78  575.61
   2   3  -6 6574.58  786.94
  -2  -3   6 7082.39  683.16
  -2   3   6 6139.55  629.85
   2  -3  -5 7846.50  612.01
   2   3  -5 7825.97  865.22
  -2  -3   5 7323.99  666.31
  -2   3   5 5960.64  822.57
   2   3  -460361.48 4491.75
   2  -3  -456723.71 3727.18
  -2  -3   455547.69 3782.91
  -2   3   457426.55 3880.44
  -2   3   457732.29 4449.68
   2   3  -3139740.611992.91
   2   3  -3144173.111690.68
   2  -3  -3143661.712045.26
  -2   3   3142696.412815.72
  -2  -3   3124355.010561.30
  -2   3   3145613.912119.36
   2   3  -2291012.735149.89
   2  -3  -2318436.036284.56
  -2  -3   2317265.036119.51
  -2   3   2304938.436613.81
  -2   3   2294158.033863.19
   2  -3  -1 6194.96  360.06
   2   3  -1 7143.72  348.35
   2   3  -1 5495.24  582.23
  -2  -3   1 5883.20  340.37
  -2   3   1 6267.76  612.63
  -2   3   1 5519.81  301.30
   2   3   0 6074.73  427.67
   2   3   0 6695.24  332.45
   2  -3   0 7334.19  358.86
   2  -3   0 5181.77  482.71
  -2  -3   0 6558.08  336.67
  -2   3   0 5592.00  237.85
  -2   3   0 5297.97  553.68
   2  -3   1  121.43   58.58
   2  -3   1  -66.02   99.15
   2  -3   1  200.42  189.72
   2   3   1   71.52  146.89
   2   3   1  185.78   72.20
   2  -3   1   64.28  159.62
  -2  -3  -1   72.42   60.17
   2   3   2 7815.56  347.76
   2   3   2 8295.93  427.70
   2  -3   2 8420.42  307.48
   2  -3   2 8017.70  421.29
   2   3   324797.37  904.31
   2  -3   324511.94 1332.35
   2  -3   322241.69  898.57
  -2  -3  -326803.03 1489.89
  -2  -3  -325965.50 1079.98
  -2   3  -327004.13 1174.19
   2  -3   410176.38  374.17
   2   3   4 9338.38  331.15
   2  -3   410437.45  560.50
  -2  -3  -410929.13  685.72
  -2  -3  -410126.42  342.93
  -2   3  -4 8780.95  434.09
   2   3   5 4243.31  193.74
   2  -3   5 4863.35  258.64
  -2  -3  -5 4100.28  166.58
  -2   3  -5 4481.40  279.44
  -2  -3  -5 3771.87  434.50
   2   3   621435.01  932.95
   2  -3   622863.73 1168.32
  -2  -3  -618416.96  750.91
  -2   3  -623475.54 1128.64
  -2  -3  -620659.34 1148.22
   2  -3   729534.08 1661.62
   2   3   728074.05 1404.92
  -2  -3  -734918.26 1876.37
  -2   3  -728607.79 1514.47
   2   3   841011.45 2239.02
   2  -3   841324.96 2462.68
  -2  -3  -840089.71 2769.20
  -2   3  -840777.95 2329.05
   2   3   929191.26 1706.66
   2  -3   932278.40 1855.31
  -2  -3  -930868.31 2112.74
  -2   3  -929401.30 1689.70
   2   3  10 4950.98  362.96
   2  -3  10 3232.02  379.32
  -2   3 -10 3634.06  344.62
  -2  -3 -10 3976.42  480.49
   2   3  11  395.06  199.04
   2  -3  11  481.63  193.94
  -2  -3 -11  332.53  241.07
  -2   3 -11  348.84  171.61
   2   3  12  -14.31  220.52
   2  -3  12  -50.64  191.83
  -2   3 -12  208.88  158.24
  -2  -3 -12  475.41  235.47
   2   3  1313401.38 1103.74
   2  -3  1314647.94 1069.98
  -2  -3 -1314059.59 1179.21
  -2   3 -1313982.51  916.34
   2   3  14 3056.49  526.80
   2  -3  14 4239.52  518.92
  -2  -3 -14 4526.08  460.53
  -2   3 -14 3848.50  440.89
   2   3  15 6903.94  859.19
   2  -3  15 6597.46  797.93
  -2  -3 -15 6087.57  561.76
  -2   3 -15 7348.12  624.23
   2   3  16  105.69  369.39
   2  -3  16  340.92  234.36
  -2  -3 -16  315.67  279.55
  -2   3 -16  342.67  233.78
   2   3  17 1619.35  640.12
   2  -3  17 2496.30  578.70
  -2  -3 -17 1926.62  445.09
  -2   3 -17 1712.55  295.33
   2   3  18 3555.52  888.81
   2  -3  18 3845.88  779.83
  -2  -3 -18 4026.22  637.75
  -2   3 -18 3306.42  547.15
   2   3  1913102.55 1727.07
   2  -3  1912601.32 1558.68
  -2  -3 -1912041.52 1080.50
  -2   3 -1913817.94 1211.31
   2   3  20  662.83  616.89
   2  -3  20  157.60  579.43
  -2  -3 -20  582.28  354.84
  -2   3 -20  942.41  362.97
   2   3  21  396.23  534.32
   2  -3  21  -42.59  450.05
  -2  -3 -21 -187.69  370.65
  -2   3 -21   88.84  212.94
   2   3  22  729.13  718.74
   2  -3  22  144.15  649.46
  -2  -3 -22  611.85  360.21
  -2   3 -22  226.68  391.40
   2   3  23 2561.72 1060.29
   2  -3  23  530.40  687.90
  -2  -3 -23 2343.81  735.39
  -2   3 -23 1870.59  576.02
   2   3  24 2039.77  719.72
   2  -3  24  457.96  615.77
  -2  -3 -24 -273.72  339.58
  -2   3 -24  -34.00  269.57
   2  -3  25 2204.21 1088.63
  -2  -3 -25 1280.68  761.07
  -2   3 -25  981.22  431.27
  -2   4  27 1013.68 1307.15
   2   4 -26  -33.51  428.14
   2  -4 -26 1031.85  425.14
  -2  -4  26 1926.96 1017.79
  -2   4  26  899.96  816.77
   2   4 -25  261.75  427.39
   2  -4 -25  751.07  301.23
  -2  -4  25 1828.80  989.35
  -2   4  25 1756.05 1086.76
   2   4 -24  271.32  365.94
   2  -4 -24  529.59  263.21
  -2  -4  24  576.02  851.84
  -2   4  24 1712.10  951.38
   2   4 -23  123.61  255.64
   2  -4 -23  911.26  354.91
  -2  -4  23 2054.98  806.13
  -2   4  23 1702.50  907.53
   2   4 -22  317.00  344.06
   2  -4 -22  415.06  325.05
  -2  -4  22  645.47  715.23
  -2   4  22 1012.71  802.32
   2   4 -21  528.57  333.12
   2  -4 -21  187.90  231.39
  -2  -4  21  817.34  500.90
  -2   4  21 2554.22  778.83
   2   4 -20  460.57  332.13
   2  -4 -20  101.43  272.23
  -2  -4  20  574.80  433.38
  -2   4  20  219.32  496.51
   2   4 -19  178.79  285.98
   2  -4 -19  205.73  254.92
  -2  -4  19  204.24  389.91
  -2   4  19  224.19  436.44
   2  -4 -18  478.40  202.99
   2   4 -18  368.35  306.86
  -2  -4  18  271.21  400.01
  -2   4  18  497.91  633.14
   2   4 -17 1832.46  464.80
   2  -4 -17 2377.55  385.81
  -2  -4  17 2165.23  720.97
  -2   4  17 2724.25  918.82
   2  -4 -16  109.28  139.52
   2   4 -16    2.92  229.79
  -2  -4  16 -143.87  362.26
  -2   4  16  -11.52  451.69
   2   4 -15 1871.11  360.56
   2  -4 -15 2437.43  364.12
  -2  -4  15 2078.00  475.71
  -2   4  15 2597.98  594.46
   2   4 -1410832.94  977.94
   2  -4 -1411577.46  837.09
  -2  -4  1410917.55 1253.54
  -2   4  1411162.26 1529.85
   2   4 -13 3760.41  606.41
   2  -4 -13 3513.33  386.74
  -2  -4  13 3792.13  672.70
  -2   4  13 2963.82  622.06
   2   4 -12  385.52  234.40
   2  -4 -12  330.51  161.30
  -2  -4  12  508.80  253.56
  -2   4  12  202.18  323.05
   2   4 -11 7592.83  843.69
   2  -4 -11 6563.30  574.50
  -2  -4  11 6085.17  818.53
  -2   4  11 6739.65  784.74
   2   4 -1010809.23  879.44
   2  -4 -10 8284.84  680.32
  -2  -4  1011010.22 1006.73
  -2   4  1010185.35 1215.25
   2  -4  -9 6088.07  567.25
   2   4  -9 7593.12  861.06
  -2  -4   9 6433.02  757.66
  -2   4   9 6562.93  939.32
   2   4  -8 1662.84  358.03
   2  -4  -8 1457.10  274.74
  -2  -4   8 1482.51  392.55
  -2   4   8 1024.10  374.10
   2   4  -7  526.68  261.37
   2  -4  -7  432.74  159.90
  -2  -4   7  401.11  272.11
  -2   4   7  414.40  366.78
   2  -4  -6 1063.39  212.11
   2   4  -6  575.18  283.94
  -2  -4   6  572.70  204.54
  -2   4   6  775.99  385.55
   2  -4  -546862.77 2818.39
   2   4  -542615.65 3336.21
  -2   4   543691.10 2984.59
  -2  -4   542350.97 2787.46
   2   4  -461190.14 4421.96
   2  -4  -459634.37 3646.65
  -2  -4   459233.68 3506.87
  -2   4   451841.38 3472.23
  -2   4   447299.55 3476.56
   2  -4  -313814.97  736.06
   2   4  -313181.35  890.23
   2   4  -314075.06  622.19
  -2   4   313482.17  800.77
  -2   4   313913.98 1192.13
  -2  -4   314586.75  818.83
   2   4  -2462012.868159.25
   2  -4  -2482909.767672.46
  -2   4   2474270.766048.13
  -2   4   2467101.967801.44
   2   4  -1139741.210514.25
   2  -4  -1133447.310418.03
   2   4  -1138774.412165.62
  -2   4   1152385.911988.82
  -2   4   1141123.512505.66
  -2  -4   1139808.711007.80
   2   4   016631.33  631.23
   2   4   015742.18 1069.59
   2  -4   015695.14  736.15
  -2  -4   015878.60  684.33
  -2   4   015616.80 1102.14
  -2   4   015856.05  612.66
   2   4   192876.51 5748.76
   2  -4   194672.14 6102.91
   2  -4   187176.52 5405.17
   2  -4   193814.58 6815.98
   2   4   189998.03 6448.99
  -2  -4  -1103235.4 6239.63
   2   4   219352.48  752.17
   2   4   223331.14  754.91
   2   4   220852.03 1177.83
   2  -4   220201.86 1044.52
   2  -4   222005.64  831.43
   2  -4   223339.43  900.97
   2   4   3  236.07   38.74
   2  -4   3  383.29   45.87
   2  -4   3  608.88  159.78
  -2   4  -3  206.88   74.25
   2   4   4   67.31   38.48
   2  -4   4  247.42  126.97
   2  -4   4  108.90   41.58
  -2  -4  -4  100.36  118.38
  -2  -4  -4   94.99   47.56
  -2   4  -4   93.78   69.89
   2   4   517348.77  687.41
   2  -4   517231.53  832.11
   2  -4   516580.78  674.69
  -2  -4  -520399.17 1109.78
  -2   4  -522498.21  916.02
   2   4   6 3356.99  183.64
   2  -4   6 2699.29  223.41
  -2  -4  -6 2868.44  287.52
  -2   4  -6 3109.83  213.76
   2  -4   738898.82 2244.06
   2   4   737355.54 1887.09
  -2  -4  -732272.20 1577.54
  -2   4  -737754.21 1968.85
  -2  -4  -740189.41 2585.34
   2   4   8 2497.25  246.34
   2  -4   8 2971.70  240.05
  -2  -4  -8 1815.43  296.51
  -2   4  -8 2937.91  243.15
   2   4   917901.49 1010.43
   2  -4   917323.85 1053.17
  -2   4  -916827.68  872.08
  -2  -4  -917036.52 1067.31
   2   4  10 6224.38  505.16
   2  -4  10 5356.99  384.16
  -2  -4 -10 6719.66  664.16
  -2   4 -10 6427.34  428.09
   2   4  11 2042.44  376.97
   2  -4  11 2505.00  326.18
  -2  -4 -11 2149.06  311.69
  -2   4 -11 2229.69  274.24
   2   4  12 9707.09  829.30
   2  -4  1210050.34  774.25
  -2  -4 -12 9396.20  716.64
  -2   4 -12 9106.68  628.45
   2  -4  13  752.66  235.60
   2   4  13  181.91  280.13
  -2  -4 -13  521.05  196.46
  -2   4 -13  145.96  138.17
   2   4  14 7873.89  868.77
   2  -4  14 8190.77  782.62
  -2  -4 -14 6969.15  854.52
  -2   4 -14 9248.84  571.97
   2   4  15  824.77  442.92
   2  -4  15 1190.26  346.40
  -2  -4 -15  943.11  287.56
  -2   4 -15  885.47  265.53
   2   4  16  299.33  361.03
   2  -4  16  143.45  226.11
  -2  -4 -16 -119.39  229.30
  -2   4 -16  447.58  216.93
   2   4  17 2352.73  647.40
   2  -4  17 1534.23  546.11
  -2  -4 -17 1367.69  431.58
  -2   4 -17 2377.24  309.71
   2   4  18  295.27  409.94
   2  -4  18  -26.76  373.78
  -2   4 -18  197.96  248.85
  -2  -4 -18  102.82  258.60
   2   4  19  365.90  514.84
   2  -4  19  311.23  416.54
  -2  -4 -19 -138.33  273.12
  -2   4 -19  355.44  209.23
   2   4  20  928.59  570.84
   2  -4  20   71.99  450.92
  -2   4 -20  254.94  306.91
  -2  -4 -20  112.21  418.95
   2   4  21  230.60  581.93
   2  -4  21  601.73  524.63
  -2  -4 -21    4.26  423.09
  -2   4 -21  122.44  308.92
   2   4  22 4918.77 1208.19
   2  -4  22 1817.32  998.82
  -2  -4 -22 1790.77  596.05
  -2   4 -22 3256.63  508.55
   2   4  23 1079.04  950.78
   2  -4  23 1504.32  823.47
  -2  -4 -23  762.24  636.62
  -2   4 -23  879.46  483.44
   2  -4  24  691.09  664.15
  -2  -4 -24  983.08  517.24
  -2   4 -24 1514.48  547.59
   2  -4  25  365.21  691.47
  -2  -4 -25 1861.49  739.44
  -2   4 -25  882.89  562.00
  -2   5  27 3111.78 1806.73
   2   5 -26  -18.45  402.87
   2  -5 -26  608.91  387.28
  -2  -5  26 1227.63  923.91
  -2   5  26 -193.85  995.64
   2   5 -25 1027.62  525.39
   2  -5 -25 1758.63  513.66
  -2  -5  25 2627.21 1160.74
  -2   5  25 1556.49  931.08
   2   5 -24   -4.49  248.59
   2  -5 -24  478.66  243.16
  -2  -5  24  405.54  745.80
  -2   5  24  599.15  842.42
   2   5 -23  179.70  255.49
   2  -5 -23  312.48  237.58
  -2  -5  23  360.46  739.62
  -2   5  23 1613.16  609.62
   2  -5 -22 1040.29  378.54
   2   5 -22  256.98  391.23
  -2  -5  22 1652.38  806.06
  -2   5  22 1056.80  908.09
   2   5 -21  829.12  388.98
   2  -5 -21  915.60  381.56
  -2  -5  21 1137.43  802.16
  -2   5  21 2755.83  939.41
   2   5 -20  -62.15  293.38
   2  -5 -20  -93.66  246.81
  -2  -5  20 -141.19  543.04
  -2   5  20 -283.85  441.85
   2   5 -19  727.13  335.73
   2  -5 -19  277.52  210.90
  -2  -5  19 1154.97  561.51
  -2   5  19  526.43  519.32
   2   5 -18 2246.07  472.41
   2  -5 -18 2097.30  418.11
  -2  -5  18 1079.36  720.55
  -2   5  18 1449.46  666.52
   2  -5 -17 4336.13  523.90
   2   5 -17 4040.12  580.41
  -2  -5  17 3629.94  917.34
  -2   5  17 3985.12  841.32
   2   5 -16 6607.06  597.04
   2  -5 -16 5532.90  463.64
  -2  -5  16 4055.05  971.78
  -2   5  16 4350.50 1190.71
   2   5 -15 3073.60  592.17
   2  -5 -15 4097.40  355.28
  -2   5  15 3228.59 1011.16
  -2  -5  15 5289.96  641.84
   2   5 -1423860.77 1667.01
   2  -5 -1420444.19 1407.33
  -2  -5  1422183.80 1734.08
  -2   5  1421627.21 2375.14
   2   5 -13  578.16  252.98
   2  -5 -13  426.59  159.88
  -2   5  13  235.08  342.54
  -2  -5  13  520.05  354.65
   2   5 -1245693.52 3241.77
   2  -5 -1242948.00 2786.30
  -2  -5  1241913.15 3354.31
  -2   5  1244974.11 3535.04
   2   5 -11 7342.10  846.49
   2  -5 -11 6472.16  520.02
  -2  -5  11 7037.73  627.66
  -2   5  11 7191.96 1038.57
   2   5 -10  150.97  248.31
   2  -5 -10  259.44  194.92
  -2  -5  10  130.53  279.04
  -2   5  10  388.13  272.63
   2   5  -922323.60 1648.05
   2  -5  -920989.90 1119.47
  -2  -5   919851.49 1293.20
  -2   5   922164.91 1682.10
   2   5  -8  822.22  430.43
   2  -5  -8  714.29  203.78
  -2   5   8  601.76  437.47
  -2  -5   8  687.98  216.66
   2   5  -7 1499.14  355.35
   2  -5  -7 1294.40  244.37
  -2   5   7 1239.49  500.48
  -2  -5   7 1456.89  320.13
   2   5  -636530.96 2816.94
   2  -5  -633752.02 1739.43
  -2   5   636201.24 2857.29
  -2  -5   633972.45 1939.94
   2  -5  -513340.64  743.79
   2   5  -512977.72  959.92
  -2   5   512525.02  959.42
  -2  -5   512096.03  825.44
   2   5  -4  398.86  331.38
   2  -5  -4  582.97  156.40
  -2  -5   4  607.78  189.79
  -2   5   4  462.01  204.71
  -2   5   4  593.24  338.28
   2   5  -319356.13  816.48
   2   5  -317688.29 1171.26
   2  -5  -317360.15  936.94
  -2   5   318641.96 1497.77
  -2   5   319909.29  996.81
  -2  -5   322710.51 1170.17
   2   5  -2114161.7 7950.95
   2  -5  -2110108.9 8027.04
   2   5  -2109168.7 9283.25
  -2  -5   2125013.7 9090.32
  -2   5   2115643.4 8517.33
  -2   5   2112060.6 9602.30
   2   5  -151994.81 2441.98
   2  -5  -141721.60 2210.48
   2   5  -145545.95 3131.01
  -2  -5   146463.58 2477.31
  -2   5   144213.37 2253.66
  -2   5   143026.33 3104.64
   2   5   0 8692.21  560.57
   2   5   0 9383.88  289.99
   2  -5   0 7112.13  326.74
  -2  -5   0 8560.72  401.28
  -2   5   0 8420.67  739.20
  -2   5   0 9465.23  318.38
   2   5   1  314.55  129.05
   2  -5   1  195.77   70.34
   2  -5   1  386.19   50.94
   2  -5   1  303.65  162.54
   2  -5   2 8005.50  277.39
   2  -5   2 7243.60  543.21
   2  -5   2 7561.47  238.14
   2   5   2 8471.39  535.00
   2   5   3  174.70   35.22
   2   5   3  256.96  109.86
   2  -5   3  288.47  119.07
   2  -5   3  270.59   45.42
  -2   5  -3  313.59   59.68
   2   5   4    2.26   52.41
   2  -5   4   35.76   88.52
   2  -5   4   -8.81   37.93
  -2  -5  -4   36.50   30.09
  -2   5  -4   53.94   51.63
  -2  -5  -4  216.02  157.14
   2   5   5  -29.16   66.63
   2  -5   5  -29.84   49.82
   2  -5   5  251.24  129.33
  -2  -5  -5   31.01  168.49
  -2   5  -5  -20.75   60.41
  -2  -5  -5  -16.82   37.30
   2   5   619129.01  907.08
   2  -5   621276.17 1185.30
  -2  -5  -614865.74 1073.88
  -2  -5  -619417.04  760.41
  -2   5  -622072.26  942.48
   2   5   717988.19  957.87
   2  -5   717960.00 1070.59
  -2  -5  -717249.58  740.94
  -2  -5  -718903.32 1298.28
  -2   5  -720132.95  922.83
   2  -5   818228.39  981.26
   2   5   818803.57 1005.28
  -2  -5  -818383.01 1202.77
  -2   5  -820067.89  989.01
   2   5   9 3726.27  343.56
   2  -5   9 2162.63  356.95
  -2  -5  -9 3756.88  469.81
  -2   5  -9 3391.54  276.85
   2  -5  1036898.98 2188.04
   2   5  1038865.85 2477.17
  -2  -5 -1036949.11 2423.72
  -2   5 -1040986.04 2320.37
   2   5  11  981.70  274.20
   2  -5  11 1824.13  265.81
  -2  -5 -11 1606.27  338.56
  -2   5 -11  626.72  195.62
   2   5  12 6176.58  579.94
   2  -5  12 4913.16  533.24
  -2  -5 -12 5492.84  670.33
  -2   5 -12 5747.00  438.62
   2   5  1325214.59 1893.19
   2  -5  1324786.45 1742.05
  -2  -5 -1325258.06 1998.46
  -2   5 -1325115.79 1535.71
   2   5  1416661.52 1486.56
   2  -5  1417325.21 1348.26
  -2  -5 -1417613.49 1305.65
  -2   5 -1418167.38 1157.11
   2   5  15  934.50  425.44
   2  -5  15 1042.75  350.06
  -2  -5 -15  960.82  393.13
  -2   5 -15  729.78  258.30
   2   5  16  605.93  484.80
   2  -5  16  753.58  338.76
  -2   5 -16  709.70  268.86
  -2  -5 -16  597.53  391.19
   2   5  17 8265.43 1085.76
   2  -5  17 7272.82  965.39
  -2  -5 -17 6148.55  771.68
  -2   5 -17 8469.55  623.21
   2   5  18  261.80  470.85
   2  -5  18  139.59  360.43
  -2  -5 -18  179.24  267.50
  -2   5 -18  270.64  252.23
   2   5  19 1982.59  760.24
   2  -5  19 2920.31  497.85
  -2  -5 -19 1326.53  445.18
  -2   5 -19  985.02  304.37
   2  -5  20 6106.64  806.58
   2   5  20 4524.65 1250.20
  -2  -5 -20 2846.76  959.74
  -2   5 -20 5299.38  706.32
   2   5  21 1800.47  823.56
   2  -5  21 1035.14  471.01
  -2  -5 -21  796.16  594.91
  -2   5 -21 1074.84  420.97
   2  -5  22   47.49  420.41
   2   5  22  460.76  675.73
  -2  -5 -22  302.97  346.31
  -2   5 -22  242.37  339.77
   2   5  23 1762.50  897.56
   2  -5  23 1455.57  729.98
  -2  -5 -23 -207.42  617.89
   2  -5  24  904.51  726.19
  -2  -5 -24 1869.36  557.96
  -2   5 -24 -764.38  405.54
   2  -5  25  513.64  848.43
  -2  -5 -25  221.58  659.35
  -2   5 -25  764.14  502.25
   2   6 -26  632.90  535.94
   2  -6 -26 1688.29  533.89
  -2  -6  26 2493.16  901.44
  -2   6  26 1105.28 1330.55
   2  -6 -25  554.04  382.81
   2   6 -25  127.55  381.52
  -2  -6  25 1549.19  645.40
  -2   6  25 -500.06  710.26
   2  -6 -24 3392.28  649.21
   2   6 -24 3892.57  527.47
  -2  -6  24 2085.77 1041.52
  -2   6  24 3151.73 1587.85
   2   6 -23  114.86  209.90
   2  -6 -23  -25.80  273.21
  -2  -6  23 -642.38  445.22
  -2   6  23  879.78  507.91
   2  -6 -22  186.31  224.39
   2   6 -22  228.14  322.40
  -2  -6  22  936.29  499.98
  -2   6  22  273.75  766.14
   2  -6 -21  184.08  220.69
   2   6 -21  547.82  355.60
  -2  -6  21  542.46  443.41
  -2   6  21 1311.80  761.07
   2   6 -20   65.59  306.88
   2  -6 -20  261.32  199.08
  -2  -6  20   50.38  383.71
  -2   6  20  887.20  660.24
   2   6 -19  346.59  268.99
   2  -6 -19  -28.99  235.07
  -2   6  19  -58.52  564.47
  -2  -6  19   33.25  339.91
   2  -6 -18  273.96  224.66
   2   6 -18  -33.27  269.57
  -2  -6  18  169.87  327.52
  -2   6  18 -156.75  546.43
   2   6 -17  216.85  229.61
   2  -6 -17  444.14  259.54
  -2  -6  17 1373.80  383.81
  -2   6  17  487.14  632.06
   2  -6 -16  503.13  235.48
   2   6 -16  -40.42  313.38
  -2  -6  16  214.95  294.05
  -2   6  16  219.07  386.86
   2   6 -15 1600.88  319.09
   2  -6 -15 1842.31  241.60
  -2  -6  15  822.56  392.96
  -2   6  15  847.40  713.96
   2   6 -14 3609.75  628.44
   2  -6 -14 2886.20  293.65
  -2  -6  14 3107.59  485.85
  -2   6  14 3336.52  648.26
   2   6 -1313819.95 1309.37
   2  -6 -1314497.19  953.21
  -2  -6  1313919.96 1331.85
  -2   6  1312817.00 1312.53
   2   6 -1237842.27 3018.96
   2  -6 -1236872.83 2329.88
  -2  -6  1237383.64 2905.02
  -2   6  1234672.75 2858.41
   2   6 -1127907.08 2012.59
   2  -6 -1128092.22 1707.04
  -2  -6  1128900.61 2236.35
  -2   6  1128151.60 2655.65
   2   6 -10 1516.62  445.12
   2  -6 -10  979.13  161.41
  -2  -6  10  447.80  232.86
  -2   6  10 1189.30  507.36
   2   6  -9  525.79  313.49
   2  -6  -9  602.57  180.76
  -2   6   9  205.71  431.53
  -2  -6   9  536.65  280.87
   2   6  -8  263.76  329.36
   2  -6  -8   14.60  155.61
  -2  -6   8  156.21  204.42
  -2   6   8   48.44  335.14
   2   6  -7 -123.56  245.71
   2  -6  -7  223.09  147.16
  -2   6   7  254.39  360.04
  -2  -6   7  395.42  206.62
   2   6  -6  501.10  355.50
   2  -6  -6  347.12  136.27
  -2  -6   6  278.01  145.00
  -2   6   6  128.75  351.76
   2   6  -521712.43 1468.08
   2  -6  -522844.08 1112.49
  -2  -6   518167.94  971.46
  -2   6   520094.34 1432.46
   2   6  -4 8295.34  794.44
   2  -6  -4 7289.77  377.02
  -2  -6   4 5973.73  447.39
  -2   6   4 5661.35  607.33
  -2   6   4 7037.26  527.85
   2   6  -316875.08 1100.69
   2   6  -316656.27  714.84
   2  -6  -319399.24  838.92
  -2  -6   316884.35  823.63
  -2   6   317652.67 1195.93
  -2   6   316596.67  852.97
   2   6  -2 -175.49  229.26
   2   6  -2   63.20   45.13
   2  -6  -2   20.88   85.65
  -2  -6   2   16.43   89.00
  -2   6   2   58.58   81.33
  -2   6   2  684.15  243.67
   2   6  -172739.01 5761.26
   2  -6  -174407.90 4591.82
   2   6  -188619.41 5111.62
  -2  -6   184821.94 5232.92
  -2   6   187863.62 6319.04
  -2   6   181473.55 4931.19
   2   6   0 8428.71  660.52
   2   6   0 7522.76  218.57
  -2  -6   0 6938.32  300.92
  -2   6   0 7247.76  228.23
  -2   6   0 7664.77  711.29
   2   6   1 2202.09  335.09
   2  -6   1 2316.79  125.86
   2  -6   1 1827.99  233.24
   2  -6   1 2079.93   79.09
  -2  -6  -1 1800.82   74.95
   2   6   2  382.28  152.19
   2  -6   2   83.14   41.28
   2  -6   2  142.25   33.13
   2  -6   2  293.55  168.88
   2   6   3 3630.92  253.28
   2  -6   3 4378.14  383.82
  -2   6  -3 3523.54  163.92
   2   6   4 2637.80  145.42
   2  -6   4 2145.46  121.05
   2  -6   4 2301.35  273.34
  -2  -6  -4 2554.72  256.99
  -2  -6  -4 2351.56   78.27
  -2   6  -4 2428.86  115.01
   2   6   5 3237.91  224.74
   2  -6   5 4192.49  358.26
  -2  -6  -5 3790.02  125.49
  -2  -6  -5 3347.89  439.41
  -2   6  -5 3596.54  166.41
   2   6   6  918.56  172.18
   2  -6   6 1102.07  177.18
  -2  -6  -6 1117.11  329.86
  -2   6  -6 1324.63  109.79
  -2  -6  -6 1165.93   88.03
   2   6   712543.74  657.81
   2  -6   714926.77  910.01
  -2  -6  -713742.00  528.80
  -2  -6  -717497.76 1290.45
  -2   6  -715890.72  704.39
   2   6   812432.45  795.36
   2  -6   812850.36  804.58
  -2  -6  -810220.35  442.18
  -2  -6  -8 9628.57  911.02
  -2   6  -813322.15  629.66
   2   6   9  650.25  201.58
   2  -6   9  846.55  226.27
  -2  -6  -9  546.17  308.95
  -2   6  -9  874.69  149.94
   2   6  10 2649.47  334.38
   2  -6  10 2644.98  256.14
  -2  -6 -10 2285.07  428.72
  -2   6 -10 2200.45  234.91
   2   6  1119076.45 1259.68
   2  -6  1114787.66 1093.86
  -2  -6 -1116146.26 1115.87
  -2   6 -1116778.79  915.39
   2   6  1214864.10 1113.18
   2  -6  1212686.00  984.24
  -2  -6 -1213218.19  987.50
  -2   6 -1213960.22  821.27
   2   6  13 1289.27  434.16
   2  -6  13 1395.37  328.19
  -2  -6 -13 1396.08  319.14
  -2   6 -13 1409.43  239.05
   2   6  14  530.43  385.59
   2  -6  14 1268.44  339.44
  -2  -6 -14 1275.82  406.48
  -2   6 -14 1239.28  244.42
   2   6  15  735.00  416.19
   2  -6  15  451.09  231.28
  -2  -6 -15  831.07  267.18
  -2   6 -15  456.41  160.71
   2   6  16 4242.91  944.30
   2  -6  16 6374.70  752.25
  -2  -6 -16 4935.18  843.33
  -2   6 -16 5652.79  566.12
   2   6  17  162.82  434.59
   2  -6  17   63.35  220.01
  -2  -6 -17   81.70  345.15
  -2   6 -17  228.71  166.06
   2   6  18 3511.68  805.03
   2  -6  18  952.32  452.83
  -2  -6 -18 2156.41  631.49
  -2   6 -18 2510.76  428.64
   2   6  19  121.81  500.07
   2  -6  19  128.32  365.06
  -2  -6 -19  298.35  377.87
  -2   6 -19   26.38  253.10
   2   6  20 1832.51  877.00
   2  -6  20 1952.25  697.61
  -2  -6 -20 1304.71  639.96
  -2   6 -20 1721.97  339.31
   2  -6  21 1147.76  713.25
   2   6  21 2525.20  899.38
  -2  -6 -21 1320.00  659.18
  -2   6 -21 1403.17  460.90
   2  -6  22  177.12  752.90
   2   6  22 1475.48  888.34
  -2  -6 -22 1644.95  463.82
  -2   6 -22  574.87  432.20
   2  -6  23 1315.19  604.01
  -2  -6 -23 -674.74  494.35
  -2   6 -23  186.03  348.45
   2  -6  24 1983.51  821.77
  -2  -6 -24 1020.12  677.02
  -2   6 -24  336.61  493.48
   2  -6  25 2495.61  789.96
  -2  -6 -25 1248.54  839.77
  -2   6 -25 1110.68  455.26
   2   7 -26  494.53  433.43
   2  -7 -26  485.55  317.50
  -2  -7  26  301.98  707.31
  -2   7  26 1156.89 1094.86
   2   7 -25  125.38  279.78
   2  -7 -25  300.44  277.91
  -2  -7  25 1252.72  634.32
  -2   7  25  993.62  955.24
   2   7 -24  832.73  318.62
   2  -7 -24  726.41  309.33
  -2  -7  24  509.90  930.09
  -2   7  24 1533.43 1051.38
   2   7 -23  902.97  430.02
   2  -7 -23  936.09  413.60
  -2  -7  23 1510.60  929.55
  -2   7  23 1078.75  750.07
   2  -7 -22  173.17  292.68
   2   7 -22   18.39  298.16
  -2  -7  22  214.16  584.36
  -2   7  22  630.76  710.47
   2   7 -21 1077.16  467.35
   2  -7 -21 1440.26  408.31
  -2   7  21 1265.98  964.53
  -2  -7  21  921.69  792.15
   2   7 -20 1589.23  495.53
   2  -7 -20 1635.12  437.91
  -2  -7  20 1993.95  842.65
  -2   7  20 1885.36 1001.93
   2   7 -19  356.56  339.66
   2  -7 -19  114.39  291.17
  -2  -7  19  262.37  566.79
  -2   7  19 2269.84  683.19
   2   7 -18 4011.77  436.55
   2  -7 -18 2166.04  494.30
  -2  -7  18 3621.15  934.25
  -2   7  18 3891.79 1086.72
   2   7 -17  806.24  365.26
   2  -7 -17  279.10  248.50
  -2   7  17   79.06  427.76
  -2  -7  17  262.26  332.59
   2   7 -16  838.90  387.83
   2  -7 -16  962.07  282.34
  -2  -7  16  545.90  366.71
  -2   7  16  866.02  645.35
   2   7 -1524265.38 2086.25
   2  -7 -1522215.14 1528.44
  -2  -7  1523095.89 1879.46
  -2   7  1523281.41 2161.01
   2  -7 -14 3898.31  410.21
   2   7 -14 2705.93  463.17
  -2  -7  14 2736.74  491.31
  -2   7  14 2976.98  665.58
   2   7 -13 1818.52  394.40
   2  -7 -13 1805.67  299.03
  -2   7  13 1729.33  496.17
  -2  -7  13 1387.89  524.36
   2   7 -12 -136.68  298.53
   2  -7 -12  249.70  163.77
  -2  -7  12   23.89  267.41
  -2   7  12   23.26  290.05
   2   7 -11 3735.88  691.52
   2  -7 -11 3932.71  373.89
  -2  -7  11 3224.07  552.95
  -2   7  11 3428.33  819.16
   2   7 -10 2088.96  553.63
   2  -7 -10 1115.14  239.91
  -2  -7  10 1312.34  362.49
  -2   7  10 1418.27  558.11
   2   7  -9 1852.53  622.29
   2  -7  -9 2722.05  286.77
  -2  -7   9 1702.29  416.85
  -2   7   9 2234.40  476.45
   2   7  -811719.93 1063.18
   2  -7  -812935.58  718.62
  -2  -7   811784.90  772.08
  -2   7   812144.69 1098.43
   2   7  -7  326.38  296.21
   2  -7  -7  492.11  144.25
  -2  -7   7  299.31  169.09
  -2   7   7  364.77  291.50
   2   7  -619148.07 1674.86
   2  -7  -618565.37  887.92
  -2  -7   616592.05 1020.73
  -2   7   619034.78 1394.69
   2   7  -520152.07 1599.43
   2  -7  -517378.01  785.63
  -2  -7   518602.45 1017.53
  -2   7   517983.71 1622.23
   2   7  -4 4916.08  537.31
   2  -7  -4 5360.32  275.42
  -2  -7   4 5182.51  361.00
  -2   7   4 5840.46  438.87
  -2   7   4 6496.00  749.99
   2   7  -3 6772.04  560.49
   2   7  -3 5512.05  266.53
   2  -7  -3 5853.60  240.56
  -2  -7   3 6772.60  366.49
  -2   7   3 6937.82  769.28
  -2   7   3 5776.92  354.96
   2   7  -2 1480.11  365.91
   2   7  -2 1179.15   82.15
   2  -7  -2 1218.45   90.67
  -2  -7   2  927.42  115.48
  -2   7   2  527.79  151.58
  -2   7   2 1231.37  370.59
   2   7  -119224.78 1128.01
   2   7  -117367.78  659.83
   2  -7  -116158.57  567.40
  -2  -7   118769.78  738.13
  -2   7   118453.49 1347.87
  -2   7   118536.30  775.66
   2   7   0   30.02   35.71
   2   7   0  100.81  145.86
  -2  -7   0   64.28   54.51
   2   7   123648.39 1298.61
   2  -7   121864.29 1416.67
   2   7   2  623.80  206.56
   2  -7   2  751.48  168.00
   2   7   3  395.77  179.93
   2  -7   3  373.94  205.53
  -2   7  -3  428.07   67.53
   2  -7   4 4787.13  402.65
  -2  -7  -4 4803.39  468.18
  -2   7  -4 4729.87  189.40
   2   7   534908.52 1741.12
   2  -7   537459.94 2313.11
  -2  -7  -536888.45 2304.72
  -2  -7  -538953.61 1651.71
  -2   7  -540191.10 1858.81
   2   7   6  270.82  113.00
   2  -7   6  103.96  166.92
   2  -7   6  -11.88   78.55
  -2  -7  -6  112.34   46.04
  -2  -7  -6  210.85  162.22
  -2   7  -6  154.70   64.80
   2   7   7  751.10  195.55
   2  -7   7  799.11  218.10
  -2  -7  -7  639.85   80.95
  -2  -7  -7  339.81  224.05
  -2   7  -7  687.43  116.06
   2  -7   8   81.12  129.65
   2   7   8  -13.69  175.45
  -2  -7  -8  129.90  225.26
  -2  -7  -8  243.31   59.87
  -2   7  -8  191.97   86.28
   2   7   9 1372.93  234.01
   2  -7   9 1505.26  202.00
  -2  -7  -9  914.66  253.61
  -2   7  -9 1259.69  140.02
   2   7  1021992.52 1462.87
   2  -7  1022511.00 1452.58
  -2  -7 -1025779.86 1875.48
  -2   7 -1022269.79 1159.15
   2   7  1131247.45 2131.76
   2  -7  1129323.98 1736.50
  -2  -7 -1131166.69 2072.90
  -2   7 -1128247.18 1566.76
   2   7  12 4429.14  618.48
   2  -7  12 4469.18  392.86
  -2  -7 -12 4086.67  610.59
  -2   7 -12 4522.06  357.10
   2   7  1311898.25 1236.29
   2  -7  1313131.07  870.74
  -2  -7 -1312872.29 1247.20
  -2   7 -1314490.71  863.17
   2   7  14 2798.12  613.00
   2  -7  14 2240.19  351.19
  -2  -7 -14 2598.68  422.92
  -2   7 -14 3357.38  338.60
   2   7  15 -203.68  277.15
   2  -7  15  416.11  231.75
  -2  -7 -15  138.91  275.96
  -2   7 -15  -48.27  117.87
   2   7  16 1400.50  549.13
   2  -7  16  959.71  302.88
  -2  -7 -16  386.67  328.74
  -2   7 -16 1495.68  279.50
   2   7  1711175.49 1335.83
   2  -7  1711374.25 1138.81
  -2  -7 -17 8799.49 1296.90
  -2   7 -1711800.45  918.59
   2   7  18  525.31  540.46
   2  -7  18  466.99  421.65
  -2  -7 -18  765.19  420.75
  -2   7 -18  246.82  255.19
   2   7  19  -27.58  489.99
   2  -7  19  -54.64  362.13
  -2  -7 -19    0.91  368.44
  -2   7 -19  214.49  239.51
   2   7  20   32.03  569.62
   2  -7  20  100.52  298.93
  -2  -7 -20  214.77  428.23
  -2   7 -20  277.66  278.80
   2   7  21 2362.36  768.78
   2  -7  21  607.26  430.96
  -2  -7 -21  692.49  399.88
  -2   7 -21  269.09  363.39
   2  -7  22  134.06  316.31
  -2  -7 -22 -212.86  296.74
  -2   7 -22   21.42  198.38
   2  -7  23  660.66  467.82
  -2  -7 -23  156.17  539.64
  -2   7 -23   93.23  366.31
   2  -7  24  373.08  547.19
  -2  -7 -24 1298.41  633.57
  -2   7 -24  195.85  428.22
   2  -7  25  -50.65  738.55
  -2  -7 -25  914.88  454.76
  -2   7 -25 -163.76  439.57
   2   8 -26  892.60  380.13
   2  -8 -26 1080.13  531.79
  -2  -8  26 1686.64  839.53
  -2   8  26 1861.44  957.82
   2   8 -25 1657.11  548.81
   2  -8 -25  999.45  567.93
  -2  -8  25 3990.05 1228.20
  -2   8  25 3864.53 1402.90
   2   8 -24  389.29  379.81
   2  -8 -24  135.63  373.20
  -2  -8  24  556.38  836.18
  -2   8  24 1770.61  940.20
   2   8 -23 2221.85  551.74
   2  -8 -23 1992.54  538.67
  -2  -8  23 2274.22 1056.11
  -2   8  23 1828.57  950.29
   2   8 -22 1236.10  553.84
   2  -8 -22 1607.89  480.62
  -2  -8  22 2651.79  938.62
  -2   8  22 2253.31  843.40
   2   8 -21  126.83  313.18
   2  -8 -21  142.63  278.69
  -2  -8  21  134.32  398.29
  -2   8  21   20.07  686.44
   2   8 -20   95.43  277.15
   2  -8 -20   32.61  239.50
  -2  -8  20  -53.46  353.58
  -2   8  20  204.74  600.18
   2   8 -19  444.63  351.36
   2  -8 -19  124.54  293.29
  -2  -8  19  810.44  397.29
  -2   8  19  954.82  525.07
   2   8 -18 1291.42  304.59
   2  -8 -18  776.21  346.46
  -2  -8  18 1522.57  637.28
  -2   8  18 1564.11  604.67
   2   8 -17 1512.67  491.77
   2  -8 -17  894.03  341.70
  -2  -8  17 2097.93  628.37
  -2   8  17 2649.16  817.26
   2   8 -16   57.43  245.89
   2  -8 -16  456.13  240.76
  -2  -8  16  293.52  440.63
  -2   8  16 1185.49  429.44
   2   8 -15  361.26  332.08
   2  -8 -15   53.27  193.67
  -2  -8  15  -54.72  354.68
  -2   8  15  365.10  473.29
   2  -8 -14 1219.50  277.60
   2   8 -14 1311.96  474.53
  -2  -8  14 1173.76  459.49
  -2   8  14 1745.65  666.81
   2   8 -13  370.03  403.95
   2  -8 -13  706.11  161.20
  -2  -8  13  507.47  369.43
  -2   8  13  264.64  394.22
   2  -8 -12 9342.09  533.26
   2   8 -1210633.60 1151.85
  -2  -8  12 8135.34  935.25
  -2   8  12 8133.48 1298.86
   2  -8 -11 8432.91  598.89
   2   8 -11 8733.36 1065.12
  -2  -8  11 8458.84  855.63
  -2   8  11 7998.71  909.81
   2   8 -10 8855.25  897.00
   2  -8 -10 8265.18  598.05
  -2  -8  1010395.43  873.05
  -2   8  10 9466.84  945.56
   2   8  -9  141.41  341.01
   2  -8  -9  129.88  100.62
  -2  -8   9  -67.77  148.56
  -2   8   9  129.64  351.88
   2   8  -8 1389.84  518.83
   2  -8  -8 1268.63  204.45
  -2  -8   8 1219.61  219.19
  -2   8   8  880.33  510.07
   2   8  -739551.66 3400.09
   2  -8  -737557.24 2034.03
  -2  -8   739674.84 2492.12
  -2   8   738511.92 3314.88
   2   8  -613941.94 1129.37
   2  -8  -613441.56  673.37
  -2  -8   614168.36  873.97
  -2   8   615342.38 1444.83
   2   8  -558014.85 4169.90
   2  -8  -553701.72 3024.69
  -2  -8   559613.90 3685.75
  -2   8   556333.70 4165.39
   2   8  -434805.57 2638.05
   2  -8  -434994.67 1596.44
  -2  -8   435522.44 1867.90
  -2   8   430710.26 1867.53
  -2   8   434151.57 2346.35
   2   8  -310716.27  789.48
   2  -8  -310211.78  385.59
   2   8  -3 9208.33  412.84
  -2  -8   310555.54  515.25
  -2   8   310660.61 1015.94
  -2   8   3 9958.62  531.14
   2   8  -2 4075.86  420.58
   2   8  -2 3608.51  178.94
  -2  -8   2 3490.21  197.81
  -2   8   2 3880.13  429.39
   2   8  -1 9123.67  600.69
   2   8  -1 7708.94  293.08
   2  -8  -1 7387.78  206.39
  -2  -8   1 9360.55  338.49
  -2   8   1 7011.53  320.55
  -2   8   1 7689.62  798.86
   2   8   0 6990.88  237.27
   2   8   0 8072.06  546.46
   2  -8   0 6485.82  537.90
   2   8   1 7319.72  610.12
   2  -8   1 6460.75  568.68
  -2  -8  -1 6182.90  217.07
   2   8   2 7294.22  570.42
   2  -8   2 6393.61  573.34
   2   8   3 3211.55  308.69
   2  -8   3 2297.30  137.60
   2  -8   3 2774.80  362.45
  -2   8  -3 2404.39  102.01
   2   8   4   46.88   84.60
   2  -8   4  130.45   86.26
   2  -8   4  422.70  174.06
  -2   8  -4  384.68   54.65
   2   8   5 4185.84  252.39
   2  -8   5 3356.63  392.02
   2  -8   5 2992.12  258.48
  -2  -8  -5 4296.31  475.92
  -2  -8  -5 3855.74  123.38
   2   8   6 8795.42  468.69
   2  -8   6 8454.99  485.57
   2  -8   6 8521.60  662.72
  -2  -8  -610246.37  716.45
  -2  -8  -6 9490.04  335.16
  -2   8  -6 9524.98  368.36
   2   8   7 3254.66  306.06
   2  -8   7 1983.35  345.28
  -2  -8  -7 3731.31  494.08
  -2  -8  -7 2864.07  153.23
  -2   8  -7 2834.83  174.07
   2   8   8 4428.49  341.18
   2  -8   8 3181.53  392.07
  -2  -8  -8 5034.90  474.14
  -2  -8  -8 3576.67  174.06
  -2   8  -8 4056.54  217.51
   2   8   9 7190.75  529.51
   2  -8   9 5660.50  552.14
  -2  -8  -9 5942.56  555.97
  -2   8  -9 7354.65  371.89
   2   8  10 2766.82  432.83
   2  -8  10 2860.33  285.32
  -2   8 -10 3280.15  217.51
  -2  -8 -10 2008.25  370.97
   2   8  1112502.63  922.86
   2  -8  1111595.23  872.42
  -2  -8 -1111117.34 1106.17
  -2   8 -1111489.13  651.31
   2   8  12 6813.24  667.44
   2  -8  12 5776.63  608.65
  -2  -8 -12 6286.09  590.23
  -2   8 -12 6684.25  454.66
   2   8  13  774.07  395.81
   2  -8  13 1113.23  301.91
  -2  -8 -13  677.23  277.51
  -2   8 -13  890.44  199.48
   2   8  14  120.16  287.08
   2  -8  14 -350.24  205.83
  -2  -8 -14  280.53  261.90
  -2   8 -14   14.39  138.60
   2   8  1520476.68 2064.11
   2  -8  1521667.98 1501.62
  -2  -8 -1520642.33 1709.26
  -2   8 -1523525.24 1469.04
   2   8  16 3180.27  809.45
   2  -8  16 1878.51  567.81
  -2   8 -16 4545.73  437.95
  -2  -8 -16 2553.29  694.04
   2   8  17  341.92  478.86
   2  -8  17  120.87  239.22
  -2  -8 -17  226.40  282.71
  -2   8 -17  453.29  223.55
   2   8  18 5693.07 1237.79
   2  -8  18 6621.18  891.28
  -2  -8 -18 5604.60  801.45
  -2   8 -18 6364.13  531.44
   2   8  19 1760.77  769.40
   2  -8  19 1796.44  592.94
  -2  -8 -19 1122.75  605.82
  -2   8 -19 1068.84  381.79
   2   8  20  418.44  667.53
   2  -8  20  -29.86  477.82
  -2  -8 -20  836.62  380.48
  -2   8 -20  468.64  320.72
   2  -8  2110450.67 1359.22
  -2  -8 -21 4605.53  887.13
  -2   8 -21 6662.68  810.21
   2  -8  22 2554.72  878.40
  -2  -8 -22 1730.71  609.48
  -2   8 -22 2650.84  558.06
   2  -8  23 2590.45  911.72
  -2  -8 -23  845.08  857.50
  -2   8 -23 2374.39  580.62
   2  -8  24 3006.35  970.50
  -2  -8 -24  784.00  797.54
  -2   8 -24 1193.09  542.92
   2  -8  25 1102.26 1014.16
  -2  -8 -25 1105.44  635.68
  -2   8 -25 1508.66  441.60
   2   9 -26  739.41  466.21
   2  -9 -26  232.28  488.04
  -2  -9  26  892.94  765.94
  -2   9  26 1771.46  887.40
   2   9 -25 1301.23  486.14
   2  -9 -25  168.54  479.54
  -2  -9  25 1443.63 1059.73
  -2   9  25 2183.65 1191.55
   2   9 -24 3936.52  743.05
   2  -9 -24 3811.15  740.37
  -2  -9  24 3843.43 1396.90
  -2   9  24 4571.96 1748.78
   2   9 -23 3024.14  593.37
   2  -9 -23 1504.93  581.61
  -2  -9  23 3358.86 1141.66
  -2   9  23 3636.30 1028.67
   2   9 -22  783.49  469.73
   2  -9 -22 1196.22  431.03
  -2  -9  22 1193.76  606.70
  -2   9  22  434.96  721.65
   2   9 -21  394.77  406.42
   2  -9 -21  590.18  261.91
  -2  -9  21  490.34  520.83
  -2   9  21 1493.35  640.18
   2   9 -20  240.04  350.15
   2  -9 -20  219.24  216.04
  -2  -9  20  816.78  552.28
  -2   9  20  229.13  520.77
   2   9 -19 2032.32  452.30
   2  -9 -19  826.14  288.81
  -2  -9  19 2100.25  705.56
  -2   9  19 2477.99  934.10
   2   9 -18 1388.16  368.54
   2  -9 -18  563.06  344.72
  -2  -9  18 1849.60  643.02
  -2   9  18 1795.00  831.62
   2   9 -1710477.66 1207.54
   2  -9 -1710318.73  923.02
  -2  -9  1713374.53 1280.01
  -2   9  1710972.74 1488.26
   2   9 -1614972.74 1196.37
   2  -9 -1611511.34  980.86
  -2  -9  1612690.08 1275.44
  -2   9  1611228.19 1892.63
   2   9 -15  104.26  251.35
   2  -9 -15  173.22  154.18
  -2   9  15  137.36  497.27
  -2  -9  15  235.29  256.26
   2   9 -14  138.42  324.16
   2  -9 -14   -1.38  173.89
  -2  -9  14  116.02  301.80
  -2   9  14  102.91  417.92
   2   9 -13 1786.88  560.38
   2  -9 -13 2245.50  313.90
  -2  -9  13 1192.28  517.35
  -2   9  13 2859.27  730.61
   2   9 -12 3858.31  542.60
   2  -9 -12 3697.00  301.09
  -2   9  12 3095.65  878.69
  -2  -9  12 3993.42  625.23
   2   9 -11 1898.73  621.81
   2  -9 -11 2161.55  276.22
  -2  -9  11 2080.19  417.19
  -2   9  11 1872.49  494.85
   2   9 -10  290.67  377.76
   2  -9 -10  123.92  108.52
  -2  -9  10  165.55  173.29
  -2   9  10  390.71  292.73
   2   9  -9 1895.59  561.46
   2  -9  -9 1542.00  232.91
  -2  -9   9 2224.84  269.72
  -2   9   9 1418.79  586.09
   2   9  -8 1435.23  629.26
   2  -9  -8 2618.68  247.98
  -2  -9   8 2461.44  375.51
  -2   9   8 1932.35  657.51
   2   9  -727964.76 2151.56
   2  -9  -728604.38 1512.54
  -2  -9   728577.47 1765.33
  -2   9   729466.25 2233.07
   2   9  -6 1341.16  491.70
   2  -9  -6 1055.84  130.62
  -2  -9   6  937.48  233.07
  -2   9   6  754.90  475.14
   2  -9  -5 1030.40  112.14
   2   9  -5 1236.04  446.14
  -2   9   5  860.53  337.70
  -2  -9   5 1030.31  210.78
   2   9  -433001.32 2612.38
   2  -9  -433128.36 1546.22
  -2  -9   437186.97 1995.70
  -2   9   435064.44 2041.72
  -2   9   434057.70 2451.48
   2   9  -3 5165.37  698.72
   2  -9  -3 5081.61  209.11
  -2  -9   3 5559.59  273.05
  -2   9   3 5031.60  321.77
   2   9  -219673.58  813.39
   2   9  -221886.91 1634.62
   2  -9  -220080.51  711.30
  -2  -9   223471.96  980.28
  -2   9   222391.59 1703.68
  -2   9   217968.49  932.76
   2   9  -1 3122.60  373.60
   2   9  -1 3432.34  180.01
   2  -9  -1 3205.89  121.75
  -2  -9   1 3145.44  146.76
  -2   9   1 3114.51  522.98
   2   9   017169.70 1279.15
   2   9   016492.79  679.30
   2  -9   017128.49 1314.75
  -2  -9   016606.64  610.42
   2   9   112923.44  804.79
   2  -9   112399.80  952.21
  -2  -9  -111804.69  512.06
  -2  -9  -113778.07  456.40
   2   9   2 9159.85  706.59
   2  -9   2 8815.19  722.99
  -2  -9  -3 3128.43  109.87
  -2   9  -3 2873.46   79.51
   2   9   487748.29 6031.40
   2  -9   482993.06 5120.84
   2  -9   475862.77 5275.35
  -2  -9  -465512.56 3636.42
  -2  -9  -480442.21 4480.19
  -2   9  -466426.51 3631.15
   2   9   5 9754.01  413.94
   2  -9   5 9774.36  548.67
   2  -9   5 8470.71  643.71
  -2  -9  -5 8814.25  621.25
  -2  -9  -5 7968.37  292.21
  -2   9  -5 8193.68  294.36
   2   9   6 6760.76  388.57
   2  -9   6 6349.52  425.99
   2  -9   6 5488.62  487.86
  -2  -9  -6 6165.58  238.91
  -2  -9  -6 6393.43  669.98
  -2   9  -6 6405.68  273.52
   2   9   7 8866.32  540.65
   2  -9   7 7654.20  610.17
  -2  -9  -7 7389.67  309.88
  -2  -9  -7 9003.02  822.86
  -2   9  -7 8121.77  364.82
   2   9   817825.67 1096.34
   2  -9   817527.14 1139.16
  -2  -9  -816040.41  721.59
  -2  -9  -815877.86 1226.19
  -2   9  -818759.64  792.60
   2   9   9 8657.99  690.71
   2  -9   9 6908.14  602.76
  -2   9  -9 7713.13  391.38
  -2  -9  -9 8454.79  898.66
   2   9  10 1022.97  283.98
   2  -9  10 1929.29  231.36
  -2  -9 -10 1860.14  402.65
  -2   9 -10 1423.15  167.93
   2   9  11  304.70  228.60
   2  -9  11  463.76  214.55
  -2  -9 -11  164.25  211.38
  -2   9 -11  252.29  124.54
   2   9  12 5366.66  623.19
   2  -9  12 5283.31  548.52
  -2  -9 -12 3872.24  725.08
  -2   9 -12 4826.14  370.90
   2   9  13  623.16  333.20
   2  -9  13  672.21  285.26
  -2  -9 -13  462.45  358.90
  -2   9 -13  614.32  181.32
   2   9  14 6715.67  823.89
   2  -9  14 5195.70  510.88
  -2  -9 -14 5453.61  667.82
  -2   9 -14 6141.44  492.07
   2   9  15 3789.99  865.99
   2  -9  15 5216.69  635.07
  -2  -9 -15 3134.34  737.17
  -2   9 -15 3901.33  431.75
   2   9  1612421.06 1562.04
   2  -9  1610370.70 1135.12
  -2  -9 -1610422.80 1303.71
  -2   9 -1611960.83  904.93
   2   9  17   99.42  490.34
   2  -9  17  330.51  327.87
  -2   9 -17  210.77  213.05
  -2  -9 -17  155.90  387.53
   2   9  18 1424.76  756.22
   2  -9  18 1047.38  418.49
  -2  -9 -18 1621.97  484.37
  -2   9 -18 3132.98  399.44
   2   9  19  516.76  688.00
   2  -9  19  905.39  490.27
  -2  -9 -19  295.93  361.55
  -2   9 -19  638.22  292.33
   2  -9  20 1089.99  597.49
  -2  -9 -20  738.97  466.25
  -2   9 -20 1228.91  279.41
   2  -9  21  252.61  423.37
  -2  -9 -21  -74.76  320.37
  -2   9 -21  155.40  275.01
   2  -9  22 -409.52  495.48
  -2  -9 -22  114.88  468.43
  -2   9 -22  -76.40  302.10
   2  -9  23 -515.03  467.74
  -2  -9 -23  477.07  461.96
  -2   9 -23   27.71  286.74
   2  -9  24 -483.40  612.05
  -2  -9 -24  278.60  378.12
  -2   9 -24   56.63  336.55
   2  -9  25 1010.81  871.63
  -2   9 -25  559.06  493.16
   2  10 -26 1107.89  583.41
   2 -10 -26 1972.48  484.32
  -2  10  26 1617.19 1098.56
   2  10 -25  200.06  302.56
   2 -10 -25  473.07  322.40
  -2 -10  25  508.33  802.59
  -2  10  25  840.49 1010.75
   2  10 -24 2970.61  474.13
   2 -10 -24 1932.56  467.90
  -2 -10  24 2673.32 1208.26
  -2  10  24 3752.18 1511.38
   2 -10 -23  615.29  346.79
   2  10 -23  109.31  245.91
  -2 -10  23 -460.03  495.46
  -2  10  23 1089.11  829.71
   2 -10 -22 1082.09  361.58
   2  10 -22   58.81  314.15
  -2 -10  22  229.52  517.08
  -2  10  22 -181.65  850.77
   2  10 -21  355.95  256.15
   2 -10 -21  253.25  318.89
  -2 -10  21 -255.48  580.46
  -2  10  21  290.61  749.66
   2  10 -20 2649.34  602.34
   2 -10 -20 2751.64  557.04
  -2 -10  20 3285.58  941.89
  -2  10  20 2134.27 1211.13
   2 -10 -19   48.29  203.63
   2  10 -19  435.28  321.06
  -2 -10  19  670.90  517.37
  -2  10  19  772.43  659.83
   2  10 -1811230.68  981.11
   2 -10 -1810248.10  977.30
  -2 -10  18 9379.86 1232.18
  -2  10  1810198.21 1487.50
   2 -10 -17  719.92  315.05
   2  10 -17 1430.63  454.94
  -2 -10  17 1144.04  404.47
  -2  10  17 1011.06  775.02
   2  10 -16  495.27  324.40
   2 -10 -16  470.47  256.80
  -2 -10  16  742.30  438.31
  -2  10  16  -30.36  614.69
   2 -10 -15 1988.89  344.39
   2  10 -15 1366.63  414.79
  -2 -10  15 1131.32  561.67
  -2  10  15 2333.95  799.04
   2  10 -14 1454.78  520.56
   2 -10 -14 1208.37  292.96
  -2 -10  14 1324.18  372.82
  -2  10  14 2061.70  703.82
   2  10 -13  171.88  252.47
   2 -10 -13  -28.76  169.89
  -2 -10  13  235.80  203.58
  -2  10  13  480.25  437.44
   2 -10 -12 1370.37  234.04
   2  10 -12 1093.35  510.07
  -2 -10  12 1205.75  384.78
  -2  10  12  145.26  610.01
   2 -10 -11  659.88  190.47
   2  10 -11  320.73  338.13
  -2 -10  11  594.78  304.62
  -2  10  11  586.20  367.79
   2  10 -10  458.09  334.51
   2 -10 -10  956.15  186.86
  -2 -10  10  585.54  223.19
  -2  10  10  432.12  498.68
   2 -10  -9  337.74  152.22
  -2 -10   9  846.35  238.93
  -2  10   9  148.93  326.44
   2  10  -8 8446.86  960.49
   2 -10  -8 5482.73  370.89
  -2 -10   8 5911.46  539.50
  -2  10   8 5411.57  712.73
   2  10  -7 4510.75  806.59
   2 -10  -7 3935.10  289.66
  -2 -10   7 4614.55  338.61
  -2  10   7 3758.10  607.81
   2  10  -6 2186.58  615.06
   2 -10  -6 2418.49  197.69
  -2 -10   6 2340.87  317.03
  -2  10   6 2164.59  462.21
   2  10  -5 8046.45  950.07
   2 -10  -5 7953.34  353.33
  -2 -10   5 7427.30  480.55
  -2  10   5 7307.13  754.47
   2  10  -4   -4.89  260.29
   2 -10  -4   -7.78   52.98
  -2 -10   4    6.08  103.98
  -2  10   4  190.85  283.43
  -2  10   4  -67.86  102.10
   2  10  -3   12.31  334.70
   2 -10  -3  423.88   77.39
  -2 -10   3  354.07  120.21
  -2  10   3  351.04  114.14
  -2  10   3 1119.47  360.92
   2  10  -229285.89 2223.28
   2  10  -223319.87 1115.93
   2 -10  -235812.06 1477.22
  -2 -10   231124.88 1377.88
  -2  10   225940.51 1386.09
  -2  10   226843.97 1915.97
   2  10  -1 1020.92  243.00
   2  10  -1  543.28   81.47
  -2 -10   1  926.85  106.79
  -2  10   1  968.41  374.15
   2  10   0 6686.35  674.49
   2  10   0 5451.51  259.25
   2 -10   0 5432.09  534.88
  -2 -10   0 5955.67  221.29
   2  10   1  329.46  177.39
   2 -10   1  129.53  233.23
  -2 -10  -1  507.16   93.82
  -2 -10  -1  229.05   47.49
   2  10   2 7607.31  641.14
   2 -10   2 7435.62  518.98
  -2 -10  -2 6571.63  348.08
  -2 -10  -2 6808.19  228.54
   2  10   3  760.14  257.15
   2 -10   3  668.91  187.63
  -2 -10  -3  830.31   58.22
  -2 -10  -3  285.14   96.09
   2  10   440104.08 2482.87
   2 -10   435891.45 2058.11
   2 -10   431670.02 1584.34
  -2  10  -436777.09 1537.72
   2  10   5  564.61  111.93
   2 -10   5 1332.26  178.99
   2 -10   5  974.72  194.68
  -2 -10  -5  843.37  304.24
  -2  10  -5 1236.56   73.65
   2  10   6 8442.46  427.07
   2 -10   6 8161.46  608.58
   2 -10   6 5937.36  481.20
  -2 -10  -6 6094.96  538.21
  -2 -10  -6 5991.44  256.00
  -2  10  -6 7356.88  289.20
   2  10   7  550.57  167.27
   2 -10   7  470.84  158.20
  -2 -10  -7  301.76   86.74
  -2  10  -7  493.85   89.94
  -2 -10  -7  371.48  201.40
   2  10   8 6882.65  456.57
   2 -10   8 7118.38  563.02
  -2 -10  -8 5812.93  306.94
  -2 -10  -8 5987.15  768.67
  -2  10  -8 7022.99  299.50
   2  10   9 1899.46  331.21
   2 -10   9 1384.69  305.92
  -2 -10  -9 1582.60  331.65
  -2  10  -9 1929.45  146.88
   2  10  10  157.45  229.98
   2 -10  10  159.87  136.98
  -2 -10 -10   62.84  287.21
  -2  10 -10   84.58   85.64
   2  10  11 9574.21  774.10
   2 -10  11 7472.97  700.69
  -2 -10 -11 8007.93  913.86
  -2  10 -11 8550.85  476.65
   2  10  12   -7.98  258.01
   2 -10  12  -44.25  201.94
  -2 -10 -12 -250.62  277.31
  -2  10 -12  -94.11  121.95
   2  10  13  604.19  333.17
   2 -10  13  474.67  300.34
  -2 -10 -13 1058.52  405.05
  -2  10 -13  737.91  181.75
   2 -10  1432659.35 2216.65
   2  10  1431142.10 2614.66
  -2 -10 -1434902.28 3133.08
  -2  10 -1435263.33 2153.38
   2  10  1513886.86 1447.91
   2 -10  1512488.39 1176.12
  -2 -10 -1512411.94 1416.68
  -2  10 -1513202.87  899.53
   2  10  16 2906.60  699.29
   2 -10  16 3269.61  440.17
  -2 -10 -16 1118.34  500.42
  -2  10 -16 3411.73  378.93
   2  10  17 4559.59 1042.10
   2 -10  17 4198.45  714.17
  -2 -10 -17 3762.38  898.58
  -2  10 -17 4791.04  522.86
   2 -10  18 1226.41  388.46
  -2 -10 -18 1861.58  617.42
  -2  10 -18 1687.69  352.16
   2 -10  19  250.15  259.08
  -2 -10 -19  287.36  419.62
  -2  10 -19   31.81  229.19
   2 -10  20  415.58  522.32
  -2 -10 -20  803.81  547.13
  -2  10 -20  633.38  311.84
   2 -10  21 1241.40  563.10
  -2 -10 -21 1225.76  578.95
  -2  10 -21  227.64  349.49
   2 -10  22 3755.33  928.56
  -2 -10 -22 2886.70  874.89
  -2  10 -22 1684.14  552.59
   2 -10  23 2438.23  923.61
  -2 -10 -23 1903.08  871.38
  -2  10 -23 1814.74  558.89
   2 -10  24  457.74  675.01
  -2 -10 -24   98.66  484.52
  -2  10 -24  749.50  426.15
   2  11 -25  957.23  431.97
   2 -11 -25 -511.63  462.81
  -2 -11  25  697.68  855.96
  -2  11  25 1817.59 1061.17
   2  11 -24  707.71  391.97
   2 -11 -24  107.09  422.85
  -2 -11  24  316.68  777.50
  -2  11  24 -738.52  939.41
   2  11 -23 1889.24  594.29
   2 -11 -23 1760.06  396.40
  -2 -11  23  558.24  734.98
  -2  11  23 1257.12 1231.80
   2  11 -22  156.97  342.29
   2 -11 -22   90.34  227.84
  -2 -11  22 -154.52  412.03
  -2  11  22  928.81  754.62
   2  11 -21  777.02  593.23
   2 -11 -21 3244.58  558.80
  -2 -11  21 3108.22  974.17
  -2  11  21 2535.22 1256.24
   2  11 -20  322.47  257.66
   2 -11 -20  389.83  310.51
  -2 -11  20  166.21  542.06
  -2  11  20 -738.21  727.24
   2  11 -19  175.43  305.29
   2 -11 -19  186.89  195.94
  -2 -11  19 -245.88  361.29
  -2  11  19   62.80  450.17
   2  11 -1817085.32 1565.93
   2 -11 -1813830.97 1244.70
  -2 -11  1811389.33 1352.75
  -2  11  1815854.11 2376.36
   2  11 -17 5109.78  745.30
   2 -11 -17 4674.48  569.56
  -2 -11  17 2587.13  897.15
  -2  11  17 3888.29  932.39
   2  11 -16 1586.23  383.17
   2 -11 -16  859.28  232.30
  -2 -11  16 1326.29  538.96
  -2  11  16  508.56  557.85
   2  11 -15  491.14  352.16
   2 -11 -15 1254.42  291.81
  -2 -11  15 1241.29  375.27
  -2  11  15  984.71  526.15
   2  11 -14  761.45  351.90
   2 -11 -14  816.38  256.72
  -2 -11  14 1046.31  407.26
  -2  11  14  628.95  470.02
   2  11 -13 9235.20  947.78
   2 -11 -13 8510.01  681.22
  -2 -11  13 9086.90  988.08
  -2  11  13 9987.04 1448.02
   2  11 -12 3618.33  655.45
  -2 -11  12 2509.32  369.67
  -2  11  12 1043.70  570.00
   2  11 -11  152.99  302.64
   2 -11 -11  404.31  164.33
  -2 -11  11   99.95  274.73
  -2  11  11   52.98  323.96
   2  11 -10  500.46  365.12
   2 -11 -10 1159.47  192.04
  -2 -11  10  820.33  294.71
  -2  11  10  238.42  523.21
   2  11  -9   55.20  246.37
   2 -11  -9   18.52  121.54
  -2 -11   9   97.93  143.11
  -2  11   9  222.02  274.96
   2  11  -8 3578.36  798.53
   2 -11  -8 4078.60  310.21
  -2 -11   8 4064.50  457.81
  -2  11   8 3262.90  620.62
   2  11  -717256.16 1694.63
   2 -11  -716545.10  856.17
  -2 -11   715926.82  994.96
  -2  11   716844.58 1413.32
   2  11  -6 -151.83  344.31
   2 -11  -6  264.97  106.33
  -2 -11   6  137.84  155.50
  -2  11   6  208.61  269.96
   2  11  -512725.38 1052.82
   2 -11  -513746.23  612.56
  -2 -11   514378.72  791.49
  -2  11   511665.49 1085.30
   2  11  -4   19.97  195.67
   2 -11  -4   41.01   56.86
  -2 -11   4  -61.23  102.52
  -2  11   4  -28.18  100.71
  -2  11   4  218.34  282.46
   2  11  -3 2176.67  590.78
   2 -11  -3 2999.40  172.98
  -2 -11   3 3319.07  223.24
  -2  11   3 2288.15  219.10
  -2  11   3 2699.93  461.74
   2  11  -216897.64 1195.01
   2 -11  -218162.49  723.52
  -2 -11   215562.00  659.72
  -2  11   213652.62  741.29
  -2  11   216551.54 1219.85
   2  11  -1 4129.43  233.95
   2  11  -1 4989.45  488.58
  -2 -11   1 4917.34  232.56
  -2  11   1 3401.92  227.23
   2  11   0  173.26   89.96
   2  11   0   95.35  250.03
   2 -11   0  -49.16  219.02
  -2 -11   0   64.59   62.41
   2  11   1  131.47  249.62
   2 -11   1   46.75  226.30
  -2 -11  -1  197.36   51.48
  -2 -11  -1  239.83  102.24
   2  11   217873.33 1174.64
   2 -11   215068.38 1098.16
  -2 -11  -212677.59  627.88
  -2 -11  -215326.44  537.53
   2  11   3 3901.98  427.72
   2 -11   3 3829.88  422.57
  -2 -11  -3 3002.48  128.19
  -2 -11  -3 2512.19  183.95
   2  11   414671.51  773.24
   2 -11   4 9949.15  395.80
   2 -11   412552.95  794.86
  -2 -11  -410033.88  388.14
   2  11   5 7849.46  413.53
   2 -11   5 8657.61  547.66
   2 -11   5 7229.32  378.90
  -2  11  -5 8583.67  284.74
   2  11   6  382.49  137.92
   2 -11   6  856.60  189.34
   2 -11   6  797.12  180.86
  -2 -11  -6  710.85  291.25
  -2 -11  -6  676.48   92.40
  -2  11  -6  695.58   74.82
   2  11   732635.45 1893.35
   2 -11   733956.27 2262.02
   2 -11   730345.13 1977.07
  -2 -11  -729776.02 2345.30
  -2  11  -731833.61 1477.61
   2  11   828457.03 1627.74
   2 -11   822704.50 1282.82
  -2 -11  -818956.75  949.64
  -2 -11  -825571.59 1694.58
  -2  11  -823554.23 1037.32
   2  11   9 6874.66  508.81
   2 -11   9 6504.25  601.49
  -2 -11  -9 6718.76  698.71
  -2  11  -9 7174.97  333.47
   2  11  10  338.32  256.60
   2 -11  10  173.59  154.57
  -2 -11 -10  358.88  229.47
  -2  11 -10  246.55   92.72
   2  11  1120439.34 1435.75
   2 -11  1118132.79 1336.84
  -2 -11 -1120561.80 1936.84
  -2  11 -1119755.49 1004.30
   2  11  12   40.93  202.99
   2 -11  12  140.19  196.08
  -2 -11 -12   18.30  186.71
  -2  11 -12  -30.49  108.04
   2  11  1313875.83 1164.95
   2 -11  1312485.31 1031.66
  -2 -11 -13 7674.89  954.86
  -2  11 -1312412.03  729.07
   2  11  1428649.91 2288.46
   2 -11  1420997.48 1506.36
  -2 -11 -1422830.51 1954.88
  -2  11 -1424912.60 1426.12
   2  11  1515015.87 1497.33
   2 -11  1514898.48 1334.19
  -2 -11 -1512920.12 1362.54
  -2  11 -1516756.65 1067.07
   2  11  16  682.30  514.18
   2 -11  16 1162.18  313.68
  -2 -11 -16 1391.12  577.89
  -2  11 -16 1264.26  270.40
   2 -11  1714665.68 1485.94
  -2 -11 -1715237.62 1579.94
  -2  11 -1715742.33 1161.61
   2 -11  18  -94.10  245.30
  -2 -11 -18  160.12  288.22
  -2  11 -18  270.47  210.77
   2 -11  19  804.42  338.69
  -2 -11 -19 1170.54  561.36
  -2  11 -19  445.14  299.20
   2 -11  20  -86.33  466.10
  -2 -11 -20 1132.92  485.98
  -2  11 -20  118.10  266.26
   2 -11  21  430.77  507.78
  -2 -11 -21 1041.31  535.17
  -2  11 -21   83.38  295.44
   2 -11  22 1346.75  538.19
  -2 -11 -22  304.00  565.78
  -2  11 -22  147.74  247.65
   2 -11  23  691.15  640.89
  -2 -11 -23 1425.74  620.41
  -2  11 -23  127.12  279.01
   2 -11  24 -210.21  505.14
  -2 -11 -24   70.22  386.27
  -2  11 -24   28.13  225.55
   2  12 -25  715.65  409.87
   2 -12 -25  -50.59  323.86
  -2 -12  25  401.39  818.09
  -2  12  25  574.18 1015.55
   2  12 -24  -24.25  353.02
   2 -12 -24  218.46  388.99
  -2 -12  24  241.53  715.63
  -2  12  24  643.35  878.64
   2  12 -23   47.35  370.72
   2 -12 -23   12.22  357.62
  -2 -12  23  100.48  479.64
  -2  12  23  913.78  809.53
   2  12 -22 1647.11  490.91
   2 -12 -22  526.01  466.85
  -2 -12  22  662.08  576.19
  -2  12  22  681.66 1071.12
   2  12 -21   68.82  306.48
   2 -12 -21  -73.60  210.76
  -2 -12  21  146.59  487.24
  -2  12  21  -81.63  640.71
   2  12 -20 9043.97  990.47
   2 -12 -20 6975.24  921.31
  -2 -12  20 6872.13 1501.02
  -2  12  20 4086.06 1420.68
   2  12 -19  310.54  454.63
   2 -12 -19  684.72  348.39
  -2 -12  19  432.57  421.82
  -2  12  19 1759.85  820.53
   2  12 -18  803.37  450.15
   2 -12 -18  707.79  330.99
  -2 -12  18  698.77  553.86
  -2  12  18  709.44  591.71
   2  12 -17  768.26  562.83
   2 -12 -17 1143.89  359.05
  -2  12  17 1659.60  819.70
  -2 -12  17 1047.07  590.64
   2  12 -16 1921.10  544.93
   2 -12 -16 3641.88  461.03
  -2 -12  16 2513.50  585.26
  -2  12  16 3387.99 1046.19
   2  12 -15 3179.37  790.81
   2 -12 -15 3484.97  362.40
  -2 -12  15 3317.04  677.91
  -2  12  15 3627.36 1068.06
   2  12 -14 3839.21  726.96
   2 -12 -14 3138.19  403.61
  -2 -12  14 2355.61  611.15
  -2  12  14 2357.62  951.14
   2  12 -13 2683.07  503.30
   2 -12 -13 2608.50  344.76
  -2 -12  13 1048.90  390.48
  -2  12  13 2664.90  779.42
   2  12 -12 7774.06 1090.45
   2 -12 -12 5757.38  530.85
  -2 -12  12 6047.66  765.51
  -2  12  12 6798.05  868.34
   2  12 -11 3604.44  629.22
   2 -12 -11 3624.17  364.38
  -2 -12  11 3979.19  404.26
  -2  12  11 2307.86  672.78
   2  12 -10 8266.49  908.56
   2 -12 -10 8474.14  578.37
  -2 -12  10 9540.09  808.64
  -2  12  1010213.83 1322.49
   2  12  -9 9884.65  940.77
   2 -12  -9 8212.63  549.06
  -2 -12   9 9641.44  770.41
  -2  12   9 9558.65  980.82
   2  12  -8  994.91  529.47
   2 -12  -8 1361.83  181.29
  -2 -12   8  695.15  248.16
  -2  12   8 1270.55  546.46
   2  12  -714197.80 1544.09
   2 -12  -717421.35  881.50
  -2 -12   714479.97  951.01
  -2  12   714174.52 1294.48
   2  12  -6 2094.34  516.25
   2 -12  -6 1524.68  172.36
  -2 -12   6 1193.93  238.99
  -2  12   6 1316.64  537.13
   2  12  -5 1374.60  480.98
   2 -12  -5 1428.97  156.21
  -2 -12   5 1077.52  202.50
  -2  12   5 1911.38  523.79
   2  12  -4   94.81  300.07
   2 -12  -4  182.70   82.23
  -2 -12   4  -35.58  102.03
  -2  12   4  139.08  314.87
   2  12  -3 1579.29  372.27
   2 -12  -3 1997.59  155.96
  -2 -12   3 2195.82  174.98
  -2  12   3 1082.65  370.54
  -2  12   3 1201.91  140.71
   2  12  -2   39.84  292.85
   2 -12  -2   83.89   79.36
  -2 -12   2   70.98   73.93
  -2  12   2  127.50  221.05
  -2  12   2  191.57   84.18
   2  12  -144906.77 3336.71
   2 -12  -144175.39 3410.39
  -2 -12   144929.70 2174.31
  -2  12   134788.24 1927.05
  -2  12   138704.35 1862.72
   2  12   0 -391.66  169.59
   2  12   0   89.48   84.79
   2 -12   0 -357.36  204.88
  -2 -12   0   -8.67   46.69
   2  12   110698.35  936.16
   2 -12   110469.20  851.72
  -2 -12  -1 7799.41  485.59
  -2 -12  -110752.78  414.34
   2  12   2 7026.81  654.43
   2 -12   2 7266.49  655.12
  -2 -12  -2 6278.07  242.83
  -2 -12  -2 5445.20  350.45
   2  12   3 1963.05  388.97
   2 -12   3 3395.48  310.24
  -2 -12  -3 2680.32  135.35
  -2 -12  -3 1912.56  191.95
   2  12   4  354.08  201.46
   2 -12   4   96.91   44.17
   2 -12   4   54.05  166.85
  -2 -12  -4  -17.43   53.79
  -2 -12  -4   42.87   91.98
  -2  12  -4   20.03   23.81
   2  12   5 9854.99  748.89
   2 -12   5 7482.57  533.82
  -2 -12  -5 8390.83  408.56
  -2  12  -5 7704.77  274.58
   2  12   6 7824.13  441.06
   2 -12   6 6846.92  446.78
   2 -12   6 8997.05  558.01
  -2 -12  -6 8895.76  798.94
  -2  12  -6 8735.98  322.73
   2  12   7  667.78  185.10
   2 -12   7  566.48  224.30
   2 -12   7  366.18  171.84
  -2 -12  -7  537.08  304.43
  -2 -12  -7  586.84  109.25
  -2  12  -7  684.34   87.45
   2  12   8 1040.97  265.16
   2 -12   8 1439.12  286.05
  -2 -12  -8 1196.98  155.66
  -2 -12  -8 2022.60  404.01
  -2  12  -8 1542.59  134.30
   2  12   9  -47.20  140.61
   2 -12   9  105.16  118.51
  -2 -12  -9  184.25  238.92
  -2  12  -9  -37.57   58.89
   2  12  10 4868.19  447.73
   2 -12  10 3335.68  467.19
  -2 -12 -10 4514.90  719.53
  -2  12 -10 4238.12  245.87
   2  12  11 -179.93  192.02
   2 -12  11   58.08  196.17
  -2 -12 -11 -101.40  213.91
  -2  12 -11  124.31   85.80
   2  12  12  245.90  227.84
   2 -12  12   52.11  211.78
  -2 -12 -12  188.82  334.16
  -2  12 -12   35.17  113.08
   2  12  13   36.98  260.69
   2 -12  13   92.78  240.29
  -2 -12 -13  472.81  332.46
  -2  12 -13  138.14  136.19
   2  12  14  -28.35  297.44
   2 -12  14  233.53  189.07
  -2 -12 -14   57.80  365.28
  -2  12 -14  225.16  155.57
   2  12  15  970.89  502.74
   2 -12  15  878.64  366.82
  -2 -12 -15  932.36  507.04
  -2  12 -15  921.88  195.67
   2 -12  16 5829.47  621.83
  -2 -12 -16 3677.30  790.09
  -2  12 -16 6383.60  551.31
   2 -12  17 1242.75  464.46
  -2 -12 -17  869.36  609.33
  -2  12 -17 1384.30  300.90
   2 -12  18 -179.76  230.37
  -2 -12 -18  230.70  304.05
  -2  12 -18  218.95  205.23
   2 -12  19 5072.16  653.21
  -2 -12 -19 3352.71  836.73
  -2  12 -19 4330.26  537.19
   2 -12  20  403.75  358.85
  -2 -12 -20 -188.16  331.97
  -2  12 -20   38.27  228.95
   2 -12  21 2213.29  672.82
  -2 -12 -21 1160.32  742.83
  -2  12 -21  840.92  391.51
   2 -12  22  335.90  644.34
  -2 -12 -22 2312.47  542.07
  -2  12 -22  281.79  404.19
   2 -12  23 1676.64  775.82
  -2 -12 -23 1250.31  594.86
  -2  12 -23  557.08  463.66
   2 -12  24  768.87  785.09
   2  13 -25 1892.22  598.38
   2 -13 -25  868.25  662.97
  -2  13  25 2829.19 1514.36
   2  13 -24 1817.38  535.57
   2 -13 -24  895.18  443.99
  -2 -13  24  660.90 1099.89
  -2  13  24 3246.37 1337.88
   2  13 -23 1684.54  476.81
   2 -13 -23   35.94  331.27
  -2 -13  23  386.54  566.98
  -2  13  23 1607.35 1044.88
   2  13 -22 1686.58  404.85
   2 -13 -22 1386.31  541.86
  -2 -13  22  766.41  664.06
  -2  13  22 1233.65 1206.75
   2  13 -21 1121.15  475.46
   2 -13 -21  677.29  328.52
  -2 -13  21 1037.44  743.97
  -2  13  21  527.77  714.88
   2  13 -2019799.65 1919.75
   2 -13 -2019862.83 1926.82
  -2 -13  2023164.31 2939.80
  -2  13  2019824.02 3315.12
   2  13 -19  131.13  365.98
   2 -13 -19  184.28  293.52
  -2 -13  19  -59.59  336.29
  -2  13  19  309.17  644.54
   2  13 -18 2078.49  541.71
   2 -13 -18  995.21  431.51
  -2 -13  18 1242.00  669.58
  -2  13  18 1533.05  943.46
   2  13 -17  -64.51  320.57
   2 -13 -17  327.15  202.90
  -2 -13  17  632.58  476.91
  -2  13  17 1559.45  673.66
   2  13 -16  -67.56  421.05
   2 -13 -16  269.00  258.68
  -2 -13  16  641.52  292.55
  -2  13  16   47.22  431.87
   2  13 -15 8695.51 1234.15
   2 -13 -15 8127.48  773.72
  -2 -13  15 8796.85 1112.73
  -2  13  15 9774.86 1602.85
   2  13 -14  362.29  389.17
   2 -13 -14   13.87  211.49
  -2 -13  14  393.15  248.28
  -2  13  14   61.96  521.87
   2  13 -13   70.13  274.73
   2 -13 -13   87.53  190.22
  -2 -13  13  205.70  301.56
  -2  13  13  188.13  339.18
   2  13 -12 2990.57  935.71
   2 -13 -12 4563.54  436.94
  -2 -13  12 3912.67  608.98
  -2  13  12 5328.77 1042.41
   2  13 -11 2858.81  613.61
   2 -13 -11 3791.93  374.02
  -2 -13  11 3287.69  529.25
  -2  13  11 4113.25  689.34
   2  13 -10  540.14  368.34
   2 -13 -10  649.78  202.26
  -2 -13  10 1226.59  313.55
  -2  13  10  710.89  395.49
   2  13  -9   17.28  269.22
   2 -13  -9  190.23  142.19
  -2 -13   9   95.23  190.54
  -2  13   9  -85.15  389.40
   2  13  -8 4379.10  961.88
   2 -13  -8 5407.90  405.14
  -2 -13   8 5825.19  407.05
  -2  13   8 7794.89 1006.02
   2  13  -7 6808.11 1018.39
   2 -13  -7 7168.14  446.32
  -2 -13   7 7919.43  579.72
  -2  13   7 7081.20 1084.32
   2 -13  -6   42.75  102.24
   2  13  -6   47.73  231.00
  -2 -13   6  107.88  137.16
  -2  13   6  183.89  335.45
   2  13  -513330.41 1396.82
   2 -13  -516790.25  806.22
  -2 -13   513500.67  798.17
  -2  13   511631.38 1157.00
   2  13  -4 2299.02  615.83
   2 -13  -4 3492.80  214.87
  -2 -13   4 2882.01  224.86
  -2  13   4 3139.41  484.07
   2  13  -3 1221.75  340.64
   2 -13  -3 1035.34  123.04
  -2 -13   3 1446.00  161.46
  -2  13   3 1361.74  465.86
   2  13  -2  286.06  286.08
   2 -13  -2   85.05   71.91
  -2 -13   2   60.28   89.89
  -2  13   2   24.55   83.45
  -2  13   2  -18.47  270.67
   2  13  -1 2047.83  365.14
   2 -13  -1 2223.16  504.57
  -2 -13   1 1819.20  134.78
   2  13   037109.01 2986.36
   2 -13   031552.42 2313.11
  -2 -13   035385.02 1728.79
  -2  13   054444.30 3108.07
  -2  13   041912.80 2401.37
   2  13   1  981.24  373.31
   2 -13   1 1548.35  326.85
  -2 -13  -1  858.76  100.39
  -2 -13  -1  772.32  137.30
   2  13   2 9649.64  752.39
   2 -13   2 6589.67  515.66
  -2 -13  -2 5604.46  238.09
  -2 -13  -2 5058.13  346.65
   2  13   3 4070.97  385.20
   2 -13   3 2797.59  443.56
  -2 -13  -3 3689.34  181.70
  -2 -13  -3 2331.79  246.07
   2  13   4  -85.35  150.24
   2 -13   4  138.12  171.91
   2 -13   4   58.38   34.21
  -2 -13  -4   65.69  103.55
  -2 -13  -4   52.06   54.83
  -2  13  -4   19.20   18.89
   2  13   5 1247.28  303.13
   2 -13   5 1580.85  211.15
   2 -13   5  789.42  113.59
  -2 -13  -5 1015.29  121.63
  -2 -13  -5 1141.51  158.78
  -2  13  -5 1107.89   56.32
   2 -13   6 7064.06  432.07
   2 -13   6 8814.25  570.31
  -2 -13  -6 6289.86  396.90
  -2  13  -6 8925.78  331.21
   2  13   7 5309.32  405.40
   2 -13   7 5934.25  524.42
  -2 -13  -7 4147.96  292.05
  -2 -13  -7 5455.86  518.46
  -2  13  -7 5864.44  231.04
   2  13   8 7937.65  582.06
   2 -13   8 5949.43  459.65
  -2 -13  -8 6406.35  788.33
  -2  13  -8 6469.54  290.52
   2 -13   9 2913.20  401.76
   2  13   9 3015.05  332.22
  -2 -13  -9 3228.33  448.79
  -2  13  -9 3165.32  192.73
   2  13  10 4397.68  434.37
   2 -13  10 3410.25  345.38
  -2 -13 -10 2592.48  472.69
  -2  13 -10 3351.70  244.29
   2  13  11 3368.74  459.84
   2 -13  11 3133.24  341.08
  -2 -13 -11 3684.44  664.54
  -2  13 -11 2925.49  224.08
   2  13  12 4775.73  580.70
   2 -13  12 4724.10  464.45
  -2 -13 -12 3733.22  651.31
  -2  13 -12 5647.32  339.75
   2  13  13 8810.89  912.07
   2 -13  13 7737.56  795.51
  -2 -13 -13 6509.61  870.89
  -2  13 -13 8536.36  540.11
   2  13  14 1437.96  486.54
   2 -13  14 1606.91  419.84
  -2 -13 -14 1652.52  440.41
  -2  13 -14 1998.69  253.88
   2 -13  15  118.16  213.12
  -2 -13 -15  355.98  302.02
  -2  13 -15  351.43  176.95
   2 -13  16 5743.13  808.17
  -2 -13 -16 5027.78 1116.69
  -2  13 -16 6761.50  569.72
   2 -13  17 -153.58  297.98
  -2 -13 -17 -147.99  294.27
  -2  13 -17  -28.94  182.89
   2 -13  18  941.64  330.01
  -2 -13 -18  834.20  625.55
  -2  13 -18 1074.66  298.13
   2 -13  19  607.38  444.55
  -2 -13 -19  594.17  566.28
  -2  13 -19  415.20  269.46
   2 -13  20  672.33  465.18
  -2 -13 -20 1238.67  448.55
  -2  13 -20  214.16  300.94
   2 -13  21 1424.30  585.86
  -2 -13 -21  559.90  477.22
  -2  13 -21  413.45  332.78
   2 -13  22 4805.72  943.50
  -2 -13 -22 1499.27  767.59
   2 -13  23  824.35  719.41
  -2 -13 -23 1057.16  601.93
   2  14 -24 1980.86  668.62
   2 -14 -24 2122.63  689.14
  -2 -14  24  209.29 1088.96
  -2  14  24 1692.76 1479.49
   2  14 -23  524.25  444.45
   2 -14 -23  138.23  323.98
  -2 -14  23  403.10  741.29
  -2  14  23 2190.28  994.36
   2  14 -22 -147.51  360.25
   2 -14 -22  -88.75  365.26
  -2 -14  22  747.10  454.50
  -2  14  22  345.08  579.12
   2  14 -21  294.54  365.78
   2 -14 -21  142.48  354.35
  -2 -14  21  286.66  608.10
  -2  14  21 -160.05  797.39
   2  14 -20 2040.85  411.94
   2 -14 -20 1617.14  528.44
  -2 -14  20  564.74  798.09
  -2  14  20 1345.88 1145.83
   2  14 -19 1412.98  513.91
   2 -14 -19  827.53  410.04
  -2 -14  19  340.06  473.43
  -2  14  19 1033.46  884.63
   2  14 -18 2590.20  468.77
   2 -14 -18 2067.13  515.12
  -2 -14  18 1420.08  804.78
  -2  14  18 2087.22 1068.13
   2  14 -17  509.83  454.57
   2 -14 -17  479.40  225.24
  -2 -14  17   35.65  493.96
  -2  14  17 -269.90  670.35
   2  14 -16  958.99  568.68
   2 -14 -16 1130.13  286.49
  -2 -14  16 1603.53  402.38
  -2  14  16  985.27  806.53
   2  14 -15 1197.77  600.41
   2 -14 -15 1162.71  362.55
  -2 -14  15 2072.49  544.19
  -2  14  15 1115.09  796.35
   2  14 -14 2243.45  738.01
   2 -14 -14 2242.92  421.82
  -2 -14  14 2467.07  451.17
  -2  14  14 1889.85  921.50
   2  14 -13  725.25  454.56
   2 -14 -13  276.27  171.99
  -2  14  13  377.06  565.65
  -2 -14  13  439.56  322.34
   2  14 -12  335.83  369.00
   2 -14 -12  308.05  224.11
  -2 -14  12  585.43  235.95
  -2  14  12  575.56  553.14
   2  14 -11 1451.65  587.46
   2 -14 -11 1070.85  196.86
  -2 -14  11 1975.50  388.22
  -2  14  11  897.37  649.51
   2  14 -1011151.06 1366.01
   2 -14 -10 9472.37  690.83
  -2 -14  10 9807.67  687.42
  -2  14  1011222.54 1171.17
   2  14  -9  336.76  367.05
   2 -14  -9   71.25  141.55
  -2 -14   9  -38.31  186.30
  -2  14   9  -12.36  378.45
   2  14  -8 5746.60  691.20
   2 -14  -8 4640.25  381.34
  -2 -14   8 4560.92  487.78
  -2  14   8 4101.99  926.23
   2  14  -7  824.72  413.67
   2 -14  -7  344.11  121.10
  -2 -14   7  281.95  189.58
  -2  14   7  968.93  435.53
   2  14  -6 2510.66  715.92
   2 -14  -6 2781.66  281.29
  -2 -14   6 4726.96  368.41
  -2  14   6 5067.38  596.66
   2  14  -513192.01 1425.34
   2 -14  -514095.61  768.04
  -2 -14   514979.57  861.39
  -2  14   513409.39 1508.08
   2  14  -416300.53 1491.86
   2 -14  -416070.23  816.47
  -2 -14   415077.52  823.24
  -2  14   415637.66 1568.10
   2  14  -3 1061.24  348.24
   2 -14  -3  911.89  128.98
  -2  14   3 1695.27  466.56
  -2 -14   3 1650.49  169.99
   2  14  -215411.26 1442.15
   2 -14  -213790.31 1180.46
  -2 -14   214616.75  717.60
   2  14  -1  956.19  390.60
   2 -14  -1  998.23  304.54
  -2 -14   1  734.91  102.76
   2  14   0 5549.41  742.59
   2 -14   0 4075.81  659.25
  -2 -14   0 5297.05  254.58
   2  14   1  638.63  310.50
   2 -14   1  241.06  257.33
  -2 -14  -1  160.76  117.62
   2  14   2  479.97  290.72
   2 -14   2  359.83  183.68
  -2 -14  -2   66.32  107.28
  -2 -14  -2  265.06   63.96
   2  14   3 2575.60  419.19
   2 -14   3 2070.68  289.77
  -2 -14  -3 1865.37  151.58
  -2 -14  -4 7355.25  324.06
  -2 -14  -4 8376.77  497.19
   2  14   5  916.49  251.14
   2 -14   5  323.83   75.28
   2 -14   5  548.98  169.45
  -2 -14  -5  330.03  107.42
  -2 -14  -5  279.94  164.62
  -2  14  -5  400.36   45.08
   2  14   6  881.28  311.89
   2 -14   6 1007.49  214.74
   2 -14   6  590.77  148.27
  -2 -14  -6  924.52  191.16
  -2 -14  -6  814.10  180.93
  -2  14  -6 1160.31   83.04
   2  14   7  319.69  163.70
   2 -14   7  346.75  217.53
  -2 -14  -7  205.01  133.99
  -2 -14  -7  473.07  278.12
  -2  14  -7  298.90   72.34
   2  14   8  254.99  188.41
   2 -14   8  254.02  150.12
  -2 -14  -8   86.68  204.09
  -2  14  -8  248.05   86.64
   2  14   9  -53.00  160.36
   2 -14   9  163.68  139.93
  -2 -14  -9  138.76  281.85
  -2  14  -9  103.57   70.21
   2  14  1010168.68  772.74
   2 -14  10 9059.31  788.16
  -2 -14 -10 9020.59  903.62
  -2  14 -10 9585.10  470.17
   2  14  11 1302.82  358.39
   2 -14  11 1797.12  386.89
  -2 -14 -11 2643.22  451.85
  -2  14 -11 2492.76  205.35
   2  14  12  138.39  226.23
   2 -14  12   62.17  209.45
  -2 -14 -12  -67.56  335.98
  -2  14 -12   25.39   93.47
   2 -14  13  317.92  200.11
  -2 -14 -13  207.96  436.73
  -2  14 -13  350.73  127.71
   2 -14  14  429.76  256.15
  -2 -14 -14  135.73  414.96
  -2  14 -14   64.21  126.58
   2 -14  15  519.94  235.99
  -2 -14 -15  248.50  513.31
  -2  14 -15  392.22  161.66
   2 -14  16  339.07  320.01
  -2 -14 -16  123.08  334.58
  -2  14 -16  375.08  195.26
   2 -14  17  837.70  330.65
  -2 -14 -17  875.97  620.63
  -2  14 -17 1214.84  283.51
   2 -14  18  719.60  415.89
  -2 -14 -18  867.93  433.52
  -2  14 -18  450.22  262.98
   2 -14  19  -31.85  359.17
  -2 -14 -19 1413.28  484.60
  -2  14 -19  -73.28  221.50
   2 -14  20 1059.84  567.85
  -2 -14 -20 1507.16  732.14
   2 -14  21 1459.23  449.57
  -2 -14 -21 1035.01  802.31
   2 -14  22 1456.48  528.19
  -2 -14 -22  492.67  814.66
   2 -14  23 1299.11  562.98
  -2 -14 -23 1041.91  891.03
   2  15 -24  612.17  457.39
   2 -15 -24  -88.20  340.39
  -2 -15  24  117.20  546.29
  -2  15  24 1573.24  965.30
   2 -15 -23  719.49  500.72
   2  15 -23  581.56  483.85
  -2 -15  23   -9.10  803.30
  -2  15  23  659.40  764.78
   2  15 -22   24.72  390.32
   2 -15 -22  264.39  303.10
  -2 -15  22  370.47  661.05
  -2  15  22  608.35  848.11
   2  15 -21   54.66  412.59
   2 -15 -21    8.86  407.14
  -2 -15  21 1315.48  460.63
  -2  15  21 -120.35  839.09
   2  15 -20 2812.98  632.20
   2 -15 -20 2237.28  492.99
  -2 -15  20 3165.23  929.07
  -2  15  20 1112.82  926.97
   2  15 -19 2744.40  532.86
   2 -15 -19 2795.71  596.44
  -2 -15  19 2230.28  671.11
  -2  15  19 1001.88 1198.29
   2  15 -18 3904.78  797.70
   2 -15 -18 3621.88  703.82
  -2 -15  18 4095.74 1026.93
  -2  15  18 4165.94 1361.43
   2  15 -17 2188.50  793.85
   2 -15 -17 3274.69  572.33
  -2 -15  17 2688.47  760.31
  -2  15  17 2608.98 1156.30
   2  15 -16 8840.66 1032.03
   2 -15 -16 8026.90  916.94
  -2 -15  1610003.69  993.04
  -2  15  16 8399.09 1796.90
   2  15 -15 6576.95  861.10
   2 -15 -15 6505.18  739.62
  -2 -15  15 6569.50 1013.68
  -2  15  15 8697.75 1508.33
   2  15 -14  470.89  352.02
   2 -15 -14  297.36  253.84
  -2 -15  14  311.93  285.50
  -2  15  14  156.94  599.47
   2  15 -13  623.01  575.83
   2 -15 -13 1253.40  311.69
  -2 -15  13 1040.69  425.16
  -2  15  13 1405.92  747.53
   2  15 -12 2243.07 1086.01
   2 -15 -12 6085.55  579.98
  -2 -15  12 6166.62  579.50
  -2  15  12 3460.75 1202.83
   2  15 -11  467.56  372.29
   2 -15 -11 -101.71  170.76
  -2 -15  11   41.43  233.26
  -2  15  11  118.82  420.22
   2  15 -10 1568.09  652.56
   2 -15 -10 1674.85  284.21
  -2 -15  10 1822.53  359.38
  -2  15  10 1378.07  702.58
   2  15  -910504.11 1308.56
   2 -15  -9 7803.88  616.47
  -2 -15   9 9536.91  638.06
  -2  15   9 8894.96 1040.40
   2  15  -8 5719.17  940.57
   2 -15  -8 5565.78  496.28
  -2 -15   8 4766.00  510.37
  -2  15   8 4246.18  719.89
   2  15  -7  663.22  420.63
   2 -15  -7  295.03  145.72
  -2 -15   7  293.82  191.15
  -2  15   7  383.22  315.02
   2  15  -6 1567.33  524.35
   2 -15  -6 1036.79  219.23
  -2 -15   6 1270.72  241.46
  -2  15   6 2091.51  553.37
   2  15  -5 9024.06  963.22
   2 -15  -5 7240.17  469.32
  -2 -15   5 6513.33  458.70
  -2  15   5 4856.35  941.21
   2  15  -4 2223.59  537.46
   2 -15  -4 1083.60  212.31
  -2 -15   4 2279.42  221.87
  -2  15   4 1562.05  543.01
   2  15  -3  909.54  395.99
  -2 -15   3  780.63  127.27
  -2  15   3  479.43  360.00
  -2  15   3  284.01   93.46
   2  15  -2 1133.58  324.13
   2 -15  -2  585.40  451.70
  -2 -15   2 1326.39  131.34
  -2  15   2  430.01  114.40
  -2  15   2  831.93  115.71
   2  15  -1 3007.19  494.60
   2 -15  -1 3148.60  607.52
  -2 -15   1 3992.35  228.23
   2  15   0 1338.69  301.26
   2 -15   0 1156.32  336.89
  -2 -15   0  693.12  105.95
   2  15   1 1788.41  429.46
   2 -15   1 1236.42  352.56
  -2  15  -1  796.11  191.59
   2  15   2 3457.30  563.93
   2 -15   2 3400.66  491.88
  -2 -15  -2 2951.46  207.41
   2  15   3 1908.05  420.50
   2 -15   3 2223.70  376.93
  -2 -15  -3 1032.31  229.10
  -2 -15  -3 1929.72  158.52
   2  15   4 5393.44  564.08
   2 -15   4 5006.79  482.76
  -2 -15  -4 3518.69  214.20
  -2 -15  -4 3273.85  331.10
   2  15   515399.45 1263.79
   2 -15   513087.01  995.63
  -2 -15  -513021.47  691.71
   2  15   6 -165.60  159.68
   2 -15   6   94.61   89.37
   2 -15   6   32.37  142.40
  -2 -15  -6  128.68  113.75
   2  15   7 3619.79  282.70
   2 -15   7 3188.43  418.86
  -2  15  -7 2831.73  136.83
   2  15   8  429.20  174.25
   2 -15   8  903.89  258.28
  -2 -15  -8  852.82  355.34
  -2  15  -8  806.49  108.11
   2  15   9  524.65  279.99
   2 -15   9  521.21  198.48
  -2 -15  -9  560.06  373.65
  -2  15  -9  797.29   98.19
   2  15  1012120.91  993.10
   2 -15  1012559.61  825.50
  -2 -15 -1011720.25 1333.58
  -2  15 -1011864.97  584.53
   2  15  11 8909.82  801.88
   2 -15  11 7375.41  624.29
  -2 -15 -1110173.35 1214.45
  -2  15 -11 8866.04  467.70
   2 -15  12 1148.62  325.03
  -2 -15 -12  289.53  486.07
  -2  15 -12  876.67  169.52
   2 -15  13 1703.20  414.87
  -2 -15 -13  770.65  501.25
  -2  15 -13 2164.14  230.86
   2 -15  14  903.12  260.91
  -2 -15 -14  373.33  414.19
   2 -15  15 8800.05 1000.40
  -2  15 -1510147.74  706.21
   2 -15  16  192.25  214.51
  -2 -15 -16   14.61  490.68
  -2  15 -16  160.04  173.85
   2 -15  17 1192.88  459.57
  -2 -15 -17  536.77  527.09
  -2  15 -17 1086.34  274.51
   2 -15  18   73.14  303.02
  -2 -15 -18  -89.52  493.84
   2 -15  19 1119.43  374.61
  -2 -15 -19 1242.06  616.66
   2 -15  20  656.95  369.45
  -2 -15 -20  831.96  664.67
   2 -15  21 1275.94  452.13
  -2 -15 -21 1582.23  831.65
   2 -15  22  788.75  481.37
  -2 -15 -22  839.92  778.86
   2 -15  23 1266.13  576.36
   2  16 -24  974.24  448.30
   2 -16 -24 1220.85  652.79
  -2  16  24 1470.95  956.66
   2  16 -23 1841.52  474.54
   2 -16 -23 1569.64  668.48
  -2 -16  23  614.67  783.36
  -2  16  23 3314.62 1376.98
   2  16 -22  465.55  425.38
   2 -16 -22  480.24  437.33
  -2 -16  22   36.66  703.85
  -2  16  22 -867.33  893.78
   2  16 -21 1510.01  526.11
   2 -16 -21 1009.54  542.27
  -2 -16  21  394.50  592.74
  -2  16  21 2942.29 1105.62
   2  16 -20 1500.56  462.41
   2 -16 -20  691.51  394.97
  -2 -16  20 1959.65  800.68
  -2  16  20 3316.25 1093.19
   2  16 -19 2485.11  626.58
   2 -16 -19 1188.81  532.87
  -2 -16  19 1208.90  788.41
  -2  16  19 1244.99  802.68
   2  16 -18 1187.51  718.39
   2 -16 -18 2053.91  524.57
  -2 -16  18 1288.71  510.92
  -2  16  18 3296.99 1089.40
   2  16 -17  637.85  432.82
   2 -16 -17  822.24  412.21
  -2 -16  17 1404.38  568.21
  -2  16  17 1729.71  880.15
   2  16 -16 2149.35  927.60
   2 -16 -16 3547.72  621.67
  -2 -16  16 4021.53  632.77
  -2  16  16 5046.29 1261.18
   2  16 -15  -60.52  429.51
   2 -16 -15  105.63  269.43
  -2 -16  15  506.73  386.81
  -2  16  15  262.82  440.18
   2  16 -14  384.41  481.63
   2 -16 -14  363.36  206.13
  -2 -16  14  132.91  261.78
  -2  16  14  607.91  612.45
   2  16 -13 1625.93  509.78
   2 -16 -13 2002.91  391.70
  -2 -16  13 1709.74  503.34
  -2  16  13 1120.41  611.97
   2 -16 -12  381.26  233.72
   2  16 -12  446.90  504.30
  -2 -16  12  250.24  237.83
  -2  16  12  253.40  412.82
   2  16 -11 1716.50  541.60
   2 -16 -11 2038.54  343.82
  -2  16  11 1912.72  587.33
  -2 -16  11 2119.68  418.94
   2  16 -10  945.49  617.45
   2 -16 -10  743.26  316.37
  -2 -16  10 1939.87  345.82
  -2  16  10 1521.90  678.82
   2  16  -929285.52 2758.77
   2 -16  -922004.13 1649.70
  -2 -16   925671.78 1598.02
  -2  16   926365.22 2781.14
   2  16  -8 3106.46  559.19
  -2 -16   8 2497.01  363.63
  -2  16   8 1937.91  778.29
   2  16  -7 5718.86 1005.69
   2 -16  -7 5554.58  454.05
  -2 -16   7 6326.97  536.12
  -2  16   7 5973.49 1007.44
   2  16  -6 1043.58  506.11
   2 -16  -6  909.70  195.94
  -2 -16   6 1060.45  230.11
  -2  16   6 1484.48  546.78
   2 -16  -5 6584.68  501.40
   2  16  -5 6938.86  987.31
  -2 -16   5 6991.00  441.72
  -2  16   5 6501.65  748.49
   2  16  -4 2028.03  584.02
   2 -16  -4 1769.47  203.56
  -2 -16   4 2623.11  247.42
  -2  16   4 1467.33  574.26
   2 -16  -312257.70 1373.68
   2  16  -320010.30 1819.98
  -2 -16   319186.99  967.60
   2  16  -2  702.33  341.10
   2 -16  -2  210.63  262.83
  -2 -16   2  143.17  108.05
  -2  16   2  129.46   65.70
  -2  16   2  402.67  100.70
   2 -16  -1 4306.23  533.26
   2  16  -1 4693.47  766.56
  -2 -16   1 4766.48  271.04
   2  16   0  242.64  264.00
   2 -16   0  -21.79  223.98
  -2 -16   0 -100.95   72.17
  -2  16   0   21.20   24.58
   2  16   1 4615.32  741.57
   2 -16   1 4979.29  608.40
  -2 -16  -1 4276.17  278.80
  -2  16  -1 5289.14  537.46
   2  16   2 1972.14  375.04
   2 -16   2 3479.74  460.52
  -2 -16  -2 1880.22  185.98
   2  16   3 9432.74  908.50
   2 -16   3 8442.88  805.38
  -2 -16  -3 7651.37  436.29
   2  16   424403.62 1594.41
   2 -16   420523.32 1269.30
  -2 -16  -417417.52  937.85
   2 -16   5 3459.49  451.04
   2  16   5 5243.06  576.34
  -2 -16  -5 2680.55  255.85
   2  16   6 3723.51  555.53
   2 -16   6 4498.52  401.88
  -2 -16  -6 3891.60  328.24
  -2  16  -6 3661.97  163.85
   2  16   7  280.61  249.18
   2 -16   7  160.30  202.34
  -2 -16  -7  -38.15  124.49
  -2  16  -7   73.97   59.76
   2  16   8 3928.13  416.19
   2 -16   8 2917.30  444.65
  -2  16  -8 3400.58  200.54
   2  16   9   37.11  189.38
   2 -16   9  -86.35  195.57
  -2 -16  -9  138.99  204.64
  -2  16  -9   52.83   63.45
   2 -16  10 1523.93  349.99
  -2  16 -10 1476.74  144.64
   2 -16  11 2932.92  443.19
  -2 -16 -11 1459.68  630.60
   2 -16  12    7.41  226.91
  -2 -16 -12  141.10  259.01
  -2  16 -12   70.44   98.91
   2 -16  13    1.24  183.57
  -2 -16 -13 -154.74  401.89
  -2  16 -13  238.05  113.92
   2 -16  14 2701.90  551.34
  -2 -16 -14 1682.86  879.59
  -2  16 -14 3600.37  292.44
   2 -16  15 2577.60  420.76
  -2 -16 -15 1040.02  855.77
  -2  16 -15 2784.04  286.98
   2 -16  16 4442.91  608.58
  -2 -16 -16  997.35  705.62
   2 -16  17  205.14  231.28
  -2 -16 -17  -37.72  542.33
   2 -16  18  859.55  342.06
  -2 -16 -18 1695.89  773.94
   2 -16  19  895.99  474.28
  -2 -16 -19  707.63  790.09
   2 -16  20  862.80  444.21
  -2 -16 -20 -383.62  518.77
   2 -16  21 1189.70  598.24
  -2 -16 -21 1279.95  711.11
   2 -16  22 1351.83  699.58
  -2 -16 -22  788.40  724.51
   2 -17 -23  916.14  417.97
   2  17 -23  889.89  526.64
  -2 -17  23  -47.42  651.38
  -2  17  23  697.29 1168.95
   2  17 -22  981.33  477.89
   2 -17 -22  412.16  506.06
  -2 -17  22   64.69  535.24
  -2  17  22 1012.13 1043.26
   2 -17 -21 1357.27  644.04
   2  17 -21 1752.67  450.51
  -2  17  21 3218.36 1001.88
  -2 -17  21 2131.31  954.33
   2  17 -20 2859.97  794.69
   2 -17 -20 1828.68  541.55
  -2  17  20 2172.48 1432.19
  -2 -17  20 4413.35  770.81
   2 -17 -19 6678.75  975.38
   2  17 -19 6611.48  810.82
  -2  17  19 4875.37 1923.44
  -2 -17  19 5456.66 1360.87
   2  17 -18  329.78  534.44
   2 -17 -18  342.86  378.80
  -2  17  18  818.62  601.14
  -2 -17  18  566.61  526.10
   2 -17 -17  596.37  361.61
   2  17 -17   13.31  502.86
  -2  17  17  352.92  567.16
  -2 -17  17  606.89  505.91
   2  17 -16  323.95  529.52
   2 -17 -16  332.32  342.96
  -2  17  16  155.22  744.82
  -2 -17  16 1180.69  490.20
   2 -17 -15 1626.47  425.44
   2  17 -15 1769.45  477.29
  -2 -17  15  826.81  551.20
  -2  17  15 1397.11  919.83
   2  17 -14  545.23  551.62
   2 -17 -14  849.96  329.36
  -2  17  14   85.93  516.96
  -2 -17  14  659.77  416.58
   2 -17 -13  806.85  350.87
   2  17 -13  453.50  606.10
  -2  17  13  804.48  694.86
  -2 -17  13  382.25  403.31
   2  17 -12 1091.97 1017.92
   2 -17 -12 5209.99  651.81
  -2  17  12 4026.98 1121.71
  -2 -17  12 4964.06  720.16
   2 -17 -1110489.71 1020.23
   2  17 -1112910.88 1634.19
  -2  17  1110846.18 1756.24
  -2 -17  1110940.29 1030.80
   2  17 -10 1460.06  542.08
   2 -17 -10  487.43  279.04
  -2  17  10  879.86  578.32
  -2 -17  10  271.04  298.39
   2  17  -910481.64 1572.89
   2 -17  -910443.23  905.08
  -2 -17   910427.58  931.64
  -2  17   911886.65 1612.37
   2  17  -8  339.12  497.16
   2 -17  -8  239.44  184.64
  -2  17   8  551.45  372.07
  -2 -17   8  615.50  236.09
   2  17  -720094.06 1990.82
   2 -17  -716542.34 1171.70
  -2 -17   716265.94 1141.34
  -2  17   716394.10 1971.59
   2  17  -6  536.10  424.75
   2 -17  -6  188.28  187.16
  -2  17   6  -48.31  432.86
  -2 -17   6  543.00  182.85
   2 -17  -5 1035.46  207.21
   2  17  -5 2192.32  554.84
  -2  17   5 1128.75  403.47
  -2 -17   5 1593.60  204.37
   2  17  -4  250.97  367.43
   2 -17  -4   33.89  113.87
  -2  17   4  240.22  340.54
  -2 -17   4  416.20  149.29
   2 -17  -3  401.59  300.42
   2  17  -3  288.21  382.93
  -2  17   3  241.00   90.04
  -2 -17   3  248.31  122.96
   2  17  -2  747.96  337.29
   2 -17  -2  215.04  306.38
  -2 -17   2  118.69  100.61
  -2  17   2   65.00   65.70
  -2  17   2  110.80  117.84
   2 -17  -1    5.11  296.77
   2  17  -1  438.33  312.03
  -2  17   1   93.09   94.37
  -2 -17   1  140.47   92.17
  -2  17   1   53.96   47.47
   2 -17   0 1327.77  356.61
   2  17   0 2536.28  567.43
  -2 -17   0 2148.71  182.61
   2 -17   1   85.62  280.07
   2  17   1  296.38  336.45
  -2  17  -1   56.63   85.47
  -2 -17  -1  350.46   85.91
   2 -17   2 6092.72  701.49
   2  17   2 7129.68  733.41
  -2 -17  -2 5738.92  317.40
   2  17   3  376.73  387.65
   2 -17   3  699.51  228.06
  -2 -17  -3  611.95  137.46
   2 -17   4  -19.13  197.37
   2  17   4   -5.70  260.96
  -2 -17  -4   41.89   94.61
   2 -17   5  300.94  156.23
   2  17   5  -49.28  187.88
  -2  17  -5   54.08   40.05
  -2 -17  -5  -55.25   97.54
   2  17   6 3226.64  493.86
   2 -17   6 4612.40  539.91
  -2 -17  -6 3755.32  299.98
   2  17   7 1310.93  395.80
   2 -17   7 1405.45  307.00
  -2 -17  -7  809.23  222.84
  -2  17  -7  953.10   94.23
   2  17   8 8459.34  769.71
   2 -17   8 6569.46  685.17
  -2 -17  -8 7640.82  594.48
  -2  17  -8 6828.13  340.40
   2 -17   9 1565.17  379.80
  -2 -17  -9 2346.85  556.73
  -2  17  -9 2176.69  181.69
   2 -17  10 4101.99  497.42
  -2 -17 -10 2286.95  682.19
  -2  17 -10 3501.82  222.63
   2 -17  11 1797.13  416.84
  -2 -17 -11  670.62  422.29
  -2  17 -11 2052.19  174.17
   2 -17  12   32.23  155.23
  -2 -17 -12 -107.73  319.96
   2 -17  13  948.95  311.32
  -2 -17 -13  -13.71  360.65
   2 -17  14 1017.38  265.90
  -2 -17 -14  364.27  430.01
   2 -17  15 1741.95  429.57
  -2 -17 -15  684.53  519.45
   2 -17  16  213.64  220.56
  -2 -17 -16  208.40  530.42
   2 -17  17 2661.60  570.52
  -2 -17 -17 1427.73  956.69
   2 -17  18 1190.51  511.86
  -2 -17 -18 2042.24  871.01
   2 -17  19  504.64  421.72
  -2 -17 -19  324.50  523.28
   2 -17  20  550.26  383.27
  -2 -17 -20 1629.17  832.41
   2 -17  21  875.68  399.65
  -2 -17 -21  246.32  893.27
  -2 -17 -22  -97.56  710.28
   2  18 -23 1185.76  552.12
   2 -18 -23  358.32  721.67
  -2  18  23  746.31 1251.80
  -2 -18  23  425.09  925.96
   2 -18 -22 1118.86  654.87
   2  18 -22  679.25  370.92
  -2 -18  22  339.53  781.07
  -2  18  22   80.47  821.58
   2 -18 -21  796.30  534.16
   2  18 -21   26.99  413.77
  -2  18  21   10.57  931.39
  -2 -18  21  326.64  471.35
   2  18 -20  194.28  495.04
   2 -18 -20  577.64  391.15
  -2 -18  20 1197.88  658.53
  -2  18  20 -333.84  700.46
   2  18 -19  646.56  498.29
   2 -18 -19  610.64  530.49
  -2  18  19  666.21  962.02
  -2 -18  19  456.10  486.40
   2  18 -18 1823.57  552.84
   2 -18 -18 1200.02  650.23
  -2 -18  18 2392.25  742.73
  -2  18  18  679.63 1101.43
   2  18 -17  589.93  557.71
   2 -18 -17  539.13  356.94
  -2 -18  17  927.49  414.17
  -2  18  17  656.77  851.53
   2  18 -16  304.28  555.04
   2 -18 -16  332.46  436.15
  -2 -18  16  985.97  511.30
  -2  18  16  772.56  798.19
   2  18 -15 2274.26  884.21
   2 -18 -15 1449.22  660.15
  -2 -18  15 5096.31  571.07
  -2  18  15 3108.29  916.86
   2  18 -14   80.37  383.20
   2 -18 -14  -67.94  264.56
  -2 -18  14   45.58  297.97
  -2  18  14   10.11  445.63
   2  18 -13 1001.56  790.83
   2 -18 -13 2317.91  383.18
  -2  18  13  522.21  656.48
  -2 -18  13 1577.99  404.52
   2  18 -12  452.43  646.22
   2 -18 -12  652.38  320.70
  -2 -18  12 1423.08  368.08
  -2  18  12  685.46  535.56
   2  18 -11 3132.18  953.61
   2 -18 -11 3363.14  565.32
  -2  18  11 3675.86  781.41
  -2 -18  11 3300.16  560.13
   2  18 -10 8625.82 1311.51
   2 -18 -10 6905.57  685.49
  -2 -18  10 6686.29  779.41
  -2  18  10 8317.79 1413.83
   2  18  -9 -260.47  390.00
   2 -18  -9  -39.33  156.69
  -2  18   9   11.70  393.22
  -2 -18   9  122.61  189.19
   2  18  -829761.64 3190.16
   2 -18  -828443.89 2159.62
  -2 -18   827957.91 1996.02
  -2  18   829831.75 3200.83
   2 -18  -710056.71  905.63
   2  18  -711995.58 1550.05
  -2 -18   712180.74  890.44
  -2  18   710401.48 1179.56
   2 -18  -6 8965.24  758.41
   2  18  -611675.36 1389.59
  -2 -18   611449.30  767.04
  -2  18   6 9017.10 1045.51
   2  18  -5 1410.53  536.24
   2 -18  -5  612.57  194.24
  -2  18   5 1064.06  389.06
  -2 -18   5 1468.15  231.54
   2 -18  -4 4645.16  785.68
   2  18  -4 5368.27  949.41
  -2 -18   4 7180.43  450.75
  -2  18   4 4914.69  401.29
   2  18  -3  180.68  461.58
   2 -18  -3  830.62  499.93
  -2 -18   3  844.64  175.81
  -2  18   3  473.05  121.69
   2 -18  -216499.19 1608.04
   2  18  -216686.25 1686.20
  -2 -18   216609.00  911.55
  -2  18   212808.49  852.08
   2 -18  -1   82.42  275.71
   2  18  -1  246.60  237.47
  -2  18   1   50.75  102.71
  -2  18   1   44.22   40.28
  -2 -18   1   39.50  105.42
   2  18   0  106.96  343.16
   2 -18   0  148.65  286.51
  -2  18   0   69.11   30.73
  -2  18   0  166.91   93.78
  -2 -18   0  370.02   94.58
   2  18   1 2793.91  602.60
   2 -18   1 2408.91  483.54
  -2 -18  -1 1785.49  174.00
   2  18   2 2379.64  770.43
   2 -18   2 4376.07  469.63
  -2 -18  -2 3959.02  268.36
   2  18   3 3491.41  753.51
   2 -18   3 3283.02  596.00
  -2 -18  -3 4552.44  337.39
   2 -18   4 3583.88  390.20
   2  18   4 3858.33  480.37
  -2 -18  -4 3087.90  243.00
   2  18   5  382.71  370.62
   2 -18   5  788.67  281.78
  -2 -18  -5  380.80  142.27
   2 -18   6  394.06  253.46
   2  18   6  453.76  324.22
  -2 -18  -6  128.49  146.35
   2  18   7  681.20  278.76
   2 -18   7 1160.38  300.08
  -2 -18  -7  433.31  203.80
   2  18   8 1319.78  357.10
   2 -18   8  540.28  260.92
  -2 -18  -8  176.56  163.92
   2 -18   9   20.28  210.84
   2  18   9  100.55  227.47
   2 -18  10  638.02  290.05
  -2 -18 -10  402.11  409.88
   2 -18  11 4947.29  461.24
  -2 -18 -11 2341.22  793.76
   2 -18  12 6380.15  578.20
   2 -18  13  189.69  264.10
  -2 -18 -13  130.64  420.17
   2 -18  14  562.20  236.02
  -2 -18 -14   23.16  521.34
   2 -18  15 5317.52  661.70
  -2 -18 -15 1609.95 1032.86
   2 -18  16   87.64  274.85
  -2 -18 -16  -54.50  458.39
   2 -18  17  960.58  315.25
  -2 -18 -17 1333.76  544.20
   2 -18  18 2952.17  496.26
  -2 -18 -18 2854.56 1113.40
   2 -18  19  691.34  402.97
  -2 -18 -19 -171.19  514.20
   2 -18  20 2503.09  739.41
  -2 -18 -20 2715.21  895.20
   2 -18  21  896.06  595.60
  -2 -18 -21 1751.71  999.72
   2  19 -22  591.43  559.62
   2 -19 -22  142.29  730.94
  -2 -19  22 2241.22  884.44
  -2  19  22 2214.79 1238.93
   2 -19 -21  993.06  518.53
   2  19 -21  862.03  541.24
  -2 -19  21 1461.06  849.82
  -2  19  21 1334.84 1178.15
   2  19 -20 2806.38  788.01
   2 -19 -20 1835.64  647.89
  -2  19  20 1550.59 1488.48
  -2 -19  20 3807.19  800.96
   2 -19 -19 1350.52  512.36
   2  19 -19 1308.68  635.06
  -2 -19  19 2225.14  768.28
  -2  19  19 1058.18  874.65
   2  19 -1811884.67 1554.78
   2 -19 -18 8214.15 1047.31
  -2  19  18 8649.46 2303.11
  -2 -19  1810062.88 1181.37
   2 -19 -17  144.77  413.15
   2  19 -17  264.55  471.00
  -2 -19  17  427.65  473.34
  -2  19  17   25.67  543.53
   2  19 -16  413.45  609.85
   2 -19 -16  510.77  489.96
  -2  19  16  439.17  643.20
  -2 -19  16 1343.36  434.36
   2  19 -15  235.53  499.68
   2 -19 -15  312.30  384.55
  -2 -19  15  472.14  421.28
  -2  19  15  181.38  700.42
   2  19 -14 1149.52  689.69
   2 -19 -14 1927.37  500.36
  -2  19  14 1397.83  868.77
  -2 -19  14  579.85  390.17
   2  19 -13  111.42  468.08
   2 -19 -13  -49.95  290.18
  -2 -19  13  161.50  324.24
  -2  19  13  148.55  554.61
   2  19 -12 1541.82  861.07
   2 -19 -12 1771.93  530.30
  -2 -19  12 2983.23  509.09
  -2  19  12 1094.50  937.37
   2  19 -11 1137.47  553.34
   2 -19 -11  415.18  320.90
  -2  19  11  398.74  626.42
  -2 -19  11  187.15  318.06
   2  19 -10  787.02  697.70
   2 -19 -10 1083.56  392.29
  -2  19  10 2065.84  768.03
  -2 -19  10 1543.53  406.56
   2 -19  -9  549.57  296.03
   2  19  -9  448.73  609.63
  -2 -19   9  528.00  292.31
  -2  19   9 1273.37  460.66
   2  19  -8 2766.50  770.42
   2 -19  -8 1824.41  424.08
  -2  19   8 1053.72  709.54
  -2 -19   8 1717.48  373.06
   2  19  -7 6883.27 1076.84
   2 -19  -7 3067.53  614.46
  -2 -19   7 6070.21  534.03
  -2  19   7 5062.04 1036.96
   2  19  -6 5326.07 1003.53
  -2 -19   6 4571.06  475.07
  -2  19   6 4231.15  736.12
   2  19  -5  469.55  483.84
   2 -19  -5  561.89  172.62
  -2 -19   5  588.08  213.14
  -2  19   5  742.08  338.02
   2  19  -4  921.09  372.83
   2 -19  -4  301.94  576.68
  -2 -19   4  793.62  222.08
  -2  19   4  840.38  152.41
   2  19  -3 7470.92 1042.73
   2 -19  -3 4846.85  968.06
  -2 -19   3 5733.09  430.00
   2  19  -2 1824.91  522.55
   2 -19  -2 1200.51  471.81
  -2 -19   2  640.27  159.37
  -2  19   2 1027.97  196.52
   2 -19  -1 3641.43  557.27
   2  19  -1 4350.51  799.26
   2  19   0 1690.72  515.43
   2 -19   0 1190.49  419.23
  -2 -19   0  761.03  146.31
   2 -19   1 1817.91  480.32
   2  19   1 1905.30  575.13
  -2 -19  -1 1373.56  186.80
   2  19   2 1088.68  524.52
   2 -19   2 1498.48  297.05
  -2  19  -2  878.56  123.54
   2  19   3  273.33  341.83
   2 -19   3 -163.12  238.65
  -2 -19  -3  132.09   93.04
   2  19   4 2996.58  682.92
   2 -19   4 2422.55  453.69
  -2 -19  -4 2198.63  268.71
   2  19   518845.85 1494.09
   2 -19   516318.12 1380.29
  -2 -19  -514424.87  930.67
   2 -19   6 5613.27  524.55
   2  19   6 2824.28  771.30
   2 -19   7  866.20  190.54
   2  19   7 -125.24  362.35
  -2 -19  -7   -6.72  140.68
   2 -19   8 1491.34  267.11
   2  19   8 1453.48  373.97
   2  19   9    0.77  268.47
   2 -19   9  500.84  250.24
   2 -19  10  865.47  307.90
   2  19  10  547.73  204.17
   2 -19  11   21.44  183.38
  -2 -19 -11  409.83  262.98
   2 -19  12   15.23  265.66
  -2 -19 -12  731.82  419.40
   2 -19  13 1144.62  300.48
  -2 -19 -13 1765.01  627.71
   2 -19  14 2219.86  519.26
  -2 -19 -14 2682.69  604.22
   2 -19  15  800.18  332.99
  -2 -19 -15 3041.38  538.31
   2 -19  16 1692.89  479.31
  -2 -19 -16 1907.65  822.84
   2 -19  17 1444.83  495.51
  -2 -19 -17 2386.73  857.77
   2 -19  18  562.06  437.05
  -2 -19 -18  955.75  536.96
   2 -19  19  796.21  351.07
  -2 -19 -19 1125.87  811.85
   2 -19  20  602.82  354.21
  -2 -19 -20  214.20  566.77
   2 -19  21  695.58  398.08
   2 -20 -22  792.43  731.28
   2  20 -22  858.53  545.58
  -2 -20  22  606.88  629.18
  -2  20  22  296.00 1214.92
   2  20 -21  321.48  470.03
   2 -20 -21  644.84  481.89
  -2 -20  21  311.50  767.44
  -2  20  21 1199.60  790.35
   2 -20 -20  706.24  507.87
   2  20 -20 1357.44  612.72
  -2 -20  20 1022.31  846.79
  -2  20  20 1898.86 1183.76
   2  20 -19  399.08  541.71
   2 -20 -19  997.96  452.45
  -2 -20  19  918.64  495.93
  -2  20  19  407.63 1064.68
   2 -20 -18 1692.10  727.55
   2  20 -18 1932.50  815.03
  -2 -20  18 1667.91  822.01
  -2  20  18 3446.14 1247.56
   2  20 -17  901.44  649.36
   2 -20 -17 1082.01  592.63
  -2 -20  17  995.57  495.44
  -2  20  17 2321.87 1026.33
   2 -20 -16  286.76  280.33
   2  20 -16  -10.75  466.64
  -2 -20  16 -195.81  403.72
  -2  20  16  507.58  678.55
   2  20 -15 1836.73  738.97
   2 -20 -15 1879.06  534.59
  -2 -20  15  427.30  433.67
  -2  20  15 2393.01  963.93
   2  20 -14  162.58  566.48
   2 -20 -14  960.98  400.47
  -2 -20  14  276.83  440.31
  -2  20  14 -129.89  725.59
   2  20 -13  210.14  565.44
   2 -20 -13  146.84  341.64
  -2 -20  13  329.50  331.55
  -2  20  13  340.04  475.76
   2  20 -12   99.83  583.05
   2 -20 -12  212.40  352.44
  -2 -20  12  931.21  350.87
  -2  20  12 -106.34  664.92
   2  20 -11 4600.89 1061.05
   2 -20 -11 2846.15  640.61
  -2  20  11 3876.73 1142.44
  -2 -20  11 4648.94  640.05
   2 -20 -10 -150.53  296.04
   2  20 -10 1243.70  536.19
  -2 -20  10  164.92  284.42
  -2  20  10  822.33  422.09
   2  20  -9 4379.77 1156.16
   2 -20  -9 3369.35  691.36
  -2  20   9 5553.39 1099.56
  -2 -20   9 5019.09  614.21
   2  20  -8  500.32  579.44
   2 -20  -8  430.95  314.71
  -2  20   8  723.79  553.27
  -2 -20   8  411.59  275.37
   2  20  -7  996.67  642.42
   2 -20  -7  342.73  272.78
  -2  20   7 1155.51  615.51
  -2 -20   7 1683.95  298.31
   2  20  -6   73.07  320.41
   2 -20  -6   29.27  161.92
  -2 -20   6  295.26  198.85
  -2  20   6  180.13  305.09
   2  20  -515089.39 1746.86
   2 -20  -513642.42 1585.24
  -2  20   511757.85  821.96
  -2 -20   515140.31 1010.46
   2  20  -4 2337.29  781.66
   2 -20  -4 2815.30  664.62
  -2 -20   4 3096.87  331.62
   2  20  -3 1612.12  545.74
   2 -20  -3  783.39  361.52
  -2  20   3  558.57  225.39
  -2 -20   3  636.59  216.55
   2  20  -2  385.36  376.92
   2 -20  -2  479.79  334.16
  -2 -20   2   53.05  122.39
  -2  20   2    0.88  150.48
   2  20  -1  193.46  442.41
   2 -20  -1  331.85  362.03
  -2  20   1  352.08  147.97
  -2 -20   1  127.71  126.56
   2 -20   0 2308.08  520.68
   2  20   0 1869.16  636.72
  -2 -20   0 1407.08  187.75
   2  20   119866.17 2072.98
   2 -20   118391.84 1455.00
  -2 -20  -115326.31  875.79
   2  20   2 3986.71  958.50
   2 -20   2 5888.49  588.73
  -2 -20  -2 4733.91  331.84
   2  20   3 2278.46  690.81
   2 -20   3 4802.71  489.76
  -2 -20  -3 4257.53  307.15
   2 -20   4 3305.18  567.48
   2  20   4 2371.55  812.33
  -2 -20  -4 3944.76  304.74
   2  20   5 2584.75  518.00
   2 -20   5 1293.97  380.01
  -2 -20  -5  859.15  169.71
   2 -20   6 2295.69  397.38
   2  20   6 2599.09  592.35
  -2 -20  -6 1000.12  231.86
   2  20   7 2130.78  514.05
   2 -20   7 2580.31  349.44
   2  20   8 1161.16  543.90
   2 -20   8 1380.96  273.70
   2  20   9  339.66  381.76
   2 -20   9  300.30  271.13
   2  20  10  943.02  474.92
   2 -20  10  694.43  334.96
   2 -20  11  661.34  240.79
   2 -20  12 5179.47  623.03
  -2 -20 -12 2735.73  655.77
   2 -20  13  -42.57  180.94
  -2 -20 -13  382.86  390.49
   2 -20  14  418.20  324.84
  -2 -20 -14  444.85  524.18
   2 -20  15  387.97  320.15
  -2 -20 -15  251.11  542.79
   2 -20  16 2047.30  387.76
  -2 -20 -16 2593.81  891.54
   2 -20  17 1222.64  452.34
  -2 -20 -17 1068.48  591.72
   2 -20  18  436.54  417.33
  -2 -20 -18  793.76  710.43
   2 -20  19  995.91  491.27
  -2 -20 -19  816.76  612.20
   2 -20  20  469.63  431.29
  -2 -20 -20   -8.40  745.87
   2  21 -21 1006.23  565.90
   2 -21 -21  719.06  569.44
  -2 -21  21 1703.38  917.07
  -2  21  21 1873.31 1297.81
   2  21 -20  714.60  530.82
   2 -21 -20  509.70  448.80
  -2 -21  20   55.70  466.54
  -2  21  20  903.50 1004.07
   2  21 -19 1008.38  534.50
   2 -21 -19 3048.43  832.07
  -2 -21  19 2668.04  892.14
  -2  21  19 2771.93 1355.06
   2  21 -18 3638.26 1131.82
   2 -21 -18 4314.81 1025.75
  -2  21  18 6086.31 1690.94
  -2 -21  18 3820.74  840.44
   2 -21 -17 3315.26  844.27
   2  21 -17 2411.73  913.51
  -2 -21  17 2358.73  916.93
  -2  21  17 4780.11 1424.41
   2  21 -16  449.30  526.85
   2 -21 -16  172.92  438.11
  -2  21  16  614.07  780.43
  -2 -21  16  180.11  330.47
   2  21 -15 2432.84  808.65
   2 -21 -15 1362.06  590.31
  -2  21  15 2230.50 1056.52
  -2 -21  15 1092.62  648.70
   2  21 -14  838.49  619.22
   2 -21 -14  865.32  449.14
  -2  21  14 2150.75  829.59
  -2 -21  14  219.57  357.88
   2  21 -13 3036.96  938.55
   2 -21 -13  860.72  607.43
  -2 -21  13 3295.84  581.12
  -2  21  13 1393.17 1056.47
   2  21 -12  -47.22  645.06
   2 -21 -12  600.68  413.08
  -2  21  12 2780.76  744.16
  -2 -21  12  291.92  384.87
   2 -21 -11 2199.95  578.31
   2  21 -11 3022.48  941.42
  -2 -21  11 2393.17  553.52
  -2  21  11 3323.39 1023.22
   2  21 -10 1319.83  550.62
   2 -21 -10  943.79  492.83
  -2  21  10 1091.47  754.84
  -2 -21  10 1399.52  409.55
   2  21  -9 2363.26  884.76
   2 -21  -9 1682.77  456.53
  -2 -21   9 2014.76  450.96
  -2  21   9 2975.00  839.31
   2  21  -8 1669.05  728.44
   2 -21  -8 1099.27  335.51
  -2 -21   8  821.67  352.87
  -2  21   8 1542.62  689.22
   2  21  -7  244.29  544.96
   2 -21  -7  256.14  217.22
  -2  21   7  567.42  495.67
  -2 -21   7  481.30  253.47
   2  21  -6  308.65  449.92
   2 -21  -6 -149.24  227.49
  -2 -21   6  220.80  174.43
   2  21  -5  760.01  469.59
   2 -21  -5   13.97  400.83
  -2 -21   5  373.22  218.93
  -2  21   5  144.04  159.50
   2  21  -4 -124.36  405.59
   2 -21  -4  -86.58  393.51
  -2 -21   4  -49.84  173.42
  -2  21   4  173.73  136.85
   2  21  -3  466.33  484.33
   2 -21  -3  354.88  430.03
  -2  21   3  413.44  201.12
  -2 -21   3   -4.51  184.08
   2  21  -2  -22.39  541.35
   2 -21  -2 1552.19  446.17
  -2 -21   2  672.49  176.76
  -2  21   2   80.85  202.90
   2  21  -1 1214.79  504.20
   2 -21  -1  681.12  414.41
  -2 -21   1  230.63  147.04
   2  21   026010.42 2788.23
   2 -21   021151.53 2254.25
   2  21   1 6444.49 1194.37
   2 -21   1 6403.80  921.09
  -2 -21  -1 6507.65  445.12
   2  21   2  758.28  442.31
   2 -21   2  306.31  237.17
  -2 -21  -2  128.14  115.39
   2  21   3   52.50  393.20
   2 -21   3  133.83  185.79
  -2 -21  -3   -0.81  105.32
   2  21   4  569.81  320.25
   2 -21   4   -4.99  222.32
  -2 -21  -4  199.93  129.09
   2  21   5 9113.63 1086.55
   2 -21   5 8370.77  764.69
  -2 -21  -5 7564.08  551.85
   2  21   6 -438.08  425.21
   2 -21   6  616.14  290.17
   2  21   7  -28.35  391.97
   2 -21   7  399.09  284.78
   2  21   8  -73.05  392.69
   2 -21   8 -245.10  260.23
   2  21   9  942.44  367.78
   2 -21   9  360.67  229.19
   2  21  10   80.45  268.39
   2 -21  10  105.20  258.81
   2  21  11 1075.28  441.34
   2 -21  11   88.90  214.26
   2  21  12  153.34  171.38
   2 -21  12 -149.54  249.43
   2 -21  13  933.66  299.22
  -2 -21 -13 1251.88  598.04
   2 -21  14  609.99  373.99
  -2 -21 -14  827.80  587.31
   2 -21  1510058.96 1035.53
  -2 -21 -15 8901.31 1224.35
   2 -21  16    8.75  229.37
  -2 -21 -16 1070.33  538.22
   2 -21  17 1970.05  406.57
  -2 -21 -17 2444.81  941.70
   2 -21  18 1194.79  527.74
  -2 -21 -18 1816.51  655.81
   2 -21  19  887.09  511.65
  -2 -21 -19 1503.38  887.14
  -2 -21 -20  729.24  640.03
   2  22 -20  868.84  636.40
   2 -22 -20 1232.92  553.86
  -2  22  20 1485.02 1251.03
  -2 -22  20  381.31  787.17
   2  22 -19  916.28  555.98
   2 -22 -19  285.50  644.57
  -2 -22  19  249.99  506.83
  -2  22  19 1857.29  813.71
   2  22 -18 2423.78 1014.74
   2 -22 -18 3755.72  951.92
  -2 -22  18 2746.48 1038.32
  -2  22  18 3935.01 1205.31
   2  22 -17  782.14  671.88
   2 -22 -17 1740.94  682.59
  -2 -22  17  695.49  512.09
  -2  22  17 1067.70  775.56
   2  22 -16  208.54  545.11
   2 -22 -16  557.80  494.37
  -2  22  16  174.33  789.07
  -2 -22  16  131.29  488.89
   2 -22 -15 1243.32  526.46
   2  22 -15  633.12  653.59
  -2 -22  15  290.25  387.06
  -2  22  15  596.70  876.64
   2 -22 -14 -159.46  392.24
   2  22 -14  401.35  513.17
  -2 -22  14   84.43  401.48
  -2  22  14  359.69  481.95
   2  22 -13 1511.65  808.93
   2 -22 -13  918.15  545.58
  -2 -22  13 1191.24  369.91
  -2  22  13 2127.78  935.05
   2 -22 -12 1241.22  609.34
   2  22 -12 2011.30  819.32
  -2  22  12  515.66  896.63
  -2 -22  12 1415.56  478.28
   2 -22 -11 1444.37  758.72
   2  22 -11 4383.65 1073.18
  -2 -22  11 4494.90  673.48
  -2  22  11 4178.62 1149.21
   2  22 -1011699.57 1715.71
   2 -22 -10 6344.93 1091.59
  -2  22  10 6826.37 1569.53
  -2 -22  10 9135.79  934.99
   2  22  -9 3311.41 1127.01
   2 -22  -9 2927.49  601.35
  -2 -22   9 3785.98  597.06
  -2  22   9 4210.06 1065.98
   2  22  -8  172.14  640.93
  -2 -22   8  350.28  309.83
  -2  22   8  950.36  410.84
   2  22  -7   72.06  550.01
  -2 -22   7  337.94  251.82
   2  22  -612192.70 1552.16
   2 -22  -6 6848.12 1268.65
  -2 -22   6 7699.81  701.32
  -2  22   6 6623.97  670.70
   2  22  -5 4137.60 1152.00
   2 -22  -5 5326.58 1365.28
  -2 -22   5 6058.80  605.05
   2  22  -4 2417.55  779.04
   2 -22  -4 2514.87  767.33
  -2 -22   4 1761.07  362.63
   2  22  -3  575.16  615.05
   2 -22  -3 1203.17  533.59
  -2 -22   3  722.61  262.22
   2  22  -212621.36 1731.79
   2 -22  -210027.97 1161.08
  -2 -22   2 9875.97  702.90
   2  22  -1  181.24  489.18
   2 -22  -1  274.30  282.53
  -2 -22   1  158.33  173.28
   2 -22   0  511.72  301.09
   2  22   0 -172.47  491.14
  -2 -22   0  241.61  174.41
   2  22   1 8839.30 1418.52
   2 -22   1 7043.44  806.28
  -2 -22  -1 8950.19  590.48
   2  22   2  117.93  434.97
   2 -22   2  -15.29  231.79
  -2 -22  -2  102.44  139.55
   2  22   3  124.33  430.92
   2 -22   3  -38.52  278.03
  -2 -22  -3  -69.41  118.29
   2  22   4 1983.66  809.63
   2 -22   4 2975.31  581.65
   2  22   5 -423.36  442.44
   2 -22   5   48.93  294.98
   2  22   6 1169.17  610.89
   2 -22   6 1532.99  421.26
   2  22   7  858.28  377.91
   2 -22   7  327.99  246.46
   2  22   8 1887.54  697.38
   2 -22   8 2344.53  477.39
   2  22   9  168.65  492.98
   2 -22   9  508.69  231.80
   2  22  10  -28.16  385.79
   2 -22  10  168.69  276.51
   2  22  11 1443.86  485.45
   2 -22  11 1657.02  343.22
   2  22  12  872.41  547.30
   2 -22  12  465.66  349.72
   2 -22  13  516.77  260.18
   2  22  13  692.88  257.47
   2 -22  14  160.20  324.90
  -2 -22 -14  568.15  513.13
   2 -22  15   40.23  307.42
  -2 -22 -15  418.36  506.02
   2 -22  16  752.71  421.88
  -2 -22 -16 1360.49  724.29
   2 -22  17 1198.66  342.00
  -2 -22 -17  663.99  583.83
   2 -22  18  375.81  333.37
  -2 -22 -18 2373.61  784.79
   2 -22  19  800.54  374.54
  -2 -22 -19 1254.99  654.19
   2 -23 -20 1177.53  870.68
  -2 -23  20  919.04  835.58
   2  23 -19  689.84  646.20
   2 -23 -19 1158.35  826.27
  -2  23  19 2975.21 1274.58
  -2 -23  19  971.40  824.01
   2  23 -18  574.39  678.53
   2 -23 -18 1178.22  717.34
  -2 -23  18  613.25  724.38
  -2  23  18  801.28 1111.17
   2  23 -17  489.57  725.09
   2 -23 -17  503.83  733.65
  -2  23  17 1789.03 1177.10
  -2 -23  17 2481.13  714.24
   2 -23 -16  834.16  716.01
   2  23 -16 2110.51  776.46
  -2  23  16 1696.14 1144.06
  -2 -23  16 1158.20  694.47
   2  23 -15  476.27  749.77
   2 -23 -15 1517.96  613.93
  -2  23  15 1136.16  979.43
  -2 -23  15  699.17  604.50
   2  23 -14 2897.79  907.12
   2 -23 -14 1405.64  830.92
  -2 -23  14 1729.62  748.01
  -2  23  14 2994.37 1196.16
   2  23 -13  422.23  787.04
   2 -23 -13 2036.43  635.81
  -2  23  13 1521.02  675.84
  -2 -23  13  218.32  482.94
   2  23 -12 3285.76  903.17
  -2 -23  12  890.39  541.97
  -2  23  12 2025.23  954.90
   2  23 -11 1684.89  788.56
  -2  23  11  649.85  840.47
  -2 -23  11 1291.13  487.87
   2  23 -10 3301.58  858.89
  -2 -23  10  771.20  478.76
  -2  23  10 2194.68  873.27
   2  23  -9  197.14  641.68
  -2  23   9 1143.80  621.49
  -2 -23   9  193.70  321.62
   2  23  -8 1238.51  839.11
  -2 -23   8 1422.30  411.50
  -2  23   8 1383.66  527.58
   2  23  -7 -127.52  662.36
   2 -23  -7 2611.67  755.11
  -2 -23   7  425.54  306.24
   2  23  -6  244.42  545.75
   2 -23  -6  564.40  451.01
  -2 -23   6  155.49  256.52
   2  23  -5  804.02  573.56
   2 -23  -5  443.08  551.60
  -2 -23   5  279.81  256.45
   2 -23  -4  313.73  439.35
   2  23  -4 1523.40  647.40
  -2 -23   4  802.33  287.77
   2  23  -3 1221.26  640.01
   2 -23  -3  764.11  541.72
  -2 -23   3  601.95  277.51
   2  23  -220578.84 2440.98
   2 -23  -211753.35 1798.04
  -2 -23   216429.78 1096.09
   2  23  -1 3037.59  882.24
   2 -23  -1  579.48  692.46
  -2 -23   1 2444.60  362.06
   2  23   0  695.22  405.54
   2 -23   0  -87.57  225.59
  -2 -23   0  -41.95  126.66
   2  23   1  550.58  490.65
   2 -23   1  221.19  269.97
  -2 -23  -1   54.95  140.54
   2  23   2 5066.07 1176.64
   2 -23   2 1892.48  802.66
  -2 -23  -2 5722.98  438.60
   2  23   3 -191.17  314.62
   2 -23   3  218.19  296.09
   2  23   4 9285.12 1659.41
   2 -23   411249.50 1266.44
   2  23   5  330.95  405.21
   2 -23   5  455.02  277.83
   2  23   6 2422.49  871.20
   2 -23   6 2143.68  521.87
   2  23   7  889.46  421.40
   2 -23   7 -303.27  274.49
   2  23   8 1200.67  608.25
   2 -23   8  685.05  270.73
   2  23   9  621.31  510.17
   2 -23   9  267.55  316.88
   2  23  10   36.65  504.81
   2 -23  10  312.18  231.88
   2  23  11 1454.79  650.53
   2 -23  11 1104.22  428.58
   2  23  12 3923.02  750.00
   2 -23  12 4050.25  692.09
   2  23  13  598.36  437.88
   2 -23  13  -73.30  195.08
   2  23  14 3246.35  741.90
   2 -23  14 3008.77  610.48
   2 -23  15  143.43  317.99
   2 -23  16 4284.58  709.19
  -2 -23 -16 2610.23 1119.43
   2 -23  17  213.51  266.99
  -2 -23 -17  552.18  630.90
   2 -23  18  306.57  317.36
  -2 -23 -18 2587.39  786.70
  -2 -24  19  -61.31  559.85
   2  24 -18 2141.64  923.05
  -2  24  18 5647.77 1547.68
  -2 -24  18 1377.09  740.12
   2  24 -17   35.35  505.99
  -2 -24  17   48.28  496.53
  -2  24  17  458.22  817.10
   2  24 -16  -71.63  602.43
  -2 -24  16  437.09  399.94
  -2  24  16 1008.06  900.50
   2  24 -15  663.41  594.40
  -2 -24  15 -103.94  480.49
  -2  24  15  184.55  793.49
   2  24 -14 2368.30  702.15
  -2 -24  14  346.42  414.94
  -2  24  14 -619.32  908.53
   2  24 -13 1271.95  765.52
  -2  24  13 1412.19  842.29
  -2 -24  13  222.56  465.63
   2  24 -12 1415.92 1025.78
  -2 -24  12 2328.23  480.68
  -2  24  12 2922.29 1120.40
   2  24 -11 -142.99  678.30
  -2 -24  11  619.28  416.12
  -2  24  11  914.57  735.92
   2  24 -10 2061.57  786.53
  -2 -24  10  814.65  429.46
  -2  24  10  388.42  794.24
   2  24  -9 1640.97  703.63
  -2 -24   9  484.20  271.90
  -2  24   9  204.99  640.28
   2  24  -8 1953.25 1008.75
   2 -24  -8 2324.66  823.76
  -2 -24   8 2158.23  509.15
   2  24  -7  376.76  699.96
   2 -24  -7  584.66  791.70
  -2 -24   7  694.71  327.26
   2  24  -6 1199.48  847.40
   2 -24  -6  886.12  813.66
  -2 -24   6 1809.00  398.54
   2  24  -5  -38.04  539.42
   2 -24  -5  -43.16  536.23
  -2 -24   5  297.37  256.06
   2  24  -4 2144.44  848.64
   2 -24  -4 1360.67  743.86
  -2 -24   4 1768.92  407.61
   2 -24  -3 1146.46  660.32
   2  24  -3  780.53  747.25
  -2 -24   3 1284.09  337.36
   2  24  -2  989.60  713.82
   2 -24  -2  570.58  417.19
  -2 -24   2  851.82  273.07
   2  24  -1 4255.87 1158.84
   2 -24  -1 1488.95  925.69
  -2 -24   1 4490.80  450.61
   2  24   0  155.66  479.11
   2 -24   0  -29.97  352.61
  -2 -24   0  -31.23  163.80
   2  24   1 8563.83 1129.67
   2 -24   1 9262.86  933.63
  -2 -24  -1 5427.42  478.57
   2  24   2 6143.44 1290.68
   2 -24   2 4692.37  923.14
   2  24   3 6996.27 1246.34
   2 -24   3 3684.69  857.39
   2  24   4 3844.61  879.23
   2 -24   4 1283.38  443.19
   2  24   5 1378.45  695.25
   2 -24   5  886.26  498.69
   2  24   6 1004.10  654.39
   2 -24   6  593.50  396.71
   2  24   7  779.87  519.30
   2 -24   7  181.19  255.24
   2  24   8  -67.87  476.73
   2 -24   8 1627.18  407.77
   2  24   9 1967.77  659.30
   2 -24   9  823.49  307.51
   2  24  10  701.20  400.66
   2 -24  10   29.32  339.77
   2  24  11 1201.81  608.29
   2 -24  11  130.46  355.47
   2  24  12 -318.67  448.09
   2 -24  12  106.28  202.29
   2  24  13  344.18  517.78
   2 -24  13   56.83  373.97
   2  24  14  931.63  509.93
   2 -24  14  635.31  425.19
   2  24  15  868.02  496.86
   2 -24  15  320.90  398.57
   2  24  16  754.05  358.71
   2 -24  16 1493.22  482.42
   2 -24  17  540.60  325.58
  -2 -24 -17 1007.34  552.34
  -2 -24 -18  201.95  667.75
  -2 -25  18  763.41  779.05
  -2 -25  17 1576.44  848.11
  -2  25  17 2390.33 1400.68
   2  25 -16  -47.07  623.76
  -2 -25  16  370.46  414.81
  -2  25  16 1198.50  949.29
   2  25 -15  527.55  807.55
  -2  25  15 2097.41 1045.59
  -2 -25  15  853.13  678.47
   2  25 -14  361.29  689.89
  -2  25  14  548.19  854.95
  -2 -25  14  539.87  360.95
   2  25 -13  514.47  818.24
  -2  25  13 1227.73  882.46
  -2 -25  13  643.33  505.57
   2  25 -12 -166.27  777.93
  -2 -25  12  674.68  479.88
  -2  25  12 1170.93  607.50
   2  25 -11 1875.32  836.82
  -2  25  11 1562.92  840.01
  -2 -25  11  560.80  508.66
   2  25 -10 1166.48  902.67
  -2  25  10 2872.88  881.27
  -2 -25  10 1116.14  501.03
   2  25  -9 1978.63  845.44
   2 -25  -9 1900.14  751.50
  -2 -25   9  822.82  333.79
   2  25  -8  906.38  948.12
   2 -25  -8 1235.25  825.70
  -2 -25   8 2147.22  502.07
   2 -25  -7  740.79  867.56
   2  25  -7 2079.11  911.72
  -2 -25   7 1651.84  432.56
   2 -25  -6  401.16  513.53
   2  25  -6  215.28  530.96
  -2 -25   6  -65.00  244.75
   2 -25  -5   15.61  538.23
   2  25  -5  160.45  571.46
  -2 -25   5  162.00  257.94
   2  25  -4 2541.68 1015.14
   2 -25  -4 2073.97  897.03
  -2 -25   4 2658.13  509.62
   2 -25  -3 1461.36  677.77
   2  25  -3 1841.96  737.93
  -2 -25   3  577.36  332.14
   2 -25  -2   49.23  519.91
   2  25  -2  244.63  616.92
  -2 -25   2  365.01  248.56
   2  25  -1 5404.53 1621.25
   2 -25  -1 6621.15 1008.57
  -2 -25   1 9006.93  805.30
   2  25   022759.91 3045.93
   2 -25   017809.79 2280.30
   2 -25   1  239.17  309.30
   2  25   1  388.86  593.81
   2 -25   2 2353.78  704.23
   2  25   2 2762.00  953.50
   2  25   3 1962.18  878.36
   2 -25   3 1534.16  594.23
   2  25   4  181.51  505.96
   2 -25   4    9.28  251.95
   2 -25   5 6557.42  990.82
   2  25   5 7804.80 1581.30
   2 -25   6    7.73  237.27
   2  25   6  394.25  522.33
   2 -25   7 3451.90  709.17
   2  25   7 6078.72 1253.76
   2 -25   8  662.08  300.58
   2  25   8  520.28  639.17
   2 -25   9  -60.50  263.43
   2  25   9 2282.86  611.43
   2 -25  10  212.19  371.57
   2  25  10  794.08  601.69
   2 -25  11  521.50  281.01
   2  25  11   67.74  649.60
   2 -25  12  -39.59  225.74
   2  25  12  725.90  555.78
   2 -25  13 6565.04  919.30
   2  25  13 6557.74 1436.36
   2  25  14  671.21  611.11
   2 -25  14  112.04  363.36
   2  25  15 1277.15  853.73
   2 -25  15 1218.75  509.34
   2  25  16 1261.95  890.74
   2 -25  16 1229.75  528.25
   2  25  17  859.66  622.80
  -2 -26  17   53.77  519.62
  -2  26  16 1357.47  980.91
  -2 -26  16   98.72  621.61
  -2  26  15  558.19  999.33
  -2 -26  15  713.21  647.91
  -2 -26  14  922.47  596.61
  -2  26  14 1284.50  764.81
   2  26 -13 1015.53  877.79
  -2  26  13  549.57  940.40
  -2 -26  13  848.14  551.11
   2  26 -12 -901.55  778.10
  -2  26  12 1054.41  797.72
  -2 -26  12  845.26  486.43
   2  26 -11 1270.58  850.90
  -2  26  11  700.48  616.22
  -2 -26  11 1014.29  529.27
   2 -26 -10 1222.53  687.74
   2  26 -10  846.56  744.63
  -2 -26  10   92.08  414.26
   2 -26  -9 2364.54 1134.93
   2  26  -9 2095.15  926.05
  -2 -26   9 1038.97  364.85
   2 -26  -8  559.17  986.72
   2  26  -8   66.51  855.99
  -2 -26   8 1211.56  437.60
   2 -26  -7 1972.81  838.21
   2  26  -7 4751.84 1152.98
  -2 -26   7 2437.13  551.56
   2 -26  -6  133.86  641.81
   2  26  -6  932.37  654.25
  -2 -26   6  170.57  310.28
   2 -26  -5 -431.61  491.54
   2  26  -5  386.46  545.65
  -2 -26   5   73.25  218.88
   2 -26  -4 -203.20  552.00
   2  26  -4 1575.56  600.01
  -2 -26   4   57.23  234.93
   2 -26  -3  976.56  817.82
   2  26  -3 4845.66  914.34
  -2 -26   3 1144.52  438.57
   2 -26  -2  742.68  692.23
   2  26  -2  100.41  777.16
  -2 -26   2 1082.96  290.51
   2 -26  -116823.97 2274.01
   2  26  -116537.38 2576.56
   2  26   0  383.33  658.50
   2 -26   0  375.00  527.08
   2 -26   1  940.28  524.37
   2  26   1  120.08  704.59
   2  26   2 5131.96 1307.71
   2 -26   2 4021.74  977.58
   2 -26   3 1848.79  666.65
   2  26   3 1886.16  948.43
   2 -26   4 1672.15  623.58
   2  26   4 1135.51  906.92
   2  26   5 3247.58  885.39
   2 -26   5  789.37  399.22
   2  26   6  532.50  674.31
   2 -26   6  432.19  449.58
   2 -26   7  709.78  323.72
   2  26   7  302.26  735.85
   2  26   8 2215.15  975.99
   2 -26   8 1444.08  542.79
   2  26   9  662.13  504.61
   2 -26   9  529.66  424.40
   2 -26  10 1059.86  379.38
   2  26  10 1470.01  639.27
   2 -26  11   -6.30  248.42
   2  26  11 -689.02  572.00
   2  26  12 -853.32  660.07
   2 -26  12  -57.28  375.76
   2  26  13 1545.25  737.37
   2 -26  13  -14.48  382.34
   2  26  14  400.02  699.72
   2 -26  14   96.85  368.70
   2 -26  15   16.63  425.11
   2  26  15 1069.80  534.77
   2  26  16  792.80  620.86
  -2 -27  16  285.68  611.11
  -2 -27  15  377.09  612.42
  -2 -27  14  556.32  566.07
  -2  27  14  622.63  963.12
  -2 -27  13  110.84  452.93
  -2  27  13  300.66  733.76
  -2 -27  12 1294.74  632.33
   2  27 -11 1655.59  887.69
   2 -27 -11 1473.25  857.82
  -2 -27  11  423.93  556.85
   2 -27 -10 2439.09 1203.47
   2  27 -10  373.90  943.01
  -2 -27  10 1105.87  532.59
   2  27  -9  999.78  761.12
   2 -27  -9 1128.97 1106.19
  -2 -27   9  982.92  497.40
   2 -27  -8 4059.21 1431.53
   2  27  -8 5325.97 1472.30
  -2 -27   8 3968.29  789.98
   2 -27  -7 1321.81 1146.09
   2  27  -7 2323.96 1157.00
  -2 -27   7 2720.42  569.27
   2 -27  -6  603.86  567.73
   2  27  -6  -74.55  854.66
  -2 -27   6 1172.53  407.42
   2 -27  -5  -55.65  642.25
   2  27  -5 1204.48  704.91
  -2 -27   5  263.13  328.32
   2 -27  -4   87.84  637.47
   2  27  -4  580.19  712.61
  -2 -27   4  504.54  333.19
   2 -27  -3  442.60  639.56
   2  27  -3  415.65  688.96
   2 -27  -2  142.65  425.63
   2  27  -2 1280.54  707.93
   2 -27  -1  672.80  661.42
   2  27  -1 1025.35  828.37
   2 -27   0 4148.98  873.88
   2  27   0 4133.37  973.42
   2 -27   1 1451.01  703.36
   2  27   1 1730.05  972.53
   2 -27   2 2831.11  858.95
   2  27   2 2976.89 1143.79
   2 -27   3  287.93  370.54
   2  27   3 1128.01  706.50
   2 -27   4 2681.44  793.16
   2  27   4 2346.96 1105.71
   2  27   5  656.59  674.72
   2 -27   5  182.79  325.07
   2 -27   6 8660.53 1303.98
   2  27   6 7741.65 1881.91
   2 -27   7 1420.12  593.22
   2  27   7 2340.36  980.00
   2 -27   8 1159.80  397.73
   2  27   8 1842.13  948.55
   2 -27   9 2192.27  495.78
   2  27   9 2436.77 1022.10
   2 -27  10  702.90  506.08
   2  27  10 1263.76  836.33
   2 -27  11  341.77  500.53
   2  27  11 1681.51  653.32
   2 -27  12 1043.85  527.04
   2  27  12  759.65  899.11
   2 -27  13  -70.26  328.54
   2  27  13   94.52  438.44
   2 -27  14 2097.37  525.52
   2  27  14 3848.40 1307.29
   2  27  15 1588.36 1174.42
  -2 -28  15  630.71  719.59
  -2 -28  14  854.26  645.47
  -2 -28  13 1191.62  672.21
   2 -28 -12 1473.57 1205.62
  -2 -28  12  502.09  558.96
   2 -28 -11 1012.66 1289.81
  -2 -28  11 1049.98  614.11
   2 -28 -10 3105.57 1572.09
  -2 -28  10 2301.73  705.25
   2 -28  -9  -94.48  905.98
  -2 -28   9  904.66  481.53
   2  28  -8 2400.45 1443.53
   2 -28  -8 5762.38 1456.30
  -2 -28   8 3292.96  772.69
   2 -28  -7 1903.99 1020.20
   2  28  -7 2443.61 1088.74
  -2 -28   7 1509.47  534.92
   2 -28  -6 1644.01 1025.53
   2  28  -6 2696.19 1119.51
  -2 -28   6 1719.96  528.36
   2 -28  -5  291.59  767.20
   2  28  -5 1026.88  823.04
   2  28  -4  896.67  635.76
   2 -28  -4  198.13  503.18
   2 -28  -3  373.46  791.30
   2  28  -3 1799.74  877.56
   2 -28  -2 1317.71  851.04
   2  28  -2 2291.94  999.04
   2  28  -1  335.81  614.63
   2 -28  -1  -99.23  514.74
   2  28   0 1852.09  939.28
   2 -28   0  869.44  502.05
   2 -28   1 3002.73  997.92
   2  28   1 4274.60 1312.65
   2  28   2  531.68  914.21
   2 -28   2 1626.81  679.20
   2  28   3  381.95  863.33
   2 -28   3  971.82  441.18
   2 -28   4  373.28  504.27
   2  28   4  524.49  540.69
   2 -28   5  431.81  539.95
   2  28   5 1162.60  824.89
   2  28   6 2637.71 1134.62
   2 -28   6 2096.13  553.41
   2  28   7 1802.98 1046.20
   2 -28   7 1333.57  625.98
   2  28   8  831.93  756.55
   2 -28   8  208.02  453.93
   2 -28   9 1794.80  643.80
   2  28   9 1197.14 1074.96
   2  28  10  833.07  729.87
   2 -28  10  172.40  455.27
   2  28  11  549.40  621.13
   2 -28  11  -67.98  264.69
   2  28  12 1236.54  631.85
   2 -28  12  122.24  346.48
   2 -28  13   49.85  295.76
   2  28  13  331.62  706.37
   2  28  14 1387.47 1181.66
  -2 -29  14  674.74  475.19
   2 -29 -13 2101.53 1249.79
  -2 -29  13  101.90  576.87
   2 -29 -12  661.95 1175.90
  -2 -29  12  400.47  403.46
   2 -29 -11  105.82  849.96
  -2 -29  11 1836.10  672.21
   2 -29 -10 1185.48  998.90
  -2 -29  10  537.78  380.78
   2 -29  -9 2425.78 1233.82
  -2 -29   9 1541.58  654.33
   2 -29  -8 1967.72  951.81
  -2 -29   8  723.38  549.85
   2 -29  -7 2251.05 1179.28
   2 -29  -6  413.91  781.57
   2  29  -5  451.71  749.47
   2 -29  -5  155.76  692.39
   2 -29  -4   46.10  681.54
   2  29  -4  520.92  712.56
   2 -29  -3 2706.92 1110.88
   2  29  -3 2710.16 1225.08
   2 -29  -2  221.21  734.70
   2  29  -2 1531.69  850.47
   2  29  -1    0.85  720.56
   2 -29  -1  295.07  392.94
   2  29   0  530.64  717.88
   2 -29   0   -5.94  515.81
   2  29   1 1380.96  988.91
   2 -29   1 1286.60  750.34
   2 -29   2 1423.67  751.99
   2  29   2 1758.70 1050.85
   2  29   3 1317.13 1009.18
   2 -29   3 1455.14  548.43
   2  29   4 1702.80  808.47
   2 -29   4   12.86  559.08
   2  29   5 2964.52 1282.84
   2 -29   5 3018.25  894.86
   2 -29   6  403.51  540.20
   2  29   6 1028.62  839.79
   2  29   7 2120.86  963.58
   2 -29   7 3076.63  620.59
   2 -29   8  969.92  441.65
   2  29   8  948.79  909.49
   2  29   9 1283.44  959.64
   2 -29   9  963.13  445.22
   2 -29  10 1089.59  664.80
   2  29  10 2067.45  826.05
   2  29  11 2244.00 1089.09
   2 -29  11 1426.92  708.05
   2  29  12 1600.55  896.12
   2 -29  12  149.96  509.96
   2 -30 -12 1518.23 1276.99
  -2 -30  12  985.35  720.62
   2 -30 -11 1075.64  927.45
  -2 -30  11 1327.23  728.29
   2 -30 -10  992.70  878.48
  -2 -30  10  -38.35  455.78
   2 -30  -9  294.71  831.17
   2 -30  -8 2404.71 1302.84
   2 -30  -7 5121.27 1248.71
   2 -30  -6 1502.16  757.47
   2 -30  -5 1761.87  773.31
   2 -30  -3 1488.72  656.09
   2  30  -2 1780.75  986.29
   2 -30  -2  801.14  878.00
   2 -30  -1 2140.90 1055.75
   2  30  -1 4556.57 1328.63
   2  30   0   35.39  622.12
   2 -30   0    2.01  462.19
   2 -30   1  651.09  764.23
   2  30   1 2764.21 1023.34
   2  30   2  290.64 1032.32
   2 -30   2 1875.02  762.97
   2 -30   3 1029.17  552.52
   2  30   3 1958.39  998.20
   2  30   4 2126.63  942.73
   2 -30   4  513.35  472.12
   2 -30   5  656.99  632.98
   2  30   5 1009.67  891.40
   2 -30   6  369.25  529.04
   2  30   6  463.74  819.12
   2 -30   7 1232.89  694.83
   2  30   7 1562.84 1052.30
   2  30   8  857.45 1133.42
   2 -30   8 1718.77  734.99
   2  30   9  864.98  832.29
   2 -30   9  305.47  567.18
   2  30  10  990.82 1114.72
   2 -30  10 1549.79  723.09
   2 -30  11  -55.47  335.88
   2  30  11 -259.24  747.77
   2 -31 -10 1053.37 1149.26
   2 -31  -9 1518.49 1216.40
   2 -31  -8  898.79 1042.77
   2 -31  -7 1401.20 1063.69
   2 -31  -6 1420.15 1039.10
   2 -31  -5  902.77  914.63
   2 -31  -4  893.85  821.82
   2 -31  -3  902.73  818.34
   2 -31  -2 1779.12  869.17
   2 -31  -1  419.66  628.42
   2 -31   0   91.78  519.08
   2 -31   1 1118.24  754.56
   2 -31   2  200.74  660.52
   2  31   2 1252.92  890.70
   2  31   3 1064.98 1025.93
   2 -31   3 1020.58  528.53
   2 -31   4 1980.28  602.72
   2  31   4  600.63 1154.68
   2  31   5  659.49  907.98
   2 -31   5  740.65  470.84
   2  31   6 1249.77  938.26
   2 -31   6  515.56  636.52
   2  31   7 1514.41 1041.36
   2 -31   7  831.84  693.07
   2 -31   8  399.89  612.24
   2  31   8  607.64  655.21
   2  31   9   75.21  753.09
   2 -31   9 1541.09  698.94
   2 -32  -8 3212.13 1474.04
   2 -32  -7  288.19  798.65
   2 -32  -6 2473.47 1282.20
   2 -32  -5  502.23  769.45
   2 -32  -4  578.04  564.08
   2 -32  -3  353.68  519.31
   2 -32  -2  164.30  424.57
   2 -32  -1  997.91  778.38
   2 -32   0  653.09  528.43
   2 -32   1 1687.52  669.10
   2 -32   2 2232.92  731.45
   2 -32   3  453.54  461.16
   2 -32   4 1791.37  655.13
   2 -32   5  337.19  427.23
   2 -32   6  677.08  496.74
   2 -32   7  823.64  530.08
   2 -33  -5 1025.91  914.07
   2 -33  -4 -623.74  828.35
   2 -33  -3 -136.13  597.96
   2 -33  -2 1180.66  843.39
   2 -33  -1  798.92  777.06
   2 -33   0  668.50  744.97
   2 -33   1  252.57  461.76
   2 -33   2  494.72  486.84
   2 -33   3  310.50  460.95
   2 -33   4  113.38  420.81
   3   0 -26  983.79  498.89
  -3   0  26 1833.19  934.71
   3   0 -25  265.22  279.45
  -3   0  25 2595.18  977.84
   3   0 -24 1766.75  520.13
  -3   0  24 1969.49  945.04
   3   0 -23 -359.51  322.86
  -3   0  23  424.45  782.51
   3   0 -2216300.03 1242.31
  -3   0  2213969.23 2722.14
   3   0 -21  -26.13  252.58
  -3   0  21  442.70  582.62
   3   0 -20 7695.76 1006.91
  -3   0  2012415.64 1468.74
   3   0 -19  -31.87  245.34
  -3   0  19   54.15  499.73
   3   0 -18 5168.20  658.93
  -3   0  18 3863.98 1215.43
   3   0 -17  209.83  283.95
  -3   0  17   49.74  509.01
   3   0 -16 7736.38  808.40
  -3   0  16 7405.22 1358.06
   3   0 -15 -309.25  271.13
  -3   0  15  461.19  443.60
   3   0 -14 1668.75  313.93
  -3   0  14 1248.83  672.07
   3   0 -13  311.13  298.73
  -3   0  13  -99.28  288.07
   3   0 -1228789.46 1969.05
  -3   0  1226980.67 2652.39
   3   0 -11  -55.53  189.62
  -3   0  11  137.26  332.83
   3   0 -1019865.21 1404.11
  -3   0  1018890.46 1932.05
   3   0  -9  170.89  272.44
  -3   0   9 -190.90  307.06
   3   0  -8  755.71  444.39
  -3   0   8  696.08  432.45
   3   0  -7 -376.33  313.94
  -3   0   7  166.06  309.37
   3   0  -6 1796.39  505.31
  -3   0   6 1682.67  487.75
   3   0  -5 -207.36  282.89
  -3   0   5   54.57  262.28
   3   0  -414644.29  998.30
  -3   0   413064.20 1179.81
   3   0  -3  207.17  238.48
  -3   0   3  -35.74  224.33
   3   0  -2 2010.67  380.49
  -3   0   2 1888.62  375.42
   3   0  -1  130.36  206.11
  -3   0   1   65.07  186.58
   3   0   047699.32 3057.82
  -3   0   044906.04 2870.74
   3   0   1    5.72  146.94
   3   0   1 -141.05  127.42
  -3   0  -1  214.39  138.75
   3   0   258933.14 3591.58
   3   0   257229.16 3274.88
   3   0   246742.65 3015.15
   3   0   3   76.19  102.22
   3   0   3  -21.74  110.68
   3   0   418036.48  820.34
   3   0   417942.66  964.09
   3   0   5  -22.20   92.81
  -3   0  -5  197.97  162.95
   3   0   6 2255.78  214.92
  -3   0  -6 2760.64  274.73
   3   0   7  -14.41   93.34
  -3   0  -7 -249.88  197.30
   3   0   8 4198.44  330.65
  -3   0  -8 4551.05  555.81
   3   0   9   76.16  131.97
  -3   0  -9  216.01  199.81
   3   0  1040891.36 2494.33
  -3   0 -1042930.22 3108.17
   3   0  11   53.79  155.82
  -3   0 -11  131.60  166.62
   3   0  12 5965.32  521.55
  -3   0 -12 4707.35  630.28
   3   0  13  107.30  170.31
  -3   0 -13 -185.94  212.04
   3   0  14 5491.35  607.72
  -3   0 -14 4315.25  525.65
   3   0  15   89.25  252.82
  -3   0 -15 -357.58  279.00
   3   0  16 3989.03  571.81
  -3   0 -16 1275.51  400.45
   3   0  17 -200.44  297.74
  -3   0 -17  112.61  290.15
   3   0  18 -135.93  352.51
  -3   0 -18  137.64  309.31
   3   0  19   91.48  445.16
  -3   0 -19  279.22  389.96
   3   0  20 2542.34  726.28
  -3   0 -20 1059.77  642.97
   3   0  21  128.64  471.15
  -3   0 -21  -12.87  279.94
   3   0  22  481.31  672.64
  -3   0 -22  548.49  546.10
   3   0  23 -120.99  598.07
  -3   0 -23  121.01  451.36
  -3   0 -24  443.04  450.52
  -3   0 -25  791.98  750.70
   3   1 -26  215.98  434.26
   3  -1 -26  546.45  304.52
  -3  -1  26 2156.38 1109.28
  -3   1  26 2555.87 1104.23
   3   1 -25   64.01  221.63
   3  -1 -25  -94.69  224.37
  -3  -1  25  873.29  541.82
  -3   1  25   56.30  566.53
   3   1 -24   35.63  288.09
   3  -1 -24  -13.31  293.20
  -3   1  24 1024.05  738.30
  -3  -1  24 -165.12  694.13
   3   1 -23 4594.81  703.12
   3  -1 -23 4182.86  519.29
  -3   1  23 4515.30 1219.84
  -3  -1  23 5038.45 1532.95
   3   1 -22  513.37  252.41
   3  -1 -22  776.46  362.34
  -3  -1  22  145.81  582.88
  -3   1  22 -184.94  853.01
   3  -1 -21 1470.24  436.73
  -3   1  21  879.95  735.89
  -3  -1  21 1882.82  939.62
   3   1 -20 3099.23  478.17
   3  -1 -20 3728.55  437.03
  -3  -1  20 2728.59  879.49
  -3   1  20 3889.32 1239.56
   3   1 -19 1595.42  407.49
   3  -1 -19  732.78  295.92
  -3   1  19  958.63  820.08
  -3  -1  19 1567.93  800.03
   3   1 -18  806.34  288.42
   3  -1 -18 1128.49  369.13
  -3   1  18  297.69  738.05
  -3  -1  18  690.90  687.00
   3   1 -17  -53.05  187.80
   3  -1 -17   73.47  240.60
  -3  -1  17  171.96  482.25
  -3   1  17  815.70  508.95
   3   1 -16  717.56  269.73
   3  -1 -16  759.72  337.30
  -3  -1  16  534.42  432.76
  -3   1  16  557.28  638.62
   3   1 -15 1575.73  445.94
   3  -1 -15 1333.38  376.12
  -3  -1  15 1680.90  504.46
  -3   1  15 1226.65  713.13
   3   1 -14 6619.72  615.10
   3  -1 -14 7568.52  652.16
  -3  -1  14 8091.28 1229.26
  -3   1  14 8405.40  981.04
   3   1 -13   28.15  309.86
   3  -1 -13  231.30  259.49
  -3  -1  13   26.74  398.78
  -3   1  13  274.21  425.63
   3  -1 -1227824.80 1892.07
   3   1 -1228294.55 1992.07
  -3  -1  1224525.20 2073.79
  -3   1  1226007.01 2642.78
   3   1 -11 5783.23  646.71
   3  -1 -11 7108.64  800.12
  -3  -1  11 6847.24  775.68
  -3   1  11 5952.14 1045.45
   3   1 -10  182.80  394.10
   3  -1 -10  485.86  363.14
  -3  -1  10  805.24  329.34
  -3   1  10  805.20  456.07
   3   1  -923764.65 1841.62
   3  -1  -923447.55 1634.86
  -3  -1   926129.62 2264.53
  -3   1   924239.32 2220.67
   3   1  -819127.59 1439.80
   3  -1  -818555.99 1579.91
  -3   1   816597.91 1696.43
  -3  -1   817593.57 1408.17
   3   1  -7   19.27  330.78
   3  -1  -7  224.91  309.62
  -3  -1   7    9.42  221.21
  -3   1   7  222.94  238.59
   3   1  -6 1473.64  480.55
   3  -1  -6 1055.37  436.66
  -3   1   6 1370.36  465.80
  -3  -1   6 1267.96  319.75
   3   1  -5 3061.70  553.61
   3  -1  -5 2244.78  493.88
  -3  -1   5 1627.04  468.94
  -3   1   5 2251.32  513.59
   3   1  -410702.01  811.66
   3  -1  -411415.04 1005.29
  -3  -1   4 8790.31  915.40
  -3   1   410263.99  997.97
   3   1  -3 7262.07  783.16
   3  -1  -3 7753.06  747.80
  -3  -1   3 6817.83  713.88
  -3   1   3 8153.91  776.68
   3   1  -212071.40  798.32
   3  -1  -211910.52  913.01
  -3  -1   212122.48  883.06
  -3   1   211000.69  961.77
   3   1  -1 1557.79  404.13
   3   1  -1 2409.57  310.40
   3  -1  -1 1760.36  351.14
  -3  -1   1 2840.57  295.64
  -3   1   1 2367.92  381.16
   3   1   0 9242.82  763.86
   3   1   0 9257.17  556.49
   3  -1   0 9410.33  660.91
  -3  -1   010575.41  581.97
  -3   1   0 9732.13  757.92
   3   1   122380.83 1173.95
   3  -1   126133.90 1483.18
   3   1   126957.38 1627.66
  -3  -1  -122887.60 1199.14
  -3   1  -127644.07 1623.78
   3   1   2  292.86  162.47
   3   1   2  511.71  102.59
   3   1   2  326.32  124.44
   3  -1   2  206.69  154.74
   3  -1   2   65.93  133.06
   3   1   3 7239.48  345.82
   3   1   3 6443.17  408.07
   3   1   3 5821.64  447.73
   3  -1   3 7492.78  435.90
   3  -1   3 6694.00  409.59
   3  -1   4  348.95  105.27
   3  -1   4  493.57  132.34
   3   1   4   96.15   81.83
   3   1   4  280.35  120.84
   3   1   4  408.87  147.49
   3   1   5    8.03   68.14
   3  -1   5  -99.23  106.47
  -3  -1  -5  -46.14  164.73
  -3   1  -5  131.45  146.61
   3   1   619524.08  889.23
   3  -1   617324.97  945.30
  -3  -1  -618350.71 1285.40
  -3   1  -617669.54 1218.45
   3   1   716515.94  820.39
   3  -1   718065.19  940.52
  -3   1  -714332.62 1130.06
  -3  -1  -717910.35 1299.76
   3   1   8  538.45  125.01
   3  -1   8  623.08  165.34
  -3  -1  -8   67.34  276.61
  -3   1  -8  442.36  225.99
   3   1   9 4913.89  363.27
   3  -1   9 4856.67  384.78
  -3   1  -9 4206.66  508.37
  -3  -1  -9 4801.75  548.86
   3   1  1011939.31  731.49
   3  -1  1011690.99  749.06
  -3  -1 -1011963.20 1023.76
  -3   1 -1011966.88  935.14
   3   1  1113940.41  857.11
   3  -1  1112908.63  863.19
  -3   1 -1112000.79 1009.83
  -3  -1 -1114555.54  992.48
   3   1  12 3353.46  338.24
   3  -1  12 3143.49  405.01
  -3  -1 -12 2815.87  520.97
  -3   1 -12 3331.40  500.24
   3   1  13 1058.81  303.09
   3  -1  13 1323.62  302.98
  -3   1 -13 1094.99  345.32
  -3  -1 -13  692.76  375.61
   3   1  14    0.12  237.63
   3  -1  14   16.05  222.36
  -3  -1 -14  103.32  209.17
  -3   1 -14  474.10  200.19
   3   1  15   -1.32  246.81
   3  -1  15  157.74  242.28
  -3  -1 -15   52.64  264.03
  -3   1 -15 -340.46  253.84
   3   1  16  631.45  332.08
   3  -1  16  216.10  370.53
  -3  -1 -16 1277.78  295.45
  -3   1 -16  633.08  305.65
   3   1  17  319.95  425.68
   3  -1  17  775.16  398.39
  -3  -1 -17  612.69  389.94
  -3   1 -17   91.48  364.79
   3   1  18 9568.25 1235.64
   3  -1  1812538.09 1296.32
  -3  -1 -18 6355.03 1100.87
  -3   1 -18 7917.12 1059.22
   3   1  19 2069.74  757.66
   3  -1  19 2912.56  727.93
  -3  -1 -19 2047.06  641.75
  -3   1 -19 1369.79  606.98
   3   1  20 2569.85  792.87
   3  -1  20 3384.89  764.23
  -3  -1 -20 1835.92  667.08
  -3   1 -20  840.35  487.81
   3   1  21  437.44  618.73
   3  -1  21  684.49  599.61
  -3   1 -21  769.27  514.48
  -3  -1 -21  204.96  523.04
   3   1  22  861.76  835.85
   3  -1  22 1086.39  794.16
  -3  -1 -22  784.14  474.13
  -3   1 -22 1450.98  627.92
   3  -1  23  522.45  853.49
  -3  -1 -23 1396.76  713.83
  -3   1 -23 1221.20  496.86
   3  -1  24 1950.37 1110.51
  -3  -1 -24 1155.81  835.34
  -3   1 -24 1759.61  805.51
  -3  -1 -25  785.63  585.45
  -3   1 -25 1449.16  787.09
   3   2 -26  207.59  399.37
   3  -2 -26  539.20  285.82
  -3  -2  26 -337.69  962.22
  -3   2  26  717.97  750.32
   3  -2 -25 2695.71  641.24
  -3  -2  25 5408.60 1546.07
  -3   2  25 4153.76 1626.25
   3   2 -24 3439.01  501.45
   3  -2 -24 2984.39  498.36
  -3  -2  24 3470.44 1092.99
  -3   2  24 4661.26 1168.20
   3   2 -23  144.04  280.25
   3  -2 -23  121.08  273.87
  -3  -2  23 -558.56  458.73
  -3   2  23-1091.50  683.13
   3   2 -22  380.93  361.96
   3  -2 -22 1014.76  366.48
  -3  -2  22 1290.61  845.14
  -3   2  22  380.95  649.15
   3  -2 -21 8066.19  725.31
   3   2 -21 7388.82  969.33
  -3  -2  21 6779.70 1338.98
  -3   2  21 8793.92 1421.11
   3   2 -20  479.86  244.96
   3  -2 -20  218.57  300.33
  -3  -2  20  189.21  651.25
  -3   2  20   53.79  700.41
   3   2 -19 5146.56  581.51
   3  -2 -19 6209.39  648.24
  -3  -2  19 1690.17  962.11
  -3   2  19 4804.51 1383.72
   3   2 -18  314.34  291.82
   3  -2 -18    1.83  201.08
  -3  -2  18  522.02  506.40
  -3   2  18   74.34  558.18
   3   2 -17  710.61  302.18
   3  -2 -17  136.85  203.79
  -3  -2  17  426.43  535.21
  -3   2  17  -39.81  582.66
   3   2 -16 2173.67  495.23
   3  -2 -16 1666.22  295.33
  -3  -2  16 1540.37  543.51
  -3   2  16 1164.24  795.62
   3   2 -15 7850.35  670.80
   3  -2 -15 6684.61  587.12
  -3  -2  15 7164.49  931.15
  -3   2  15 6997.46  997.00
   3   2 -14  251.82  325.88
   3  -2 -14  306.74  170.87
  -3  -2  14 -351.24  291.87
  -3   2  14 -135.95  447.95
   3   2 -13 2259.04  560.54
   3  -2 -13 2584.76  355.34
  -3  -2  13 2256.77  676.90
  -3   2  13 2394.56  561.72
   3  -2 -12 1809.60  390.21
   3   2 -12 1349.50  368.01
  -3  -2  12 1719.18  576.97
  -3   2  12 1778.77  484.74
   3  -2 -11 1831.22  334.95
   3   2 -11 1140.88  528.70
  -3  -2  11 1443.99  583.21
  -3   2  11 1785.25  447.35
   3   2 -10  822.26  423.00
   3  -2 -10  519.72  253.94
  -3  -2  10  989.55  339.04
  -3   2  10  617.71  479.09
   3   2  -914540.73 1577.81
   3  -2  -915182.38 1059.27
  -3   2   913790.65 1563.07
  -3  -2   914759.74 1199.68
   3   2  -8  289.02  368.64
   3  -2  -8  239.14  300.78
  -3  -2   8  149.64  332.18
  -3   2   8  -12.90  360.14
   3   2  -712263.06 1145.95
   3  -2  -714995.99 1262.23
  -3  -2   715626.55 1396.48
  -3   2   713256.11 1417.11
   3   2  -6  726.18  342.09
   3  -2  -6 1089.59  391.78
  -3  -2   6  909.60  379.96
  -3   2   6  890.84  313.29
   3   2  -541794.46 3395.39
   3  -2  -543804.88 3179.67
  -3  -2   542167.64 3084.83
  -3   2   540926.73 2930.40
   3   2  -440668.88 3111.24
   3  -2  -440425.45 2887.31
  -3  -2   437066.07 2678.41
  -3   2   441039.55 2740.78
   3   2  -3 5636.80  523.54
   3  -2  -3 5420.36  578.36
  -3   2   3 5148.18  658.90
  -3  -2   3 5101.09  493.67
   3   2  -2 8824.32  703.12
   3   2  -2 9205.28  679.66
   3  -2  -2 9935.99  757.84
  -3  -2   210213.21  745.29
  -3   2   210406.69  919.34
   3   2  -1 4283.59  385.97
   3   2  -1 5034.02  568.81
   3  -2  -1 4913.65  428.51
  -3  -2   1 4124.97  350.95
  -3   2   1 3978.69  390.50
   3   2   016202.03 1003.95
   3   2   017989.17  959.57
   3  -2   017734.44  992.05
  -3  -2   016592.49  842.41
  -3   2   018053.31 1195.24
  -3   2   017196.57  801.44
   3   2   1  530.89  245.16
   3   2   1  547.98  159.81
   3  -2   1  259.51  156.05
  -3  -2  -1  609.27  123.05
   3   2   2 1847.44  294.40
   3   2   2 2520.10  162.27
   3   2   2 2593.85  196.80
   3  -2   2 1449.09  244.96
   3  -2   2 2127.11  291.65
   3  -2   3 7637.23  501.92
   3   2   3 6665.21  367.02
   3   2   3 7727.22  318.54
   3   2   3 7201.06  511.69
   3  -2   3 7986.86  437.35
   3   2   4 3722.05  176.58
   3   2   4 3724.65  346.11
   3  -2   4 3772.89  343.07
   3  -2   4 3741.59  284.98
   3   2   4 3019.23  238.73
   3   2   518537.48  766.69
   3  -2   518812.65  979.93
  -3  -2  -514618.40  844.11
  -3  -2  -517904.33 1057.74
  -3   2  -519210.24 1126.95
   3   2   6  -10.27   63.66
   3  -2   6  -26.66  117.21
  -3  -2  -6  -35.12  175.73
  -3   2  -6   82.70  149.14
   3   2   7  648.67  120.54
   3  -2   7  537.43  170.96
  -3   2  -7  293.49  237.77
  -3  -2  -7  246.88  264.07
   3   2   8 8062.96  442.16
   3  -2   8 8192.04  536.78
  -3  -2  -8 7173.17  776.20
  -3   2  -8 7542.57  631.30
   3   2   9 4954.11  350.27
   3  -2   9 4408.52  399.10
  -3  -2  -9 5236.98  457.47
  -3   2  -9 5581.74  539.37
   3   2  10 1346.04  224.10
   3  -2  10 1581.12  255.41
  -3  -2 -10 1618.14  268.75
  -3   2 -10 1188.89  305.42
   3   2  11  161.31  144.22
   3  -2  11   90.12  159.71
  -3   2 -11  -25.23  189.25
  -3  -2 -11 -180.29  231.09
   3   2  12 8652.68  649.60
   3  -2  12 8286.20  680.78
  -3  -2 -12 7527.52  655.09
  -3   2 -12 6160.61  716.47
   3   2  1322397.75 1565.43
   3  -2  1318887.49 1399.53
  -3   2 -1321488.46 1651.86
  -3  -2 -1318909.05 1668.77
   3   2  14 2293.34  463.22
   3  -2  14 1956.55  428.33
  -3  -2 -14 2325.25  411.35
  -3   2 -14 2579.78  371.07
   3   2  15  608.52  322.22
   3  -2  15  751.93  309.61
  -3   2 -15  200.75  328.43
  -3  -2 -15  473.79  368.95
   3   2  16  273.13  321.91
   3  -2  16   35.52  348.73
  -3  -2 -16  815.03  290.08
  -3   2 -16  664.89  355.76
   3  -2  17   26.50  277.88
   3   2  17 -141.68  262.54
  -3  -2 -17  268.30  300.76
  -3   2 -17  -91.64  198.84
   3   2  18 1428.38  528.90
   3  -2  18 1603.41  486.33
  -3  -2 -18  440.70  465.64
  -3   2 -18  211.05  322.52
   3  -2  19  791.13  496.69
   3   2  19 1669.59  555.40
  -3   2 -19  159.32  333.55
  -3  -2 -19  967.86  494.64
   3   2  20  499.60  594.55
   3  -2  20  515.93  587.05
  -3  -2 -20  623.14  521.60
  -3   2 -20  870.79  491.72
   3   2  21  579.91  766.66
   3  -2  21  870.18  700.46
  -3   2 -21  790.61  571.66
  -3  -2 -21 1639.84  616.35
   3  -2  22  629.09  540.21
  -3  -2 -22  -29.64  479.28
  -3   2 -22   -1.77  453.29
   3  -2  23  201.25  634.94
  -3  -2 -23  364.31  387.81
  -3   2 -23 -160.01  484.22
   3  -2  24 1171.46  709.76
  -3   2 -24 -651.81  542.42
  -3  -2 -24  580.22  571.43
   3   3 -26  121.18  420.10
   3  -3 -26  779.47  308.67
  -3  -3  26  -75.33  736.29
  -3   3  26 2024.12 1083.64
   3   3 -25 2698.49  491.98
   3  -3 -25 2460.46  610.77
  -3  -3  25 3609.76 1077.02
  -3   3  25 2905.77 1128.60
   3  -3 -24   78.27  201.37
   3   3 -24  -79.36  213.98
  -3  -3  24  499.20  664.99
  -3   3  24  143.45  719.02
   3   3 -23  380.76  341.45
   3  -3 -23  166.23  340.55
  -3  -3  23  914.75  785.29
  -3   3  23  565.64  827.97
   3   3 -22  535.95  333.54
   3  -3 -22  -41.73  212.11
  -3   3  22  341.24  522.35
   3   3 -21   60.09  317.61
   3  -3 -21  249.60  279.48
  -3  -3  21  374.42  612.60
  -3   3  21  107.11  686.30
   3  -3 -20  238.51  211.33
   3   3 -20  191.74  309.57
  -3  -3  20  244.09  421.85
  -3   3  20  -13.89  663.06
   3  -3 -19 -139.20  252.72
   3   3 -19 -134.08  292.90
  -3   3  19 -358.25  584.12
  -3  -3  19  260.71  524.04
   3   3 -18 -105.85  280.92
   3  -3 -18  257.07  240.51
  -3  -3  18  -16.22  360.74
  -3   3  18  423.82  574.09
   3   3 -17  399.06  263.94
   3  -3 -17  337.09  217.12
  -3   3  17  191.05  599.85
  -3  -3  17  244.97  545.66
   3  -3 -16 2059.61  306.61
   3   3 -16 1738.92  376.91
  -3  -3  16 1943.78  565.01
  -3   3  16 1577.07  619.17
   3   3 -1510658.73 1157.41
   3  -3 -15 9937.66  684.63
  -3   3  15 7611.39 1483.76
  -3  -3  15 9068.37 1071.20
   3   3 -14 2576.12  490.60
   3  -3 -14 1343.46  355.84
  -3  -3  14  554.04  442.35
  -3   3  14 1037.59  503.88
   3   3 -13 2592.05  421.71
   3  -3 -13 1675.41  295.64
  -3  -3  13 2366.01  488.51
  -3   3  13 2398.70  738.91
   3   3 -12 1159.63  351.51
   3  -3 -12 1576.44  274.93
  -3  -3  12  787.51  542.19
  -3   3  12 1054.12  606.01
   3   3 -11  488.28  385.10
   3  -3 -11  566.51  271.51
  -3  -3  11  302.63  398.95
  -3   3  11   84.51  322.59
   3   3 -10  -33.88  241.81
   3  -3 -10  -23.49  182.06
  -3  -3  10  447.40  311.13
  -3   3  10  -71.26  344.29
   3  -3  -950685.91 3454.78
   3   3  -953453.34 4614.27
  -3   3   952137.00 4575.34
  -3  -3   948253.42 4041.27
   3  -3  -8 1362.47  301.30
   3   3  -8 1295.92  394.66
  -3  -3   8 1283.75  473.28
  -3   3   8 1089.13  386.14
   3   3  -7 4373.81  851.76
   3  -3  -7 5282.90  666.07
  -3   3   7 5479.42  631.25
  -3  -3   7 4461.21  723.78
   3   3  -659663.90 4875.82
   3  -3  -653083.21 3950.91
  -3  -3   653269.36 4139.99
  -3   3   655099.16 4634.58
   3  -3  -533742.98 2395.01
   3   3  -533094.25 2312.80
  -3  -3   531099.28 2276.53
  -3   3   529963.61 2520.44
   3   3  -434307.56 2713.72
   3  -3  -435087.99 2361.90
  -3  -3   432244.75 2263.31
  -3   3   432397.94 2583.71
   3   3  -315847.45 1259.86
   3  -3  -314717.38 1077.97
  -3   3   314013.91 1009.79
  -3  -3   313695.01 1011.97
   3   3  -2 6484.06  461.48
   3   3  -2 7920.12  641.90
   3  -3  -2 7980.79  620.67
  -3  -3   2 8178.60  608.29
  -3   3   2 8015.60  790.72
   3   3  -111512.64  733.24
   3  -3  -111015.69  662.81
   3   3  -110084.24  594.98
  -3   3   1 9096.33  549.65
  -3  -3   110721.73  588.63
  -3   3   1 9766.77  887.94
   3   3   010809.83  621.82
   3   3   010158.05  681.47
   3  -3   010196.08  655.02
  -3  -3   011173.26  544.08
  -3   3   0 9429.36  441.31
  -3   3   0 8327.29  797.19
   3   3   128658.67 1434.79
   3   3   129028.01 1708.01
   3  -3   128343.96 1568.48
   3  -3   123332.40 1511.26
  -3  -3  -128926.14 1365.94
   3   3   2 8112.13  587.63
   3   3   2 7215.68  407.49
   3   3   2 7082.04  332.20
   3  -3   2 8987.20  439.76
   3  -3   2 8134.24  596.88
   3  -3   2 7407.14  407.25
   3   3   3 5528.71  219.62
   3   3   3 4011.00  403.82
   3  -3   3 3716.83  287.43
   3  -3   3 5281.08  432.80
   3   3   3 5209.23  335.07
   3   3   4 4493.46  208.57
   3   3   4 3875.44  372.97
   3  -3   4 4660.78  391.37
   3  -3   4 4127.33  294.78
   3   3   4 3347.60  268.90
   3   3   5  760.49  113.22
   3  -3   5  482.65  210.03
  -3  -3  -5 1100.40  137.19
  -3  -3  -5 1172.95  290.19
  -3   3  -5 1543.18  193.03
   3   3   6  208.17   64.71
   3  -3   6  174.69  147.59
  -3  -3  -6   93.36   78.63
  -3  -3  -6  229.84  214.79
  -3   3  -6  -92.97  167.38
   3   3   7  133.28   75.96
   3  -3   7   65.10  149.48
  -3   3  -7  339.71  181.63
  -3  -3  -7  204.61  231.41
   3   3   8 2040.66  174.39
   3  -3   8 1699.60  267.81
  -3  -3  -8 2172.17  421.73
  -3   3  -8 2000.71  291.27
   3  -3   9 8129.02  565.28
   3   3   9 7006.11  402.72
  -3  -3  -9 8754.93  699.54
  -3   3  -9 7865.58  611.14
   3   3  10 3765.52  318.15
   3  -3  10 3752.65  397.98
  -3  -3 -10 3487.00  416.05
  -3   3 -10 3882.57  404.28
   3  -3  11  371.01  188.83
   3   3  11   37.95  141.36
  -3  -3 -11  554.78  267.02
  -3   3 -11  242.69  208.37
   3   3  12    1.46  201.62
   3  -3  12  105.09  193.87
  -3  -3 -12  441.22  193.56
  -3   3 -12  -70.58  207.58
   3  -3  13 -123.52  192.91
   3   3  13  -49.52  172.10
  -3  -3 -13  -65.15  178.75
  -3   3 -13  160.29  207.63
   3   3  14  356.75  285.14
   3  -3  14  432.62  239.02
  -3  -3 -14  -34.82  220.90
  -3   3 -14  179.93  188.77
   3   3  15  561.79  342.99
   3  -3  15  678.37  300.95
  -3  -3 -15 -109.68  361.66
  -3   3 -15  529.47  315.02
   3   3  16 3448.35  616.90
   3  -3  16 2824.37  512.54
  -3  -3 -16 1712.07  467.70
  -3   3 -16 1774.74  524.60
   3  -3  17 2417.97  607.32
   3   3  17 3205.35  582.36
  -3  -3 -17 1674.86  649.17
  -3   3 -17 2266.65  562.63
   3   3  18 1074.47  463.18
   3  -3  18  152.56  300.50
  -3  -3 -18  378.43  427.62
  -3   3 -18  255.02  374.99
   3  -3  19 1759.98  521.27
   3   3  19  489.78  596.08
  -3  -3 -19 -115.16  490.14
  -3   3 -19  708.74  449.74
   3   3  20 -252.62  512.84
   3  -3  20  776.94  443.51
  -3  -3 -20   48.14  427.34
  -3   3 -20   47.13  384.52
   3  -3  21 5130.75  983.07
  -3   3 -21 1299.80  757.69
  -3  -3 -21 2716.36  833.15
   3  -3  22  774.34  613.43
  -3  -3 -22 -113.35  529.37
  -3   3 -22  412.40  485.40
   3  -3  23 2174.66  903.53
  -3  -3 -23 1232.39  581.02
  -3   3 -23 1476.01  718.28
   3  -3  24 1276.64  805.02
  -3  -3 -24  460.82  476.74
  -3   3 -24   70.24  601.91
   3   4 -26  874.07  541.58
   3  -4 -26 1875.08  539.64
  -3  -4  26 1342.15 1275.58
  -3   4  26 3205.87 1388.49
   3   4 -25  623.35  303.98
   3  -4 -25  315.58  290.47
  -3   4  25 1143.60 1019.92
  -3  -4  25 1145.80  698.66
   3  -4 -24 1728.04  466.99
   3   4 -24 1294.63  361.07
  -3  -4  24  538.16  805.72
  -3   4  24 1869.72 1180.32
   3   4 -23   87.43  344.36
   3  -4 -23  505.80  242.77
  -3   4  23  705.14  624.25
  -3  -4  23  -57.73  748.19
   3   4 -22  667.84  445.60
   3  -4 -22  682.78  386.36
  -3  -4  22 1596.49  825.22
  -3   4  22 1011.13  922.71
   3   4 -21   74.72  298.87
   3  -4 -21  -15.29  194.94
  -3   4  21  878.21  647.14
  -3  -4  21  171.24  416.55
   3   4 -20 6108.16  833.35
   3  -4 -20 5206.67  686.41
  -3  -4  20 4668.34 1402.42
  -3   4  20 5125.08 1525.05
   3   4 -19 2047.94  474.14
   3  -4 -19 1356.86  307.63
  -3  -4  19 1073.78  815.88
  -3   4  19 1567.88  930.02
   3   4 -1816090.87 1194.62
   3  -4 -1815300.51 1294.46
  -3  -4  1816119.83 1802.16
  -3   4  1817995.04 2438.31
   3   4 -17 4234.69  692.26
   3  -4 -17 3916.31  542.25
  -3   4  17 4151.50 1137.80
  -3  -4  17 3084.98 1042.55
   3   4 -1614773.24 1476.30
   3  -4 -1617408.85 1146.34
  -3   4  1617512.51 1820.35
  -3  -4  1616851.73 2093.46
   3   4 -15  683.84  308.11
   3  -4 -15  288.52  270.64
  -3   4  15  514.91  573.14
  -3  -4  15  551.56  371.08
   3   4 -14 2796.24  500.33
   3  -4 -14 4566.69  471.55
  -3  -4  14 1645.16  591.13
  -3   4  14 2860.15  894.35
   3   4 -13 1140.83  372.61
   3  -4 -13 1343.43  347.42
  -3   4  13 2007.94  486.19
  -3  -4  13 1035.53  561.60
   3   4 -12 4954.34  572.21
   3  -4 -12 4251.07  461.62
  -3  -4  12 1338.50  540.80
  -3   4  12 3887.00  846.96
   3   4 -11 4853.01  642.20
   3  -4 -11 4904.10  631.03
  -3  -4  11 5986.65  655.58
  -3   4  11 7195.71 1005.64
   3  -4 -1028548.59 1768.12
   3   4 -1028247.45 2707.75
  -3  -4  1029504.16 2549.58
  -3   4  1031473.58 2875.60
   3   4  -9 4877.39  946.87
   3  -4  -9 6627.51  718.20
  -3   4   9 5163.62  964.38
  -3  -4   9 6360.16  851.30
   3   4  -8 4705.18  625.40
   3  -4  -8 4270.66  562.29
  -3  -4   8 2999.54  663.90
  -3   4   8 4587.01  609.62
   3   4  -728866.48 2650.99
   3  -4  -728198.54 2054.55
  -3   4   729957.13 2230.69
  -3  -4   727749.29 2178.95
   3   4  -6 1907.75  543.86
   3  -4  -6 1323.56  372.23
  -3  -4   6 1288.77  422.33
  -3   4   6 1486.22  536.44
   3   4  -5 1638.13  388.31
   3  -4  -5 1564.75  302.04
  -3   4   5 1119.08  500.72
  -3  -4   5 1525.93  373.51
   3   4  -4  945.02  397.09
   3  -4  -4  886.44  273.66
  -3  -4   4  504.11  279.02
  -3   4   4  747.51  403.08
   3   4  -3  478.28  229.78
   3  -4  -3  433.35  230.51
  -3  -4   3  249.98  227.04
  -3   4   3  354.00  244.00
   3   4  -2 5337.74  330.28
   3   4  -2 5123.15  684.53
   3  -4  -2 5252.42  410.99
  -3  -4   2 4430.12  438.19
  -3   4   2 4737.27  491.18
  -3   4   2 4156.35  309.54
   3   4  -127374.12 1717.66
   3  -4  -129893.38 1633.85
   3   4  -128326.55 1488.19
  -3  -4   129775.76 1539.00
  -3   4   125603.10 1336.25
  -3   4   126527.38 2008.30
   3   4   0 3718.66  506.90
   3  -4   0 3868.04  284.78
   3   4   0 4023.38  309.31
  -3  -4   0 3578.74  227.70
  -3   4   0 3562.97  195.46
  -3   4   0 3931.47  389.23
   3   4   1 1136.87  348.37
   3   4   1 1118.64  161.76
   3  -4   1 1350.63  353.19
   3  -4   1 1747.38  177.82
   3  -4   1 1501.38  136.17
  -3  -4  -1 1681.45  151.57
   3   4   210640.52  404.88
   3   4   211666.76  546.46
   3  -4   210504.39  539.50
   3  -4   210410.82  790.60
   3  -4   212693.19  559.13
   3   4   211235.23  787.56
   3   4   3  -47.55   44.00
   3   4   3  -90.33   75.97
   3   4   3   64.06  106.93
   3  -4   3   -8.64   63.22
   3  -4   3  104.29   74.65
   3  -4   3  118.09  149.37
   3   4   413533.03  630.30
   3   4   411864.43  656.84
   3  -4   413425.01  852.62
   3  -4   413587.08  643.85
   3   4   411337.36  417.19
   3   4   514145.66  552.50
   3  -4   515720.54  814.59
  -3   4  -516889.36  846.83
  -3  -4  -516488.52  749.07
   3   4   6 1758.70  131.33
   3  -4   6 1902.87  260.96
  -3  -4  -6 1310.83  358.78
  -3   4  -6 1247.14  219.61
   3   4   7 4335.74  225.61
   3  -4   7 4374.59  388.03
  -3   4  -7 4216.69  383.23
  -3  -4  -7 4261.86  547.82
   3   4   812940.87  614.63
   3  -4   811748.25  656.11
  -3  -4  -812873.59 1129.52
  -3   4  -812823.63  842.04
   3   4   9 5603.73  339.79
   3  -4   9 5177.00  453.52
  -3  -4  -9 4451.93  665.62
  -3   4  -9 5165.13  470.14
   3   4  1064197.50 4252.77
   3  -4  1063546.44 4425.50
  -3  -4 -1067084.63 5536.91
  -3   4 -1058472.61 4245.45
   3  -4  11  542.46  244.97
   3   4  11  889.20  199.57
  -3  -4 -11  623.80  355.31
  -3   4 -11 1206.39  254.26
   3   4  12 1486.75  300.69
   3  -4  12 1431.78  315.44
  -3  -4 -12 1632.42  431.63
  -3   4 -12 1863.72  338.62
   3  -4  13 4298.29  511.03
   3   4  13 4874.12  570.49
  -3  -4 -13 4058.58  546.06
  -3   4 -13 4324.42  531.95
   3   4  14  287.55  343.58
   3  -4  14  785.47  302.89
  -3  -4 -14  795.59  296.12
  -3   4 -14  569.63  300.63
   3  -4  15  122.63  307.04
   3   4  15 1452.55  323.83
  -3  -4 -15  527.92  385.96
  -3   4 -15  149.37  319.86
   3   4  16 1861.70  496.91
   3  -4  16 1287.67  422.68
  -3  -4 -16 1246.80  395.45
  -3   4 -16 1385.37  435.92
   3   4  17 1750.75  627.88
   3  -4  17 1875.82  481.80
  -3  -4 -17 1649.21  605.80
  -3   4 -17 1506.10  481.96
   3   4  18  -54.23  313.38
   3  -4  18 -269.59  307.52
  -3  -4 -18  300.73  336.45
  -3   4 -18   39.44  280.42
   3  -4  19  406.37  466.47
   3   4  19  741.85  569.19
  -3  -4 -19  360.33  518.73
  -3   4 -19  870.08  432.57
   3  -4  20 2212.84  631.12
  -3  -4 -20  841.67  467.61
  -3   4 -20  530.42  516.75
   3  -4  21 1491.48  547.04
  -3  -4 -21  136.91  529.05
  -3   4 -21  -78.35  463.73
   3  -4  22  582.63  503.91
  -3   4 -22  643.50  539.80
  -3  -4 -22  655.95  602.65
   3  -4  23  474.58  551.22
  -3   4 -23  797.02  431.05
  -3  -4 -23  647.35  651.24
   3  -4  24 1316.22  621.61
  -3  -4 -24 -144.46  503.79
  -3   4 -24  939.90  619.57
   3  -5 -26   79.72  341.72
   3   5 -26  -82.28  265.50
  -3  -5  26  510.16  847.46
  -3   5  26 1376.82  667.12
   3   5 -25  473.60  329.80
   3  -5 -25  777.31  317.95
  -3   5  25 3177.85 1113.19
  -3  -5  25  961.05  975.63
   3   5 -24 1639.54  385.14
   3  -5 -24 1412.96  367.24
  -3  -5  24 2323.57 1123.25
  -3   5  24 2245.64  916.23
   3   5 -23 2591.37  618.56
   3  -5 -23 2317.04  523.13
  -3  -5  23 1260.29  831.08
  -3   5  23 1812.15 1270.21
   3  -5 -22  428.96  243.23
   3   5 -22  247.79  393.21
  -3  -5  22 1231.94  553.46
  -3   5  22  348.97  850.16
   3   5 -21   87.55  290.08
   3  -5 -21   33.23  264.33
  -3  -5  21  185.29  567.79
  -3   5  21 -147.80  630.17
   3  -5 -20  595.46  245.41
   3   5 -20  751.74  395.99
  -3  -5  20  -12.13  715.73
  -3   5  20  438.51  775.58
   3   5 -19 2402.03  386.85
   3  -5 -19 1182.37  428.13
  -3  -5  19 2057.83  677.86
  -3   5  19 1564.06  976.92
   3  -5 -18  -98.52  244.98
   3   5 -18  362.22  254.98
  -3  -5  18  -75.68  504.43
  -3   5  18  117.75  557.12
   3   5 -17 2007.53  524.91
   3  -5 -17 1742.14  383.70
  -3  -5  17 1354.97  567.94
  -3   5  17 1277.66  634.85
   3   5 -16   40.07  237.57
   3  -5 -16  -27.56  141.00
  -3  -5  16  237.93  402.94
  -3   5  16   92.14  446.88
   3   5 -15  428.12  422.25
   3  -5 -15  553.40  283.77
  -3  -5  15  115.14  375.43
  -3   5  15 1103.85  433.84
   3  -5 -14   40.50  184.39
   3   5 -14  188.72  301.43
  -3  -5  14 -206.83  249.79
  -3   5  14   -9.26  387.73
   3  -5 -13 4876.71  397.27
   3   5 -13 5272.05  797.86
  -3  -5  13 3409.74  881.67
  -3   5  13 3612.84  747.63
   3  -5 -12 1904.85  288.94
   3   5 -12 2254.69  603.12
  -3  -5  12 1542.94  585.00
  -3   5  12 2446.90  528.77
   3   5 -11 2039.84  510.99
   3  -5 -11 2518.23  278.39
  -3  -5  11 1948.41  597.30
  -3   5  11 2889.84  720.01
   3  -5 -10  668.50  198.99
   3   5 -10  209.47  457.19
  -3  -5  10  192.32  271.63
  -3   5  10  658.48  469.49
   3   5  -9  719.27  585.95
   3  -5  -9 1968.02  350.96
  -3  -5   9 1673.31  496.68
  -3   5   9 1357.16  593.18
   3   5  -8 6817.33 1023.09
   3  -5  -8 6094.55  470.02
  -3  -5   8 7984.98  854.10
  -3   5   8 7893.55  816.98
   3  -5  -7 6330.51  683.86
   3   5  -7 7845.94 1103.31
  -3  -5   7 7850.26  827.81
  -3   5   7 7274.36  808.02
   3  -5  -615182.77 1110.05
   3   5  -614344.95 1533.23
  -3   5   613695.55 1490.17
  -3  -5   614266.75 1199.06
   3   5  -5 2159.49  609.32
   3  -5  -5 2633.09  335.50
  -3  -5   5 1916.38  415.34
  -3   5   5 2346.85  447.19
   3  -5  -413096.11  960.98
   3   5  -416908.06 1463.36
  -3  -5   415759.36 1097.08
  -3   5   416288.74 1464.74
   3   5  -314556.13 1231.28
   3  -5  -312912.60  849.97
  -3  -5   312502.77  852.09
  -3   5   311499.95  672.98
  -3   5   313994.66 1276.99
   3   5  -2 3031.55  223.88
   3  -5  -2 3652.11  295.95
   3   5  -2 2455.44  530.62
  -3  -5   2 3077.14  281.71
  -3   5   2 2819.64  549.80
  -3   5   2 2310.12  223.42
   3   5  -1 4522.35  440.99
   3   5  -1 4085.45  268.81
   3  -5  -1 3379.13  269.96
  -3   5   1 3620.97  228.19
  -3  -5   1 3785.79  270.28
  -3   5   1 4084.45  587.16
   3   5   035480.32 1826.53
   3   5   036332.73 2642.86
   3  -5   041154.12 2256.89
  -3   5   039530.53 2825.48
  -3   5   036052.87 1811.30
  -3  -5   037971.19 1897.91
   3   5   1 6667.90  639.91
   3   5   1 6761.84  338.77
   3  -5   1 4976.23  246.37
   3  -5   1 7122.73  666.72
   3  -5   1 4883.80  305.37
  -3  -5  -1 5964.67  261.47
   3   5   2  389.36  160.19
   3   5   2  329.23   86.37
   3   5   2  278.12   66.21
   3  -5   2  579.49  140.78
   3  -5   2  435.79  176.41
   3  -5   2  601.23   77.69
   3   5   3  159.46   38.66
   3   5   3  378.95  185.77
   3  -5   3  -80.19  184.07
   3  -5   3  116.69   64.83
   3  -5   3  155.66   75.82
   3   5   3   99.09   72.73
   3   5   4 2679.46  190.23
   3   5   4 2197.83  332.97
   3  -5   4 2629.36  172.52
   3  -5   4 2312.50  139.02
   3  -5   4 2694.72  268.06
   3   5   5 8349.21  524.41
   3  -5   5 8161.22  495.61
  -3   5  -5 8627.19  462.81
   3   5   6  485.81   87.41
   3  -5   6  761.36  209.96
  -3  -5  -6  533.90   95.07
  -3   5  -6  663.05  177.76
  -3  -5  -6  587.36  280.96
   3   5   7 7815.01  352.91
   3  -5   7 6958.33  548.87
  -3  -5  -7 6848.96  725.70
  -3   5  -7 6558.69  440.24
   3   5   8  -81.46   82.64
   3  -5   8  364.47  148.59
  -3  -5  -8    6.72   73.31
  -3  -5  -8  194.10  221.47
  -3   5  -8   37.41  137.06
   3  -5   9 -113.09  141.58
   3   5   9   12.18  133.99
  -3  -5  -9  -94.96  230.55
  -3   5  -9   99.92  125.66
   3   5  10 3853.17  346.51
   3  -5  10 4380.68  422.72
  -3   5 -10 3979.49  409.72
  -3  -5 -10 2393.68  632.42
   3  -5  1119496.10 1300.70
   3   5  1117939.91 1188.55
  -3  -5 -1118520.26 1648.80
  -3   5 -1118511.88 1164.55
   3   5  12  318.05  228.65
   3  -5  12  786.66  248.01
  -3  -5 -12  248.77  340.62
  -3   5 -12  581.26  238.89
   3  -5  13 1976.06  308.93
   3   5  13 1814.42  379.20
  -3  -5 -13 2294.48  562.53
  -3   5 -13 2923.86  402.50
   3   5  14 -143.37  258.30
   3  -5  14  170.20  180.95
  -3  -5 -14  337.71  319.16
  -3   5 -14  130.95  233.04
   3  -5  15   44.16  233.40
   3   5  15  147.29  245.91
  -3  -5 -15 -197.62  305.80
  -3   5 -15    1.54  228.88
   3   5  16  498.55  348.40
   3  -5  16  137.55  281.80
  -3  -5 -16  -53.16  277.88
  -3   5 -16   76.95  276.29
   3  -5  17  -33.94  228.21
   3   5  17  185.23  325.78
  -3  -5 -17  299.34  375.25
  -3   5 -17  382.96  301.51
   3   5  18  578.59  586.58
   3  -5  18  817.94  472.48
  -3  -5 -18 1108.07  515.88
  -3   5 -18  445.76  401.10
   3  -5  19  -86.00  368.99
  -3  -5 -19   74.53  284.49
  -3   5 -19  144.31  324.12
   3  -5  20 1993.38  786.14
  -3  -5 -20 1570.59  592.93
  -3   5 -20 2356.34  636.55
   3  -5  21  612.96  648.71
  -3  -5 -21 1093.38  465.84
  -3   5 -21 1042.61  540.88
   3  -5  22 2166.05  744.32
  -3  -5 -22 1647.76  732.46
  -3   5 -22  724.01  446.37
   3  -5  23  401.37  702.87
  -3   5 -23  465.67  533.89
  -3  -5 -23  389.87  621.10
   3  -5  24 2185.94  981.53
  -3  -5 -24 2418.42  858.83
  -3   5 -24  249.44  753.52
   3   6 -26  330.68  295.95
   3  -6 -26  -31.34  387.08
  -3  -6  26  762.36  900.62
  -3   6  26 1474.77 1018.69
   3  -6 -25   21.74  380.45
   3   6 -25  681.12  297.22
  -3  -6  25 1017.98  876.85
  -3   6  25 -155.10  733.28
   3   6 -24 1171.49  480.74
   3  -6 -24 1124.08  465.17
  -3  -6  24 1522.09 1049.68
  -3   6  24 1545.37  857.17
   3  -6 -23  240.83  271.97
   3   6 -23  724.19  427.67
  -3  -6  23 1891.64  830.53
  -3   6  23 1224.14  929.25
   3   6 -22   23.27  316.65
   3  -6 -22 -130.10  279.38
  -3  -6  22 1626.31  638.38
  -3   6  22 -101.70  710.50
   3   6 -21  295.42  373.31
   3  -6 -21  388.75  290.54
  -3  -6  21  117.63  483.63
  -3   6  21  -63.12  754.82
   3   6 -20 2259.56  433.88
   3  -6 -20 2213.73  378.21
  -3  -6  20 2975.29  746.94
  -3   6  20 2591.77 1158.35
   3  -6 -1912144.65 1086.12
   3   6 -1911838.69 1121.54
  -3  -6  1911717.26 1929.45
  -3   6  19 9004.80 2108.28
   3   6 -18  641.95  412.69
   3  -6 -18  555.12  217.57
  -3  -6  18  356.88  452.97
  -3   6  18   20.05  688.03
   3  -6 -1719348.41 1464.52
   3   6 -1717254.14 1391.54
  -3  -6  1716782.56 2258.96
  -3   6  1719082.51 2073.08
   3   6 -16 1335.92  488.57
   3  -6 -16  684.61  223.96
  -3  -6  16 1233.86  609.54
  -3   6  16 1063.45  707.50
   3  -6 -15  945.93  271.23
   3   6 -15  503.93  356.83
  -3  -6  15 -161.69  534.87
  -3   6  15  950.67  644.48
   3   6 -14  183.53  281.62
   3  -6 -14  193.91  148.79
  -3  -6  14   95.29  300.69
  -3   6  14  476.32  496.84
   3   6 -13  325.37  340.24
   3  -6 -13  861.70  253.61
  -3  -6  13   37.21  454.49
  -3   6  13  235.67  539.64
   3   6 -12 8000.83  816.34
   3  -6 -12 7868.03  623.89
  -3  -6  12 4618.16 1009.48
  -3   6  12 6036.70 1174.54
   3  -6 -11 7955.80  536.25
   3   6 -11 6639.71 1112.28
  -3  -6  11 6766.76  982.33
  -3   6  11 7600.63 1149.28
   3   6 -10 2829.07  514.03
   3  -6 -10 2409.57  275.86
  -3  -6  10 2394.98  593.12
  -3   6  10 2397.92  536.87
   3  -6  -9 4914.02  344.29
   3   6  -9 1999.93  644.94
  -3  -6   9 2818.69  679.73
  -3   6   9 5150.59  868.19
   3   6  -820140.39 2105.92
   3  -6  -821528.21 1432.38
  -3  -6   821833.97 1790.00
  -3   6   821466.51 1790.49
   3  -6  -7 2864.10  361.88
   3   6  -7 2423.40  519.78
  -3  -6   7 2647.04  509.08
  -3   6   7 1877.72  488.29
   3   6  -6  220.49  294.40
   3  -6  -6  230.39  223.88
  -3  -6   6  420.81  277.11
  -3   6   6  317.14  392.15
   3   6  -521325.25 1581.02
   3  -6  -519807.53 1258.26
  -3  -6   520269.30 1474.91
  -3   6   518583.76 1514.46
   3   6  -4  -18.06  306.17
   3  -6  -4  121.14  142.34
  -3  -6   4  117.22  184.36
  -3   6   4 -213.62  316.87
   3   6  -3   53.65  297.16
   3  -6  -3  -27.86  126.63
  -3  -6   3   64.40  162.88
  -3   6   3  149.28  117.14
  -3   6   3  -16.73  296.87
   3   6  -2  366.92  286.18
   3   6  -2  130.61   80.77
   3  -6  -2  278.82  120.57
  -3   6   2  103.30   96.09
  -3  -6   2  -74.18  123.45
  -3   6   2  202.88  212.63
   3   6  -1 2124.72  514.93
   3   6  -1 3274.30  192.50
   3  -6  -1 3154.22  290.07
  -3  -6   1 2523.08  270.73
  -3   6   1 2699.92  214.29
  -3   6   1 1561.48  526.34
   3   6   0 6867.69  269.38
   3  -6   0 6278.62  402.09
   3   6   0 5518.33  697.48
  -3  -6   0 5866.04  309.86
  -3   6   0 6361.33  567.90
  -3   6   0 5762.33  243.11
   3   6   1 7310.96  702.12
   3   6   1 6128.98  227.99
   3  -6   1 6038.30  724.78
   3  -6   1 5982.66  361.97
  -3  -6  -1 6610.98  262.37
   3  -6   2 8640.29  793.37
   3   6   210239.99  355.53
   3  -6   2 8790.38  488.21
   3  -6   2 8856.62  393.98
   3   6   2 9578.62  676.63
   3   6   3 3155.58  353.40
   3  -6   3 5106.39  467.44
   3   6   410652.60  819.73
   3  -6   410447.15  445.28
   3  -6   411039.63  809.70
   3   6   5 2038.64  137.64
   3   6   5 2662.88  134.45
   3   6   5 2319.52  362.38
   3  -6   5 2140.84  333.04
  -3   6  -5 3238.52  206.01
   3  -6   6 2986.23  367.16
   3   6   6 2869.35  189.07
  -3  -6  -6 3597.84  358.04
  -3   6  -6 2847.63  254.03
   3   6   7 2338.49  198.30
   3  -6   7 1528.42  299.82
  -3  -6  -7 1878.09  156.80
  -3  -6  -7 1536.82  410.40
  -3   6  -7 2149.78  207.16
   3   6   8 4173.75  291.95
   3  -6   8 3291.49  275.81
  -3  -6  -8 1780.80  382.05
  -3  -6  -8 2462.10  164.50
   3  -6   9  792.14  231.61
   3   6   9  682.55  198.96
  -3  -6  -9  649.85  347.96
  -3   6  -9  643.03  187.91
   3   6  10 4174.40  401.61
   3  -6  10 2772.01  393.83
  -3   6 -10 3610.51  360.25
  -3  -6 -10 2981.12  595.27
   3   6  1133349.16 2257.20
   3  -6  1133075.80 2265.78
  -3  -6 -1139568.53 2863.99
  -3   6 -1132930.73 2186.56
   3   6  1250138.59 3432.17
   3  -6  1244232.42 3167.30
  -3   6 -1242402.28 2861.85
  -3  -6 -1243185.31 3648.97
   3   6  1320808.84 1514.41
   3  -6  1318966.06 1404.19
  -3  -6 -1316493.37 1688.59
  -3   6 -1316474.38 1296.40
   3   6  14 1755.94  460.31
   3  -6  14 3403.47  455.52
  -3  -6 -14 1752.09  606.20
  -3   6 -14 2826.24  433.57
   3   6  15 8931.55 1015.69
   3  -6  15 9721.80  953.92
  -3  -6 -15 7043.14 1137.68
  -3   6 -15 8873.85  913.29
   3   6  16 1372.83  484.99
   3  -6  16  205.42  272.03
  -3   6 -16  990.58  265.06
  -3  -6 -16  642.21  364.98
   3   6  17 1782.20  692.25
   3  -6  17 1779.71  527.47
  -3  -6 -17 2122.13  678.78
   3  -6  18   73.30  241.16
  -3  -6 -18   41.80  426.13
  -3   6 -18  270.37  307.56
   3  -6  19   69.05  437.97
  -3   6 -19  791.03  374.41
  -3  -6 -19   42.79  377.84
   3  -6  20   50.05  448.94
  -3  -6 -20  252.08  388.88
  -3   6 -20  345.72  386.10
   3  -6  21  499.27  617.99
  -3  -6 -21  796.12  475.53
  -3   6 -21  610.74  354.42
   3  -6  22 1430.67  544.40
  -3  -6 -22 1491.46  776.34
  -3   6 -22  710.18  604.24
   3  -6  23  265.17  446.63
  -3   6 -23  377.06  371.01
  -3  -6 -23  519.82  657.88
   3  -6  24  -77.47  498.24
  -3  -6 -24  575.13  639.16
  -3   6 -24  169.56  511.65
   3   7 -26  340.75  382.53
   3  -7 -26  -41.87  270.43
  -3  -7  26  455.77  618.51
  -3   7  26 1159.98  980.28
   3   7 -25 1438.95  527.85
   3  -7 -25 1097.31  374.56
  -3  -7  25 1609.34  836.63
  -3   7  25 1743.33  954.67
   3   7 -24 1740.72  575.20
   3  -7 -24  975.52  467.77
  -3  -7  24 1855.69 1090.57
  -3   7  24  848.90 1223.81
   3  -7 -23 1382.59  492.42
   3   7 -23 1948.57  574.56
  -3  -7  23 1281.69 1091.82
  -3   7  23 2468.47 1237.32
   3   7 -22 -183.86  351.49
   3  -7 -22  249.68  221.80
  -3  -7  22 1565.42  684.52
  -3   7  22   70.97  788.26
   3  -7 -21  296.91  233.40
   3   7 -21  615.40  390.70
  -3  -7  21  424.96  702.44
  -3   7  21  304.97  798.77
   3   7 -20   57.32  227.91
   3  -7 -20  149.86  254.41
  -3  -7  20    0.57  413.72
  -3   7  20  168.85  634.09
   3  -7 -19  330.15  268.06
   3   7 -19  -70.14  278.70
  -3  -7  19  226.87  404.55
  -3   7  19  157.81  637.88
   3   7 -18 -500.73  331.05
   3  -7 -18   55.12  174.55
  -3  -7  18 -178.72  499.87
  -3   7  18   23.17  421.88
   3   7 -17 1025.60  400.47
   3  -7 -17  779.34  309.38
  -3  -7  17  491.42  653.32
  -3   7  17 1048.90  745.02
   3   7 -16 7490.54 1087.96
   3  -7 -16 6548.16  669.77
  -3  -7  16 7530.72 1005.52
  -3   7  16 8181.57 1160.59
   3  -7 -15  264.16  169.06
   3   7 -15   57.45  412.33
  -3  -7  15   42.90  414.05
  -3   7  15  345.20  536.72
   3   7 -14  549.01  337.41
   3  -7 -14  825.89  253.58
  -3  -7  14  495.68  337.53
  -3   7  14  701.69  596.66
   3  -7 -13 1461.89  224.80
   3   7 -13 1458.01  455.93
  -3  -7  13 1994.86  551.33
  -3   7  13 2108.40  528.32
   3   7 -12  325.04  438.25
   3  -7 -12  261.14  213.84
  -3  -7  12   85.32  345.45
  -3   7  12  287.78  463.64
   3   7 -1111786.11 1132.66
   3  -7 -1110649.17  648.68
  -3  -7  1111300.32  906.89
  -3   7  1110240.68 1128.05
   3   7 -10 3233.00  781.76
   3  -7 -10 3275.23  362.96
  -3  -7  10 3342.00  434.94
  -3   7  10 3642.79  628.60
   3   7  -9 7029.46 1102.61
   3  -7  -9 7495.45  597.83
  -3  -7   9 7743.92  833.67
  -3   7   9 6607.97 1138.64
   3   7  -8 2364.56  501.26
   3  -7  -8 2335.95  309.54
  -3  -7   8 2291.61  467.89
  -3   7   8  974.45  480.56
   3  -7  -714590.98  904.71
   3   7  -714254.80 1635.44
  -3  -7   715297.10 1192.56
  -3   7   714879.02 1309.30
   3   7  -6 7778.93 1098.06
   3  -7  -6 8016.36  599.42
  -3  -7   6 8981.43  819.97
  -3   7   6 6681.61 1090.56
   3  -7  -520661.73 1186.83
   3   7  -519285.41 1843.48
  -3  -7   520875.48 1492.70
  -3   7   521469.75 2020.84
   3   7  -4  590.90  319.61
   3  -7  -4 1300.80  223.69
  -3  -7   4  909.80  245.12
  -3   7   4  482.57  346.16
   3  -7  -3 6124.87  383.00
   3   7  -3 4902.07  817.56
  -3  -7   3 6118.52  438.08
  -3   7   3 5088.01  358.08
  -3   7   3 5605.82  632.64
   3   7  -2  347.81  332.36
   3   7  -2  366.31   80.41
   3  -7  -2  343.84  155.21
  -3  -7   2  127.52  137.04
  -3   7   2  509.33  109.09
  -3   7   2  165.24  254.35
   3   7  -1 1389.23  330.18
   3   7  -1 1807.28  114.84
   3  -7  -1 1486.95  205.03
  -3   7   1 1888.96  157.18
  -3   7   1 1073.36  457.84
   3   7   012449.50  415.27
   3  -7   0 9976.55  546.95
   3   7   011015.21 1084.23
  -3  -7   011971.05  577.19
  -3   7   011666.76 1128.53
   3   7   1 6823.27  689.03
   3  -7   1 5651.07  322.51
   3  -7   1 6215.05  734.19
   3  -7   1 5975.25  265.46
  -3  -7  -1 5276.17  179.51
   3   7   2  186.56  214.24
   3  -7   2   41.30   80.07
   3  -7   2  -11.02   37.86
   3  -7   2  159.18  129.88
   3   7   331938.49 2165.28
   3  -7   329708.86 1296.80
   3  -7   331684.35 1904.06
   3   7   4  193.18  183.79
   3  -7   4   98.05  176.58
   3  -7   4   44.17   62.23
   3  -7   4    7.12   40.95
   3  -7   5 4623.10  449.40
   3   7   5 4450.11  475.58
  -3   7  -5 4769.18  276.67
   3  -7   6 4432.49  445.29
  -3  -7  -6 4039.42  422.90
  -3   7  -6 4273.45  285.19
   3  -7   712194.21  841.95
  -3  -7  -712179.92  520.46
  -3  -7  -711524.16  871.28
  -3   7  -711669.79  619.63
   3   7   8  373.00  137.74
   3  -7   8  172.02  135.69
  -3  -7  -8  457.18  197.76
  -3   7  -8  365.51  116.66
  -3  -7  -8  155.37   69.73
   3   7   9  174.03  160.67
   3  -7   9  118.60  128.64
  -3  -7  -9  360.44  200.40
  -3   7  -9   62.56  117.88
  -3  -7  -9   92.93   82.28
   3   7  10  932.87  267.66
   3  -7  10 1119.76  266.86
  -3  -7 -10  710.96  291.83
  -3   7 -10  820.85  184.57
   3   7  11 1916.46  395.04
   3  -7  11 1975.10  356.01
  -3   7 -11 2252.17  311.59
  -3  -7 -11 1949.08  538.91
   3   7  1210271.73  830.83
   3  -7  1210660.94  923.89
  -3  -7 -1214219.77 1148.10
  -3   7 -1210515.71  808.25
   3   7  13 2702.75  511.57
   3  -7  13 4579.84  416.48
  -3  -7 -13 4460.59  744.06
  -3   7 -13 4380.02  489.85
   3   7  14  786.20  374.30
   3  -7  14 1486.94  276.19
  -3  -7 -14  995.28  482.45
  -3   7 -14 1196.91  269.07
   3   7  15  859.85  355.19
   3  -7  15  798.42  325.06
  -3   7 -15  400.05  249.40
  -3  -7 -15  370.93  314.31
   3   7  16 1160.34  494.01
   3  -7  16  443.33  368.96
  -3  -7 -16  638.65  487.20
  -3   7 -16  614.69  281.46
   3  -7  17  179.79  241.79
  -3  -7 -17 -157.58  412.46
  -3   7 -17  262.44  246.05
   3  -7  18 3360.17  714.69
  -3   7 -18 3988.77  563.56
  -3  -7 -18 3080.93  916.86
   3  -7  19 1128.04  404.00
  -3  -7 -19 1511.34  706.24
  -3   7 -19 1772.11  431.82
   3  -7  20 -140.03  379.78
  -3  -7 -20  678.25  431.08
  -3   7 -20 1283.88  434.70
   3  -7  21 2455.10  912.80
  -3  -7 -21 3630.92  768.46
  -3   7 -21 3355.35  771.66
   3  -7  22 1182.55  631.66
  -3   7 -22  363.02  364.76
  -3  -7 -22  431.46  483.50
   3  -7  23 2085.44  816.91
  -3  -7 -23  768.87  847.55
  -3   7 -23  959.07  655.29
   3  -7  24  606.56  746.64
  -3  -7 -24  -83.38  679.04
  -3   7 -24  356.11  541.46
   3   8 -26  504.06  492.18
   3  -8 -26  915.89  491.53
  -3   8  26 1393.47  910.73
   3   8 -25  958.44  475.94
   3  -8 -25  386.35  460.12
  -3  -8  25 1479.40  772.80
  -3   8  25 1916.18 1182.93
   3   8 -24 2038.53  619.76
   3  -8 -24 1181.74  385.86
  -3  -8  24 2441.81  870.45
  -3   8  24 2446.78 1319.99
   3  -8 -23 3971.63  502.26
   3   8 -23 3980.12  779.70
  -3  -8  23 2499.49 1053.19
  -3   8  23 3113.12 1617.73
   3   8 -22  345.80  443.79
   3  -8 -22  876.24  373.34
  -3  -8  22  259.19  600.46
  -3   8  22 1596.08  947.25
   3  -8 -21  666.08  356.27
   3   8 -21  482.67  429.31
  -3  -8  21  735.97  773.46
  -3   8  21  718.36  900.77
   3   8 -20 1038.73  477.67
   3  -8 -20 1238.25  394.51
  -3  -8  20 1151.87  846.73
  -3   8  20  876.43  964.56
   3  -8 -19  472.83  339.71
   3   8 -19 1135.49  371.85
  -3  -8  19 1169.52  751.16
  -3   8  19 1195.64  846.85
   3   8 -18 3431.66  741.65
   3  -8 -18 4444.12  413.45
  -3  -8  18 1774.18  731.56
  -3   8  18 2155.10  904.42
   3   8 -17  209.74  283.19
   3  -8 -17  -85.90  225.65
  -3  -8  17  200.81  316.33
  -3   8  17  225.46  542.76
   3   8 -16 1295.48  492.20
   3  -8 -16  518.21  283.02
  -3  -8  16  613.15  537.78
  -3   8  16  275.71  681.54
   3  -8 -15 6784.53  626.73
   3   8 -15 7295.17 1065.56
  -3  -8  15 6266.39  833.19
  -3   8  15 4452.64 1058.28
   3   8 -14   31.05  379.08
   3  -8 -14 -114.61  131.63
  -3  -8  14   14.97  341.96
  -3   8  14  241.23  333.12
   3  -8 -13 -117.67  175.64
   3   8 -13  -77.80  365.70
  -3  -8  13  196.16  326.49
  -3   8  13 1041.00  437.21
   3   8 -12  408.30  451.65
   3  -8 -12  332.41  183.22
  -3  -8  12 -117.49  349.72
  -3   8  12   44.27  346.68
   3  -8 -11  302.67  177.93
   3   8 -11  296.16  436.48
  -3  -8  11  139.42  248.54
  -3   8  11  646.86  474.43
   3   8 -10 7314.77  892.73
   3  -8 -10 8347.12  612.76
  -3  -8  10 7302.72  905.70
  -3   8  10 8824.39 1273.69
   3   8  -9  206.43  296.40
   3  -8  -9  159.15  159.17
  -3  -8   9  145.32  275.71
  -3   8   9   94.07  285.81
   3   8  -8  598.14  354.57
   3  -8  -8  529.62  183.59
  -3  -8   8  523.03  323.04
  -3   8   8  769.59  347.59
   3  -8  -7 2176.64  214.88
   3   8  -7 1040.55  628.70
  -3  -8   7 2238.42  422.50
  -3   8   7 1284.80  466.69
   3   8  -624827.91 2326.12
   3  -8  -626461.45 1462.01
  -3  -8   622272.91 1668.14
  -3   8   624734.65 2340.89
   3  -8  -5 4995.18  362.91
   3   8  -5 4194.69  809.40
  -3  -8   5 5117.67  469.72
  -3   8   5 4116.26  831.35
   3   8  -4 6783.85  726.52
   3  -8  -4 7168.72  428.69
  -3  -8   4 8043.37  606.07
  -3   8   4 7474.65 1054.03
   3  -8  -3 1378.70  158.01
   3   8  -3 1454.85  372.21
  -3  -8   3 1735.97  275.29
  -3   8   3 1040.37  182.65
  -3   8   3 1397.73  379.69
   3   8  -261602.56 4590.95
   3   8  -262520.69 3434.44
   3  -8  -264541.56 3901.54
  -3  -8   266059.99 4203.87
  -3   8   251380.60 3211.29
  -3   8   265593.93 4912.92
   3   8  -1 1762.64  518.38
   3   8  -1 2466.65  128.54
   3  -8  -1 1942.72  184.79
  -3  -8   1 2323.94  232.00
  -3   8   1 2384.71  155.25
  -3   8   1 1581.51  534.72
   3   8   0  147.10  277.30
   3  -8   0  229.61   86.46
   3  -8   0  -88.83  116.85
  -3  -8   0   79.22  101.40
   3   8   1 1286.85  275.23
   3  -8   1  666.53  116.12
   3  -8   1 1109.66   79.15
   3  -8   1 1447.54  317.34
   3  -8   2   21.98   71.64
   3   8   2  300.30  170.41
   3  -8   2   82.05   35.24
   3  -8   2 -275.95  145.57
   3   8   326615.80 1760.53
   3  -8   322902.58 1418.32
   3  -8   323498.02 1069.37
   3   8   410759.49  659.87
   3  -8   4 9456.00  390.68
   3  -8   4 9524.44  763.42
   3  -8   4 7896.25  350.46
   3   8   529520.28 1813.09
   3  -8   528444.48 1750.52
   3  -8   523035.87 1127.51
  -3   8  -525725.87 1230.82
   3  -8   6 5733.17  441.59
  -3   8  -6 6039.01  338.40
   3  -8   727200.19 1770.09
  -3  -8  -728354.50 1267.25
  -3  -8  -730528.65 2000.98
  -3   8  -726851.33 1409.46
   3   8   8  619.54  168.93
   3  -8   8  886.77  181.31
  -3  -8  -8  755.89  315.46
  -3   8  -8  530.22  129.21
   3  -8   9 2635.48  264.80
   3   8   9 1827.06  291.50
  -3  -8  -9 1702.14  369.80
  -3  -8  -9 2311.49  161.35
  -3   8  -9 2581.78  226.04
   3   8  10  118.65  240.25
   3  -8  10  792.88  249.18
  -3   8 -10  729.88  160.10
  -3  -8 -10  882.09  265.86
   3   8  11  166.07  172.69
   3  -8  11  286.46  200.75
  -3  -8 -11 -339.49  312.47
  -3   8 -11    6.60  154.62
   3   8  1214966.03 1101.11
   3  -8  1213197.41 1068.72
  -3   8 -1214174.80  983.90
  -3  -8 -1210142.31 1126.53
   3   8  13 5719.15  628.44
   3  -8  13 6182.61  619.02
  -3  -8 -13 5593.95  726.44
  -3   8 -13 3911.28  422.46
   3   8  14 8382.96  865.08
   3  -8  14 7365.50  789.92
  -3  -8 -14 6440.06  792.09
  -3   8 -14 6824.17  611.09
   3   8  15 6400.90  856.89
   3  -8  15 5749.28  700.67
  -3  -8 -15 2346.22  679.11
  -3   8 -15 5853.16  557.20
   3  -8  1617804.19 1323.43
  -3  -8 -1616118.03 2015.87
  -3   8 -1619653.99 1485.16
   3  -8  17  483.07  382.07
  -3   8 -17  738.76  297.95
  -3  -8 -17  406.49  366.16
   3  -8  18 1776.32  601.57
  -3  -8 -18 1846.67  769.16
  -3   8 -18 2482.11  443.91
   3  -8  19  295.72  369.72
  -3  -8 -19  154.77  487.13
  -3   8 -19  156.69  281.19
   3  -8  20  -17.67  401.11
  -3  -8 -20  280.67  333.19
  -3   8 -20  -80.70  269.07
   3  -8  21  -62.70  328.89
  -3   8 -21  521.57  377.95
  -3  -8 -21  -52.43  378.00
   3  -8  22 1703.26  688.55
  -3  -8 -22  270.42  518.29
  -3   8 -22  558.02  521.18
   3  -8  23  866.40  684.04
  -3  -8 -23  823.48  720.19
  -3   8 -23  142.61  539.68
   3  -8  24 1324.39  795.58
  -3  -8 -24  248.43  826.30
  -3   8 -24  837.01  641.07
   3  -9 -25  432.04  473.05
   3   9 -25  917.92  406.81
  -3  -9  25 1587.24  766.59
  -3   9  25  682.26 1180.86
   3   9 -24 2761.47  539.30
   3  -9 -24 2215.89  621.74
  -3  -9  24 2537.83 1007.82
  -3   9  24 4577.63 1565.78
   3   9 -23 1464.43  399.80
   3  -9 -23 1181.09  463.22
  -3  -9  23  661.77  751.25
  -3   9  23 2131.56 1176.88
   3   9 -22 1904.50  555.09
   3  -9 -22  940.52  446.29
  -3  -9  22 1477.33  740.56
  -3   9  22 1556.06 1129.13
   3  -9 -21 3334.99  600.54
   3   9 -21 2490.26  704.23
  -3  -9  21 3487.85  909.54
  -3   9  21 2314.52 1363.36
   3   9 -20  225.05  432.00
   3  -9 -20  330.57  304.80
  -3  -9  20  402.39  659.48
  -3   9  20  154.58  756.04
   3  -9 -19  190.89  219.93
   3   9 -19  700.20  323.15
  -3  -9  19  497.45  607.46
  -3   9  19 1437.05  569.86
   3   9 -18  -57.70  421.90
   3  -9 -18  114.99  171.45
  -3  -9  18   58.09  478.68
  -3   9  18  464.32  607.37
   3  -9 -17 4236.95  424.74
   3   9 -17 5891.87  722.62
  -3  -9  17 3565.51 1037.53
  -3   9  17 4617.14  982.78
   3   9 -16  626.35  487.80
   3  -9 -16  445.06  267.12
  -3  -9  16  364.21  372.96
  -3   9  16  428.84  650.94
   3   9 -15  -12.55  346.80
   3  -9 -15   11.45  180.95
  -3  -9  15 -162.57  350.19
  -3   9  15  152.85  454.29
   3   9 -14  -22.13  441.51
   3  -9 -14  389.38  212.02
  -3  -9  14  237.97  410.20
  -3   9  14 -201.53  548.15
   3  -9 -13 1118.96  262.52
   3   9 -13  829.22  577.99
  -3  -9  13  947.43  343.77
  -3   9  13 1480.34  507.01
   3   9 -12 2610.95  547.35
   3  -9 -12 1824.53  292.85
  -3  -9  12 1836.73  514.17
  -3   9  12 1702.44  765.73
   3  -9 -11 5859.98  456.50
   3   9 -11 5740.21 1026.03
  -3  -9  11 4891.80  559.11
  -3   9  11 3744.34 1035.42
   3   9 -10  285.26  305.88
   3  -9 -10  162.65  152.95
  -3  -9  10  406.20  281.21
  -3   9  10 -216.23  427.14
   3  -9  -9 6789.11  476.98
   3   9  -9 7823.15  875.72
  -3  -9   9 6538.30  731.15
  -3   9   9 8633.50  877.63
   3   9  -8 1736.77  685.44
   3  -9  -8 2359.63  211.30
  -3  -9   8 1979.64  431.64
  -3   9   8 1950.37  700.25
   3   9  -7 1172.51  430.31
   3  -9  -7 1194.97  190.55
  -3  -9   7 2228.63  339.05
  -3   9   7 2091.60  587.64
   3   9  -6 1183.11  536.38
   3  -9  -6 1131.82  159.26
  -3  -9   6 1489.43  304.30
  -3   9   6 1513.79  412.19
   3  -9  -5 1655.44  189.36
   3   9  -5 2155.20  586.39
  -3  -9   5 2722.22  333.96
  -3   9   5 2670.07  453.32
   3   9  -425819.04 2185.61
   3  -9  -421763.95 1015.31
  -3  -9   430182.90 1632.19
  -3   9   422752.46 1427.59
  -3   9   424369.61 1897.25
   3  -9  -3 2361.28  164.70
   3   9  -3 1669.95  584.63
  -3  -9   3 2435.91  259.60
  -3   9   3 2295.16  573.93
  -3   9   3 1411.84  263.84
   3   9  -2 7489.11  318.73
   3   9  -2 8521.92  726.97
   3  -9  -2 7140.26  344.29
  -3   9   2 5814.00  348.22
  -3   9   2 7198.03  715.88
  -3  -9   2 7893.95  461.56
   3   9  -124782.21 2001.92
   3   9  -124651.71 1018.92
   3  -9  -120868.89  920.75
  -3  -9   126319.16 1308.54
  -3   9   123904.46 1071.96
  -3   9   126026.06 1819.79
   3   9   022338.33 1833.38
   3   9   023292.06  846.14
   3  -9   022473.06 1592.79
  -3  -9   021407.46  996.99
   3   9   1  484.33  312.62
   3  -9   1  297.52  272.10
   3   9   2 8149.34  806.95
   3  -9   2 7680.26  737.24
   3   9   3  544.86  186.27
   3  -9   3  697.52  251.56
   3  -9   3  320.57   54.07
   3   9   4  534.88  170.32
   3  -9   4  271.73   57.05
   3  -9   4  379.87  229.80
   3   9   5  281.39  207.00
   3  -9   5  296.43  191.94
   3  -9   5   86.64   68.15
  -3   9  -5  307.55   87.86
   3  -9   611472.54  885.97
   3   9   611240.58  763.25
  -3   9  -612870.29  653.74
   3  -9   7 3211.62  287.27
  -3  -9  -7 3347.29  371.12
  -3  -9  -7 2623.24  123.02
  -3   9  -7 2821.66  200.98
   3  -9   8 6989.39  462.14
   3   9   8 4837.36  340.55
  -3  -9  -8 6726.70  757.37
  -3   9  -8 6892.24  367.80
   3   9   911860.10  814.96
   3  -9   915704.59  928.17
  -3  -9  -917629.50 1444.33
  -3   9  -917021.84  857.34
   3   9  10 1142.12  258.39
   3  -9  10 2359.03  330.50
  -3  -9 -10 1730.05  468.07
  -3   9 -10 1205.74  222.57
   3  -9  11 1329.29  234.88
   3   9  11 1020.58  349.99
  -3  -9 -11  894.94  346.49
  -3   9 -11 1091.41  196.29
   3   9  12  157.82  219.45
   3  -9  12  371.55  230.29
  -3  -9 -12  380.17  356.35
  -3   9 -12   35.67  123.75
   3  -9  13  -81.40  282.01
   3   9  13  216.09  282.93
  -3  -9 -13  252.12  308.56
  -3   9 -13  609.09  159.13
   3  -9  14 2456.75  515.59
  -3  -9 -14 1951.54  585.33
  -3   9 -14 3985.65  399.74
   3  -9  15  -90.76  270.65
  -3  -9 -15  176.60  422.82
  -3   9 -15  217.19  194.15
   3  -9  1642142.52 3035.16
  -3   9 -1643129.58 3125.12
  -3  -9 -1634131.80 3715.49
   3  -9  17 3014.63  634.45
  -3  -9 -17 1102.50  616.07
  -3   9 -17 4387.26  514.59
   3  -9  18   38.20  263.97
  -3  -9 -18  224.41  487.37
  -3   9 -18  592.52  274.46
   3  -9  19  653.74  433.87
  -3  -9 -19  343.17  532.25
  -3   9 -19  314.51  309.41
   3  -9  20 1884.03  628.78
  -3  -9 -20  963.63  570.84
  -3   9 -20 2065.50  477.77
   3  -9  21  441.70  411.81
  -3  -9 -21  512.12  467.91
  -3   9 -21  654.50  382.99
   3  -9  22 2382.44  611.03
  -3  -9 -22  705.39  678.87
  -3   9 -22 2426.39  685.18
   3  -9  23 1635.20  723.24
  -3  -9 -23 -345.65  734.49
  -3   9 -23  544.96  551.52
   3  -9  24 -339.62  693.38
   3 -10 -25  840.20  365.22
   3  10 -25  717.66  556.04
  -3 -10  25 1327.63  781.84
  -3  10  25 1174.93 1233.87
   3  10 -24 1546.90  587.31
   3 -10 -24 1258.41  385.46
  -3 -10  24 1261.62  838.12
  -3  10  24 2193.74 1307.05
   3 -10 -23  118.29  270.29
   3  10 -23  733.81  429.16
  -3 -10  23  958.53  611.83
  -3  10  23 1099.33  947.36
   3  10 -22  444.72  289.75
   3 -10 -22  -30.63  237.00
  -3 -10  22  854.28  536.92
  -3  10  22  788.85  831.85
   3  10 -21  164.77  370.27
   3 -10 -21  227.22  220.93
  -3 -10  21  106.68  447.37
  -3  10  21  378.62  775.67
   3  10 -20 1261.26  529.25
   3 -10 -20  728.84  261.15
  -3 -10  20  479.40  531.39
  -3  10  20  601.43  898.25
   3  10 -19   40.34  271.33
   3 -10 -19  -11.76  183.25
  -3 -10  19  272.60  367.56
  -3  10  19  535.22  471.07
   3  10 -18  -29.48  375.95
   3 -10 -18  -21.65  156.48
  -3 -10  18  -91.34  434.95
  -3  10  18  701.38  549.60
   3 -10 -17  400.02  189.00
   3  10 -17  320.80  336.61
  -3 -10  17  110.31  523.44
  -3  10  17  -51.53  487.43
   3  10 -16 3177.13  789.11
   3 -10 -16 2494.20  431.79
  -3 -10  16 2075.63  804.51
  -3  10  16 2620.92  787.33
   3 -10 -15 1732.84  348.65
   3  10 -15 1360.58  667.87
  -3 -10  15 2125.53  627.06
  -3  10  15 1974.88  660.99
   3  10 -14 1159.90  681.74
   3 -10 -14 1618.21  312.73
  -3 -10  14 1598.70  419.50
  -3  10  14 1848.20  591.68
   3 -10 -13  580.60  233.17
   3  10 -13 1170.83  560.10
  -3 -10  13  368.55  413.25
  -3  10  13  334.97  621.80
   3  10 -12 1208.87  466.09
   3 -10 -12 1155.31  243.62
  -3 -10  12  916.35  442.39
  -3  10  12  394.26  472.60
   3  10 -11   -0.59  385.17
   3 -10 -11  -28.30  143.35
  -3 -10  11  155.73  197.95
  -3  10  11   19.01  286.54
   3  10 -10 3861.87  819.84
   3 -10 -10 3331.16  327.75
  -3 -10  10 3165.77  555.74
  -3  10  10 3074.92  653.69
   3 -10  -9 1352.76  217.27
   3  10  -9 1407.54  462.45
  -3 -10   9 1339.05  386.38
  -3  10   9 1408.95  631.02
   3  10  -8  603.21  463.06
   3 -10  -8  408.02  149.06
  -3 -10   8  309.43  275.99
  -3  10   8  772.96  337.46
   3 -10  -7  392.11  112.29
   3  10  -7  303.69  307.06
  -3 -10   7  160.31  245.24
  -3  10   7  125.77  324.43
   3  10  -626316.68 2549.41
   3 -10  -627218.66 1358.50
  -3 -10   630180.52 1843.24
  -3  10   627667.93 2658.93
   3 -10  -5 5781.15  278.91
   3  10  -5 5707.40  693.06
  -3 -10   5 6039.60  523.77
  -3  10   5 6259.93  718.22
   3  10  -4 8575.08  761.81
   3 -10  -4 6953.48  325.57
  -3 -10   4 6777.77  479.79
  -3  10   4 6291.88  585.01
  -3  10   4 6243.94  767.17
   3  10  -3 -245.32  234.16
   3 -10  -3   59.91   58.81
  -3 -10   3   93.94  141.17
  -3  10   3 -206.20  334.98
  -3  10   3  426.25  127.73
   3  10  -2 -321.61  290.06
   3  10  -2   89.47   64.46
   3 -10  -2   17.84   41.38
  -3  10   2  -49.07   75.90
  -3  10   2  384.11  209.41
  -3 -10   2   37.73  107.26
   3  10  -1 2129.75  524.13
   3  10  -1 2082.64  125.41
  -3 -10   1 2886.02  232.11
  -3  10   1 2317.91  553.86
  -3  10   1 1852.65  118.01
   3 -10   0 2567.69  549.54
   3  10   0 2586.96  542.98
  -3 -10   0 2627.57  201.97
   3  10   111703.84 1121.33
   3 -10   110274.25  967.78
   3  10   2  163.50  255.19
   3 -10   2 -177.47  156.23
   3  10   3 7926.96  598.51
   3 -10   3 7670.06  580.02
   3  10   433563.36 2128.56
   3 -10   433505.76 2330.36
   3  10   516402.24 1249.70
   3 -10   515998.66  940.73
   3  10   6 1844.55  335.45
   3 -10   6 1701.88  318.96
   3 -10   6 1029.55  176.65
  -3  10  -6 1769.53  153.31
   3  10   7 8033.67  292.00
  -3 -10  -7 8104.30  235.76
  -3  10  -710695.40  415.75
   3 -10   8  252.93  187.38
   3  10   8   16.45   99.31
  -3 -10  -8   29.33   39.03
  -3 -10  -8  358.75  179.36
  -3  10  -8   76.54  100.53
   3 -10   9   73.17  178.93
  -3 -10  -9  211.57  253.29
  -3  10  -9  137.27   88.57
  -3 -10  -9    5.33   50.77
   3  10  10 9532.68  749.20
   3 -10  10 8962.77  651.16
  -3 -10 -10 9541.66 1082.94
  -3  10 -10 9696.52  549.96
   3  10  11 1283.73  295.32
   3 -10  11  576.91  282.16
  -3  10 -11  305.14  190.92
  -3 -10 -11 1038.38  311.84
   3  10  12  461.55  265.10
   3 -10  12 1491.75  309.50
  -3 -10 -12 1194.45  472.22
  -3  10 -12  635.31  194.50
   3 -10  13 3241.42  536.00
  -3 -10 -13 2118.65  757.59
  -3  10 -13 3794.18  368.20
   3 -10  14  265.29  271.31
  -3 -10 -14  -88.94  426.68
  -3  10 -14  250.03  156.73
   3 -10  15  619.50  371.76
  -3 -10 -15  432.67  578.98
  -3  10 -15 1052.33  264.25
   3 -10  1623906.62 1752.00
  -3 -10 -1620488.55 2089.80
  -3  10 -1623592.99 1758.56
   3 -10  17  609.46  433.43
  -3 -10 -17  606.58  655.72
  -3  10 -17 1120.44  326.58
   3 -10  18   83.35  265.59
  -3  10 -18  614.39  266.13
  -3 -10 -18 -156.77  490.14
   3 -10  19   20.83  427.43
  -3 -10 -19 1300.42  544.24
  -3  10 -19  253.69  297.37
   3 -10  20  -43.79  384.59
  -3 -10 -20   89.99  494.46
  -3  10 -20  161.82  281.36
   3 -10  21  935.55  636.02
  -3 -10 -21  612.42  521.08
  -3  10 -21 1136.91  424.42
   3 -10  22  920.98  446.52
  -3 -10 -22   76.11  507.85
   3 -10  23  788.88  794.72
  -3 -10 -23 1097.47  828.08
   3  11 -25 1359.60  664.79
   3 -11 -25 1312.38  601.47
  -3 -11  25 2111.21  953.40
  -3  11  25 3241.51 1470.68
   3 -11 -24 1209.73  514.61
   3  11 -24  690.73  569.27
  -3 -11  24 1695.36  813.15
  -3  11  24 1736.71  936.36
   3  11 -23 1210.97  576.47
   3 -11 -23  950.86  481.41
  -3 -11  23 1231.92  787.78
  -3  11  23 2260.34  895.23
   3  11 -22  253.12  385.81
   3 -11 -22  195.76  319.25
  -3 -11  22   56.70  470.47
  -3  11  22  179.94  820.75
   3  11 -21  279.64  308.85
   3 -11 -21  719.00  355.25
  -3 -11  21  614.45  518.29
  -3  11  21   43.69  895.56
   3 -11 -20  957.09  293.79
   3  11 -20 1010.90  556.70
  -3 -11  20  739.93  588.29
  -3  11  20 1707.64  982.60
   3  11 -19  738.89  463.84
   3 -11 -19  353.43  245.14
  -3 -11  19  156.54  472.27
  -3  11  19 1861.70  611.19
   3 -11 -18 4627.30  518.68
   3  11 -18 8721.56 1137.65
  -3 -11  18 7030.32  964.72
  -3  11  18 3515.18 1534.27
   3  11 -17 1199.15  445.35
   3 -11 -17 1225.68  337.99
  -3 -11  17  946.10  512.70
  -3  11  17 1944.22  896.33
   3 -11 -16  497.26  247.77
   3  11 -16 -410.99  470.87
  -3 -11  16  374.56  464.79
  -3  11  16 -108.01  630.80
   3  11 -15  363.71  570.93
   3 -11 -15  706.26  265.12
  -3 -11  15  802.28  501.18
  -3  11  15  554.40  708.96
   3  11 -14  455.52  511.46
   3 -11 -14  460.07  172.90
  -3 -11  14  452.05  434.35
  -3  11  14  307.39  593.84
   3  11 -13  545.59  593.57
   3 -11 -13  655.34  230.22
  -3 -11  13  566.34  438.45
  -3  11  13  725.52  454.88
   3 -11 -12 2598.41  313.87
   3  11 -12 1716.88  567.71
  -3 -11  12 1722.82  419.93
  -3  11  12 1864.12  814.36
   3  11 -11 8988.49 1362.80
   3 -11 -11 8586.03  607.84
  -3 -11  11 9165.28  979.90
  -3  11  11 9393.68 1465.30
   3 -11 -10 3023.34  302.16
   3  11 -10 3401.41  629.17
  -3 -11  10 3629.16  541.60
  -3  11  10 3140.20  880.65
   3  11  -9 3595.46  675.96
   3 -11  -9 3802.19  315.52
  -3 -11   9 4345.74  532.43
  -3  11   9 3907.11  675.18
   3 -11  -8  106.76  103.11
   3  11  -8   26.67  379.27
  -3 -11   8  -96.95  212.73
  -3  11   8  319.32  389.96
   3  11  -715363.47 1781.67
   3 -11  -716941.02  831.85
  -3 -11   715957.09 1145.36
  -3  11   715330.34 1809.25
   3  11  -6  822.22  402.13
   3 -11  -6 1489.99  131.21
  -3 -11   6 1423.30  295.50
  -3  11   6 1062.11  425.34
   3  11  -528930.14 2278.02
   3 -11  -531150.19 1459.16
  -3 -11   529665.94 1851.29
  -3  11   532292.72 2902.14
   3 -11  -4 7038.91  313.32
   3  11  -4 7769.98  955.58
  -3 -11   4 7588.28  464.49
  -3  11   4 5043.21  425.69
  -3  11   4 5062.68  951.61
   3  11  -3 8705.57 1008.68
  -3 -11   3 8401.58  457.51
  -3  11   3 6740.57  953.40
  -3  11   3 5518.33  410.21
   3  11  -2 1671.55  125.14
   3 -11  -2 1863.37   86.15
   3  11  -2 1746.74  550.98
  -3 -11   2 2296.00  201.03
  -3  11   2 2177.32  554.87
  -3  11   2 1636.98  152.74
   3  11  -1 9680.11  411.92
   3  11  -111679.28 1145.97
  -3 -11   111078.44  557.20
  -3  11   112220.82  989.47
   3  11   0 1321.00  301.14
   3  11   0  857.18   85.25
   3 -11   0 1588.57  415.35
  -3 -11   0  928.48  131.72
   3 -11   1 7941.06  699.71
  -3 -11  -1 5069.69  216.58
   3 -11   219103.84 1256.55
   3  11   219770.71 1393.26
   3  11   3 1731.90  285.50
   3 -11   3 1731.27  376.99
   3  11   4 5995.94  536.16
   3 -11   4 5333.47  460.60
   3  11   5  -61.06  198.69
   3 -11   5 -203.01  121.81
   3 -11   5   -7.01   32.52
   3 -11   5   68.00   78.35
   3 -11   6 1474.38  276.13
   3 -11   6  577.34  167.29
   3  11   6 1325.52  300.92
   3  11   7  103.66  148.55
   3 -11   7  243.43  186.68
  -3  11  -7  -24.37   78.46
   3  11   8 2049.59  162.65
   3 -11   8 2167.91  268.00
  -3 -11  -8 1811.05   92.88
  -3  11  -8 1568.91  141.32
  -3 -11  -8 1353.15  333.48
   3  11   9  324.26  131.73
   3 -11   9   23.42  201.23
  -3 -11  -9  -16.10  203.25
  -3  11  -9   70.63   88.59
   3  11  10  257.76  179.28
   3 -11  10  195.72  166.19
  -3 -11 -10    1.32  237.42
  -3  11 -10  239.38  131.29
   3 -11  11 2597.44  429.05
  -3 -11 -11 2549.66  612.83
  -3  11 -11 2520.15  220.39
   3 -11  12 4887.61  590.43
  -3 -11 -12 4683.83  607.41
  -3  11 -12 4443.32  334.65
   3 -11  13    4.54  246.55
  -3 -11 -13   90.34  388.94
  -3  11 -13  164.05  131.18
   3 -11  14  420.92  280.51
  -3  11 -14  197.60  179.57
  -3 -11 -14  130.52  435.02
   3 -11  15 5830.06  757.16
  -3 -11 -15 2654.58 1029.57
  -3  11 -15 5538.23  557.51
   3 -11  16  457.30  251.48
  -3 -11 -16  311.70  388.55
  -3  11 -16  440.34  245.27
   3 -11  17  876.93  466.18
  -3 -11 -17  167.45  688.08
  -3  11 -17 1532.08  351.37
   3 -11  18   31.34  279.85
  -3  11 -18  331.10  285.78
  -3 -11 -18 1131.38  444.99
   3 -11  19  856.71  527.62
  -3 -11 -19 1518.81  781.98
  -3  11 -19  890.59  360.56
   3 -11  20 1413.22  492.75
  -3 -11 -20 1327.03  727.30
  -3  11 -20  -56.88  347.40
   3 -11  21 1906.32  493.79
  -3 -11 -21  302.33  978.80
   3 -11  22  530.20  443.67
  -3 -11 -22  228.67  798.13
   3 -11  23 1589.13  598.17
  -3 -11 -23  485.87 1075.81
   3  12 -25  591.26  405.59
   3 -12 -25 1165.03  507.12
  -3  12  25   48.66  906.58
   3  12 -24 2337.20  517.68
   3 -12 -24 1372.51  619.97
  -3 -12  24 2598.06  972.10
  -3  12  24 1493.89 1102.75
   3  12 -23  475.92  326.52
   3 -12 -23  126.24  383.86
  -3 -12  23  195.99  555.11
  -3  12  23  454.99  704.59
   3  12 -22 1267.30  497.01
   3 -12 -22  518.16  423.32
  -3  12  22 1541.26 1046.17
  -3 -12  22  200.24  621.44
   3  12 -21 7791.25 1222.25
   3 -12 -21 6702.43  954.13
  -3 -12  21 8666.96 1310.68
  -3  12  21 6527.41 2106.67
   3  12 -20  444.17  360.55
   3 -12 -20  498.03  335.27
  -3  12  20  274.68  628.30
  -3 -12  20  387.93  487.04
   3  12 -19 8880.11 1234.97
   3 -12 -19 5846.85  593.12
  -3 -12  19 3543.18 1065.35
  -3  12  19 5009.34 1731.94
   3  12 -18  274.90  339.87
   3 -12 -18  204.77  265.12
  -3  12  18  160.20  511.27
  -3 -12  18  209.12  376.87
   3  12 -17  204.92  499.15
   3 -12 -17  270.64  257.34
  -3 -12  17  347.02  363.70
  -3  12  17  -33.36  682.31
   3  12 -16  498.35  445.21
   3 -12 -16   48.76  222.35
  -3 -12  16   54.44  308.84
  -3  12  16  138.70  576.47
   3  12 -15 2759.07  915.22
   3 -12 -15 2492.72  438.23
  -3 -12  15 3826.63  593.83
  -3  12  15 2491.43 1056.48
   3  12 -14 2694.03  898.15
   3 -12 -14 3834.01  421.72
  -3  12  14 2683.94  770.07
  -3 -12  14 2749.14  582.66
   3  12 -13 2652.09  833.72
   3 -12 -13 1966.71  347.40
  -3 -12  13 2405.45  619.20
  -3  12  13 2616.90  882.55
   3  12 -12 1390.61  508.51
   3 -12 -12 1567.00  271.92
  -3  12  12 1161.24  563.46
  -3 -12  12 1403.33  470.68
   3  12 -11 1611.07  756.12
   3 -12 -11 2194.17  287.46
  -3 -12  11 2401.24  513.81
  -3  12  11 2840.82  622.93
   3  12 -10  245.79  324.83
   3 -12 -10  154.35  149.60
  -3  12  10  169.29  342.49
  -3 -12  10  315.85  207.53
   3  12  -9 1281.27  520.41
   3 -12  -9 1644.74  228.69
  -3 -12   9 2333.62  415.19
  -3  12   9 1867.71  708.87
   3  12  -8  490.37  365.22
   3 -12  -8  557.93  146.81
  -3 -12   8  701.42  286.64
  -3  12   8  684.71  381.42
   3  12  -7  747.12  466.81
   3 -12  -7  490.19  114.08
  -3 -12   7  530.62  257.28
  -3  12   7  527.63  350.40
   3  12  -6 5710.66  977.33
   3 -12  -6 5727.27  284.29
  -3  12   6 5859.26  997.42
  -3 -12   6 5377.45  531.20
   3  12  -5   -1.00  370.15
   3 -12  -5  185.99   89.15
  -3 -12   5  195.16  177.46
  -3  12   5   45.06  274.67
   3  12  -4 1266.58  338.95
   3 -12  -4  724.22   80.63
  -3  12   4  492.44  240.00
  -3  12   4  539.33  477.78
  -3 -12   4  881.31  205.34
   3  12  -3  872.00  420.21
   3 -12  -3  503.16   68.51
  -3 -12   3  761.31  145.47
  -3  12   3  260.22  151.14
  -3  12   3  542.29  405.26
   3  12  -228774.93 2572.89
  -3  12   227179.05 2553.50
  -3 -12   231148.79 1619.52
   3  12  -1 5709.07  618.56
   3 -12  -1 5025.73  598.65
  -3 -12   1 5034.12  322.54
   3  12   0 9702.06  949.23
   3 -12   0 6304.26  610.54
  -3 -12   0 7316.41  356.92
   3 -12   1 6173.96  628.42
  -3 -12  -1 3868.69  205.64
   3  12   2  476.88  322.51
   3 -12   2  467.28  283.94
   3  12   317243.10 1355.95
   3 -12   315798.86 1072.63
   3 -12   4  446.92  203.88
   3  12   4  879.09  233.68
   3  12   5 2442.59  447.63
   3 -12   5 2376.67  372.43
   3  12   6 3663.31  453.74
   3 -12   6 2612.44  244.60
   3 -12   6 2778.43  419.68
   3  12   717052.44 1148.94
   3 -12   714612.20  965.27
   3 -12   8  770.16  221.04
   3  12   8  161.37   65.60
  -3  12  -8  249.19  100.33
   3 -12   9 2542.99  414.26
  -3 -12  -9 2266.26  423.54
  -3  12  -9 3019.42  247.85
   3 -12  10  918.08  264.69
  -3 -12 -10  515.62  365.77
  -3  12 -10  318.51  124.55
   3 -12  11 2351.32  295.78
  -3 -12 -11 1733.79  559.15
  -3  12 -11 1455.24  177.62
   3 -12  12 3142.10  370.16
  -3 -12 -12  976.82  500.52
  -3  12 -12 3289.10  289.85
   3 -12  13 1314.27  275.63
  -3 -12 -13  564.16  403.41
  -3  12 -13 1165.07  198.34
   3 -12  14  231.35  279.41
  -3 -12 -14  272.23  320.55
  -3  12 -14  160.67  173.53
   3 -12  15 2048.26  528.66
  -3 -12 -15 1190.67  610.09
  -3  12 -15 3031.09  320.32
   3 -12  16   61.36  244.58
  -3  12 -16  427.86  188.42
  -3 -12 -16   49.89  518.95
   3 -12  17  109.88  348.39
  -3 -12 -17  433.17  555.46
  -3  12 -17  407.79  248.25
   3 -12  18  974.82  339.52
  -3 -12 -18   68.34  505.29
  -3  12 -18 1015.26  333.04
   3 -12  19   42.29  338.63
  -3 -12 -19 -149.18  376.58
   3 -12  20 1710.33  631.51
  -3 -12 -20  924.62  931.43
   3 -12  21 -402.94  305.19
  -3 -12 -21 1172.03  624.43
   3 -12  22  463.57  449.74
  -3 -12 -22  528.32  810.43
   3 -12  23  217.45  579.58
   3  13 -24  225.66  544.60
   3 -13 -24  987.47  371.15
  -3  13  24 1218.31  903.53
  -3 -13  24 1108.90  785.77
   3  13 -23  334.69  491.93
   3 -13 -23  710.22  313.69
  -3 -13  23   94.40  610.72
  -3  13  23  707.66  774.93
   3  13 -22 2694.16  491.92
   3 -13 -22 1259.32  561.89
  -3 -13  22 1176.52  822.65
  -3  13  22 3829.76 1405.92
   3  13 -21   93.19  480.04
   3 -13 -21  410.42  343.63
  -3 -13  21   69.54  495.95
  -3  13  21  605.96  854.86
   3  13 -20  264.54  444.45
   3 -13 -20  426.32  322.47
  -3  13  20  314.51  587.43
  -3 -13  20 -108.50  475.50
   3  13 -19 1845.00  768.42
   3 -13 -19 1729.58  345.13
  -3 -13  19 2015.96  849.55
  -3  13  19 1451.54 1082.45
   3  13 -18   35.25  482.46
   3 -13 -18  222.60  280.07
  -3  13  18  198.59  500.52
  -3 -13  18  519.43  526.86
   3  13 -17  781.18  691.40
   3 -13 -17  887.23  366.51
  -3 -13  17 2319.41  686.12
  -3  13  17 1646.74  674.48
   3  13 -16  982.84  444.68
   3 -13 -16  730.61  309.90
  -3 -13  16 1166.75  579.00
  -3  13  16  488.55  575.07
   3  13 -15  303.46  418.02
   3 -13 -15  306.65  260.57
  -3 -13  15  876.39  368.88
  -3  13  15  954.73  501.00
   3  13 -14 1613.98  545.22
   3 -13 -14  848.92  295.70
  -3 -13  14 1265.47  383.08
  -3  13  14 1302.94  794.06
   3  13 -13  614.47  571.28
   3 -13 -13  288.20  161.68
  -3 -13  13  559.55  288.77
  -3  13  13 1159.26  460.18
   3  13 -1210343.74 1727.75
   3 -13 -1212342.95  866.05
  -3  13  1216333.47 2010.00
  -3 -13  1212146.37 1040.28
   3 -13 -11  207.12  170.47
   3  13 -11  178.96  358.96
  -3  13  11  468.00  520.80
  -3 -13  11  400.20  315.55
   3 -13 -10 4187.16  357.57
   3  13 -10 3736.57  939.01
  -3  13  10 3546.57 1008.54
  -3 -13  10 3579.45  598.81
   3 -13  -9 1782.62  230.61
   3  13  -9 1502.78  703.82
  -3 -13   9 1851.89  421.55
   3 -13  -815496.64  793.14
   3  13  -814833.01 1759.03
  -3  13   814092.14 1869.92
  -3 -13   816086.75 1153.13
   3 -13  -714291.75  712.11
   3  13  -713526.08 1651.81
  -3  13   712516.69 1699.72
  -3 -13   713960.34  988.61
   3 -13  -6  768.39  123.77
   3  13  -6 1121.13  366.48
  -3  13   6 1249.02  545.05
  -3 -13   6  747.85  230.04
   3 -13  -5  491.39   82.85
   3  13  -5  213.50  439.34
  -3  13   5  208.91  333.72
  -3 -13   5  802.26  199.08
   3 -13  -4 1278.72   95.61
   3  13  -4 1363.21  377.43
  -3  13   4  507.70  262.31
  -3  13   4 1224.27  515.40
  -3 -13   4 1236.10  186.87
   3 -13  -3 9098.29  372.69
   3  13  -3 9958.85 1201.49
  -3  13   3 8626.29 1158.99
  -3 -13   310604.25  555.59
   3 -13  -2   21.34   45.87
   3  13  -2   -5.15  330.35
  -3  13   2  215.60   67.39
  -3  13   2  216.44  235.18
  -3 -13   2   66.54   91.06
   3 -13  -1   82.79  249.01
   3  13  -1  232.32  242.94
   3  13  -1  245.78   93.42
  -3 -13   1  116.24   81.83
   3 -13   0 5133.38  615.45
   3  13   0 4488.09  699.70
  -3 -13   0 3755.07  231.77
   3 -13   1 3204.27  552.84
   3  13   1 5355.04  695.44
   3 -13   2 1911.96  412.27
   3  13   2 1585.69  461.47
   3 -13   3 1271.18  401.25
   3  13   3 2615.41  479.55
   3 -13   4 6017.22  670.64
   3  13   4 6461.45  601.34
   3 -13   5 1109.49  290.47
   3  13   5 1062.18  352.65
   3 -13   6 3306.35  488.60
   3  13   6 4912.03  477.41
   3 -13   7  192.53  155.53
   3  13   7   -7.64  178.23
  -3  13  -7  120.90   65.51
   3 -13   8  432.53  233.23
   3  13   8  558.46  215.77
  -3  13  -8  187.24   92.10
   3 -13   9  341.42  186.80
  -3  13  -9  459.22  123.65
  -3 -13  -9  435.87  346.84
   3 -13  10  319.16  167.31
  -3  13 -10   98.52   96.79
  -3 -13 -10  318.95  321.34
   3 -13  11  701.16  318.55
  -3  13 -11  884.73  135.44
  -3 -13 -11  561.72  330.75
   3 -13  12 -127.89  234.53
  -3  13 -12  130.73  103.33
  -3 -13 -12   74.04  349.31
   3 -13  13  343.30  320.49
  -3  13 -13  838.46  189.12
  -3 -13 -13   71.89  345.77
   3 -13  14  309.94  231.45
  -3  13 -14  574.65  169.58
  -3 -13 -14  340.58  349.87
   3 -13  15 2838.46  582.93
  -3  13 -15 3624.54  354.79
  -3 -13 -15 1295.50  622.38
   3 -13  16  195.85  341.95
  -3  13 -16  394.50  191.27
  -3 -13 -16   41.26  537.36
   3 -13  17 1310.49  448.38
  -3 -13 -17  472.65  504.57
   3 -13  18 1774.56  581.06
  -3 -13 -18 1898.52  881.71
   3 -13  19 2857.71  673.39
  -3 -13 -19 1806.83  745.28
   3 -13  20 2180.03  519.28
  -3 -13 -20 1516.42 1000.33
   3 -13  21  109.15  292.33
  -3 -13 -21 -670.73  600.26
   3 -13  22 2434.61  852.02
  -3 -13 -22  699.95 1110.01
   3 -14 -24  919.54  688.11
   3  14 -24 2605.11  528.52
  -3  14  24 2434.16 1110.34
  -3 -14  24 1365.54 1263.01
   3 -14 -23  280.81  344.63
   3  14 -23 1197.73  510.23
  -3  14  23  806.48  766.29
  -3 -14  23  319.03  642.89
   3 -14 -22 7374.01 1004.03
   3  14 -22 7028.11 1070.84
  -3  14  22 7505.38 2095.73
  -3 -14  22 3038.56 1322.84
   3 -14 -21  383.47  374.80
   3  14 -21  419.15  521.91
  -3  14  21 1785.58  912.44
  -3 -14  21  120.48  549.96
   3 -14 -20 6114.78  745.87
   3  14 -20 4334.09  941.44
  -3  14  20 2835.83 1173.41
  -3 -14  20 1841.40  899.82
   3 -14 -19   98.32  304.60
   3  14 -19  232.13  519.53
  -3  14  19  573.64  748.75
  -3 -14  19  401.30  414.15
   3 -14 -1812181.56 1185.07
   3  14 -1811064.89 1690.73
  -3  14  1814313.45 2410.54
  -3 -14  1812716.50 1937.67
   3 -14 -17  738.38  254.05
   3  14 -17  125.12  455.67
  -3  14  17  631.23  831.82
  -3 -14  17 2204.88  638.57
   3 -14 -16    6.65  272.15
   3  14 -16  522.02  528.12
  -3  14  16 3180.70  720.83
  -3 -14  16    8.66  506.92
   3 -14 -15 4844.42  560.71
   3  14 -15 3087.97 1075.74
  -3  14  15 5031.18 1316.47
  -3 -14  15 4028.05  908.91
   3 -14 -14  153.46  224.87
   3  14 -14  125.52  571.96
  -3  14  14 1592.43  623.86
  -3 -14  14   89.20  391.65
   3 -14 -13 -138.30  176.40
   3  14 -13  445.91  351.77
  -3  14  13  333.19  513.54
  -3 -14  13 -340.53  321.96
   3 -14 -12   82.55  179.35
   3  14 -12  455.24  473.51
  -3  14  12  257.93  389.14
  -3 -14  12  189.79  331.70
   3 -14 -1115848.88 1050.15
   3  14 -1116974.57 2119.12
  -3  14  1118207.39 1860.85
  -3 -14  1116651.36 1560.63
   3 -14 -10   95.84  139.93
   3  14 -10 -350.23  415.99
  -3 -14  10   61.44  237.48
   3 -14  -9  392.93  162.56
   3  14  -9  413.35  394.00
  -3  14   9  642.19  554.70
  -3 -14   9  869.12  282.39
   3 -14  -8 7619.38  473.63
   3  14  -8 6759.04  904.01
  -3  14   8 6389.40  998.20
  -3 -14   8 7154.82  685.12
   3 -14  -7 5799.79  338.46
   3  14  -7 4732.43 1023.94
  -3  14   7 5149.53 1059.56
  -3 -14   7 6171.20  560.25
   3 -14  -6 1468.69  146.23
   3  14  -6 1215.54  596.96
  -3  14   6 1178.27  633.46
  -3 -14   6 1930.59  292.19
   3 -14  -5  -27.39   85.37
   3  14  -5  286.83  259.75
  -3  14   5  500.94  273.02
  -3 -14   5  108.52  133.08
   3 -14  -4   70.52   89.60
   3  14  -4  191.46  358.17
  -3  14   4  192.67  139.33
  -3  14   4  254.82  359.64
  -3 -14   4  157.70  144.83
   3 -14  -3 2581.15  154.25
   3  14  -3 3462.51  708.35
  -3  14   3 2723.05  514.85
  -3 -14   3 4015.27  271.35
   3  14  -2 1646.31  373.59
  -3  14   2 1030.36  119.16
   3 -14  -1 1625.55  491.61
   3  14  -1 1556.45  482.24
  -3 -14   1 1049.75  122.49
   3 -14   0 4171.80  602.57
   3  14   0 4688.89  690.96
  -3 -14   0 3071.38  201.93
   3 -14   1   86.24  257.41
   3  14   1  431.69  240.67
  -3 -14  -1  233.21   88.24
  -3 -14  -1  116.30   64.99
   3 -14   2  -15.15  216.11
   3  14   2   94.56  201.94
  -3 -14  -2   10.45   59.32
  -3 -14  -2  -26.69   46.75
   3 -14   3   92.69  192.20
   3  14   3  553.35  321.58
   3 -14   4 1557.70  319.42
   3  14   4 3858.59  399.99
   3 -14   5 6749.70  647.80
   3  14   5 6674.46  614.65
   3 -14   6 9658.07  847.92
   3  14   6 9898.13  818.82
   3 -14   7  615.10  214.48
   3  14   7  876.14  324.67
   3 -14   8 2587.66  456.85
   3  14   8 3992.13  450.59
   3 -14   9  157.49  182.78
   3  14   9 -105.81  107.39
  -3  14  -9   14.59   61.75
   3 -14  10 1251.58  225.99
  -3  14 -10  652.45  131.26
  -3 -14 -10  658.57  310.22
   3 -14  11  838.02  215.29
  -3  14 -11  461.04  113.35
  -3 -14 -11  494.94  309.97
   3 -14  12  350.47  221.34
  -3  14 -12  523.11  131.08
  -3 -14 -12  449.10  433.13
   3 -14  13  689.94  333.64
  -3  14 -13  672.92  158.93
  -3 -14 -13  478.58  494.99
   3 -14  14 2224.22  488.16
  -3 -14 -14 1201.96  699.82
   3 -14  15  684.29  283.90
  -3 -14 -15  417.15  546.57
   3 -14  16 -111.88  298.19
  -3 -14 -16  -51.98  451.78
   3 -14  17 1181.07  336.34
  -3 -14 -17  536.47  503.19
   3 -14  18 2356.10  562.09
  -3 -14 -18 -175.40  848.83
   3 -14  19  464.02  307.76
  -3 -14 -19    6.17  473.67
   3 -14  20  511.28  390.73
  -3 -14 -20 1142.39  583.58
   3 -14  21  696.85  577.52
  -3 -14 -21 1020.92  862.10
   3 -14  22  799.17  654.24
  -3 -14 -22 1669.52  979.71
   3 -15 -24  134.59  526.40
   3  15 -24  892.81  560.37
  -3  15  24 1228.27  867.25
   3 -15 -23 -118.24  392.44
   3  15 -23  354.22  425.86
  -3  15  23  334.16  655.22
  -3 -15  23  107.08  737.33
   3 -15 -22 1099.32  431.43
   3  15 -22 2212.35  461.67
  -3  15  22 1445.25 1291.59
  -3 -15  22  490.94 1061.34
   3 -15 -21  150.93  360.08
   3  15 -21   66.52  473.87
  -3  15  21  942.16  846.19
  -3 -15  21  187.16  511.63
   3 -15 -20  349.04  391.17
   3  15 -20  170.16  496.05
  -3  15  20  515.73  873.34
  -3 -15  20  760.25  486.63
   3 -15 -19  126.81  294.02
   3  15 -19  239.94  456.60
  -3  15  19   50.38  688.04
  -3 -15  19 -152.97  370.46
   3 -15 -18  440.30  317.43
   3  15 -18  215.12  393.44
  -3  15  18 1864.75  800.79
  -3 -15  18   68.13  428.32
   3 -15 -17  124.89  246.04
   3  15 -17   32.63  461.79
  -3  15  17  563.03  648.47
  -3 -15  17 -310.35  464.32
   3 -15 -16  507.47  277.37
   3  15 -16   99.56  577.40
  -3  15  16  368.91  730.49
  -3 -15  16  219.47  490.41
   3 -15 -15  362.60  257.82
   3  15 -15  637.90  551.94
  -3  15  15  542.94  695.90
  -3 -15  15  -43.75  442.65
   3 -15 -14  747.15  266.21
   3  15 -14   66.59  637.47
  -3  15  14   -7.94  513.19
  -3 -15  14  565.65  454.01
   3 -15 -13 -217.37  192.16
   3  15 -13  134.96  495.83
  -3  15  13 -138.29  543.34
  -3 -15  13  206.09  346.52
   3 -15 -12  -77.41  154.44
   3  15 -12   78.67  300.01
  -3  15  12  -76.63  465.31
  -3 -15  12  218.16  291.61
   3 -15 -1112472.99  838.13
   3  15 -11 9841.63 1657.23
  -3  15  1111112.23 1841.68
  -3 -15  1110269.48 1125.34
   3 -15 -1020672.14 1294.69
   3  15 -1018999.93 1909.45
  -3  15  1017516.01 2457.11
  -3 -15  1018347.60 1577.18
   3 -15  -9 7290.82  520.90
   3  15  -9 5162.71 1331.94
  -3  15   9 9349.52 1420.80
  -3 -15   9 7287.59  754.75
   3 -15  -8 9482.48  578.54
   3  15  -8 8910.55 1476.37
  -3  15   810484.26 1242.87
  -3 -15   811463.39  918.63
   3 -15  -717000.19  912.95
   3  15  -716951.59 2004.65
  -3  15   716767.50 1739.19
  -3 -15   718364.23 1304.09
   3 -15  -6 1605.94  151.10
   3  15  -6 1815.20  626.20
  -3  15   6 1501.85  497.38
  -3 -15   6 1884.84  261.43
   3  15  -5 1948.25  540.20
  -3  15   5 2665.77  558.90
  -3 -15   5 3233.12  293.73
   3 -15  -4 5195.01  332.34
   3  15  -4 5291.98  998.28
  -3  15   4 5471.57  983.21
  -3 -15   4 7199.25  465.54
   3 -15  -3  749.93  113.32
   3  15  -3 1359.53  524.47
  -3  15   3  477.24  173.59
  -3  15   3 1516.89  489.02
  -3 -15   3 1336.11  170.78
   3 -15  -225425.95 2524.84
   3  15  -225784.59 2145.58
  -3 -15   226184.77 1390.47
   3 -15  -1 1177.50  354.67
   3  15  -1  773.46  350.30
  -3 -15   1  745.30  119.82
   3 -15   0 5712.56  857.82
   3  15   0 7395.35  795.30
  -3 -15   0 7651.12  409.30
   3 -15   1 1098.39  320.11
   3  15   1  736.39  286.63
  -3 -15  -1  421.92   83.29
  -3 -15  -1  261.61  118.29
   3 -15   2  169.93  188.37
   3  15   2  304.22  249.12
  -3 -15  -2  -43.26   69.08
  -3 -15  -2  159.66   50.64
   3 -15   3 -244.71  188.47
   3  15   3   91.14  314.09
   3 -15   4 1158.66  394.38
   3  15   4 2027.80  345.92
   3 -15   5  396.68  193.76
   3  15   5  596.83  259.85
   3 -15   6 1858.69  411.26
   3  15   6 2614.52  401.05
   3 -15   7  350.18  191.67
   3  15   7  437.47  337.59
   3 -15   8 1098.91  265.65
   3  15   8  479.32  322.38
  -3  15  -8  328.59   80.11
   3 -15   9 4298.11  542.35
   3  15   9 4443.96  538.65
   3 -15  10  148.73  229.06
  -3 -15 -10  129.17  242.16
   3 -15  11  431.33  282.12
  -3 -15 -11  474.17  411.65
   3 -15  12  172.55  250.28
  -3 -15 -12  103.06  279.45
   3 -15  13 -148.21  254.56
  -3 -15 -13   82.20  380.10
   3 -15  14  377.43  235.51
  -3 -15 -14   78.54  461.40
   3 -15  15 2749.44  539.52
  -3 -15 -15 1297.44  803.00
   3 -15  16 1170.65  329.79
  -3 -15 -16  595.55  490.41
   3 -15  17 2242.22  583.52
  -3 -15 -17 2131.71  862.21
   3 -15  18 1919.47  435.47
  -3 -15 -18 2589.02  908.98
   3 -15  19 3132.15  706.11
  -3 -15 -19 1467.61 1028.28
   3 -15  20  307.08  445.29
   3 -15  21 1057.57  583.05
  -3 -15 -21  470.67  639.10
   3 -15  22 3782.51  746.74
   3 -16 -23  469.08  633.92
   3  16 -23 2140.48  490.66
  -3  16  23 1851.38 1056.57
  -3 -16  23  777.15 1151.16
   3 -16 -22   42.75  285.68
   3  16 -22  439.67  502.19
  -3  16  22  803.53  918.42
  -3 -16  22   69.52  732.14
   3 -16 -2110568.40 1364.93
   3  16 -2113113.96 1691.51
  -3  16  2111753.43 2916.64
  -3 -16  2112464.92 2185.95
   3 -16 -20  -14.11  211.50
   3  16 -20  498.58  449.70
  -3  16  20 -745.26  677.75
  -3 -16  20 -102.44  488.62
   3 -16 -19 2939.51  587.76
   3  16 -19 1550.08  907.98
  -3  16  19 3253.23 1010.53
  -3 -16  19 2310.15  750.08
   3 -16 -18 1231.96  411.73
   3  16 -18  740.86  696.38
  -3  16  18 1949.17  990.35
  -3 -16  18  357.81  523.16
   3 -16 -17 1151.80  372.04
   3  16 -17  968.16  487.78
  -3  16  17    0.42  906.50
  -3 -16  17  383.58  443.77
   3 -16 -16  665.44  294.31
   3  16 -16  106.73  433.14
  -3  16  16 -269.95  747.78
  -3 -16  16   46.11  490.90
   3 -16 -1514754.78 1205.63
   3  16 -1512510.55 1888.98
  -3  16  1510557.80 1738.19
  -3 -16  1510734.16 1580.19
   3 -16 -14  230.31  235.38
   3  16 -14  187.55  573.40
  -3  16  14   68.46  616.91
  -3 -16  14   98.98  415.14
   3 -16 -1310425.68  903.55
   3  16 -1311070.51 1372.52
  -3  16  1311031.16 1502.70
  -3 -16  13 9798.59 1321.99
   3 -16 -12  294.78  198.12
   3  16 -12  260.01  500.56
  -3  16  12 -298.20  537.92
  -3 -16  12 -174.71  308.51
   3 -16 -11 1186.00  236.21
   3  16 -11 1131.93  734.10
  -3  16  11  488.59  760.80
  -3 -16  11 1478.40  435.97
   3 -16 -10  165.90  148.27
   3  16 -10  490.17  500.18
  -3  16  10  269.57  540.11
  -3 -16  10  -47.33  280.29
   3 -16  -9 1197.31  236.57
  -3  16   9 1066.29  524.91
  -3 -16   9 1510.28  378.82
   3 -16  -8  807.65  166.92
   3  16  -8  690.80  461.22
  -3  16   8 1380.00  647.21
  -3 -16   8 1464.16  330.86
   3 -16  -7 1095.14  162.45
   3  16  -7 1733.91  644.37
  -3  16   7 1670.54  495.52
  -3 -16   7 2004.10  311.77
   3 -16  -6  -59.74   92.58
   3  16  -6 -142.90  352.92
  -3  16   6  659.75  277.51
  -3 -16   6    6.83  163.89
   3 -16  -5 1467.76  225.70
   3  16  -5 1790.42  479.77
  -3  16   5 2064.13  484.08
  -3 -16   5 1963.14  294.00
   3 -16  -4  435.40  162.00
   3  16  -4 1122.35  371.48
  -3  16   4  977.05  370.28
  -3 -16   4  951.74  206.10
   3 -16  -3   65.72   67.44
   3  16  -3  -71.03  377.64
  -3  16   3  129.04  118.84
  -3 -16   3   93.67  117.20
   3 -16  -2 1294.85  406.92
   3  16  -2  990.63  537.47
  -3  16   2 1122.00  297.34
  -3 -16   2  967.70  135.62
   3 -16  -1  321.61  364.93
   3  16  -1  182.28  420.07
  -3 -16   1  413.88   97.54
   3 -16   015975.09 1326.57
   3  16   016858.67 1714.36
  -3 -16   015571.21  763.95
   3 -16   1  702.38  336.69
   3  16   1  532.94  431.26
  -3 -16  -1  451.56   85.77
   3 -16   2 1686.98  368.82
   3  16   2 3363.81  493.14
   3 -16   3 1142.38  365.94
   3  16   3 1276.62  493.24
   3 -16   4  580.87  228.89
   3  16   4  276.71  410.85
   3 -16   511531.05 1003.83
   3  16   512596.15 1088.68
   3 -16   6  364.14  204.18
   3  16   6  831.98  357.77
   3 -16   7 9997.11  756.95
   3  16   710033.37  935.00
   3 -16   8  104.59  217.52
   3  16   8   34.04  277.51
   3 -16   9 4899.21  568.33
   3  16   9 4234.08  780.84
   3 -16  10  -26.30  219.30
   3  16  10 -146.35  231.35
   3 -16  11  177.63  288.46
  -3 -16 -11  674.33  311.38
   3 -16  12  216.91  193.98
  -3 -16 -12  230.85  401.55
   3 -16  1311330.94  867.52
  -3 -16 -13 8868.44 1065.39
   3 -16  14 6842.37  721.24
  -3 -16 -14 1897.73  728.41
   3 -16  15   -4.59  185.17
  -3 -16 -15    0.92  286.09
   3 -16  16 4105.24  649.05
  -3 -16 -16 1451.84  693.83
   3 -16  17 1884.34  408.29
  -3 -16 -17 1734.07  843.40
   3 -16  18  243.58  399.41
  -3 -16 -18  615.62  460.85
   3 -16  19 1621.86  604.78
  -3 -16 -19 1465.84  905.03
   3 -16  20   61.37  323.69
  -3 -16 -20  877.83  499.82
   3 -16  21 1453.07  495.78
  -3 -16 -21  918.81  710.46
   3 -17 -23  380.11  530.81
   3  17 -23  733.49  533.42
  -3  17  23  870.63  856.37
  -3 -17  23  152.51  682.42
   3 -17 -22  120.68  375.55
   3  17 -22 -276.55  456.82
  -3  17  22  757.18  840.34
  -3 -17  22   30.42  449.28
   3 -17 -21  204.67  440.52
   3  17 -21  107.24  538.75
  -3  17  21 1280.76  741.09
  -3 -17  21  660.97  727.87
   3 -17 -20  202.68  324.93
   3  17 -20 1464.14  680.14
  -3  17  20 2148.03 1063.44
  -3 -17  20 1586.60  763.50
   3 -17 -19  523.77  462.25
   3  17 -19  290.52  703.60
  -3  17  19 2567.46  800.75
  -3 -17  19 1860.04  790.81
   3 -17 -18  707.75  390.12
   3  17 -18  438.23  685.76
  -3  17  18 1723.64  708.23
  -3 -17  18  210.10  696.70
   3 -17 -17  751.76  378.05
   3  17 -17 1153.77  670.73
  -3  17  17  658.00  675.58
  -3 -17  17  748.19  463.01
   3 -17 -16 1511.90  389.40
   3  17 -16 1311.55  766.32
  -3  17  16  617.08  721.12
  -3 -17  16  841.95  474.51
   3 -17 -15 1653.00  375.23
   3  17 -15  730.77  751.03
  -3  17  15  411.51  936.60
  -3 -17  15 1102.27  478.44
   3 -17 -14   26.31  233.71
   3  17 -14   76.17  538.51
  -3  17  14  814.36  619.73
  -3 -17  14   -5.95  391.25
   3 -17 -13 5237.37  569.50
   3  17 -13 4314.65 1191.33
  -3  17  13 1701.40  955.20
  -3 -17  13 4277.23  789.61
   3 -17 -1211245.26  931.89
   3  17 -1212797.37 1832.31
  -3  17  12 8877.16 1420.21
  -3 -17  1210325.33 1225.99
   3 -17 -11 2386.37  399.60
   3  17 -11 3184.25  703.97
  -3  17  11 2083.76 1053.15
  -3 -17  11 3598.29  593.87
   3 -17 -10 1283.70  278.54
   3  17 -10 1188.41  784.07
  -3  17  10 2104.12  602.37
  -3 -17  10 1524.43  440.79
   3 -17  -9 7619.05  591.00
   3  17  -911924.45 1617.15
  -3  17   9 9516.48 1266.44
  -3 -17   911375.52  984.31
   3 -17  -8  154.73  174.97
   3  17  -8  437.06  424.38
  -3  17   8  537.38  587.80
  -3 -17   8 1553.09  281.36
   3  17  -7 1911.56  559.32
  -3  17   7 1529.72  566.59
  -3 -17   7 2083.33  370.59
   3 -17  -6 2989.37  278.67
   3  17  -6 2926.25  639.77
  -3  17   6 2258.01  631.70
  -3 -17   6 3671.27  373.80
   3 -17  -5  232.90  140.41
   3  17  -5  431.24  320.46
  -3  17   5  143.89  305.42
  -3 -17   5   -9.09  159.08
   3 -17  -4  493.99  122.80
   3  17  -4  111.69  314.34
  -3  17   4  281.37  313.57
  -3 -17   4  -72.44  129.88
   3 -17  -3 2216.94  612.75
   3  17  -3 2636.87  594.90
  -3 -17   3 3135.27  262.20
   3 -17  -2  567.94  487.36
   3  17  -2  420.15  342.96
  -3 -17   2  414.12  116.90
   3 -17  -1  192.53  441.51
   3  17  -1  937.24  389.75
  -3 -17   1 1025.41  132.94
   3 -17   0  847.00  337.80
   3  17   0 1534.11  446.61
  -3 -17   0 1538.04  168.37
   3 -17   114050.24 1336.73
   3  17   112497.15 1561.73
  -3 -17  -112117.84  593.34
   3 -17   2  211.76  195.46
   3  17   2  279.08  259.35
  -3 -17  -2    2.84   57.70
   3 -17   3  -31.53  239.06
   3  17   3 -115.28  318.47
  -3 -17  -3   30.82   39.49
   3 -17   4  662.28  333.91
   3  17   4  550.16  453.91
   3 -17   5  231.40  194.76
   3  17   5  884.00  376.84
   3 -17   6   35.29  150.48
   3  17   6  -84.94  293.73
   3 -17   7  404.68  282.57
   3  17   7  547.85  289.70
   3 -17   8  753.38  341.74
   3  17   8 1451.98  358.53
   3 -17   9  255.48  235.62
   3  17   9   72.87  333.68
   3 -17  10  273.65  224.28
   3  17  10 -170.36  228.49
   3 -17  11   15.25  176.55
   3  17  11  326.60  256.75
   3 -17  12   98.92  173.10
  -3 -17 -12 -113.20  357.65
   3 -17  13  216.43  287.42
  -3 -17 -13   99.53  424.16
   3 -17  14  280.37  314.02
  -3 -17 -14  176.88  474.26
   3 -17  15  764.25  389.31
  -3 -17 -15  540.35  599.85
   3 -17  16  736.68  289.69
  -3 -17 -16   85.99  595.51
   3 -17  17  824.45  415.73
  -3 -17 -17   80.25  639.56
   3 -17  18 -282.48  253.91
  -3 -17 -18 1204.18  412.74
   3 -17  19 1544.47  580.80
  -3 -17 -19  902.86  870.76
   3 -17  20  815.75  515.27
  -3 -17 -20  199.64  776.06
   3 -17  21  833.29  616.32
   3 -18 -22 1152.44  561.79
   3  18 -22   95.35  478.95
  -3  18  22 2785.17 1275.86
  -3 -18  22 1595.22  914.51
   3 -18 -21  715.31  500.13
   3  18 -21  194.82  606.65
  -3  18  21 1032.89  824.20
  -3 -18  21  865.03  600.00
   3 -18 -20 2809.38  596.64
   3  18 -20 5264.20  884.97
  -3  18  20 5194.18 1760.93
  -3 -18  20 4706.70  986.95
   3 -18 -19  799.77  478.65
   3  18 -19 1468.07  710.98
  -3  18  19 1168.05 1077.72
  -3 -18  19  635.52  791.43
   3 -18 -18 2001.63  573.31
   3  18 -18 2742.87  701.29
  -3  18  18 1371.69  971.27
  -3 -18  18 2489.79  923.01
   3 -18 -17 1060.40  394.97
   3  18 -17  238.64  675.24
  -3  18  17  298.67  703.33
  -3 -18  17  607.70  627.29
   3 -18 -16  410.64  313.10
   3  18 -16  -26.24  579.23
  -3  18  16  289.32  778.91
  -3 -18  16  177.18  501.98
   3 -18 -15  755.47  307.22
   3  18 -15 -161.96  616.63
  -3  18  15  138.76  753.64
  -3 -18  15  160.34  365.89
   3 -18 -14 3058.26  585.22
   3  18 -14 2514.21 1193.27
  -3  18  14 2447.41 1322.40
  -3 -18  14 5444.84  630.56
   3 -18 -13  960.20  290.63
   3  18 -13  880.11  729.52
  -3  18  13  908.35  848.57
  -3 -18  13 1021.49  491.48
   3 -18 -12  483.14  260.15
   3  18 -12  302.01  434.62
  -3  18  12   26.85  486.25
  -3 -18  12  519.69  390.40
   3 -18 -1122234.35 1524.83
   3  18 -1120726.72 2886.48
  -3  18  1121018.31 2334.10
  -3 -18  1122595.57 2036.51
   3 -18 -10 5422.36  605.65
   3  18 -10 5231.62 1298.44
  -3  18  10 2548.85  975.96
  -3 -18  10 5920.39  760.35
   3 -18  -9 1413.81  346.53
   3  18  -9 2025.75  851.47
  -3  18   9 2792.09  836.40
  -3 -18   9 1892.68  422.36
   3 -18  -8 -147.97  147.45
   3  18  -8  131.14  466.94
  -3  18   8  188.79  482.88
  -3 -18   8    4.15  231.43
   3 -18  -7  699.56  207.50
   3  18  -7 1390.17  494.55
  -3  18   7 1191.50  496.43
  -3 -18   7 1588.99  282.19
   3 -18  -6  205.04  137.49
   3  18  -6  203.63  449.89
  -3  18   6  120.26  327.48
  -3 -18   6   46.06  177.14
   3 -18  -5  146.52  123.90
   3  18  -5  -87.69  443.28
  -3  18   5   96.49  432.97
  -3 -18   5  175.32  173.22
   3  18  -4  381.79  382.78
  -3 -18   4  -25.10  135.87
   3 -18  -3 2244.65  853.73
   3  18  -3 1882.70  821.62
  -3 -18   3 3115.52  309.70
   3 -18  -2  -99.12  280.38
   3  18  -2 1064.46  452.92
  -3 -18   2  261.02  137.57
   3 -18  -1 1398.31  418.99
   3  18  -1 1445.11  642.33
  -3 -18   1 1683.50  214.57
   3 -18   014105.25 1481.71
   3  18   014215.32 1455.59
  -3 -18   014593.04  762.55
   3 -18   1 1470.64  501.05
   3  18   1 1680.32  647.00
  -3 -18  -1 1581.19  155.79
   3 -18   218848.47 1813.35
   3  18   220505.69 2280.53
   3 -18   3  177.54  208.88
   3  18   3  283.12  434.35
   3 -18   4 1344.21  294.70
   3  18   4 2017.94  618.68
   3 -18   5  724.78  339.74
   3  18   5 1535.44  489.61
   3 -18   618773.53 1669.84
   3  18   627023.08 2106.33
   3 -18   7  268.59  288.50
   3  18   7  811.28  403.33
   3 -18   8  -61.74  234.31
   3  18   8  270.37  247.16
   3 -18   9  601.03  277.77
   3  18   9  184.05  315.62
   3 -18  10  181.83  276.59
   3  18  10  827.51  404.46
   3 -18  11  -62.37  169.93
   3  18  11   29.72  338.52
   3 -18  12 4138.97  472.41
   3  18  12 3483.19  415.98
   3 -18  13 2916.34  528.25
  -3 -18 -13 1123.99  731.56
   3 -18  14 1875.37  350.60
  -3 -18 -14  758.56  709.13
   3 -18  15  710.18  384.95
  -3 -18 -15  405.02  586.58
   3 -18  16 1019.39  333.08
  -3 -18 -16 1384.52  706.29
   3 -18  17  976.81  470.92
   3 -18  18 1527.55  550.31
  -3 -18 -18  993.79  841.50
   3 -18  19  217.43  414.70
  -3 -18 -19  222.24  469.42
   3 -18  20  965.18  418.03
  -3 -18 -20  843.89  872.96
   3 -19 -22  489.68  542.58
   3  19 -22  453.70  643.43
  -3  19  22 -206.52 1187.21
  -3 -19  22 1396.44  873.63
   3 -19 -21  381.32  496.74
   3  19 -21  345.63  587.94
  -3  19  21  483.93  805.28
  -3 -19  21 1268.42  814.67
   3 -19 -20  442.72  500.51
   3  19 -20 1265.71  717.40
  -3  19  20  517.83 1126.77
  -3 -19  20  917.34  827.68
   3 -19 -19  396.27  368.12
   3  19 -19 2362.50  742.13
  -3  19  19 3400.53 1158.25
  -3 -19  19  947.77  603.52
   3  19 -18  -37.07  654.02
   3 -19 -18  632.22  295.54
  -3  19  18  248.02  962.51
  -3 -19  18  456.13  465.67
   3 -19 -17   74.91  295.31
   3  19 -17  116.04  358.33
  -3  19  17  324.93  696.23
  -3 -19  17 -292.59  479.06
   3 -19 -16  131.88  311.52
   3  19 -16  261.10  430.63
  -3  19  16  -25.95  752.09
  -3 -19  16  469.53  507.46
   3 -19 -15  752.76  351.67
   3  19 -15  711.69  665.56
  -3  19  15    8.07  854.77
  -3 -19  15  464.43  568.41
   3 -19 -14  256.90  336.65
   3  19 -14  -35.68  636.54
  -3  19  14 -115.92  519.40
  -3 -19  14  616.30  420.46
   3 -19 -13 6825.48  770.04
   3  19 -13 5583.43 1096.92
  -3  19  13 4091.90 1563.36
  -3 -19  13 5784.70  782.64
   3 -19 -12  924.75  350.54
   3  19 -12 1059.63  775.11
  -3  19  12  667.05  854.62
  -3 -19  12 1546.72  511.49
   3 -19 -11  362.64  303.00
   3  19 -11  701.38  661.78
  -3  19  11  774.26  519.38
  -3 -19  11  481.87  398.05
   3  19 -10 5709.72 1010.11
   3 -19 -10 5621.43  603.61
  -3  19  10 3483.80  975.88
  -3 -19  10 6594.46  776.41
   3 -19  -9 2240.40  440.81
   3  19  -9 3514.47 1045.68
  -3  19   9 3190.16 1023.55
  -3 -19   9 3543.00  540.47
   3 -19  -8 1402.52  302.86
   3  19  -8 1139.38  791.72
  -3  19   8 2371.89  749.42
  -3 -19   8 1290.82  386.14
   3  19  -7  689.51  562.91
  -3  19   7 2499.35  543.98
  -3 -19   7 1469.43  373.45
   3  19  -610681.71 1406.61
  -3  19   6 5247.50 1333.15
  -3 -19   6 7212.23  580.88
   3  19  -5 2236.25  862.36
  -3  19   5 2073.61  817.37
  -3 -19   5 2746.05  353.45
   3 -19  -4 2621.23  873.10
   3  19  -4 2113.51  827.40
  -3 -19   4 2558.55  327.24
   3 -19  -3  276.24  481.50
   3  19  -3  224.31  478.86
  -3 -19   3  155.99  160.53
   3 -19  -2 7220.50 1044.68
   3  19  -2 6423.78  909.34
  -3 -19   2 5916.90  434.70
   3 -19  -1 1868.55  613.55
   3  19  -1 3145.10  809.78
  -3 -19   1 2262.34  204.38
   3 -19   0  791.98  411.41
   3  19   0  738.78  518.11
  -3 -19   0  435.04  106.61
   3 -19   1   -3.49  351.96
   3  19   1  690.87  339.23
  -3 -19  -1  222.03  104.77
   3 -19   2 1848.44  528.09
   3  19   2 1616.49  720.73
   3 -19   3 1212.19  482.93
   3  19   3 2994.80  735.19
   3 -19   4 1461.76  335.57
   3  19   4 3296.85  702.01
   3 -19   5 1502.26  336.49
   3  19   5 3125.00  701.21
   3 -19   6 3115.78  408.14
   3  19   6 3278.35  552.85
   3 -19   7  180.01  192.62
   3  19   7  -20.79  392.04
   3 -19   8  928.91  269.79
   3  19   8 1585.78  535.56
   3 -19   9 2013.50  450.62
   3  19   9 2740.66  684.76
   3 -19  10 1806.41  416.80
   3  19  10 2290.71  627.64
   3 -19  11  486.29  268.83
   3  19  11 1263.72  379.80
   3 -19  12  558.54  340.27
   3  19  12  599.14  490.75
   3 -19  13 9594.71  955.50
   3  19  13 6997.14  697.33
   3 -19  14 4555.12  631.81
  -3 -19 -14 1332.74  657.57
   3 -19  15 1575.46  464.04
  -3 -19 -15  903.14  521.22
   3 -19  16 1895.26  504.84
  -3 -19 -16  790.49  575.06
   3 -19  17  196.67  274.80
  -3 -19 -17  557.91  587.33
   3 -19  18 2392.58  474.11
  -3 -19 -18 1002.20  981.27
   3 -19  19 -246.07  468.85
  -3 -19 -19 1327.57  531.62
   3 -19  20 1163.89  612.44
   3 -20 -21  944.17  704.83
   3  20 -21 1035.84  677.19
  -3  20  21 1232.57 1295.59
  -3 -20  21  703.20  685.28
   3 -20 -20    0.02  472.85
   3  20 -20   35.45  556.31
  -3  20  20  -31.63  887.33
  -3 -20  20  397.10  642.03
   3 -20 -19  371.52  615.48
   3  20 -19 1697.21  551.88
  -3  20  19 1137.25 1147.85
  -3 -20  19  248.52  786.50
   3 -20 -18  436.55  575.50
   3  20 -18  939.97  760.04
  -3  20  18 1372.25 1077.50
  -3 -20  18 1356.02  736.59
   3 -20 -17 2537.33  810.15
   3  20 -17 3791.28 1115.77
  -3  20  17 2969.28 1578.90
  -3 -20  17 4400.93 1086.90
   3 -20 -16  421.66  474.72
   3  20 -16  997.28  540.43
  -3  20  16 1064.03  947.07
  -3 -20  16  481.18  480.61
   3 -20 -15  502.23  403.94
   3  20 -15  401.25  462.71
  -3  20  15  215.39  811.08
  -3 -20  15  148.38  476.28
   3 -20 -14  149.90  330.02
   3  20 -14  147.64  441.03
  -3  20  14  310.87  681.82
  -3 -20  14  -26.16  399.23
   3 -20 -13  283.27  279.55
   3  20 -13  -40.31  622.76
  -3  20  13   65.59  680.58
  -3 -20  13  204.93  409.22
   3 -20 -12 7749.75  984.24
   3  20 -12 7958.14 1700.61
  -3  20  12 4904.85 1763.04
  -3 -20  12 9066.94 1140.88
   3 -20 -11 9329.22 1018.63
   3  20 -11 6331.26 1826.96
  -3  20  11 7460.61 1823.43
  -3 -20  1111347.52 1233.25
   3  20 -10 5998.68 1134.13
  -3  20  10 8711.02 1609.76
  -3 -20  10 6909.03  910.30
   3  20  -9-1086.81  635.03
  -3  20   9  979.28  621.26
  -3 -20   9  658.85  328.35
   3  20  -8 2154.07 1010.04
  -3  20   8 3441.23  958.43
  -3 -20   8 2769.19  514.54
   3  20  -7  143.51  693.35
  -3  20   7 1001.23  476.72
  -3 -20   7 1026.93  332.32
   3  20  -6 3955.49 1107.57
  -3  20   6 1976.70 1012.45
  -3 -20   6 4949.43  477.17
   3 -20  -5   13.34  230.12
   3  20  -5  167.04  500.05
  -3 -20   5  218.08  169.53
   3 -20  -4   45.30  348.66
   3  20  -4   27.64  325.11
  -3 -20   4   57.54  164.65
   3 -20  -3  475.10  456.52
   3  20  -3  860.74  554.07
  -3 -20   3  260.70  188.84
   3 -20  -2 1044.13  564.46
   3  20  -2 1643.27  675.60
  -3 -20   2 1074.86  181.89
   3 -20  -117391.92 2074.18
   3  20  -121601.16 2117.23
  -3 -20   119846.39 1125.99
   3  20   0 1355.05  820.02
   3 -20   0 1880.09  663.76
  -3 -20   0 2393.08  254.58
   3 -20   1 2117.33  641.66
   3  20   1 3533.87  690.58
   3 -20   2 2011.96  624.73
   3  20   2 6128.79  960.16
   3 -20   3  631.69  398.11
   3  20   3 1010.58  617.91
   3 -20   4 5393.92  727.83
   3  20   4 6525.97 1121.53
   3 -20   5  397.55  310.42
   3  20   5  415.28  373.58
   3 -20   6   65.92  318.89
   3  20   6 1262.91  468.24
   3 -20   7 1978.30  458.15
   3  20   7 2626.07  552.52
   3 -20   8  393.04  206.83
   3  20   8  170.31  441.78
   3 -20   9  432.05  224.92
   3  20   9 1252.33  506.86
   3 -20  10 1020.11  346.97
   3  20  10  788.44  427.98
   3 -20  11   34.49  179.41
   3  20  11  253.98  380.71
   3 -20  12   75.92  251.17
   3  20  12 -114.70  266.22
   3 -20  13 5194.04  591.64
   3  20  13 4582.73 1083.48
   3 -20  14  -82.28  305.68
   3  20  14 -215.46  330.28
   3 -20  15 1776.83  386.24
   3 -20  16  538.10  413.80
  -3 -20 -16  784.65  647.37
   3 -20  17 1185.44  479.09
  -3 -20 -17  158.07  728.72
   3 -20  18  523.68  308.18
  -3 -20 -18  -22.94  493.68
   3 -20  19  586.93  370.09
  -3 -20 -19  685.21  765.49
   3 -21 -20 1041.77  846.20
   3  21 -20 2235.89 1000.57
  -3  21  20 2293.01 1553.67
  -3 -21  20 3440.00 1165.04
   3 -21 -19  130.45  661.34
   3  21 -19  847.79  760.49
  -3  21  19 1576.80 1223.07
  -3 -21  19 1591.33  606.30
   3 -21 -18  119.17  535.22
   3  21 -18  451.88  680.82
  -3  21  18 2041.43 1019.91
  -3 -21  18  417.60  493.15
   3 -21 -17  417.05  651.78
   3  21 -17  876.30  859.84
  -3  21  17 2348.22 1245.76
  -3 -21  17 3496.14  844.57
   3 -21 -16  -90.96  404.83
   3  21 -16  202.23  600.99
  -3  21  16 1082.97  790.81
  -3 -21  16  130.23  528.36
   3  21 -15 1510.50 1149.84
  -3  21  15 3906.25  988.29
  -3 -21  15 1877.08  800.76
   3  21 -14  427.11  747.15
  -3  21  14  580.72  844.00
  -3 -21  14  502.79  371.73
   3  21 -13  -63.31  552.12
  -3  21  13  387.61  637.61
  -3 -21  13  -22.20  366.88
   3  21 -12  773.66  735.42
  -3  21  12  266.18  792.29
  -3 -21  12  668.84  474.40
   3  21 -11  164.90  812.85
  -3  21  11 2623.09  845.51
  -3 -21  11  671.78  448.48
   3  21 -10 2509.37  791.84
  -3  21  10 1916.11 1024.57
  -3 -21  10 2683.51  580.36
   3  21  -9 3203.00 1013.57
  -3  21   9 1990.94  939.08
  -3 -21   9 1993.66  528.03
   3  21  -8 1478.06  576.73
  -3  21   8  967.65  725.10
  -3 -21   8  794.44  385.65
   3  21  -7 1379.71  670.42
  -3  21   7 1275.61  463.75
  -3 -21   7  223.46  288.84
   3  21  -6  110.11  653.32
  -3 -21   6  745.23  281.88
   3 -21  -5 2106.37  917.34
   3  21  -5 3342.47 1155.40
  -3 -21   5 5522.81  547.54
   3 -21  -4  -57.04  556.52
   3  21  -4  -41.90  525.37
  -3 -21   4  256.12  176.28
   3 -21  -3 2922.01  848.64
   3  21  -3 2837.07  795.24
  -3 -21   3 3383.13  380.48
   3  21  -2 1859.26  862.69
  -3 -21   2 1774.27  240.43
   3 -21  -1 8715.06 1151.08
   3  21  -110907.23 1846.02
  -3 -21   111628.71  703.33
   3 -21   0 2407.33  733.30
   3  21   0 4755.38 1040.44
   3 -21   1  491.61  421.03
   3  21   1  346.20  413.93
   3 -21   2  129.76  354.15
   3  21   2  440.84  518.43
   3 -21   3 1819.52  611.82
   3  21   3 3555.76  896.72
   3 -21   4  224.15  305.21
   3  21   4  183.78  528.10
   3 -21   5   89.67  215.48
   3  21   5  294.01  347.28
   3 -21   6  959.24  294.51
   3  21   6 1286.27  683.16
   3 -21   7  545.82  283.08
   3  21   7 -628.60  460.45
   3 -21   8    5.31  278.41
   3  21   8  706.13  363.29
   3 -21   9 1294.26  284.75
   3  21   9 1743.73  480.57
   3 -21  10  601.21  292.72
   3  21  10 -343.21  499.79
   3 -21  11  844.61  423.66
   3  21  11 2943.84  719.88
   3 -21  12 8117.30  960.61
   3  21  12 8825.54 1094.34
   3 -21  13 5991.87  592.59
   3  21  13 4522.61  906.34
   3 -21  14  111.84  307.96
   3  21  14  180.53  478.00
   3 -21  15  574.58  300.66
   3  21  15  814.27  465.31
   3 -21  16  219.82  363.32
   3 -21  17  150.55  444.17
  -3 -21 -17 1199.82  522.27
   3 -21  18  807.17  503.85
  -3 -21 -18  965.42  807.85
   3  22 -20 1302.68  898.45
  -3  22  20 1233.54 1059.15
  -3 -22  20 1322.06  697.23
   3  22 -19 2504.44 1065.16
  -3  22  19 2785.69 1704.05
  -3 -22  19 2825.95 1138.19
   3  22 -18 3689.86 1405.90
  -3  22  18 7099.52 2049.67
  -3 -22  18 5586.66 1400.69
   3  22 -17 1576.60  892.26
  -3  22  17 1200.28 1263.53
  -3 -22  17 1764.54  873.21
   3  22 -16 2790.61  996.24
  -3  22  16 2698.74 1320.10
  -3 -22  16 1224.83  670.16
   3  22 -15  496.40  737.62
  -3  22  15  -27.18  607.53
  -3 -22  15  428.97  505.86
   3  22 -14  284.62  869.67
  -3  22  14 1566.23  967.52
  -3 -22  14  907.67  592.04
   3  22 -13 1519.58  955.10
  -3  22  13 1836.68  773.13
  -3 -22  13 1163.53  636.39
   3  22 -12 1686.05 1116.76
  -3  22  12 2618.96 1207.73
  -3 -22  12 2837.89  722.07
   3  22 -11 -502.99  732.60
  -3  22  11 -128.19  714.75
  -3 -22  11  714.71  299.04
   3  22 -10  563.21  561.51
  -3  22  10  786.99  732.54
  -3 -22  10  617.68  410.52
   3  22  -9 1252.86  777.16
  -3  22   9  197.43  713.06
  -3 -22   9  724.92  399.00
   3  22  -8 1548.64  805.71
  -3  22   8  878.07  754.17
  -3 -22   8  838.65  418.00
   3  22  -7  544.40  616.10
  -3  22   7  789.89  562.94
  -3 -22   7  112.62  272.74
   3 -22  -6 1365.26  704.34
   3  22  -6 2131.90  911.29
  -3 -22   6 1709.06  339.50
   3 -22  -5  -37.55  684.63
   3  22  -5 1976.11  655.53
  -3 -22   5  333.83  267.57
   3 -22  -4  614.48  397.53
   3  22  -4  512.68  442.94
  -3 -22   4  260.21  240.99
   3 -22  -3  638.48  524.04
   3  22  -3  749.34  618.58
  -3 -22   3  280.25  167.74
   3 -22  -2  380.87  498.71
   3  22  -2  -20.36  470.46
  -3 -22   2  508.69  169.49
   3 -22  -1  386.00  434.23
   3  22  -1 2517.48  737.06
   3 -22   0 9097.00 1039.96
   3  22   012418.35 1385.24
   3 -22   1 -226.06  391.53
   3  22   1  -61.19  388.35
   3 -22   2   74.73  326.21
   3  22   2  -31.89  468.27
   3 -22   3  110.39  215.78
   3  22   3  -98.35  494.14
   3 -22   4 1231.28  424.61
   3  22   4 5077.61  729.58
   3 -22   5 2531.44  617.90
   3  22   5 3171.53  943.85
   3 -22   6 4834.16  724.10
   3  22   6 4242.31  886.48
   3 -22   7 3583.04  458.89
   3  22   7 4608.87  991.80
   3 -22   8  755.98  345.68
   3  22   8  538.66  609.15
   3 -22   9 1024.64  391.59
   3  22   9 2050.31  739.36
   3 -22  10 1613.01  320.02
   3  22  10 2272.14  774.47
   3 -22  11   -5.43  257.94
   3  22  11  212.62  341.62
   3 -22  12 1295.18  332.91
   3  22  12 2020.60  769.10
   3 -22  13 1616.64  512.81
   3  22  13 2758.46  801.23
   3 -22  14   88.87  308.34
   3  22  14  127.98  356.40
   3 -22  15  218.92  262.87
   3  22  15  363.29  412.63
   3 -22  16  450.42  297.58
   3  22  16  283.01  463.71
   3 -22  17  468.04  441.33
   3  22  17  479.59  501.98
   3  23 -19 2520.95 1063.49
  -3  23  19 3326.08 1717.13
  -3 -23  19 2161.13 1168.78
   3  23 -18 1918.70  938.86
  -3  23  18 1509.50 1404.53
  -3 -23  18 1269.87  695.93
   3  23 -17 -296.08  715.04
  -3  23  17 1971.55 1071.00
  -3 -23  17  647.55  527.19
   3  23 -16  220.12  743.55
  -3 -23  16   99.06  591.05
  -3  23  16 1297.47  728.53
   3  23 -15  595.85  848.46
  -3  23  15 1158.47  979.42
  -3 -23  15  393.07  587.13
   3  23 -14  326.58  919.44
  -3  23  14  179.52 1033.17
  -3 -23  14 1484.69  612.98
   3  23 -13 -183.03  718.35
  -3  23  13 1235.29  611.92
  -3 -23  13  184.33  353.54
   3  23 -12 5092.13 1457.82
  -3 -23  12 4750.62  881.87
  -3  23  12 2989.47 1475.61
   3  23 -11  174.23  574.97
  -3  23  11  181.97  580.23
  -3 -23  11 -167.66  331.30
   3  23 -10 2155.92 1066.12
  -3  23  10 2509.95  997.22
  -3 -23  10 1469.99  564.41
   3  23  -9 2136.34  967.14
  -3  23   9 1957.84  890.43
  -3 -23   9 1042.17  512.98
   3  23  -8 4735.23 1410.28
  -3  23   8 6125.47 1298.44
  -3 -23   8 4201.76  695.44
   3 -23  -7 -132.88  469.54
   3  23  -7  254.05  440.15
  -3 -23   7  172.04  265.44
   3 -23  -6 8983.62 2008.72
   3  23  -6 9748.43 1943.12
  -3 -23   610038.51 1015.92
   3 -23  -5  395.13  539.91
   3  23  -5  614.39  447.27
  -3 -23   5   62.96  252.13
   3 -23  -4 3318.49 1085.67
   3  23  -4 4250.96 1212.39
  -3 -23   4 4367.31  489.41
   3 -23  -3  132.91  376.56
   3  23  -3  536.87  476.61
  -3 -23   3  402.50  217.36
   3 -23  -210576.38 1669.34
   3  23  -211476.63 2004.41
   3 -23  -1 2754.01  877.62
   3  23  -1 4633.21 1169.57
   3 -23   0 1078.53  492.80
   3  23   0 2169.23  652.40
   3 -23   1  518.62  439.04
   3  23   1   95.58  648.70
   3 -23   2  327.17  512.72
   3  23   2 2180.69  749.60
   3  23   3 2847.91  611.79
   3 -23   3  604.59  348.23
   3 -23   4  -68.01  318.24
   3  23   4  475.28  541.86
   3 -23   5 2132.68  577.53
   3  23   5 2102.49 1013.40
   3 -23   6 1631.50  415.57
   3  23   6 3935.10  940.39
   3 -23   7   74.73  332.07
   3  23   7  842.96  467.29
   3 -23   8  386.53  250.91
   3  23   8  705.29  608.37
   3 -23   9  813.34  369.14
   3  23   9 1078.01  713.46
   3 -23  10 -231.52  195.72
   3  23  10  451.20  395.21
   3 -23  11 -569.22  297.52
   3  23  11  941.84  557.56
   3 -23  12  727.96  281.42
   3  23  12  335.26  492.45
   3 -23  13  117.50  339.75
   3  23  13  721.08  608.27
   3 -23  14  -62.23  377.91
   3  23  14 1561.69  602.74
   3  23  15 1672.84  667.36
   3 -23  15  276.40  306.97
   3 -23  16  645.74  334.68
   3  23  16  577.79  717.11
   3 -23  17  357.23  488.79
   3  23  17 1470.79  780.55
   3  24 -18  458.75  807.95
  -3  24  18 1775.03 1227.84
  -3 -24  18  487.62  813.11
   3  24 -17  549.45  718.69
  -3  24  17   93.20 1044.16
  -3 -24  17  447.59  723.31
   3  24 -16 4588.41 1418.98
  -3  24  16 3656.12 1361.18
  -3 -24  16 4298.03 1139.13
   3  24 -15 1458.71 1116.12
  -3  24  15 2193.26 1294.57
  -3 -24  15 1655.05  786.76
   3  24 -14 -683.00  458.10
  -3  24  14 1569.48  714.89
  -3 -24  14  -28.60  313.32
   3  24 -13 1344.18 1039.88
  -3  24  13 1619.40  822.00
  -3 -24  13 1683.54  711.31
   3  24 -12 4502.93 1412.77
  -3  24  12 4277.07 1475.19
  -3 -24  12 3880.47  893.51
   3  24 -11 2103.03  903.99
  -3  24  11  811.59  907.12
  -3 -24  11  621.90  526.64
   3  24 -10 1629.87  927.99
  -3  24  10 1340.07  864.27
  -3 -24  10  645.52  499.44
   3  24  -9 1553.68  971.31
  -3  24   9 1334.16  647.76
  -3 -24   9  924.66  510.28
   3 -24  -8  983.95  565.08
   3  24  -8 -171.92  717.24
  -3 -24   8  179.27  327.74
   3 -24  -7 -840.37  641.78
   3  24  -7 1283.33  599.42
  -3 -24   7  -15.66  268.47
   3 -24  -6 1639.81  932.25
   3  24  -6 1464.76  645.13
  -3 -24   6  791.40  381.11
   3 -24  -5  425.07  589.20
   3  24  -5  991.64  653.15
  -3 -24   5  135.79  240.19
   3 -24  -4  399.88  506.97
   3  24  -4 -340.06  543.76
   3 -24  -3  349.16  622.85
   3  24  -3 1283.01  765.28
   3 -24  -2  157.68  383.59
   3  24  -2  651.20  671.06
   3 -24  -1  248.25  636.13
   3  24  -1 2438.84  823.52
   3 -24   0  884.90  560.79
   3  24   0 3877.41  752.34
   3 -24   1  391.66  416.93
   3  24   1 -396.19  587.06
   3 -24   2  206.03  571.09
   3  24   2 1837.63  595.74
   3 -24   3 -276.37  266.34
   3  24   3 1218.55  439.10
   3 -24   4 3382.64  824.83
   3  24   4 4782.28 1260.98
   3 -24   5  483.54  348.86
   3  24   5 2342.49  823.40
   3 -24   6 2576.59  655.65
   3  24   6 2530.44 1047.85
   3 -24   7  290.30  259.73
   3  24   7  589.75  673.36
   3 -24   8 1570.04  502.62
   3  24   8 2273.02  743.41
   3 -24   9  170.87  224.51
   3  24   9  313.13  586.88
   3 -24  10  350.33  367.88
   3  24  10 1646.37  726.08
   3 -24  11  767.79  303.19
   3  24  11 2027.24  788.94
   3 -24  12 3052.85  644.59
   3  24  12 3329.44 1153.08
   3 -24  13  -50.73  373.57
   3  24  13  979.76  503.01
   3 -24  14  527.84  453.33
   3  24  14 1196.44  593.21
   3 -24  15  388.79  316.32
   3  24  15  976.57  683.29
   3 -24  16 1706.85  577.30
   3  24  16  984.17  665.92
   3  25 -17 1490.84  976.19
  -3  25  17  768.73 1043.18
  -3 -25  17 1941.30  981.05
   3  25 -16  244.54  797.99
  -3  25  16  850.91  767.60
  -3 -25  16  349.74  461.84
   3  25 -15 -164.13  826.36
  -3  25  15 2239.65 1046.44
  -3 -25  15  543.38  651.94
   3  25 -14 1296.80 1012.35
  -3  25  14 1532.99 1084.80
  -3 -25  14  655.30  682.33
   3  25 -13  853.61  800.40
  -3  25  13 2617.43  879.70
  -3 -25  13 1926.25  772.84
   3  25 -12 1486.19  792.87
  -3  25  12  768.22 1135.28
  -3 -25  12 2171.66  684.50
   3  25 -11 1057.95 1077.86
  -3  25  11 1261.34 1061.54
  -3 -25  11 1728.57  475.42
   3  25 -10 -918.78  870.39
  -3  25  10 1600.16  583.45
  -3 -25  10  324.85  481.07
   3 -25  -9  222.31  431.23
   3  25  -9  162.22  892.04
  -3 -25   9 1419.08  479.98
   3 -25  -8 1172.02  828.08
   3  25  -8 2776.63 1028.08
  -3 -25   8 1205.07  479.32
   3 -25  -7  191.36  597.49
   3  25  -7 -338.09  739.93
  -3 -25   7  529.69  339.16
   3 -25  -6  916.11  859.54
   3  25  -6  881.48  942.94
  -3 -25   6 1302.44  387.05
   3 -25  -513542.20 2134.54
   3  25  -511126.45 2290.76
   3 -25  -4  794.00  776.97
   3  25  -4 2078.70  919.81
   3 -25  -3 1361.72  651.76
   3  25  -3 3604.27 1070.62
   3 -25  -2   76.44  476.21
   3  25  -2   69.13  617.33
   3 -25  -1  849.41  478.14
   3  25  -1  327.90  844.62
   3  25   0 -321.04  509.53
   3  25   1 1762.23  750.28
   3 -25   2  -79.29  390.02
   3  25   2  400.82  459.74
   3 -25   3 1661.70  759.02
   3  25   3 5579.03 1194.73
   3 -25   4 1340.94  574.81
   3  25   4 1025.08  939.85
   3 -25   5  991.07  570.62
   3  25   5 1693.51  698.36
   3 -25   6 1183.51  528.21
   3  25   6 2065.69 1004.73
   3 -25   7  344.42  373.14
   3  25   7  192.71  694.47
   3 -25   8  537.85  296.94
   3  25   8 1512.11  837.62
   3 -25   9 -342.77  309.04
   3  25   9  797.25  595.64
   3 -25  10 -376.48  235.43
   3  25  10 1412.88  665.33
   3 -25  11  152.25  259.99
   3  25  11 2085.05  766.39
   3 -25  12  224.40  397.57
   3  25  12  893.93  739.21
   3 -25  13 -113.67  328.11
   3  25  13  229.16  612.19
   3 -25  14   39.52  293.23
   3  25  14 1705.77  735.16
   3 -25  15   40.94  263.26
   3  25  15  150.88  470.32
   3  26 -16  996.15  928.89
  -3  26  16 1021.55  856.07
  -3 -26  16  571.90  550.74
   3  26 -15  128.33  932.33
  -3  26  15 1624.40 1153.20
  -3 -26  15  996.89  724.18
   3  26 -14  800.49 1000.22
  -3  26  14 1670.61 1062.93
  -3 -26  14  369.49  674.75
   3  26 -13  784.04 1097.66
  -3  26  13 2319.65  871.72
  -3 -26  13 1052.01  764.88
   3  26 -12 2690.96 1267.03
  -3  26  12 2582.87 1279.68
  -3 -26  12 1945.79  790.97
   3  26 -11 1526.21 1221.84
  -3  26  11 3475.42 1207.43
  -3 -26  11 1712.50  735.30
   3 -26 -10  -31.61  370.73
   3  26 -10  465.26  730.48
  -3 -26  10  287.43  422.58
   3 -26  -9 2476.43 1291.04
   3  26  -9 1415.21 1157.65
  -3 -26   9 1451.45  623.16
   3 -26  -8 -791.20  854.86
   3  26  -8  326.85  766.69
  -3 -26   8  437.19  355.52
   3 -26  -7  247.05  720.27
   3  26  -7-1058.85  787.60
   3 -26  -6  325.64  805.43
   3  26  -6 1121.55  871.72
   3 -26  -5   43.71  577.43
   3  26  -5 1988.50  842.19
   3 -26  -4  588.16  613.28
   3  26  -4 2932.52  984.28
   3 -26  -3 -421.24  606.59
   3  26  -3 1108.39  703.80
   3  26  -2 2007.55 1146.09
   3 -26  -1   63.77  345.45
   3  26  -1 -152.23  440.90
   3 -26   0 1682.76  733.82
   3  26   0  846.24  710.61
   3 -26   1 4148.03  785.90
   3  26   1 2479.20 1003.28
   3 -26   2   31.51  427.04
   3  26   2 -401.65  647.25
   3 -26   3   -1.28  485.80
   3  26   3 1132.24  735.38
   3 -26   4 1156.01  461.01
   3  26   4 1816.43  988.28
   3 -26   5 2811.85  786.43
   3  26   5 2125.73 1229.19
   3 -26   6 1316.41  401.81
   3  26   6  911.12  751.54
   3 -26   7 3126.85  773.76
   3  26   7 4683.63 1039.44
   3 -26   8  621.95  428.33
   3  26   8  489.03  852.38
   3 -26   9  291.80  285.13
   3  26   9  770.99  605.18
   3 -26  10 1425.21  540.03
   3  26  10 1946.37 1035.78
   3 -26  11 1472.30  556.00
   3  26  11 2746.66 1158.25
   3 -26  12  452.33  445.96
   3  26  12  723.55  666.17
   3 -26  13  372.05  318.51
   3  26  13  666.93  843.34
   3 -26  14  659.43  390.68
   3  26  14 2071.11  984.83
   3  27 -15 1872.61 1002.59
  -3  27  15 1574.56 1234.03
  -3 -27  15  160.61  795.40
   3  27 -14 1115.17 1205.26
  -3  27  14 2090.60 1282.17
  -3 -27  14 1217.10  828.04
   3  27 -13 1960.68 1094.07
  -3  27  13  909.95  853.89
  -3 -27  13 1037.28  767.34
   3  27 -12 1081.95 1332.55
  -3  27  12 3928.51 1386.07
  -3 -27  12 2520.70  656.29
   3 -27 -11  424.36  782.17
   3  27 -11  236.61  888.79
  -3 -27  11  481.60  527.04
   3 -27 -10 1719.65 1216.66
   3  27 -10 1289.03 1023.73
  -3 -27  10  548.89  586.08
   3 -27  -9 2145.78 1755.65
   3  27  -9 4833.23 1590.60
   3 -27  -8 2192.18 1294.21
   3  27  -8 2626.45 1331.50
   3 -27  -7 2027.07 1090.86
   3  27  -7 1239.97  848.82
   3 -27  -6  398.60  702.17
   3  27  -6 -147.46  731.55
   3 -27  -5 -259.38  648.15
   3  27  -5  640.03  700.52
   3 -27  -4  -13.91  764.07
   3  27  -4 1253.98  850.49
   3 -27  -3 1376.93 1098.93
   3  27  -3 4282.22 1265.71
   3 -27  -2  232.74  515.64
   3  27  -2  738.30  593.79
   3  27  -1  904.64  737.05
   3  27   0 8771.19 1563.82
   3 -27   1  -16.90  394.56
   3  27   1  469.69  524.80
   3 -27   2  128.46  503.22
   3  27   2  470.50  749.12
   3 -27   3   16.11  412.54
   3  27   3  -86.74  623.12
   3 -27   4  806.51  473.18
   3  27   4 1674.38  713.70
   3 -27   5  877.30  585.80
   3  27   5  816.07  954.34
   3 -27   6  306.23  496.00
   3  27   6 1313.45  874.24
   3 -27   7 1821.48  484.29
   3  27   7 1645.79 1196.34
   3 -27   8  767.85  528.07
   3  27   8 1583.90  963.64
   3 -27   9 1027.05  510.73
   3  27   9  591.23  994.27
   3 -27  10  189.25  436.77
   3  27  10 1292.51  912.78
   3 -27  11  -62.55  246.24
   3  27  11  168.50  469.31
   3 -27  12  350.89  368.77
   3  27  12 2145.34  980.43
   3 -27  13  540.47  567.09
   3  27  13 3020.31 1200.04
  -3  28  14 2544.55 1334.73
  -3 -28  14  917.74  886.17
   3  28 -13   51.13 1042.20
   3  28 -13  431.10  742.98
  -3  28  13 1293.90  769.41
  -3 -28  13  545.36  715.60
   3 -28 -12 1474.66 1065.30
   3  28 -12  975.66  844.18
   3 -28 -11 1227.80 1079.99
   3  28 -11 1659.31 1196.87
   3 -28 -10 1976.68 1493.84
   3  28 -10 1462.39  895.66
   3 -28  -9  340.60  961.25
   3  28  -9  766.57  995.82
   3 -28  -8 1484.03 1270.22
   3  28  -8 2439.09 1302.01
   3 -28  -7 1208.25  795.45
   3  28  -7 1205.38 1134.38
   3 -28  -6  708.11  641.21
   3  28  -6  639.77  965.20
   3 -28  -5  963.40  911.52
   3  28  -5 5159.48 1337.81
   3 -28  -4  101.00  575.01
   3  28  -4 1421.35  880.06
   3 -28  -3  869.74 1257.56
   3  28  -3 4477.79 1037.78
   3 -28  -2  218.02  858.73
   3  28  -2 1418.84  719.52
   3 -28  -1 1296.81  809.59
   3  28  -1  525.38  730.34
   3 -28   0 2024.13  962.17
   3  28   0 1312.57 1220.85
   3 -28   1  446.20  457.68
   3  28   1  931.67  881.57
   3 -28   2 4693.66 1218.04
   3  28   2 6604.38 1704.58
   3 -28   3 1257.19  670.90
   3  28   3  179.88  969.26
   3 -28   4 2542.65  658.16
   3  28   4 2989.48 1308.46
   3 -28   5  146.31  335.49
   3  28   5  142.26  534.16
   3 -28   6 -583.26  565.14
   3  28   6 -915.45  912.70
   3 -28   7  219.39  546.06
   3  28   7 1520.89  917.88
   3 -28   8 2889.61  633.18
   3  28   8 6109.22 1569.68
   3 -28   9  603.21  379.08
   3  28   9  861.41  923.26
   3 -28  10 2191.35  532.04
   3  28  10 1509.52  932.24
   3 -28  11  358.72  488.11
   3  28  11  645.56  961.18
   3 -28  12  168.75  499.23
   3  28  12  696.20  650.91
   3 -29 -13 1539.63 1253.70
   3 -29 -12 1125.91 1526.53
   3 -29 -11  913.71 1223.31
   3  29 -11 2515.31 1325.11
   3 -29 -10 2001.60 1185.12
   3  29 -10   10.71 1152.13
   3 -29  -9  836.52 1226.53
   3  29  -9 1568.17 1245.60
   3 -29  -8 2088.25 1023.79
   3  29  -8 1826.57 1425.03
   3 -29  -7 1646.09 1224.20
   3  29  -7 1926.20 1319.90
   3 -29  -6 -361.19  817.29
   3  29  -6 -169.64  857.99
   3 -29  -5  794.87 1091.05
   3  29  -5 2069.32 1181.69
   3 -29  -4  966.61  948.93
   3  29  -4  972.30  759.34
   3 -29  -3 2450.76 1199.17
   3  29  -3 2091.05  934.24
   3 -29  -2 2836.66 1064.16
   3  29  -2 1633.53  924.51
   3 -29  -1  807.46  789.20
   3  29  -1  607.70  709.38
   3 -29   0  332.16  479.77
   3  29   0  243.99  862.36
   3 -29   1 -429.42  359.09
   3  29   1 1426.76  694.60
   3 -29   2 1068.21  775.61
   3  29   2 1440.71 1105.74
   3 -29   3  754.69  674.55
   3  29   3  629.30  689.54
   3 -29   4 1215.85  835.27
   3  29   4 2645.35 1209.02
   3 -29   5  486.48  451.93
   3  29   5 1098.62  915.73
   3 -29   6  497.95  411.42
   3  29   6  129.58  632.23
   3 -29   7 3667.40  923.38
   3  29   7 2735.70 1117.24
   3 -29   8  812.22  568.44
   3  29   8  183.04  703.75
   3 -29   9  658.34  576.13
   3  29   9  513.75 1003.90
   3 -29  10  614.45  645.59
   3  29  10 1901.31 1040.64
   3  29  11  632.26  718.51
   3 -30 -11 1994.17 1574.96
   3 -30 -10  950.49 1281.55
   3 -30  -9   17.07  597.82
   3 -30  -8  451.63 1078.43
   3  30  -8  979.94 1140.68
   3 -30  -7 1366.23 1244.41
   3  30  -7 1500.08  964.03
   3 -30  -6 2383.31 1261.12
   3  30  -6 1301.02  998.90
   3 -30  -5 1804.47  908.60
   3  30  -5 2353.02 1356.94
   3 -30  -4  240.52  650.98
   3  30  -4 1278.04  960.32
   3 -30  -3  697.33  690.69
   3  30  -3 1030.80 1044.30
   3 -30  -2 1429.28  707.92
   3  30  -2 1322.36  842.75
   3 -30  -1  180.08  540.73
   3  30  -1 1016.59  906.74
   3 -30   0  564.69  488.22
   3  30   0   84.11  962.44
   3 -30   1 -125.89  676.07
   3  30   1 1529.19  910.49
   3  30   2 1496.11 1103.21
   3 -30   2  854.07  792.87
   3 -30   3 1118.15  788.69
   3  30   3  999.70 1080.48
   3 -30   4 2082.24  832.32
   3  30   4 -116.27 1146.12
   3 -30   5 4488.99 1283.61
   3  30   5 7479.18 1849.87
   3  30   6 2100.62 1488.63
   3 -30   6 3446.06  774.32
   3 -30   7 2327.70  654.41
   3  30   7 1944.52 1365.44
   3 -30   8 1059.97  523.89
   3  30   8  863.99 1097.49
   3 -30   9  831.74  646.71
   3  30   9  -65.16  997.39
   3 -31  -9 -524.14 1113.35
   3 -31  -8 1044.90 1221.69
   3 -31  -7 1202.62  898.29
   3 -31  -6 2319.29 1384.02
   3 -31  -5 1410.03 1069.39
   3  31  -5  624.71 1205.19
   3 -31  -4 1284.29  938.44
   3  31  -4 -138.20 1033.60
   3 -31  -3 1870.39 1074.29
   3  31  -3 1467.77 1317.57
   3 -31  -2  188.43  712.13
   3  31  -2  300.53  637.29
   3 -31  -1 2327.54 1098.77
   3  31  -1 3831.66 1512.85
   3 -31   0 1245.77  839.64
   3  31   0  764.61 1157.26
   3 -31   1  107.94  683.44
   3  31   1 1097.02  983.02
   3 -31   2  807.02  784.18
   3 -31   3  239.59  679.04
   3  31   3  728.65  957.20
   3 -31   4  989.71  801.02
   3  31   4 1329.58 1115.20
   3 -31   5 1888.76 1020.25
   3  31   5 3035.66 1061.40
   3 -31   6  769.27  787.24
   3  31   6 1311.67 1082.43
   3 -31   7 1151.54  817.31
   3  31   7 1492.88 1177.63
   3 -32  -6  339.64  893.06
   3 -32  -5 1424.58  864.81
   3 -32  -4  642.29  868.63
   3 -32  -3  623.09  859.90
   3 -32  -2  428.67  804.37
   3 -32  -1 1475.10  916.28
   3  32  -1 1227.05 1257.27
   3 -32   0 1063.21  883.11
   3  32   0 1205.43 1228.56
   3 -32   1  687.84  778.05
   3  32   1  637.49  796.29
   3 -32   2  290.12  843.45
   3  32   2 2210.25 1142.57
   3 -32   3 1831.84  964.87
   3  32   3 1222.66  945.32
   3 -32   4  508.19  804.07
   3  32   4 1666.49 1111.10
   4   0 -25   33.62  247.81
  -4   0  25  821.13  814.58
   4   0 -24 2045.32  597.79
  -4   0  24 3660.67 1048.23
   4   0 -23  222.30  351.00
  -4   0  23  996.10  849.94
   4   0 -22  822.21  352.65
  -4   0  22 2985.42 1002.96
   4   0 -21  187.22  250.80
  -4   0  21   77.63  505.39
   4   0 -20  -43.70  224.14
  -4   0  20  893.89  484.58
   4   0 -19 -115.82  225.64
  -4   0  19  100.63  434.48
   4   0 -18  -52.53  229.80
  -4   0  18 -616.87  448.67
   4   0 -17 -189.36  252.92
  -4   0  17  -18.41  425.58
   4   0 -16 5561.10  852.10
  -4   0  16 6083.20 1318.94
   4   0 -15  252.41  363.52
  -4   0  15  -57.85  374.91
   4   0 -14 8305.34  868.81
  -4   0  1410303.23 1529.55
   4   0 -13  292.28  366.84
  -4   0  13  -40.86  464.72
   4   0 -12 3357.79  727.68
  -4   0  12 4568.86  945.12
   4   0 -11    9.54  349.73
  -4   0  11  249.61  400.64
   4   0 -1011281.90 1249.84
  -4   0  1011131.58 1125.42
   4   0  -9  -22.12  352.06
  -4   0   9  125.37  263.51
   4   0  -8  404.90  304.31
  -4   0   8  613.87  420.42
   4   0  -7  184.27  259.74
  -4   0   7  157.32  263.04
   4   0  -618472.96 1881.88
  -4   0   620381.85 1823.37
   4   0  -5    7.86  289.82
  -4   0   5  -36.76  281.12
   4   0  -471556.63 6216.31
  -4   0   478706.05 6443.53
   4   0  -3 -315.99  267.96
  -4   0   3  216.60  252.04
   4   0  -2  627.77  302.33
  -4   0   2   67.64  275.24
   4   0  -1   -9.93  258.83
  -4   0   1  165.81  221.73
   4   0   018165.66 1428.02
  -4   0   017916.57 1285.67
   4   0   1   99.22  220.03
   4   0   216555.42 1053.37
   4   0   216067.64  984.88
   4   0   3  -28.87  172.09
   4   0   3   25.58  117.91
   4   0   4 2023.01  250.38
   4   0   4 1829.87  311.68
   4   0   5   11.96   90.63
   4   0   5   50.07  152.17
   4   0   6 1623.37  173.64
   4   0   6 1113.07  264.86
   4   0   7  146.04  107.70
   4   0   8 1516.52  222.37
  -4   0  -8 1682.17  353.13
   4   0   9  -56.48  131.38
  -4   0  -9  -18.33  223.79
   4   0  10 9730.12  676.25
  -4   0 -1010365.00 1019.20
   4   0  11  -91.81  155.12
  -4   0 -11  131.29  264.35
   4   0  12 3659.52  423.37
  -4   0 -12 2421.63  644.46
   4   0  13   96.03  205.03
  -4   0 -13  182.04  327.22
   4   0  14 1732.73  365.23
  -4   0 -14 1357.20  588.68
   4   0  15  132.46  291.73
  -4   0 -15  334.93  350.87
   4   0  16  132.81  368.34
  -4   0 -16 1486.79  459.27
   4   0  17   43.22  398.95
  -4   0 -17  683.99  428.04
   4   0  18 5240.73  856.39
  -4   0 -18 3230.18  913.27
   4   0  19 1156.43  542.53
  -4   0 -19  -71.87  522.39
  -4   0 -20 1831.03  771.41
  -4   0 -21  744.90  650.67
  -4   0 -22  364.18  609.87
  -4   0 -23 1450.04  893.53
   4  -1 -25  734.34  458.62
   4   1 -25  723.34  345.38
  -4  -1  25 2017.43  819.98
  -4   1  25  158.76  805.42
   4   1 -24 -371.92  315.56
   4  -1 -24   11.09  317.59
  -4   1  24  882.81  767.90
  -4  -1  24 2287.83  766.21
   4   1 -23 1041.98  432.17
   4  -1 -23  137.80  283.59
  -4  -1  23 2399.95  923.55
  -4   1  23  832.73  921.20
   4   1 -22 2756.90  569.25
   4  -1 -22 1493.00  371.09
  -4   1  22 2344.41  876.89
  -4  -1  22 1937.00  873.15
   4   1 -21 4103.21  793.80
   4  -1 -21 6781.16  841.00
  -4  -1  21 4594.68 1602.63
  -4   1  21 3326.86 1154.22
   4   1 -20 1786.90  549.17
   4  -1 -20 1584.80  503.85
  -4   1  20 1751.58 1023.89
  -4  -1  20 1388.27 1028.32
   4  -1 -19 9523.98 1086.08
   4   1 -19 8529.27 1060.03
  -4  -1  19 8952.57 1929.64
  -4   1  19 8752.54 1885.46
   4   1 -18 2989.91  726.49
   4  -1 -18 3374.79  643.04
  -4  -1  18 3857.83 1198.98
  -4   1  18 3449.73  879.68
   4   1 -17 2659.24  640.31
   4  -1 -17 2993.31  554.65
  -4  -1  17 1433.60 1008.90
  -4   1  17 2253.84  770.66
   4   1 -16  883.10  407.91
   4  -1 -16 2351.04  543.39
  -4   1  16 3766.08  893.87
  -4  -1  16 2403.60  877.48
   4   1 -15 3224.76  747.86
   4  -1 -15 4160.07  479.65
  -4  -1  15 2199.48  763.94
  -4   1  15 2504.63  760.87
   4   1 -14 4962.16  622.67
   4  -1 -14 4586.08  808.74
  -4   1  14 3670.03 1104.64
  -4  -1  14 3524.55 1081.73
   4   1 -13 2816.13  659.89
   4  -1 -13 2058.27  589.50
  -4  -1  13 2455.92  614.69
  -4   1  13 1682.55  799.70
   4   1 -12  149.57  316.69
   4  -1 -12 -258.88  281.31
  -4   1  12   30.93  369.11
  -4  -1  12  120.25  272.56
   4   1 -1113436.08 1541.52
   4  -1 -1114127.62 1418.44
  -4  -1  1115203.09 1385.11
  -4   1  1115006.62 1411.81
   4   1 -10 3914.84  636.29
   4  -1 -10 3753.58  723.42
  -4  -1  10 4394.38  844.57
  -4   1  10 4077.33  863.50
   4  -1  -9  132.23  425.18
   4   1  -9 1354.13  436.77
  -4  -1   9  170.81  426.81
  -4   1   9  158.54  442.92
   4   1  -8 -302.49  383.51
   4  -1  -8  109.79  372.54
  -4   1   8 -400.54  282.08
  -4  -1   8 -130.00  371.01
   4   1  -7 2167.50  676.67
   4  -1  -7 2870.87  620.04
  -4  -1   7 2454.52  619.52
  -4   1   7 2391.82  647.79
   4   1  -6 3962.02  855.16
   4  -1  -6 4776.70  784.09
  -4   1   6 4287.46  613.87
  -4  -1   6 6352.55  783.14
   4   1  -514806.62 1490.29
   4  -1  -514487.01 1417.32
  -4  -1   513882.53 1329.19
  -4   1   513375.35 1129.80
   4   1  -413684.53 1367.72
   4  -1  -413718.95 1293.19
  -4   1   412582.23 1262.61
  -4  -1   412515.76 1175.84
   4  -1  -314085.13 1281.05
   4   1  -312277.86 1289.80
  -4  -1   313342.42 1140.67
  -4   1   314077.27 1279.72
   4   1  -2   66.66  258.36
   4  -1  -2  287.55  240.92
  -4  -1   2 -293.91  189.78
  -4   1   2   26.17  238.40
   4  -1  -119929.15 1549.44
   4   1  -123636.79 1793.62
  -4  -1   121439.87 1469.90
  -4   1   120962.37 1595.16
   4   1   013034.22 1153.34
   4  -1   012755.58 1093.55
  -4   1   014735.13 1109.41
  -4  -1   014658.89  933.80
   4   1   1  469.61  204.17
   4  -1   1  415.05  255.15
  -4  -1  -1  385.61  175.89
   4   1   2 -158.25  215.25
   4   1   2   19.21  133.53
   4  -1   2  165.97  190.01
   4  -1   2  151.00  155.83
   4   1   3  423.66  249.09
   4   1   3  729.87  134.32
   4  -1   3  321.66  193.41
   4  -1   3  480.32  169.27
   4   1   4  410.34  232.90
   4  -1   4  334.59  204.92
   4  -1   4  539.73  181.25
   4   1   4  673.02  132.09
   4   1   5  790.76  146.58
   4   1   5  436.69  226.84
   4  -1   5  927.89  216.15
   4  -1   5  422.04  170.01
   4   1   6 8987.75  465.48
   4   1   6 9100.62  686.94
   4  -1   6 8901.95  559.27
   4  -1   6 9004.51  639.76
   4   1   7   87.66   94.55
   4  -1   7  176.10  136.41
   4  -1   8  854.87  195.90
   4   1   8  715.16  165.62
  -4  -1  -8  877.94  304.93
  -4   1  -8  774.62  288.14
   4  -1   9  693.22  204.86
   4   1   9 1048.44  184.67
  -4  -1  -9  723.01  337.72
  -4   1  -9  252.92  297.21
   4   1  10 7359.61  479.33
   4  -1  10 9482.06  642.51
  -4  -1 -10 7746.58  713.76
  -4   1 -10 9408.25  893.34
   4  -1  11  618.40  222.07
   4   1  11  724.74  206.87
  -4  -1 -11  138.62  274.30
  -4   1 -11  730.82  353.18
   4   1  12 4215.02  418.28
   4  -1  12 3524.75  416.09
  -4  -1 -12 2116.86  652.11
  -4   1 -12 1804.04  619.04
   4   1  13  -63.51  191.24
   4  -1  13  -15.99  208.75
  -4  -1 -13  647.98  349.91
  -4   1 -13  318.20  325.97
   4  -1  14   16.02  165.82
   4   1  14 -179.44  201.48
  -4  -1 -14   89.05  242.14
  -4   1 -14  147.33  254.96
   4   1  15 1165.13  458.15
   4  -1  15 2618.78  432.41
  -4  -1 -15 1687.08  680.83
  -4   1 -15 1893.17  552.54
   4  -1  16  398.73  398.73
   4   1  16  384.39  356.66
  -4  -1 -16 1813.08  473.77
  -4   1 -16  766.71  334.02
   4   1  17  889.40  412.77
   4  -1  17  187.99  395.92
  -4  -1 -17  518.67  335.17
  -4   1 -17  260.25  443.08
   4   1  18  276.64  559.31
   4  -1  18 1267.23  537.56
  -4  -1 -18 1271.78  570.25
  -4   1 -18 1093.63  557.60
   4  -1  19 1683.09  522.85
  -4   1 -19  -34.19  394.91
  -4  -1 -19  987.07  569.36
   4  -1  20  652.54  545.78
  -4  -1 -20 -124.58  385.17
  -4   1 -20  766.06  512.44
  -4  -1 -21 -191.79  384.62
  -4   1 -21  874.24  518.40
  -4  -1 -22   54.85  529.38
  -4   1 -22 1548.06  520.83
  -4   1 -23 1127.97  588.58
  -4  -1 -23  873.19  829.59
   4   2 -25  292.03  350.16
   4  -2 -25 1112.18  474.36
  -4  -2  25 1872.80  823.76
  -4   2  25 3521.99 1161.67
   4   2 -24   78.21  357.55
   4  -2 -24  168.54  276.07
  -4  -2  24  314.19  879.13
  -4   2  24 1765.23  660.20
   4   2 -23  974.19  479.76
   4  -2 -23  654.17  434.84
  -4  -2  23 2318.94  754.30
  -4   2  23 -185.86  739.10
   4   2 -22 5473.53  879.77
   4  -2 -22 5693.68  792.68
  -4   2  22 5428.21 1763.22
  -4  -2  22 7573.46 1795.47
   4   2 -21 1655.90  565.59
   4  -2 -21 1525.70  543.51
  -4  -2  21 2551.11  822.54
  -4   2  21 1087.22 1103.60
   4   2 -20 -218.97  304.68
   4  -2 -20   63.07  207.87
  -4  -2  20  304.68  438.43
  -4   2  20  124.28  587.02
   4   2 -19 4361.57  770.78
   4  -2 -19 5559.91  580.40
  -4  -2  19 4622.68 1467.20
  -4   2  19 4654.36 1441.15
   4   2 -18 2449.91  548.32
   4  -2 -18 3489.38  501.55
  -4  -2  18 4759.02 1180.20
  -4   2  18 3555.88 1163.73
   4   2 -17 1812.07  411.26
   4  -2 -17 1972.22  477.21
  -4  -2  17 1502.81  910.87
  -4   2  17  906.96  656.77
   4   2 -16 8365.45 1153.92
   4  -2 -16 6952.58  677.54
  -4  -2  16 8413.49 1526.92
  -4   2  16 7791.02 1508.53
   4   2 -1512157.04 1203.07
   4  -2 -1512967.66 1056.31
  -4  -2  1515525.38 1628.94
  -4   2  1512456.95 1524.01
   4   2 -14 3139.90  745.87
   4  -2 -14 3320.33  591.44
  -4  -2  14 3001.61  970.10
  -4   2  14 2212.37  943.82
   4   2 -13 9709.54 1250.43
   4  -2 -13 9861.61 1147.76
  -4  -2  1310426.41 1210.54
  -4   2  1310103.95 1540.26
   4   2 -12  226.79  414.05
   4  -2 -12  244.90  342.17
  -4   2  12  280.26  344.62
  -4  -2  12  283.63  476.39
   4   2 -11 1894.44  665.61
   4  -2 -11 1441.20  384.60
  -4  -2  11 2103.56  656.74
  -4   2  11 1709.34  683.27
   4   2 -1016084.22 1363.00
   4  -2 -1013103.34 1077.39
  -4  -2  1015015.22 1298.59
  -4   2  1011655.33 1258.67
   4   2  -9 7906.43 1142.31
   4  -2  -9 7109.34  937.86
  -4  -2   9 6657.98 1027.66
  -4   2   9 8084.65  870.76
   4   2  -8 1706.43  550.37
   4  -2  -8 1054.83  491.14
  -4  -2   8  512.76  492.61
  -4   2   8 1316.06  543.37
   4   2  -7 2401.35  674.26
   4  -2  -7 1975.90  555.86
  -4  -2   7 1540.75  544.02
  -4   2   7 2436.53  624.13
   4   2  -610870.17 1074.68
   4  -2  -611773.70 1219.82
  -4   2   611659.78 1279.42
  -4  -2   611031.81 1166.36
   4   2  -5 9836.44 1234.70
   4  -2  -5 8932.85 1085.56
  -4  -2   512539.46 1126.47
  -4   2   510279.56 1193.62
   4   2  -4 6567.15  749.83
   4  -2  -4 8195.97  928.50
  -4  -2   4 8753.53  760.08
  -4   2   4 7631.76  968.25
   4   2  -3 7166.85  967.47
   4  -2  -3 9819.30  929.00
  -4  -2   3 9425.12  855.08
  -4   2   3 8215.46  989.75
   4   2  -2  452.35  405.37
   4  -2  -2 1120.55  341.08
  -4  -2   2  831.81  305.03
   4  -2  -1 7615.91  733.18
   4   2  -1 8214.35  898.10
  -4  -2   1 6871.94  639.83
  -4   2   1 8211.53  828.64
   4   2   0 2530.43  553.51
   4  -2   0 4012.35  462.54
  -4  -2   0 3459.84  392.51
  -4   2   0 2740.07  511.37
   4  -2   1 6387.85  568.96
   4   2   1 5900.41  524.90
   4  -2   1 4482.02  453.06
  -4  -2  -1 5480.70  397.44
   4   2   2  337.46  114.96
   4  -2   2  -51.17  204.46
   4  -2   2  -34.47  200.76
   4   2   2  165.23  257.23
   4   2   3   60.57  211.19
   4   2   3   57.15   92.77
   4  -2   3   24.98  145.75
   4  -2   3  313.55  168.44
   4   2   4 6911.66  339.82
   4   2   4 6560.84  635.09
   4  -2   4 8173.45  575.76
   4  -2   4 6844.05  544.64
   4  -2   5 5417.26  423.49
   4   2   5 5202.43  272.48
   4   2   5 4427.89  499.87
   4  -2   5 5250.79  449.27
   4   2   6   43.20   79.45
   4   2   6  214.83  173.75
   4  -2   6  -28.24  147.22
   4  -2   6  188.22  143.03
   4   2   7 3629.82  229.94
   4   2   7 4066.51  368.32
   4  -2   7 3391.22  343.19
  -4   2  -7 2591.15  439.91
   4   2   8  238.30  117.73
   4  -2   8    6.08  159.52
  -4  -2  -8  157.10  255.38
  -4   2  -8  339.94  223.35
   4   2   9  -16.63  117.86
   4  -2   9   10.51  155.56
  -4  -2  -9 -144.11  171.21
  -4   2  -9  -98.01  202.93
   4   2  10 2191.87  257.01
   4  -2  10 1294.94  296.64
  -4  -2 -10 2000.50  463.03
  -4   2 -10 1579.43  408.00
   4   2  1114507.71  873.04
   4  -2  1113467.84  939.12
  -4  -2 -1111743.52 1264.18
  -4   2 -11 9130.98 1143.99
   4   2  12  415.33  180.90
   4  -2  12  245.61  239.58
  -4   2 -12  547.76  346.39
  -4  -2 -12  598.59  390.68
   4   2  13 4953.51  477.68
   4  -2  13 5852.73  561.62
  -4  -2 -13 2343.03  617.22
  -4   2 -13 4778.44  796.47
   4   2  14 1976.04  397.03
   4  -2  14 2335.05  416.40
  -4   2 -14 1485.51  360.80
  -4  -2 -14  664.79  636.92
   4   2  15 1061.84  399.96
   4  -2  15 1243.10  364.95
  -4  -2 -15  321.40  405.25
  -4   2 -15 1236.08  446.32
   4   2  16  622.54  349.55
   4  -2  16  923.81  363.99
  -4  -2 -16  111.31  557.68
  -4   2 -16 1127.45  449.70
   4  -2  17  772.63  535.24
   4   2  17 1990.05  574.41
  -4  -2 -17  709.76  596.69
  -4   2 -17 1569.88  412.78
   4  -2  18  117.42  463.62
  -4  -2 -18 1504.15  549.92
  -4   2 -18  775.01  515.73
   4  -2  19 6652.44  996.92
  -4   2 -19 3972.22  956.21
  -4  -2 -19 3556.51  770.02
   4  -2  20  434.24  583.58
  -4  -2 -20  589.78  623.92
  -4   2 -20 1144.93  588.10
   4  -2  21 3092.86  981.73
  -4  -2 -21 1717.36  929.99
  -4   2 -21 2494.90  898.38
  -4  -2 -22  292.83  691.49
  -4   2 -22  844.60  657.59
  -4   2 -23  685.66  727.16
  -4  -2 -23  635.05  758.24
   4  -3 -25 1963.55  462.87
  -4  -3  25 2879.90 1440.93
  -4   3  25 2873.25 1088.82
   4   3 -24 1219.55  556.92
   4  -3 -24  863.18  489.03
  -4  -3  24 2384.96  864.17
  -4   3  24 2160.30 1207.89
   4   3 -23 2848.32  659.37
   4  -3 -23 2053.55  599.23
  -4  -3  23 2942.94 1373.06
  -4   3  23 3120.25 1396.76
   4   3 -22  940.71  399.77
   4  -3 -22  107.20  267.65
  -4  -3  22  833.25  587.76
  -4   3  22  570.32  849.75
   4   3 -21  456.52  411.73
   4  -3 -21  389.85  335.83
  -4  -3  21  735.99  773.26
  -4   3  21  142.31  581.21
   4   3 -20 1161.20  435.28
   4  -3 -20  543.01  404.68
  -4  -3  20  608.37  793.27
  -4   3  20  -40.77  601.81
   4  -3 -19  286.73  319.46
   4   3 -19  142.01  290.22
  -4  -3  19  165.59  468.25
  -4   3  19  498.35  668.33
   4   3 -18 2631.85  472.44
   4  -3 -18 1914.80  394.96
  -4   3  18 2316.84 1022.95
  -4  -3  18 1848.63  722.27
   4   3 -1712640.71 1646.41
   4  -3 -1713761.35 1076.24
  -4  -3  1713662.40 1635.08
  -4   3  1712084.76 1652.85
   4   3 -16  629.79  367.15
   4  -3 -16  636.14  260.55
  -4  -3  16  938.28  483.40
  -4   3  16  390.54  691.81
   4   3 -15  238.96  403.82
   4  -3 -15   88.71  223.27
  -4  -3  15  -38.04  360.01
  -4   3  15  340.80  383.86
   4   3 -14  671.52  403.05
   4  -3 -14 1309.84  418.83
  -4  -3  14 1222.67  673.97
  -4   3  14 1108.64  508.22
   4   3 -13  -93.10  256.13
   4  -3 -13  301.89  249.24
  -4  -3  13 -205.12  287.89
  -4   3  13    6.00  308.95
   4   3 -12 -153.81  345.47
   4  -3 -12  837.85  292.17
  -4   3  12  772.92  409.07
  -4  -3  12 1369.59  535.38
   4   3 -11  391.74  542.84
   4  -3 -11 1110.70  401.08
  -4  -3  11  423.37  546.34
  -4   3  11 1069.74  558.82
   4   3 -10 6634.83 1152.16
   4  -3 -10 8270.23  941.79
  -4   3  10 7786.82 1221.59
  -4  -3  10 9151.59 1181.62
   4   3  -9 3080.46  682.31
   4  -3  -9 1227.93  527.15
  -4  -3   9 2462.45  614.26
  -4   3   9 1934.57  688.31
   4   3  -8  894.78  393.73
   4  -3  -8 1142.91  411.47
  -4   3   8  851.89  393.08
  -4  -3   8 1162.30  480.14
   4   3  -7 1495.89  591.25
   4  -3  -7 1689.25  477.30
  -4  -3   7 1629.37  473.97
  -4   3   7  857.76  417.70
   4   3  -6 9970.66  966.63
   4  -3  -6 9674.46 1069.35
  -4  -3   610086.49 1057.79
  -4   3   6 9373.43 1212.11
   4   3  -5  326.64  350.02
   4  -3  -5 -219.52  285.15
  -4  -3   5  225.26  275.68
  -4   3   5  191.28  344.27
   4   3  -4 1017.51  466.57
   4  -3  -4 1280.85  400.59
  -4  -3   4  972.84  370.97
  -4   3   4  725.36  465.53
   4   3  -3 8662.08  826.50
   4  -3  -3 9689.58  912.05
  -4  -3   3 9057.93  799.21
  -4   3   3 9201.06 1030.20
   4   3  -2 2991.20  759.07
   4  -3  -2 5629.28  620.10
  -4   3   2 5117.00  551.41
  -4  -3   2 5752.53  531.53
   4   3  -1  -10.55  340.36
   4  -3  -1  625.55  239.59
  -4  -3   1  185.48  180.83
  -4   3   1  651.46  235.93
   4   3   0  476.72  286.85
   4  -3   0  305.94  217.44
  -4   3   0   10.10  265.78
  -4  -3   0  100.01  143.49
   4  -3   1  922.50  247.78
   4   3   1  331.32  349.73
   4   3   1  864.56  238.22
   4  -3   1  450.72  248.61
  -4  -3  -1  874.42  204.42
   4   3   2 1315.10  375.47
   4   3   2  875.38  242.75
   4   3   2  903.36  150.94
   4  -3   2 1220.88  274.33
   4  -3   2  953.81  299.36
   4   3   316266.57 1103.56
   4   3   323322.25 1057.56
   4  -3   323922.59 1537.52
   4  -3   324016.89 1503.08
   4   3   319545.25 1532.80
   4   3   4  149.66  104.76
   4   3   4  407.19  193.64
   4   3   4  365.76  234.04
   4  -3   4  359.08  173.37
   4  -3   4  770.60  200.24
   4  -3   5  448.62  165.95
   4   3   5  171.07   75.52
   4   3   5  182.89  218.30
   4  -3   5  403.88  137.79
   4   3   6 2265.80  154.15
   4   3   6 2254.30  265.35
   4  -3   6 1133.35  299.37
   4  -3   6 2469.08  247.64
   4   3   7 3905.82  272.97
   4   3   7 4157.04  384.01
   4  -3   7 4229.44  400.93
  -4   3  -7 4140.42  455.82
   4  -3   8  526.90  216.87
  -4  -3  -8  923.83  248.35
  -4   3  -8 1046.79  274.60
   4   3   919518.78 1005.17
   4  -3   920016.81 1261.57
  -4  -3  -917439.61 1567.75
  -4   3  -917312.81 1362.22
   4   3  10 1676.79  192.16
   4  -3  10 1314.28  285.40
  -4  -3 -10  842.92  424.93
  -4   3 -10  668.40  370.95
   4   3  11  203.43  158.95
   4  -3  11  234.05  202.09
  -4  -3 -11   95.06  306.86
  -4   3 -11   -2.31  266.90
   4   3  12  326.98  195.18
   4  -3  12  993.12  258.37
  -4  -3 -12   48.95  290.20
  -4   3 -12  908.11  348.77
   4   3  13  174.63  224.23
   4  -3  13  784.68  249.00
  -4  -3 -13  428.49  400.41
  -4   3 -13 -329.95  284.60
   4   3  14 3793.62  568.29
   4  -3  14 4661.06  571.38
  -4   3 -14 3231.02  624.81
  -4  -3 -14 3161.02  809.54
   4   3  15  225.97  296.60
   4  -3  15 1211.16  337.71
  -4  -3 -15  736.46  511.19
  -4   3 -15  478.65  391.18
   4   3  16  257.40  402.26
   4  -3  16  948.07  347.48
  -4  -3 -16 -180.38  383.24
  -4   3 -16  971.61  408.07
   4  -3  17  194.82  263.66
  -4  -3 -17  589.87  533.78
  -4   3 -17  476.13  405.85
   4  -3  18 7039.42  929.04
  -4  -3 -18 4144.51  772.06
  -4   3 -18 4705.89  727.14
   4  -3  19   46.50  403.78
  -4  -3 -19  789.70  464.29
  -4   3 -19 -312.57  423.70
   4  -3  20   49.54  539.08
  -4  -3 -20  462.42  581.66
  -4   3 -20  806.22  527.53
   4  -3  21  982.22  641.99
  -4  -3 -21 1321.57  689.62
  -4   3 -21  110.01  639.28
   4  -3  22 1105.91  774.01
  -4  -3 -22  -87.34  729.32
  -4   3 -22 1246.08  684.33
  -4  -3 -23 1056.79  828.20
  -4   3 -23  865.01  769.32
   4   4 -25  560.69  294.96
   4  -4 -25  162.42  298.39
  -4   4  25 1658.74 1024.21
  -4  -4  25  284.18  974.29
   4   4 -24  554.57  457.67
   4  -4 -24  144.96  405.66
  -4  -4  24 1154.97  932.39
  -4   4  24 1963.29 1011.12
   4  -4 -23  486.65  301.38
   4   4 -23 1055.47  448.92
  -4   4  23  916.85  722.06
  -4  -4  23  706.28  687.36
   4   4 -22  228.22  409.54
   4  -4 -22  193.28  350.73
  -4  -4  22 2178.80  784.33
  -4   4  22   68.97  605.51
   4   4 -21  425.00  295.77
   4  -4 -21  274.48  336.74
  -4  -4  21  433.44  561.07
  -4   4  21  382.23  596.69
   4   4 -20  -37.07  259.69
   4  -4 -20  438.76  227.84
  -4  -4  20  394.19  670.72
  -4   4  20  355.65  531.01
   4  -4 -1910853.64 1125.16
   4   4 -1910458.72 1027.66
  -4   4  19 8535.85 1511.87
  -4  -4  19 7650.89 1930.91
   4   4 -18  595.67  417.51
   4  -4 -18  252.01  333.53
  -4  -4  18  310.56  665.47
  -4   4  18  807.26  698.53
   4  -4 -17 7585.64  871.77
   4   4 -17 8358.27  982.61
  -4   4  17 9283.02 1320.75
  -4  -4  17 8217.69 1234.70
   4   4 -16 5338.03  988.88
   4  -4 -16 6254.79  588.61
  -4  -4  16 4001.46  958.21
  -4   4  16 4943.25 1362.20
   4   4 -15 2602.58  520.13
   4  -4 -15 2041.22  356.90
  -4   4  15 2288.62  646.81
  -4  -4  15 1377.16  606.76
   4   4 -14 3369.40  929.18
   4  -4 -14 6473.63  581.71
  -4  -4  14 4688.15 1118.70
  -4   4  14 3334.35  887.25
   4   4 -13 3380.18  844.37
   4  -4 -13 3686.72  590.57
  -4  -4  13 2974.51  661.97
  -4   4  13 2859.84  694.26
   4   4 -12 5398.59 1120.17
   4  -4 -12 6270.73  697.08
  -4  -4  12 4811.77 1048.35
  -4   4  12 4398.32 1119.73
   4  -4 -11  261.80  241.26
   4   4 -11  290.51  338.09
  -4   4  11  427.36  347.51
  -4  -4  11  406.12  440.40
   4   4 -10 2759.37  853.98
   4  -4 -10 4626.13  602.42
  -4  -4  10 2996.87  784.91
  -4   4  10 2747.40  652.53
   4  -4  -9 3587.07  523.07
   4   4  -9  871.02  547.81
  -4   4   9 2383.55  540.11
  -4  -4   9 2798.45  642.97
   4   4  -8  105.56  277.98
   4  -4  -8  205.36  270.71
  -4  -4   8 -189.19  308.70
  -4   4   8   37.73  375.96
   4  -4  -7 6138.34  724.70
   4   4  -7 5852.90  763.98
  -4   4   7 4138.46  928.02
  -4  -4   7 5132.92  774.30
   4   4  -619485.93 1972.67
   4  -4  -619414.98 1652.88
  -4  -4   618814.64 1621.77
  -4   4   619215.89 1590.43
   4   4  -5  542.63  422.75
   4  -4  -5  479.88  337.59
  -4  -4   5  568.08  338.51
  -4   4   5  448.43  432.69
   4   4  -413847.21 1184.03
   4  -4  -415697.04 1262.31
  -4  -4   412855.62 1151.19
  -4   4   414627.18 1221.23
   4  -4  -311126.31  975.59
   4   4  -310931.40 1169.78
  -4   4   3 9055.13 1166.34
  -4  -4   311063.06  894.51
   4   4  -210822.01 1112.53
   4  -4  -2 9510.95  805.05
  -4  -4   2 8922.07  709.11
  -4   4   2 8301.47  799.61
   4  -4  -119758.46 1256.98
   4   4  -115481.23 1570.83
  -4  -4   118128.22 1073.39
  -4   4   119901.65 1686.36
   4   4   0 8193.41  723.79
   4  -4   0 9197.06  681.76
  -4  -4   0 7648.61  567.34
  -4   4   0 7636.20  865.79
   4   4   1 3866.88  469.59
   4   4   1 3036.74  288.34
   4  -4   1 4288.53  454.50
   4  -4   1 4904.99  591.62
  -4  -4  -1 3789.63  319.33
   4   4   2 -117.29  191.81
   4   4   2  109.81  143.66
   4   4   2  187.81   92.97
   4  -4   2  185.32  171.99
   4  -4   2  -86.88  218.52
   4   4   3 5166.33  248.72
   4   4   3 5559.32  644.83
   4   4   3 4730.63  405.50
   4  -4   3 7397.16  478.45
   4  -4   3 7060.05  483.62
   4   4   4  575.62   95.87
   4   4   4  480.03  179.77
   4   4   4  826.87  198.83
   4  -4   4  836.66  160.51
   4  -4   4  734.74  185.50
   4   4   5 3502.73  348.50
   4   4   5 3638.27  196.03
   4   4   5 4124.82  382.04
   4  -4   5 4138.39  349.84
   4  -4   5 4361.87  400.25
   4   4   6 2214.57  159.27
   4   4   6 1593.94  214.14
   4   4   6 1474.42  346.78
   4  -4   6 1848.63  251.58
   4   4   7  -29.20   63.26
   4   4   7  -35.23  185.35
   4  -4   7  375.18  154.24
   4  -4   8   79.73  163.02
   4   4   8   41.72  102.01
  -4  -4  -8  519.98  243.51
  -4   4  -8 -155.70  182.66
   4   4   9   36.82   88.21
   4  -4   9   52.57  166.84
  -4  -4  -9  -53.20  248.39
  -4   4  -9  139.62  164.71
   4  -4  10 4138.12  445.23
  -4   4 -10 3932.01  537.39
  -4  -4 -10 3099.64  631.48
   4   4  11 4168.09  352.63
   4  -4  11 5993.56  542.22
  -4  -4 -11 4298.09  764.59
  -4   4 -11 4425.61  644.53
   4   4  12  204.65  183.98
   4  -4  12   83.39  225.64
  -4   4 -12  266.39  301.39
  -4  -4 -12  429.39  345.07
   4   4  13 5717.60  528.77
   4  -4  13 5512.40  598.61
  -4  -4 -13 4434.53  891.84
  -4   4 -13 2276.36  592.33
   4  -4  14 1339.26  342.96
   4   4  14  732.60  361.46
  -4   4 -14  278.52  370.41
  -4  -4 -14  860.58  523.70
   4   4  15  -13.09  314.00
   4  -4  15  -77.91  289.91
  -4  -4 -15   31.75  438.82
  -4   4 -15  919.51  320.58
   4  -4  16 1080.57  357.93
  -4  -4 -16  -74.68  548.91
  -4   4 -16  321.52  403.27
   4  -4  17 1517.85  544.85
  -4  -4 -17  931.72  790.52
  -4   4 -17 2731.86  599.06
   4  -4  18 8686.24 1046.28
  -4  -4 -18 9458.66 1524.43
  -4   4 -18 6314.10 1143.32
   4  -4  19  184.17  488.29
  -4  -4 -19 1184.90  661.00
  -4   4 -19  398.00  496.41
   4  -4  20 2221.73  850.64
  -4  -4 -20 3509.46 1123.32
  -4   4 -20 3275.72  861.56
   4  -4  21 1919.63  833.39
  -4   4 -21 2009.31  803.04
  -4  -4 -21 1684.44  755.96
   4  -4  22 1083.51  830.55
  -4  -4 -22 1348.74  766.54
  -4   4 -22 2134.81  805.19
   4  -4  23  371.57  793.77
  -4  -4 -23 1471.59  890.12
  -4   4 -23  165.53  684.84
   4   5 -25 1514.51  521.59
   4  -5 -25  639.11  436.26
  -4   5  25  943.06  846.96
  -4  -5  25 -752.63  771.72
   4   5 -24 1097.87  530.77
   4  -5 -24  811.24  351.49
  -4  -5  24  520.88 1086.18
  -4   5  24 2390.90  865.23
   4   5 -23  562.27  460.77
   4  -5 -23 1149.87  412.58
  -4   5  23  649.12 1034.06
  -4  -5  23 -303.59  949.90
   4   5 -22 1861.49  554.12
   4  -5 -22  852.57  332.47
  -4  -5  22 4210.35 1069.39
  -4   5  22 2324.43 1141.73
   4   5 -21  974.99  365.08
   4  -5 -21 1039.28  416.69
  -4  -5  21  725.41  921.95
  -4   5  21  369.59  956.33
   4   5 -20  -92.47  284.78
   4  -5 -20  139.80  275.25
  -4  -5  20  477.47  614.89
  -4   5  20  245.07  655.87
   4   5 -19 4176.67  843.03
   4  -5 -19 4150.10  475.95
  -4   5  19 4459.00 1041.56
  -4  -5  19 3817.42  979.01
   4   5 -18 4138.19  897.83
   4  -5 -18 3079.26  612.52
  -4  -5  18 3257.58 1151.01
  -4   5  18 3683.57 1243.07
   4   5 -17 2444.38  523.81
   4  -5 -17 1572.61  468.56
  -4   5  17 2967.90  758.49
  -4  -5  17  844.33  896.62
   4   5 -1616007.83 1852.03
   4  -5 -1614110.45 1016.92
  -4  -5  1614337.26 2106.68
  -4   5  1613302.66 2241.50
   4   5 -15   81.48  436.76
   4  -5 -15  275.66  207.78
  -4  -5  15  -66.72  502.90
  -4   5  15    3.27  558.50
   4   5 -14 1099.59  522.92
   4  -5 -14 2089.04  317.67
  -4  -5  14 1666.81  747.60
  -4   5  14 1390.78  583.29
   4   5 -13  267.73  337.92
   4  -5 -13  437.08  198.49
  -4  -5  13  214.64  364.90
  -4   5  13    2.96  534.66
   4   5 -12   39.99  321.17
   4  -5 -12  -22.00  190.93
  -4  -5  12  474.11  411.50
  -4   5  12  234.24  325.82
   4   5 -11 3290.07  812.25
   4  -5 -11 3339.59  496.20
  -4   5  11 2306.26  854.97
  -4  -5  11 2665.28  579.69
   4   5 -10 1320.51  529.51
   4  -5 -10 3938.53  518.11
  -4  -5  10 1371.61  483.77
  -4   5  10 2969.45  766.62
   4   5  -915054.66 1809.97
   4  -5  -916246.30 1329.79
  -4  -5   916035.43 1623.66
  -4   5   915817.13 1875.03
   4   5  -8  396.20  557.18
   4  -5  -8 1227.06  370.24
  -4  -5   8 1178.70  466.72
  -4   5   8  970.48  422.50
   4   5  -7 8775.82 1217.08
   4  -5  -7 9115.83  903.78
  -4  -5   7 9146.51 1003.91
  -4   5   7 7804.36  948.90
   4   5  -6 6107.50  709.35
   4  -5  -6 5530.02  667.96
  -4  -5   6 5149.71  721.99
  -4   5   6 5127.06  934.70
   4   5  -5 1264.73  533.74
   4  -5  -5  837.64  382.78
  -4  -5   5 1126.34  333.75
  -4   5   5 1616.27  391.83
   4   5  -4  870.65  493.73
   4  -5  -4  868.25  351.91
  -4  -5   4 1626.19  345.26
  -4   5   4  768.91  491.14
   4   5  -3 4192.46  748.49
   4  -5  -3 4287.37  477.05
  -4   5   3 2576.11  552.30
  -4  -5   3 5314.93  464.00
   4   5  -2 3423.72  813.99
   4  -5  -2 5147.53  484.60
  -4  -5   2 5055.80  420.07
  -4   5   2 5103.69  609.48
   4   5  -121473.81 1288.76
   4   5  -122837.11 2067.61
   4  -5  -126461.91 1611.75
  -4  -5   126104.06 1406.99
  -4   5   123772.10 2018.04
   4   5   0  121.95  337.49
   4   5   0  493.68  174.72
   4  -5   0  336.98  165.63
  -4   5   0  475.78  316.99
  -4  -5   0  255.53  151.79
   4  -5   1  204.16  153.01
   4   5   1   93.43  281.55
   4   5   1  116.41  138.93
   4  -5   1  252.64  269.02
  -4  -5  -1   23.72  113.22
   4   5   217497.84 1216.62
   4   5   214771.11  632.38
   4   5   212954.66  755.11
   4  -5   217312.88  967.31
   4  -5   219286.62 1308.07
   4   5   3 7746.87  313.36
   4   5   3 6504.02  415.54
   4  -5   3 9828.86  578.20
   4  -5   3 9319.65  619.49
   4   5   3 8217.62  829.30
   4   5   4  962.09  268.10
   4   5   4  441.56  134.38
   4  -5   4  211.24  151.43
   4  -5   4  521.69  252.88
   4   5   5 7163.77  289.49
   4   5   5 5326.87  409.52
   4   5   5 6845.78  636.96
   4  -5   5 5474.83  423.68
   4  -5   610854.90  817.02
   4   5   611837.45  827.52
   4  -5   611128.77  632.61
   4   5   7  798.48  119.45
   4   5   7  916.70  210.94
   4  -5   7  817.09  183.46
   4  -5   810096.88  755.61
  -4   5  -8 9811.85  808.30
   4   5   9  730.37  179.24
   4  -5   9  697.80  199.33
  -4  -5  -9 1822.88  286.65
  -4   5  -9  952.34  280.39
   4  -5  1018296.76 1118.03
   4   5  1019990.07 1131.05
  -4   5 -1018494.92 1475.58
  -4  -5 -1017156.09 1407.79
   4   5  11 4001.62  366.98
   4  -5  11 3695.34  446.57
  -4  -5 -11 2301.14  692.29
   4  -5  12 5296.49  586.04
   4   5  12 4885.76  536.33
  -4  -5 -12 4122.15  810.67
  -4   5 -12 4158.02  685.19
   4   5  13  439.24  248.82
   4  -5  13  396.97  295.39
  -4  -5 -13  636.28  447.74
  -4   5 -13  941.59  311.52
   4  -5  1412552.65 1046.64
  -4   5 -1410333.85 1108.48
  -4  -5 -14 6100.56 1342.54
   4  -5  15   79.86  294.23
  -4  -5 -15  177.71  473.99
  -4   5 -15  675.33  338.09
   4  -5  16  839.87  364.02
  -4   5 -16  104.14  409.31
  -4  -5 -16  879.60  550.49
   4  -5  17  384.62  357.29
  -4  -5 -17  162.20  391.86
  -4   5 -17  368.54  382.34
   4  -5  18  -11.14  230.57
  -4   5 -18  -54.98  354.66
  -4  -5 -18 -199.96  485.51
   4  -5  19 -204.96  442.51
  -4  -5 -19  761.89  596.81
  -4   5 -19  423.79  413.77
   4  -5  20  -69.10  541.33
  -4  -5 -20  435.52  540.44
  -4   5 -20 1411.08  519.16
   4  -5  21 2240.06  835.72
  -4  -5 -21 1422.90  773.52
  -4   5 -21 1829.41  730.25
   4  -5  22 1347.87  763.07
  -4   5 -22  739.97  721.95
  -4  -5 -22 1072.39  695.83
   4  -5  23  605.45  771.83
  -4  -5 -23 1052.63  707.21
  -4   5 -23  755.83  740.81
   4   6 -25 1585.30  590.45
   4  -6 -25 1018.29  364.61
  -4  -6  25 1396.26  889.88
  -4   6  25  764.62 1298.76
   4  -6 -24  361.74  351.21
   4   6 -24  129.00  419.42
  -4  -6  24   83.46  619.14
  -4   6  24  561.34  920.87
   4   6 -23  881.30  432.12
   4  -6 -23   35.40  259.35
  -4  -6  23  168.51  811.04
  -4   6  23  913.34  890.06
   4  -6 -22  314.43  333.56
   4   6 -22   61.49  412.00
  -4  -6  22  188.78  575.25
  -4   6  22 1785.96  856.71
   4   6 -21 -194.83  228.59
   4  -6 -21   62.19  189.83
  -4  -6  21  158.80  598.95
  -4   6  21  221.14  652.90
   4   6 -20 2098.74  512.16
   4  -6 -20 2285.55  494.78
  -4  -6  20  705.20  774.96
  -4   6  20 2570.52 1150.17
   4   6 -19 7438.83 1096.90
   4  -6 -19 7230.58  663.97
  -4  -6  19 5691.34 1557.83
  -4   6  19 5229.93 1325.13
   4  -6 -18 2465.02  498.59
   4   6 -18 3288.17  607.18
  -4  -6  18 1809.90  751.59
  -4   6  18 2821.62 1129.75
   4   6 -17 1179.00  576.51
   4  -6 -17  994.57  382.28
  -4  -6  17  375.58  521.94
  -4   6  17 1149.48  592.20
   4  -6 -16 1076.47  269.32
   4   6 -16  529.95  433.46
  -4  -6  16  491.52  679.01
  -4   6  16  890.60  755.89
   4   6 -15  439.24  471.93
   4  -6 -15  216.99  279.07
  -4  -6  15  610.89  542.31
  -4   6  15  523.23  613.09
   4  -6 -14 1466.38  397.42
   4   6 -14 1268.95  645.79
  -4  -6  14 1238.89  682.18
  -4   6  14 1319.38  761.18
   4   6 -13 1229.74  675.31
   4  -6 -13 1751.18  357.19
  -4  -6  13  291.26  468.71
  -4   6  13 1256.57  719.12
   4   6 -12  703.28  650.98
   4  -6 -12 1523.03  332.50
  -4  -6  12  942.49  588.90
  -4   6  12  898.91  494.86
   4   6 -11 -441.71  272.40
   4  -6 -11  397.64  226.50
  -4  -6  11   11.38  249.25
  -4   6  11  -61.70  293.42
   4  -6 -10  379.99  262.63
   4   6 -10  446.72  489.27
  -4  -6  10  387.36  421.61
  -4   6  10  253.43  490.85
   4   6  -9 2811.14  653.46
   4  -6  -9 5321.73  568.46
  -4  -6   9 4883.58  748.34
  -4   6   9 1357.86  644.01
   4   6  -827074.84 2420.82
   4  -6  -831452.46 2207.75
  -4  -6   828677.62 2491.46
  -4   6   830313.12 2971.90
   4   6  -711506.01 1145.26
   4  -6  -711076.22 1004.99
  -4  -6   712370.26 1208.45
  -4   6   711571.09 1484.89
   4   6  -6  591.41  488.02
   4  -6  -6  772.54  317.29
  -4  -6   6  834.62  354.09
  -4   6   6  614.15  359.55
   4   6  -5 8726.82  863.48
   4  -6  -5 7637.46  683.70
  -4  -6   5 7179.47  791.76
  -4   6   5 9210.26 1194.68
   4   6  -455579.76 4759.51
   4  -6  -452760.65 3949.54
  -4  -6   456408.98 3917.92
  -4   6   457443.32 5065.52
   4   6  -3 3638.31  651.90
   4  -6  -3 2708.60  360.05
  -4  -6   3 2450.50  386.59
  -4   6   3 2525.73  465.07
   4   6  -231194.12 2745.70
   4  -6  -233163.97 2127.71
  -4  -6   234981.96 2064.24
  -4   6   233719.97 2926.95
   4   6  -1  887.03  272.58
   4   6  -1  740.20  132.58
   4  -6  -1  479.26  189.40
  -4  -6   1  315.67  188.54
  -4   6   1  509.13  381.54
   4   6   016549.98  935.74
   4   6   020340.32 1399.83
   4  -6   019931.50 1145.46
  -4  -6   018684.47  937.36
  -4   6   020471.15 1475.11
   4   6   1  490.05  302.42
   4  -6   1  165.61  303.44
   4  -6   1  355.14  185.77
   4   6   1   90.16  119.14
   4   6   2 1177.07  287.05
   4   6   2  848.77  126.36
   4   6   2 1152.35  105.81
   4  -6   2  874.84  194.45
   4  -6   2 1011.91  351.47
   4   6   3 4999.51  669.40
   4  -6   3 5278.73  383.34
   4  -6   3 5923.30  614.12
   4   6   4 5753.80  606.01
   4  -6   4 4476.88  561.97
   4   6   5 4466.86  415.89
   4  -6   5 4724.73  515.79
   4  -6   5 3736.86  289.99
   4  -6   6  230.36  174.97
   4   6   6   28.37   47.59
   4   6   6   16.68   95.61
   4   6   6   20.27  207.43
   4  -6   6   88.58  105.47
   4   6   7 9850.32  865.86
   4  -6   7 9910.51  786.19
   4   6   8  146.98  110.92
   4   6   8  240.81  105.83
   4  -6   8  -67.60  197.85
  -4   6  -8  283.43  181.08
   4   6   9 1009.26  219.29
   4  -6   9 1690.45  296.83
  -4  -6  -9 1269.42  307.06
  -4   6  -9  885.06  284.49
   4   6  10  663.08  176.20
   4  -6  10 1288.08  287.17
  -4  -6 -10 1556.56  304.87
  -4   6 -10  463.39  254.86
   4  -6  11 6196.13  643.73
   4   6  11 7194.51  652.68
  -4  -6 -11 5033.28  670.91
   4   6  12 1139.61  278.08
   4  -6  12 1330.23  342.40
  -4  -6 -12 1129.89  504.98
  -4   6 -12 1006.32  332.58
   4  -6  1342843.11 3242.17
  -4  -6 -1337632.70 3762.37
  -4   6 -1342096.21 3302.01
   4  -6  1415331.80 1210.90
  -4  -6 -14 9885.33 1215.38
  -4   6 -1410864.53 1184.61
   4  -6  15 1425.44  463.94
  -4  -6 -15 1543.81  720.70
  -4   6 -15 2293.57  497.99
   4  -6  16  615.33  358.55
  -4  -6 -16  615.79  558.52
  -4   6 -16  263.40  392.42
   4  -6  17 2417.75  520.37
  -4  -6 -17  688.83  576.18
  -4   6 -17 1914.37  519.40
   4  -6  18  583.30  397.88
  -4  -6 -18  394.11  598.27
  -4   6 -18  193.95  394.14
   4  -6  19  584.59  432.03
  -4  -6 -19 1933.56  628.92
  -4   6 -19 2720.25  591.35
   4  -6  20 1391.87  601.76
  -4  -6 -20  217.55  573.40
  -4   6 -20  955.51  542.14
   4  -6  21 1822.51  797.16
  -4  -6 -21 1472.58 1042.46
  -4   6 -21 2209.09  741.67
   4  -6  22  417.15  512.94
  -4  -6 -22  849.09  880.64
  -4   6 -22  939.27  604.93
   4  -6  23 1155.29  614.14
  -4   6 -23 -202.47  388.41
  -4   6 -23   53.91  425.09
  -4  -6 -23  612.94  766.47
   4   7 -25 5376.26  955.10
   4  -7 -25 3704.45  809.23
  -4  -7  25 4146.94 1860.77
  -4   7  25 5412.73 2010.86
   4   7 -24  153.37  404.30
   4  -7 -24 -107.21  251.35
  -4  -7  24  640.48  601.56
  -4   7  24 1828.98  663.78
   4   7 -23  370.47  525.77
   4  -7 -23 1214.35  419.18
  -4  -7  23  607.75 1003.71
  -4   7  23  950.39  800.11
   4   7 -22 -411.61  407.02
   4  -7 -22  486.11  248.28
  -4   7  22  566.42  612.91
  -4  -7  22  540.30  749.63
   4   7 -21  922.27  365.02
   4  -7 -21  106.54  342.54
  -4  -7  21  138.20  549.98
  -4   7  21  624.41  851.69
   4   7 -20 1541.11  487.65
   4  -7 -20 1524.54  442.89
  -4  -7  20  741.43  964.23
  -4   7  20 2076.62 1073.85
   4   7 -1917206.29 2086.49
   4  -7 -1915068.38 1409.90
  -4  -7  1913619.89 1880.20
  -4   7  1916343.73 2151.00
   4   7 -18 1244.81  529.22
   4  -7 -18 2171.55  433.41
  -4  -7  18 1093.18  877.18
  -4   7  18 1790.82 1016.64
   4   7 -17 1998.26  702.82
   4  -7 -17 1246.49  383.03
  -4  -7  17 1467.73  791.37
  -4   7  17 1316.21  686.27
   4   7 -16 4248.37  734.38
   4  -7 -16 3929.28  414.53
  -4   7  16 4486.13 1279.47
  -4  -7  16 5016.59  846.42
   4   7 -1512477.90 1691.31
   4  -7 -1511629.11 1046.47
  -4  -7  1512666.40 1369.45
  -4   7  15 8934.82 1894.14
   4   7 -14  426.94  400.92
   4  -7 -14  -64.78  202.70
  -4  -7  14 -164.95  287.03
  -4   7  14   81.29  462.27
   4   7 -13   32.18  613.11
   4  -7 -13  867.02  213.06
  -4  -7  13  618.78  402.74
  -4   7  13  599.75  481.39
   4   7 -12 3076.41  965.37
   4  -7 -12 4335.23  522.17
  -4  -7  12 3695.97  879.53
  -4   7  12 3248.65 1021.12
   4   7 -11   29.69  296.45
   4  -7 -11  124.70  202.46
  -4  -7  11  112.97  360.38
  -4   7  11  -84.55  305.74
   4   7 -10  765.96  611.81
   4  -7 -10 1216.18  340.95
  -4   7  10  876.53  455.45
  -4  -7  10 1159.78  511.62
   4   7  -9 1809.13  725.47
   4  -7  -9 2095.59  384.59
  -4  -7   9 1569.82  563.65
  -4   7   9 1983.55  717.54
   4   7  -8 -304.90  283.45
   4  -7  -8  154.37  228.47
  -4   7   8   73.67  286.89
  -4  -7   8  294.89  311.08
   4   7  -711891.66 1529.45
   4  -7  -712332.28  999.89
  -4  -7   713223.13 1259.70
  -4   7   713029.43 1270.63
   4   7  -6  317.61  391.02
   4  -7  -6 -225.18  194.42
  -4  -7   6 -167.02  281.34
  -4   7   6 -354.72  288.82
   4   7  -5 2077.60  436.23
   4  -7  -5 1628.89  339.32
  -4  -7   5 1607.89  398.10
  -4   7   5 1582.59  601.36
   4   7  -428027.57 2656.47
   4  -7  -432248.45 2031.63
  -4  -7   431062.11 2098.72
  -4   7   432121.16 2871.36
   4   7  -3 1959.71  447.06
   4  -7  -3 1817.90  320.59
  -4  -7   3 2544.41  312.21
  -4   7   3 2485.28  461.80
   4   7  -2 4544.50  551.73
   4  -7  -2 3896.08  365.93
  -4  -7   2 3615.40  351.52
  -4   7   2 5295.27  764.53
   4   7  -1  197.40  323.59
   4   7  -1  397.17  113.77
   4  -7  -1  257.25  193.19
  -4  -7   1  174.23  119.07
  -4   7   1  130.60  106.52
  -4   7   1  856.44  345.55
   4   7   0 4358.63  600.18
   4   7   0 3057.55  192.97
   4  -7   0 3243.32  290.32
  -4  -7   0 3910.86  253.51
  -4   7   0 2677.06  187.02
   4   7   126655.51 2153.09
   4  -7   123398.89 1414.21
   4  -7   128003.58 2306.42
   4   7   212018.25  906.19
   4   7   2 9668.40  311.14
   4  -7   211538.07 1001.39
   4   7   3 5923.11  576.70
   4  -7   3 5333.74  438.40
   4  -7   3 6387.76  665.82
   4   7   4  964.36  240.99
   4  -7   4  896.28  156.82
   4  -7   4  683.84  313.23
   4   7   510072.94  875.83
   4  -7   5 9130.66  504.23
   4  -7   511151.01  881.88
   4   7   6   53.61   54.00
   4   7   6  -45.40  210.71
   4  -7   6  -45.46  125.52
   4  -7   6  -54.64   85.70
   4   7   724188.63 1767.13
   4   7   721367.49 1091.24
   4  -7   727374.48 1766.52
   4   7   8 1233.48  354.22
   4   7   8 2729.61  227.11
   4  -7   8 3231.96  390.48
  -4   7  -8 3132.61  352.25
   4   7   926766.44 1603.50
   4  -7   926972.31 1865.22
  -4  -7  -926129.60 2275.54
  -4   7  -927451.71 1774.56
   4   7  10  797.33  242.99
   4  -7  10  889.62  282.86
  -4  -7 -10  555.83  418.42
  -4   7 -10 1026.65  239.39
   4  -7  11 1986.71  349.98
  -4   7 -11  781.46  342.46
   4  -7  12  963.49  342.12
  -4  -7 -12 1378.73  506.07
  -4   7 -12 1236.76  334.31
   4  -7  13 5110.99  476.80
  -4  -7 -13 3796.15  664.06
  -4   7 -13 3522.23  534.90
   4  -7  14 4535.41  456.22
  -4  -7 -14 1893.53  632.06
  -4   7 -14 3186.35  571.71
   4  -7  1521499.70 1486.63
  -4  -7 -1513268.50 1695.08
  -4   7 -1521197.47 1828.59
   4  -7  16 2348.21  532.10
  -4  -7 -16 1713.62  805.14
  -4   7 -16 2225.54  581.14
   4  -7  17  107.15  374.29
  -4  -7 -17  734.32  592.44
  -4   7 -17  693.80  367.94
   4  -7  18   49.85  337.85
  -4   7 -18 1628.76  440.50
  -4  -7 -18  757.58  663.04
   4  -7  19  879.00  518.33
  -4  -7 -19 1512.62  576.05
  -4   7 -19  550.10  498.52
  -4  -7 -20 1915.29  812.58
  -4   7 -20  471.96  533.18
   4  -7  21  202.38  522.88
  -4  -7 -21 2048.41  719.01
  -4   7 -21 -408.25  471.03
   4  -7  22  832.28  710.10
  -4  -7 -22 1846.38  973.35
  -4   7 -22  923.74  659.86
   4  -7  23  768.90  587.79
  -4  -7 -23 1329.13 1005.12
   4   8 -25  399.65  335.65
   4  -8 -25  -82.81  398.07
  -4  -8  25 2132.02  940.17
  -4   8  25   19.60  737.19
   4   8 -24  469.34  525.95
   4  -8 -24  526.56  423.48
  -4  -8  24 1387.74  711.90
  -4   8  24  691.47  804.75
   4   8 -23 1098.02  472.50
   4  -8 -23  550.62  280.09
  -4  -8  23 -439.57  626.24
  -4   8  23 -273.25  711.42
   4   8 -22  214.21  443.18
   4  -8 -22  344.83  349.29
  -4  -8  22 1235.93  806.40
  -4   8  22  613.72  660.48
   4   8 -21 1433.45  564.95
   4  -8 -21  171.71  401.10
  -4  -8  21 1291.29  628.94
  -4   8  21 1114.67  713.29
   4   8 -20  114.80  296.97
   4  -8 -20   16.74  203.17
  -4  -8  20  574.14  620.99
  -4   8  20  381.83  692.03
   4   8 -19  910.80  567.21
   4  -8 -19  510.64  336.09
  -4  -8  19  -36.68  726.62
  -4   8  19  731.63  822.93
   4  -8 -18  967.12  348.66
   4   8 -18  948.23  460.69
  -4  -8  18  597.17  768.85
  -4   8  18  396.11  875.18
   4   8 -17 1963.96  745.71
   4  -8 -17 2121.22  402.48
  -4  -8  17  606.95  620.28
  -4   8  17  862.03  701.93
   4   8 -16  819.00  441.78
   4  -8 -16  752.27  304.33
  -4  -8  16  567.01  653.16
  -4   8  16  573.76  761.62
   4   8 -1519230.91 2403.25
   4  -8 -1519534.68 1443.91
  -4  -8  1522230.77 2541.71
  -4   8  1520603.49 2817.70
   4   8 -14 5387.16 1188.67
   4  -8 -14 7087.90  706.52
  -4  -8  14 4672.56 1170.03
  -4   8  14 6570.84 1030.76
   4   8 -13 1157.45  728.77
   4  -8 -13 1409.17  343.26
  -4  -8  13  871.00  639.75
  -4   8  13 1571.87  563.62
   4  -8 -12 1704.16  253.59
   4   8 -12 2280.72  555.22
  -4  -8  12 1255.02  650.86
  -4   8  12  822.60  747.42
   4   8 -11  357.94  622.56
   4  -8 -11 1272.14  307.09
  -4  -8  11 1034.74  537.15
  -4   8  11  442.97  639.43
   4  -8 -10  574.00  240.46
   4   8 -10  341.11  518.69
  -4  -8  10  219.16  420.58
  -4   8  10  193.24  525.71
   4   8  -9 3952.63  976.55
   4  -8  -9 4348.28  446.97
  -4  -8   9 2780.73  765.79
  -4   8   9 5046.45  978.87
   4  -8  -8   12.66  207.11
   4   8  -8  445.54  412.36
  -4  -8   8   25.06  316.11
  -4   8   8  406.33  429.39
   4   8  -737566.86 3764.36
   4  -8  -741790.27 2743.85
  -4  -8   742798.37 3346.17
  -4   8   744559.75 3639.15
   4   8  -633683.63 3235.13
   4  -8  -637215.29 2466.48
  -4  -8   636136.92 2769.72
  -4   8   633155.03 3357.26
   4   8  -5 5226.46  714.67
   4  -8  -5 5961.36  478.00
  -4  -8   5 5228.21  643.52
  -4   8   5 5503.56  757.44
   4  -8  -429556.29 1794.15
   4   8  -429112.80 2679.92
  -4  -8   430129.29 1935.78
  -4   8   431795.38 2873.24
   4   8  -369421.58 5858.05
   4  -8  -372900.75 5097.27
  -4  -8   377089.19 5363.91
  -4   8   368358.40 6410.52
   4   8  -2  396.34   91.88
   4  -8  -2  419.72  216.53
   4   8  -2  837.45  395.86
  -4  -8   2  635.31  167.71
  -4   8   2  558.47  154.08
  -4   8   2  -87.84  287.01
   4   8  -1  679.75  309.36
   4   8  -1 1333.35  119.12
   4  -8  -1  813.44  162.13
  -4  -8   1  824.43  193.32
  -4   8   1  808.69   97.92
  -4   8   1 1421.31  454.89
   4   8   023867.08 1992.81
   4   8   024023.18  973.76
   4  -8   019764.33 1166.61
   4  -8   020256.67 1667.48
  -4  -8   025616.84 1194.22
   4   8   117068.77 1368.08
   4  -8   111996.47  696.12
   4  -8   111217.84  558.63
   4  -8   114852.90  983.23
   4   8   2 1104.98  277.42
   4  -8   2  608.50  158.87
   4  -8   2  805.56  257.21
   4  -8   2  626.14   99.23
   4   8   310509.95  967.56
   4  -8   3 7745.43  511.74
   4  -8   310663.08  911.81
   4   8   4 2708.63  494.60
   4  -8   4 2994.33  292.53
   4  -8   4 4704.77  515.44
   4   8   5 1562.37  247.57
   4  -8   5  975.70  231.11
   4  -8   5  475.06  129.67
   4   8   6  -60.90  179.71
   4  -8   6  219.88  211.84
   4  -8   6  198.75   90.23
   4   8   7 -159.45  238.81
   4  -8   7  366.05  229.15
   4  -8   7  285.63  121.53
   4   8   8 7747.41  692.49
   4  -8   8 9136.44  633.25
  -4   8  -8 8770.29  604.09
   4  -8   9  168.02  138.35
  -4   8  -9 -110.34  129.36
   4  -8  10  702.85  254.95
  -4  -8 -10  764.40  369.10
  -4   8 -10  172.80  192.74
   4  -8  11 2647.67  410.26
  -4  -8 -11 2537.06  453.77
  -4   8 -11 1286.08  373.45
   4  -8  12 4702.21  597.05
  -4  -8 -12 4564.32  862.51
  -4   8 -12 4569.77  564.32
   4  -8  13 1405.39  378.27
  -4  -8 -13  991.60  400.20
  -4   8 -13 1004.16  346.25
   4  -8  14   64.10  258.85
  -4  -8 -14  273.32  288.53
  -4   8 -14  -60.79  244.97
   4  -8  15  -60.86  275.91
  -4  -8 -15  191.53  312.01
  -4   8 -15  131.03  275.67
   4  -8  16 5928.42  737.69
  -4  -8 -16 3474.78 1062.55
  -4   8 -16 3638.75  652.31
   4  -8  17  808.64  449.11
  -4  -8 -17  581.15  679.64
  -4   8 -17 1031.79  410.32
   4  -8  18    6.68  317.35
  -4  -8 -18  -41.32  506.73
  -4   8 -18  -73.91  302.65
   4  -8  19  -14.23  421.91
  -4  -8 -19  399.71  472.03
  -4   8 -19  662.09  410.46
   4  -8  20 1268.58  568.12
  -4  -8 -20 1559.85  861.04
  -4   8 -20  557.90  545.07
   4  -8  21 1729.36  563.27
  -4  -8 -21 1006.24 1005.77
   4  -8  22  817.74  689.51
  -4  -8 -22  823.12  925.50
   4  -9 -25  778.36  502.69
   4   9 -25  967.43  439.53
  -4  -9  25 2254.22 1173.26
  -4   9  25 1681.36 1305.41
   4   9 -24 1874.40  544.81
  -4  -9  24 2401.25  957.74
  -4   9  24 2335.61 1473.05
   4   9 -23  233.65  253.52
   4  -9 -23 -317.03  283.22
  -4  -9  23  376.90  465.26
  -4   9  23 -776.62  713.66
   4   9 -22 -308.88  504.70
   4  -9 -22  429.56  342.86
  -4  -9  22  413.42  796.76
  -4   9  22 1607.93  901.79
   4   9 -21  792.56  558.15
   4  -9 -21  482.31  382.63
  -4  -9  21 1208.72  853.33
  -4   9  21 1059.34  712.12
   4   9 -20 -123.23  262.76
   4  -9 -20   62.83  185.70
  -4  -9  20   34.26  410.10
  -4   9  20 -223.25  640.14
   4   9 -19 -295.03  438.07
   4  -9 -19  100.99  253.99
  -4  -9  19 -338.49  553.55
  -4   9  19  -11.32  632.23
   4   9 -18  246.51  363.38
   4  -9 -18  180.40  276.79
  -4  -9  18   47.47  442.47
  -4   9  18  838.35  694.24
   4  -9 -17  301.28  245.85
   4   9 -17 1747.20  631.36
  -4  -9  17 2102.56  687.93
  -4   9  17  989.70  599.14
   4   9 -16 9930.14 1277.31
   4  -9 -1612394.94 1034.08
  -4  -9  1610490.70 1384.98
  -4   9  1613343.80 2159.44
   4   9 -15 1670.26  766.67
   4  -9 -15 1747.21  366.91
  -4  -9  15 1238.02  556.70
  -4   9  15 1994.14  914.47
   4   9 -1415780.01 2135.86
   4  -9 -1413404.12 1044.26
  -4  -9  1414051.64 1834.56
  -4   9  1415445.41 1774.90
   4   9 -13  546.59  623.44
   4  -9 -13  729.04  242.24
  -4  -9  13  217.65  524.76
  -4   9  13  481.08  641.57
   4   9 -12  107.94  348.08
   4  -9 -12  169.57  154.76
  -4  -9  12  197.22  402.68
  -4   9  12  -10.10  364.59
   4   9 -11  280.27  474.89
   4  -9 -11  181.63  198.79
  -4  -9  11  -99.66  381.27
  -4   9  11  178.78  474.85
   4   9 -10  267.71  479.82
   4  -9 -10  271.82  183.13
  -4  -9  10  -64.21  376.08
  -4   9  10  374.57  500.08
   4   9  -9  -60.58  403.31
   4  -9  -9  129.15  180.63
  -4  -9   9   12.80  309.87
  -4   9   9 -112.71  312.17
   4   9  -813314.97 1754.00
   4  -9  -815200.91  995.58
  -4  -9   816463.67 1501.70
  -4   9   815426.76 1863.66
   4   9  -7 3200.87  798.41
   4  -9  -7 3086.74  352.36
  -4  -9   7 3963.63  613.88
  -4   9   7 3496.60  864.26
   4   9  -6 5432.19  938.19
   4  -9  -6 5489.98  454.68
  -4  -9   6 4417.88  570.12
  -4   9   6 4122.31  964.73
   4   9  -5  842.19  477.80
   4  -9  -5  620.57  179.34
  -4  -9   5  954.25  321.36
  -4   9   5 1005.33  375.10
   4   9  -422066.51 1827.23
   4  -9  -422426.72 1375.55
  -4  -9   423991.06 1589.62
  -4   9   425108.07 2407.31
   4   9  -310470.95 1150.43
   4  -9  -3 8683.42  545.23
  -4  -9   3 7993.41  585.93
  -4   9   3 8567.84 1166.31
   4   9  -218443.20 1393.74
   4   9  -216527.07  674.64
   4  -9  -214830.00  873.65
  -4  -9   217032.65  930.53
  -4   9   213310.83  748.55
  -4   9   219565.31 1758.69
   4   9  -111335.93  989.35
   4   9  -111373.43  441.03
  -4  -9   113296.42  716.45
  -4   9   110960.23 1027.17
   4   9   0 2862.26  558.97
   4   9   0 2759.76  118.93
   4  -9   0 3038.20  622.31
   4  -9   0 1731.66  218.14
  -4  -9   0 2789.44  178.90
   4   9   1  -21.11  281.49
   4  -9   1  450.08  189.53
   4  -9   1   18.00   93.35
   4  -9   1 -107.23   56.20
   4   9   2  202.94  293.03
   4  -9   2   38.86  103.16
   4  -9   2  165.47   52.01
   4  -9   2  156.23  253.75
   4   9   3 5296.86  714.66
   4  -9   3 5439.08  518.32
   4   9   4 3975.14  398.49
   4  -9   4 2560.00  229.82
   4  -9   4 3739.14  529.67
   4   9   5  -75.16  189.47
   4  -9   5  422.88  179.31
   4  -9   5  142.37  105.12
   4   9   6 4375.45  463.25
   4  -9   6 4516.11  536.11
   4   9   7  -20.82  200.67
   4  -9   7  296.39  232.43
   4  -9   7  225.34   88.24
   4   9   822242.47 1752.66
   4  -9   821041.20 1556.12
  -4   9  -821018.45 1244.94
   4   9   9  331.39  216.97
   4  -9   9    6.03  167.10
  -4   9  -9  427.51  170.30
   4  -9  10 1424.13  359.15
  -4   9 -10 1751.70  262.20
  -4  -9 -10 1740.26  508.16
   4  -9  11 1745.15  333.64
  -4  -9 -11  299.73  341.27
  -4   9 -11  789.14  283.57
   4  -9  12 7012.21  759.04
  -4  -9 -12 5180.26  977.93
  -4   9 -12 7556.95  709.51
   4  -9  13 1108.91  350.76
  -4  -9 -13  346.08  364.64
  -4   9 -13  873.60  301.94
   4  -9  14 3709.14  606.71
  -4   9 -14 4644.70  587.16
  -4  -9 -14 2570.02  688.92
   4  -9  15  515.12  369.21
  -4  -9 -15  410.11  406.12
  -4   9 -15 1202.23  369.51
   4  -9  16   87.81  341.95
  -4  -9 -16    0.17  527.24
  -4   9 -16  600.68  307.68
   4  -9  17  458.78  263.84
  -4  -9 -17  528.88  525.49
  -4   9 -17 -226.61  319.56
   4  -9  18  128.90  330.81
  -4  -9 -18 -137.42  360.93
  -4   9 -18  159.77  307.15
   4  -9  19   52.28  464.20
  -4  -9 -19  961.18  672.40
  -4   9 -19  550.40  415.11
   4  -9  20  329.47  500.58
  -4  -9 -20 1252.49  780.02
   4  -9  21 -530.20  346.74
  -4  -9 -21  725.31  744.76
   4  -9  22 1502.94  727.50
  -4  -9 -22  429.18  705.54
   4  10 -24  831.31  576.59
   4 -10 -24  696.54  464.37
  -4 -10  24  794.19  785.88
  -4  10  24 2155.50 1224.26
   4  10 -23  764.91  374.01
   4 -10 -23  903.98  416.55
  -4  10  23 -325.90 1076.72
  -4 -10  23 -149.11  687.59
   4  10 -22 3460.66  656.66
   4 -10 -22 2257.35  605.96
  -4 -10  22 2335.11 1343.41
  -4  10  22 4093.06 1539.71
   4  10 -21 1296.16  615.21
   4 -10 -21  589.68  314.15
  -4  10  21 2870.64 1077.96
  -4 -10  21 2577.43  949.55
   4  10 -20  619.56  508.37
   4 -10 -20   48.51  205.43
  -4 -10  20 -185.36  451.77
  -4  10  20  426.42  532.74
   4  10 -19 1433.74  536.81
   4 -10 -19 1313.81  397.58
  -4 -10  19 1536.64  884.21
  -4  10  19  104.35 1035.62
   4  10 -18 6181.62 1258.29
   4 -10 -18 6008.31  706.82
  -4 -10  18 3948.27 1363.44
  -4  10  18 2027.21 1645.75
   4  10 -17  -97.28  322.85
   4 -10 -17  -24.62  236.22
  -4  10  17  -80.32  449.94
  -4 -10  17  -62.10  496.09
   4  10 -16 1371.19  541.03
   4 -10 -16  693.27  259.26
  -4 -10  16 1724.99  707.84
  -4  10  16 1879.32  635.80
   4  10 -15 1403.68  668.90
   4 -10 -15  584.73  300.46
  -4  10  15 1510.94  579.71
  -4 -10  15 1172.57  643.54
   4  10 -14 6640.90 1352.91
   4 -10 -14 7158.93  612.83
  -4 -10  14 3305.16 1161.54
  -4  10  14 2495.79 1037.30
   4  10 -13 5536.54 1232.68
   4 -10 -13 6017.31  538.28
  -4  10  13 4995.50 1276.23
  -4 -10  13 2903.53  781.02
   4  10 -12  868.73  436.59
   4 -10 -12  413.08  215.94
  -4 -10  12  406.85  350.75
  -4  10  12  327.04  455.34
   4  10 -11 1064.15  505.79
   4 -10 -11 1532.00  247.26
  -4 -10  11  588.17  411.80
  -4  10  11  562.99  531.70
   4  10 -10 3017.82  916.95
   4 -10 -10 3559.44  395.74
  -4 -10  10 3232.35  752.49
  -4  10  10 2396.82  721.57
   4  10  -9 1627.42  803.33
   4 -10  -9 2575.37  268.14
  -4  10   9 1668.14  805.45
  -4 -10   9 2152.63  641.05
   4  10  -8 1299.17  456.70
   4 -10  -8 1190.17  218.78
  -4 -10   8  802.14  472.91
  -4  10   8 1032.52  472.33
   4  10  -7 5697.72  811.57
   4 -10  -7 6267.85  456.22
  -4  10   7 5110.54 1102.41
  -4 -10   7 7066.44  815.77
   4  10  -6 5509.23  799.54
   4 -10  -6 7313.65  492.47
  -4 -10   6 8220.65  836.16
  -4  10   6 5854.45 1182.53
   4  10  -5 3932.63  933.39
   4 -10  -5 5435.16  359.46
  -4  10   5 5718.68  758.23
  -4 -10   5 5639.84  625.79
   4  10  -4 4135.52  702.76
   4 -10  -4 2534.17  225.38
  -4 -10   4 3931.98  401.32
  -4  10   4 2727.75  743.55
   4  10  -3 5226.25  928.04
   4 -10  -3 5320.21  338.23
  -4 -10   3 6842.18  568.01
  -4  10   3 6900.53  968.22
   4  10  -253260.82 3999.50
   4  10  -243096.29 2231.70
  -4 -10   255946.64 3407.19
  -4  10   244500.85 2732.88
  -4  10   249366.07 3892.09
   4  10  -1 8733.06  325.42
   4  10  -1 9166.91 1068.37
  -4 -10   1 9138.88  532.85
  -4  10   110180.66 1164.88
   4  10   0  863.07   65.47
   4 -10   0  483.89  114.61
   4 -10   0 1278.28  456.82
   4  10   0  616.80  403.87
  -4 -10   0  848.02  100.67
   4  10   1 2513.36  555.67
   4 -10   1 2303.59  396.51
   4  10   2  262.76  309.29
   4 -10   2  131.08   83.42
   4 -10   2  415.79  268.38
   4 -10   3  335.15   94.43
   4 -10   3  818.52  303.14
   4  10   3  802.54  244.79
   4  10   4 3695.78  552.54
   4 -10   4 3632.12  440.84
   4  10   5   83.03  276.52
   4 -10   5  160.20  193.55
   4 -10   5  254.04  105.29
   4  10   6 1445.14  358.73
   4 -10   6  687.90  139.59
   4 -10   6 1195.37  233.17
   4  10   7 -139.88  194.12
   4 -10   7  165.72  167.86
   4 -10   7  157.25   74.22
   4  10   8 1465.61  412.59
   4 -10   8 1732.85  274.71
  -4  10  -8 1505.25  200.52
   4  10   9 2456.06  521.38
   4 -10   9 2863.67  444.25
  -4  10  -9 2229.15  266.15
   4 -10  10 1054.28  264.41
  -4  10 -10 1350.11  261.62
   4 -10  11 2678.89  418.71
  -4 -10 -11 2450.29  417.54
  -4  10 -11  866.23  266.21
   4 -10  12 6826.73  771.93
  -4  10 -12 7545.43  697.18
  -4 -10 -12 5942.49 1013.59
   4 -10  13   60.15  274.42
  -4 -10 -13  923.86  303.26
  -4  10 -13  -97.07  231.00
   4 -10  14  821.50  393.43
  -4 -10 -14 1013.85  428.10
  -4  10 -14 1162.05  345.16
   4 -10  15  135.57  284.27
  -4 -10 -15   92.71  319.73
  -4  10 -15   84.71  263.85
   4 -10  16  116.36  322.09
  -4  10 -16  167.58  277.35
  -4 -10 -16  340.60  357.75
   4 -10  17   44.94  222.63
  -4 -10 -17 -448.01  460.85
   4 -10  18 1308.87  528.83
  -4 -10 -18 1047.37  561.76
   4 -10  19  367.72  306.98
  -4 -10 -19   69.57  631.24
   4 -10  20 1134.15  583.13
  -4 -10 -20  779.09  819.68
   4 -10  21  279.63  345.69
  -4 -10 -21  137.42  505.30
   4 -10  22  872.87  717.94
   4  11 -24  597.07  559.00
   4 -11 -24  509.24  456.41
  -4 -11  24 1725.08  765.87
  -4  11  24  174.39  855.87
   4  11 -23  991.73  571.29
   4 -11 -23  779.60  330.99
  -4 -11  23  826.56  769.33
  -4  11  23 1579.72  873.57
   4  11 -22 1131.56  648.95
   4 -11 -22  752.73  315.07
  -4 -11  22 2778.93  997.26
  -4  11  22 -164.35 1136.58
   4  11 -21 1027.30  422.93
   4 -11 -21  404.21  288.07
  -4 -11  21  784.56  856.29
  -4  11  21 1858.99 1007.44
   4  11 -20   29.19  614.31
   4 -11 -20  488.67  350.85
  -4 -11  20  -55.23  770.38
  -4  11  20 1807.34  683.74
   4 -11 -19 6962.48  873.21
   4  11 -19 8585.76 1125.55
  -4 -11  19 8854.74 1364.59
  -4  11  19 6102.67 2022.83
   4  11 -18  520.45  566.63
   4 -11 -18  416.61  287.59
  -4 -11  18  322.81  638.44
  -4  11  18 -221.67  541.88
   4  11 -1711465.33 1324.84
   4 -11 -1710123.09  947.79
  -4 -11  17 9673.69 1363.86
  -4  11  17 8831.85 1550.55
   4  11 -16  907.02  714.79
   4 -11 -16  921.38  346.51
  -4 -11  16  510.39  705.00
  -4  11  16 1414.75  630.70
   4  11 -15 2893.02  898.65
   4 -11 -15 2157.90  430.69
  -4 -11  15 1848.81  636.41
  -4  11  15 2755.67  755.45
   4  11 -14  476.39  580.61
   4 -11 -14  246.18  225.11
  -4 -11  14  -10.67  492.62
  -4  11  14  338.66  601.22
   4 -11 -13 4918.61  493.34
   4  11 -13 5111.87 1172.45
  -4 -11  13 4074.05 1026.94
  -4  11  13 2742.82 1239.53
   4  11 -12  212.62  523.55
   4 -11 -12  218.27  190.19
  -4 -11  12   59.11  432.18
  -4  11  12  200.72  566.59
   4  11 -11 1519.25  531.86
   4 -11 -11 1237.64  268.26
  -4 -11  11 1298.32  593.98
  -4  11  11 1812.00  591.15
   4  11 -10 4854.45 1293.54
   4 -11 -10 7126.47  511.15
  -4 -11  10 7102.04 1013.24
  -4  11  10 5279.65  972.40
   4 -11  -9  164.47  124.33
   4  11  -9  165.16  356.03
  -4 -11   9    2.44  346.29
  -4  11   9  700.67  498.78
   4  11  -8  514.94  310.27
   4 -11  -8  -20.16  101.39
  -4 -11   8  441.97  306.66
  -4  11   8  114.15  318.81
   4  11  -7  728.68  582.16
  -4 -11   7  963.48  426.76
  -4  11   7 1592.69  624.52
   4  11  -6  563.34  426.78
   4 -11  -6  198.46  109.28
  -4 -11   6  231.46  293.97
  -4  11   6  541.35  453.28
   4  11  -517430.47 1815.37
   4 -11  -514702.28  715.63
  -4 -11   517456.30 1312.69
  -4  11   515185.68 1528.10
   4  11  -4 8068.74  863.18
   4 -11  -4 7600.20  365.83
  -4 -11   4 8939.40  663.05
  -4  11   4 9973.27 1282.32
   4  11  -321250.44 1691.70
   4 -11  -317940.44  834.79
  -4 -11   322025.59 1268.55
  -4  11   319078.01 1691.48
   4  11  -221387.73 1773.84
   4 -11  -222548.91 1075.88
  -4 -11   221965.96 1337.66
  -4  11   220349.57 1091.24
  -4  11   226079.74 2273.75
   4  11  -1 -221.07  204.34
   4  11  -1   20.10   49.84
   4 -11  -1  115.27   61.46
  -4 -11   1   77.11  104.68
  -4  11   1  -30.93   35.28
   4  11   0 2685.38  390.13
   4 -11   0 1897.27  537.92
  -4 -11   0 1579.38  116.35
   4  11   1 2853.37  500.51
   4 -11   1 4334.87  474.11
   4  11   2  473.52  293.18
   4 -11   2  867.14  251.80
   4  11   322447.42 1918.89
   4 -11   321372.97 1493.83
   4  11   4 9033.79  970.35
   4 -11   4 7314.46  647.15
   4  11   512350.71 1168.30
   4 -11   512069.89  913.60
   4  11   6  622.62  326.98
   4 -11   6  581.49  111.65
   4 -11   6 1019.13  225.87
   4  11   7  520.55  214.63
   4 -11   7   75.09  178.91
   4 -11   7  151.79   96.36
   4  11   8   14.39  230.11
   4 -11   8  -27.58  204.02
   4  11   9 8394.74  943.66
   4 -11   9 8116.89  640.88
  -4  11  -9 7456.08  503.33
   4  11  10 1302.85  301.03
   4 -11  10  709.18  318.69
  -4  11 -10  671.11  188.11
   4 -11  11 2826.69  461.33
  -4 -11 -11 2070.23  445.72
  -4  11 -11 1738.26  288.82
   4 -11  12 1000.46  261.59
  -4 -11 -12 1689.23  500.62
  -4  11 -12  577.34  249.90
   4 -11  13  282.06  223.24
  -4 -11 -13 -166.87  321.18
  -4  11 -13  516.90  196.28
   4 -11  14   25.91  194.56
  -4 -11 -14 -108.32  292.05
  -4  11 -14 -130.21  214.15
   4 -11  15 1396.38  440.76
  -4 -11 -15  836.29  476.66
   4 -11  16  806.73  381.38
  -4 -11 -16  106.80  416.25
   4 -11  17 1821.14  462.00
  -4 -11 -17 2683.74  908.94
   4 -11  18  -29.44  381.57
  -4 -11 -18  439.30  402.77
   4 -11  19 1645.71  587.44
  -4 -11 -19  847.81  858.85
   4 -11  20  819.73  527.67
  -4 -11 -20  365.79  561.72
   4 -11  21  467.31  402.82
  -4 -11 -21  893.50  594.51
   4 -11  22 1577.05  849.16
   4  12 -24  334.83  381.19
   4 -12 -24  471.73  309.59
  -4 -12  24  195.94  708.24
  -4  12  24  642.82  820.32
   4  12 -23  529.53  413.41
   4 -12 -23 -217.34  384.16
  -4 -12  23   16.25  654.35
  -4  12  23 2082.87  743.75
   4  12 -22 1999.67  781.83
   4 -12 -22 1868.91  531.79
  -4  12  22 2577.30 1344.01
  -4 -12  22  671.62 1163.37
   4  12 -21  -74.19  512.30
   4 -12 -21  108.93  346.61
  -4 -12  21 1271.72  772.93
  -4  12  21 1877.21  890.42
   4  12 -20 1282.25  481.42
   4 -12 -20  297.97  357.02
  -4 -12  20  -25.32  816.18
  -4  12  20  953.22  682.89
   4  12 -19   84.83  567.68
   4 -12 -19  408.78  311.49
  -4 -12  19  292.73  499.80
  -4  12  19  184.51  796.22
   4  12 -18  353.71  391.74
   4 -12 -18  157.64  272.13
  -4 -12  18   26.28  599.59
  -4  12  18  -40.70  513.79
   4  12 -17  369.05  492.65
   4 -12 -17   72.17  170.09
  -4 -12  17 -170.54  539.92
  -4  12  17  280.31  462.15
   4  12 -16 1614.48  778.46
   4 -12 -16 1298.06  263.21
  -4 -12  16  380.22  773.95
  -4  12  16 1110.66  698.62
   4  12 -15  321.35  566.35
   4 -12 -15   97.64  210.01
  -4 -12  15  210.92  438.01
  -4  12  15  -83.40  434.37
   4  12 -14  531.82  472.08
   4 -12 -14  447.06  239.45
  -4 -12  14  445.17  490.00
  -4  12  14  195.77  694.75
   4  12 -1312444.44 1841.11
   4 -12 -1311030.70  868.63
  -4 -12  13 9856.31 1132.01
  -4  12  1310813.85 1485.13
   4  12 -12 9589.39 1536.15
   4 -12 -12 8433.45  688.46
  -4 -12  12 9367.94 1223.34
  -4  12  12 6859.49 1702.07
   4  12 -11 1449.31  755.98
   4 -12 -11 1421.07  259.76
  -4 -12  11  995.25  529.70
  -4  12  11 1192.19  793.61
   4  12 -10 1744.10  584.07
   4 -12 -10 1616.89  231.07
  -4  12  10 1348.04  820.67
  -4 -12  10 2355.58  541.71
   4  12  -911141.36 1748.81
   4 -12  -912440.53  738.55
  -4 -12   911079.97 1224.41
  -4  12   911067.57 1739.50
   4  12  -8 3079.85  987.35
   4 -12  -8 4293.97  328.74
  -4 -12   8 5120.35  663.50
  -4  12   8 3287.93  748.82
   4  12  -7 3148.18  965.75
   4 -12  -7 4692.97  287.32
  -4 -12   7 4348.75  720.14
  -4  12   7 3559.02  995.88
   4  12  -6 3972.72  662.70
  -4  12   6 4223.27  950.05
  -4 -12   6 3810.17  629.22
   4  12  -5 1612.17  484.28
   4 -12  -5 2013.45  146.62
  -4 -12   5 2053.05  384.90
  -4  12   5 1904.02  698.84
   4  12  -4 1181.04  464.35
   4 -12  -4 1951.80  150.57
  -4 -12   4 2348.80  339.72
  -4  12   4 1797.95  471.61
   4  12  -3  918.42  410.29
   4 -12  -3 1314.35  101.60
  -4 -12   3 1477.10  296.96
  -4  12   3  875.74  170.87
  -4  12   3 3090.82  574.91
   4  12  -2 1483.44  374.04
   4 -12  -2 1052.13   69.09
  -4 -12   2 1067.48  238.35
  -4  12   2 1046.01  136.19
  -4  12   2 1133.91  394.06
   4  12  -1 5793.85  657.54
   4  12  -1 4548.15  206.64
   4 -12  -1 5574.92  680.04
  -4 -12   1 5686.69  345.27
   4 -12   030169.35 1983.20
  -4 -12   017430.39  772.16
   4  12   1 4430.71  782.01
   4 -12   1 5574.90  740.40
   4  12   2 2997.87  658.59
   4 -12   2 3430.09  565.10
   4  12   3 5189.61  795.32
   4 -12   3 6031.94  739.74
   4  12   4  133.95  238.59
   4 -12   4  246.08  266.76
   4  12   5 4800.69  567.16
   4 -12   5 5820.64  682.85
   4  12   6  806.07  312.64
   4 -12   6   -4.32  182.36
   4  12   7  447.43  234.11
   4 -12   7  212.27  279.02
   4  12   8 1022.87  371.41
   4 -12   8  171.90  280.65
   4  12   9  585.80  342.49
   4 -12   9  448.72  304.41
  -4  12  -9  498.13  181.57
   4  12  10 1144.45  413.14
   4 -12  10  412.33  242.51
  -4  12 -10 1128.97  187.46
   4 -12  11 2697.74  458.68
   4  12  11 1499.01  254.05
   4 -12  12  124.31  281.47
  -4 -12 -12  401.01  394.82
   4 -12  13 1087.81  402.48
  -4 -12 -13 1146.43  412.65
   4 -12  14  196.45  348.79
  -4 -12 -14  932.51  372.82
   4 -12  15  -17.55  197.14
   4 -12  16  122.14  362.70
  -4 -12 -16  977.80  546.35
   4 -12  17  436.58  436.33
  -4 -12 -17 1402.91  659.08
   4 -12  18   98.88  265.30
  -4 -12 -18  423.74  409.62
   4 -12  19 3750.17  774.13
  -4 -12 -19 1854.58 1119.28
   4 -12  20 1467.71  560.51
  -4 -12 -20  318.50  599.46
   4 -12  21 3246.29  664.91
  -4 -12 -21 2500.87  922.69
   4  13 -24  976.29  636.77
   4 -13 -24 1021.92  538.27
  -4 -13  24 1894.29  895.19
  -4  13  24  261.43 1333.11
   4  13 -23  729.61  684.84
   4 -13 -23  781.41  483.14
  -4 -13  23 1327.27 1067.49
  -4  13  23 1973.75 1211.90
   4  13 -22 4136.03  765.00
   4 -13 -22 2802.48  701.15
  -4 -13  22 4694.73 1531.01
  -4  13  22 4364.80 1269.96
   4 -13 -21  528.84  401.56
   4  13 -21  927.53  727.14
  -4 -13  21 1244.72  928.90
  -4  13  21 1579.21 1060.82
   4  13 -20 2071.22  755.47
   4 -13 -20  631.18  422.37
  -4 -13  20 2347.30  944.07
  -4  13  20  759.20  784.63
   4 -13 -19  312.18  222.58
   4  13 -19  248.12  453.42
  -4 -13  19  388.25  514.95
  -4  13  19  192.52  818.29
   4  13 -18  427.70  547.93
   4 -13 -18  132.17  194.47
  -4 -13  18  -82.92  602.35
  -4  13  18  262.65  526.16
   4 -13 -17   37.35  227.67
   4  13 -17 -100.50  516.19
  -4 -13  17 -346.79  475.17
  -4  13  17  -97.46  448.27
   4  13 -16  356.61  442.98
   4 -13 -16  287.63  266.11
  -4 -13  16  492.27  394.92
  -4  13  16  297.52  553.71
   4  13 -15  625.53  528.02
   4 -13 -15  445.72  271.39
  -4 -13  15  853.39  562.41
  -4  13  15  841.83  576.27
   4  13 -14  201.04  430.55
   4 -13 -14  200.36  208.27
  -4 -13  14   76.97  320.08
  -4  13  14  351.33  645.81
   4 -13 -13  803.53  257.22
   4  13 -13 1000.38  523.89
  -4 -13  13  439.93  540.36
  -4  13  13  912.21  567.83
   4  13 -12 5004.33 1036.46
   4 -13 -12 6243.52  533.05
  -4 -13  12 6060.93  979.78
  -4  13  12 4427.35 1397.31
   4 -13 -1115691.68  999.36
   4  13 -1115288.36 2174.70
  -4 -13  1113870.37 1630.31
  -4  13  1116148.94 2333.27
   4  13 -10 3631.86 1177.05
   4 -13 -10 5032.30  378.77
  -4 -13  10 5262.67  818.25
  -4  13  10 5562.92 1256.80
   4 -13  -9 3006.13  293.32
   4  13  -9 3541.61  962.08
  -4 -13   9 3552.09  634.94
  -4  13   9 3473.66 1012.80
   4  13  -8 2920.12  752.80
   4 -13  -8 4232.66  309.13
  -4 -13   8 4146.26  661.79
  -4  13   8 3779.20  766.24
   4  13  -7 2260.18  746.64
   4 -13  -7 1814.89  169.93
  -4 -13   7 1689.04  406.26
  -4  13   7 2444.02  762.62
   4  13  -6 5483.49 1098.51
   4 -13  -6 5917.44  304.19
  -4 -13   6 7009.36  635.54
  -4  13   6 4959.94 1147.69
   4  13  -5  236.04  371.37
   4 -13  -5   41.07   60.49
  -4 -13   5  222.18  248.92
  -4  13   5  -41.72  403.16
   4  13  -4  792.56  508.68
  -4 -13   4  577.76  260.16
  -4  13   4 1060.46  384.73
   4 -13  -3  174.07   51.85
   4  13  -3  142.31  291.19
  -4 -13   3  279.51  171.30
  -4  13   3  205.11  100.67
  -4  13   3  188.12  294.63
   4  13  -2 4952.43  630.86
  -4 -13   2 3742.90  389.23
  -4  13   2 4546.70  846.09
   4  13  -1 6225.63  694.49
   4 -13  -1 7382.44  979.63
  -4 -13   1 4774.73  333.18
   4  13   013136.53 1468.61
   4 -13   012240.18 1059.91
   4  13   1 1034.16  497.72
   4 -13   1 1213.57  437.85
   4  13   2  236.82  248.14
   4 -13   2  -15.00  280.01
   4  13   3  259.76  262.03
   4 -13   3  418.01  232.17
   4  13   414259.76 1236.36
   4 -13   413870.89 1035.98
   4 -13   5 9411.58  931.36
   4  13   5 7498.53  751.25
   4  13   6 1088.88  330.12
   4 -13   6  847.35  349.13
   4  13   7  524.95  370.68
   4 -13   7  736.45  329.00
   4  13   8  266.49  278.56
   4 -13   8  -45.62  161.49
   4  13   9  373.05  285.66
   4 -13   9 -117.53  247.61
   4  13  10  294.61  348.76
   4 -13  10  305.14  281.08
   4  13  11  959.49  361.23
   4 -13  11 1258.75  294.37
   4 -13  12 5007.24  546.89
   4 -13  13  283.93  226.51
  -4 -13 -13  181.64  310.64
   4 -13  14  414.27  360.13
  -4 -13 -14  621.63  374.84
   4 -13  15  559.75  360.08
  -4 -13 -15  233.91  382.79
   4 -13  16 -188.84  235.22
  -4 -13 -16    5.72  357.21
   4 -13  17  304.62  413.27
  -4 -13 -17  606.77  585.62
   4 -13  18  946.47  366.55
  -4 -13 -18 1061.41  545.90
   4 -13  19  398.56  445.87
  -4 -13 -19  204.87  642.10
   4 -13  20  200.28  336.95
  -4 -13 -20  452.20  488.22
   4 -13  21 1180.44  643.03
  -4 -13 -21  726.88  652.47
   4  14 -23   53.98  462.53
   4 -14 -23 -115.21  331.04
  -4 -14  23  289.58  713.16
  -4  14  23  335.69  809.87
   4  14 -22 -301.65  459.93
   4 -14 -22  251.88  326.50
  -4 -14  22  360.81  714.96
  -4  14  22 -187.66  598.71
   4  14 -21 -346.33  475.86
   4 -14 -21  410.77  382.37
  -4 -14  21 1798.44  849.67
  -4  14  21 1938.96  977.26
   4  14 -20 1710.94  625.07
   4 -14 -20   85.16  247.13
  -4 -14  20  575.71  564.65
  -4  14  20  444.75  651.24
   4 -14 -19   93.15  329.29
   4  14 -19 1440.32  637.68
  -4 -14  19   94.38  537.91
  -4  14  19 1478.09  877.54
   4  14 -18  209.10  550.95
   4 -14 -18  177.73  271.82
  -4 -14  18   51.67  553.34
  -4  14  18   90.81  547.12
   4  14 -17   32.42  393.01
   4 -14 -17   75.81  234.88
  -4 -14  17  164.81  494.10
  -4  14  17  -41.91  485.51
   4  14 -16   96.67  538.95
   4 -14 -16  163.36  170.28
  -4 -14  16    8.42  352.21
  -4  14  16 -151.77  487.85
   4  14 -15  480.74  682.33
   4 -14 -15  319.66  251.20
  -4 -14  15  647.65  533.09
  -4  14  15   75.61  764.04
   4  14 -14 1371.51  934.10
   4 -14 -14 2354.02  355.53
  -4 -14  14  903.02  527.07
  -4  14  14 2272.61 1043.49
   4  14 -13  -50.71  579.93
   4 -14 -13  200.17  202.24
  -4 -14  13 -153.72  437.09
  -4  14  13  919.75  471.24
   4  14 -12 6738.39 1684.24
   4 -14 -12 9230.55  699.00
  -4 -14  12 9389.50 1279.44
  -4  14  12 8327.94 1830.00
   4 -14 -11 1974.27  252.73
   4  14 -11  589.92  646.73
  -4 -14  11 2368.73  624.59
  -4  14  11 1960.66  903.96
   4  14 -1019817.60 2577.67
   4 -14 -1019013.43 1113.19
  -4 -14  1020303.40 1904.66
  -4  14  1016932.96 2660.20
   4  14  -9  440.95  439.78
  -4 -14   9  605.44  392.80
  -4  14   9  489.27  639.07
   4  14  -8 9528.84 1553.95
   4 -14  -8 8758.01  505.07
  -4 -14   810849.24 1074.76
  -4  14   8 9899.47 1275.62
   4 -14  -7 7578.49  411.41
   4  14  -7 7820.37 1036.18
  -4 -14   7 7463.80  860.00
  -4  14   7 9112.76 1419.15
   4  14  -6 4959.90 1020.76
   4 -14  -6 5158.13  272.93
  -4 -14   6 5453.93  597.41
  -4  14   6 3457.86 1088.59
   4 -14  -5 2536.96  185.40
   4  14  -5 1422.04  740.09
  -4 -14   5 2989.62  406.04
  -4  14   5 1863.25  775.00
   4  14  -4 4759.83 1034.34
   4 -14  -4 5614.25  271.26
  -4 -14   4 6372.17  560.75
  -4  14   4 4366.64 1018.78
   4  14  -3 2677.55  673.82
  -4 -14   3 5377.67  472.35
  -4  14   3 3743.10  891.45
   4  14  -2 1904.94  451.59
   4 -14  -2  917.72  266.87
  -4 -14   2 2080.60  294.42
   4  14  -1 2257.50  543.50
   4 -14  -1 1781.16  574.04
  -4 -14   1  993.22  184.41
   4  14   0 7071.49 1033.04
   4 -14   0 6409.44  713.68
   4  14   1  793.83  340.91
   4 -14   1  572.79  371.44
   4  14   2 6307.09  779.70
   4 -14   2 6803.52  854.71
   4  14   3   12.21  382.26
   4 -14   3  254.60  215.75
   4 -14   4 2111.77  499.97
   4  14   4 2396.82  613.02
   4  14   5 2018.46  525.98
   4 -14   5 1701.94  343.37
   4  14   6 -265.48  236.42
   4 -14   6  -28.00  257.36
   4  14   7  384.72  342.46
   4 -14   7  297.91  294.84
   4 -14   8  135.42  178.93
   4  14   8 -658.70  297.18
   4  14   9 2468.82  596.75
   4 -14   9 2140.00  487.83
   4  14  10  918.60  400.80
   4 -14  10  377.08  328.12
   4  14  11  785.77  311.73
   4 -14  11  354.41  333.40
   4  14  12 1775.52  449.18
   4 -14  12 2052.26  489.36
   4 -14  13   -8.32  251.45
   4 -14  14    4.48  248.32
  -4 -14 -14 1248.97  363.89
   4 -14  15  -90.27  236.82
  -4 -14 -15  788.27  349.01
   4 -14  16 8176.44  972.67
  -4 -14 -16 4485.60 1302.32
   4 -14  17  689.19  326.25
  -4 -14 -17  706.13  657.19
   4 -14  18 2447.57  668.06
   4 -14  19  871.03  379.33
  -4 -14 -19   -0.17  740.89
   4 -14  20  433.63  545.51
  -4 -14 -20  994.11  586.41
   4 -14  21 2128.55  829.13
   4  15 -23 2745.28  980.29
   4 -15 -23 2066.92  696.64
  -4 -15  23 1864.50 1479.88
  -4  15  23 4806.78 1738.78
   4  15 -22 2532.25  752.47
   4 -15 -22 3557.27  731.93
  -4 -15  22 3885.25 1545.18
  -4  15  22 4538.36 1799.44
   4  15 -21 3992.35 1178.77
   4 -15 -21 2633.19  687.44
  -4 -15  21 5238.14 1124.54
  -4  15  21 3843.91 1746.37
   4  15 -20 3689.89 1011.02
   4 -15 -20 2563.66  438.40
  -4 -15  20 1595.01  931.19
  -4  15  20 2137.40 1493.29
   4  15 -19 2619.97  934.39
   4 -15 -19 1554.51  477.61
  -4 -15  19  649.07  960.97
  -4  15  19 4277.74 1286.40
   4  15 -18  915.31  629.13
   4 -15 -18  271.57  308.35
  -4 -15  18  413.69  640.37
  -4  15  18  136.45  626.93
   4  15 -17  470.24  684.57
   4 -15 -17  348.50  301.98
  -4 -15  17  184.50  630.01
  -4  15  17 1221.74  641.75
   4  15 -16  -25.17  431.60
   4 -15 -16  202.73  249.94
  -4 -15  16  204.81  392.44
  -4  15  16  608.77  535.17
   4  15 -15  981.59  736.37
   4 -15 -15 1995.73  387.83
  -4 -15  15 1908.32  789.14
  -4  15  15 1403.53 1085.65
   4  15 -14 9122.14 1399.19
   4 -15 -14 9065.16  814.61
  -4 -15  14 9873.46 1437.28
  -4  15  14 6289.14 1952.91
   4  15 -13 1863.68  571.12
   4 -15 -13 1056.20  272.20
  -4 -15  13   -9.81  579.95
  -4  15  13  317.00  637.56
   4  15 -12 2059.68  727.95
   4 -15 -12 2759.51  343.68
  -4 -15  12  709.57  644.66
  -4  15  12 2773.64 1051.42
   4  15 -11 3609.88 1259.24
   4 -15 -11 6010.18  486.04
  -4 -15  11 3310.86  829.58
  -4  15  11 4539.16 1380.53
   4  15 -10 3202.85 1079.40
   4 -15 -10 3653.17  344.62
  -4 -15  10 2137.51  631.22
  -4  15  10 3545.14 1150.84
   4  15  -9  388.58  387.21
   4 -15  -9  249.39  144.83
  -4 -15   9   85.19  317.09
  -4  15   9   77.63  562.21
   4  15  -8 1058.26  579.23
   4 -15  -8  350.73  122.68
  -4 -15   8  336.90  314.40
  -4  15   8  796.43  429.48
   4  15  -7  728.33  473.49
   4 -15  -7  124.64   91.34
  -4  15   7  322.79  489.31
  -4 -15   7  -45.58  249.30
   4  15  -6 1506.08  483.00
   4 -15  -6 1134.51  159.49
  -4 -15   6 1225.15  288.26
  -4  15   6 1244.52  685.90
   4  15  -5  275.44  438.57
   4 -15  -5  196.12   73.17
  -4 -15   5  442.06  222.09
  -4  15   5  228.81  333.83
   4  15  -4 1512.32  616.10
  -4 -15   4 1251.45  287.50
  -4  15   4  706.27  454.22
   4  15  -3  570.78  458.73
  -4 -15   3 1465.03  267.92
  -4  15   3 1240.10  458.79
   4  15  -2 3424.51  799.53
   4 -15  -2 2970.39  790.09
  -4 -15   2 2719.79  410.60
   4  15  -1  450.75  422.83
   4 -15  -1  500.28  315.59
  -4 -15   1  205.97  137.76
   4  15   0 1565.05  489.39
   4 -15   0 1667.08  392.24
   4  15   1   34.25  363.14
   4 -15   1 -150.51  291.74
   4 -15   2   92.52  225.77
   4  15   2  553.98  398.20
   4  15   3 1552.35  595.36
   4 -15   3 1537.84  474.00
   4  15   4 2435.33  690.52
   4 -15   4 2868.27  434.85
   4  15   513503.27 1558.65
   4 -15   511258.00 1067.08
   4 -15   6 2685.13  476.04
   4  15   6 2256.69  444.13
   4  15   7 2263.53  525.93
   4 -15   7 1005.97  296.40
   4  15   8 2206.53  558.65
   4 -15   8 1872.50  343.65
   4  15   9 -484.71  339.89
   4 -15   9   87.73  269.38
   4  15  10  377.80  417.52
   4 -15  10  788.31  332.90
   4  15  11 2388.66  474.55
   4 -15  11 2568.06  525.96
   4  15  12 1403.21  474.29
   4 -15  12  403.44  278.45
   4  15  13  406.34  350.19
   4 -15  13  525.10  264.11
   4 -15  14  -67.51  307.21
  -4 -15 -14  351.39  317.46
   4 -15  15 1365.42  470.21
  -4 -15 -15  866.81  477.90
   4 -15  16 1184.11  366.16
  -4 -15 -16 1263.32  712.26
   4 -15  17  382.05  371.18
  -4 -15 -17 -218.70  543.19
   4 -15  18 1025.56  374.62
  -4 -15 -18  653.52  554.02
   4 -15  19  245.18  371.64
  -4 -15 -19 -431.45  529.07
   4 -15  20  679.74  577.99
  -4 -15 -20 1053.50  618.01
   4  16 -22  -69.26  624.11
   4 -16 -22  194.10  468.97
  -4  16  22 1941.36 1149.05
  -4 -16  22 1555.81  726.91
   4  16 -21  839.93  716.58
   4 -16 -21  477.30  424.93
  -4 -16  21  -78.80  678.54
  -4  16  21 1438.81  809.55
   4  16 -20 1906.74  803.70
   4 -16 -20  704.57  453.40
  -4 -16  20  323.33  907.58
  -4  16  20 2942.07 1205.55
   4  16 -19  332.76  817.12
   4 -16 -19 1109.71  425.98
  -4 -16  19 1005.71  861.92
  -4  16  19 1805.85 1152.78
   4  16 -18  671.16  695.92
   4 -16 -18  774.97  264.40
  -4  16  18  -13.00  700.14
  -4 -16  18  480.65  730.10
   4  16 -17  329.95  521.89
   4 -16 -17  758.67  337.35
  -4 -16  17 1064.08  699.78
  -4  16  17  149.70  667.80
   4  16 -16  202.76  522.92
   4 -16 -16   -1.67  223.34
  -4  16  16   81.44  477.35
  -4 -16  16 -261.00  344.85
   4  16 -15  162.82  713.93
   4 -16 -15  356.62  269.84
  -4 -16  15  387.67  570.37
  -4  16  15  748.99  803.30
   4  16 -14  955.59  729.52
   4 -16 -14  638.04  272.10
  -4  16  14  701.81  829.52
  -4 -16  14  102.67  525.05
   4  16 -13 6163.13 1462.77
   4 -16 -13 5803.80  605.23
  -4 -16  13 5792.32 1033.92
  -4  16  13 6173.22 1250.84
   4  16 -12  334.57  611.28
   4 -16 -12  240.06  177.43
  -4 -16  12  167.23  396.61
  -4  16  12  222.15  662.87
   4  16 -11  787.07  727.68
   4 -16 -11  883.15  231.17
  -4 -16  11  295.97  451.85
  -4  16  11 1070.29  794.03
   4  16 -10  630.07  408.39
   4 -16 -10  -13.38  133.09
  -4 -16  10  108.18  314.05
  -4  16  10  933.73  559.69
   4  16  -9 8105.02 1323.08
   4 -16  -9 5610.63  446.09
  -4 -16   9 4808.35  789.95
  -4  16   9 5315.12 1365.52
   4  16  -8  341.19  444.79
   4 -16  -8  470.78  139.95
  -4 -16   8  548.15  328.13
  -4  16   8  467.74  451.57
   4  16  -7   67.13  486.15
   4 -16  -7  104.11   97.14
  -4 -16   7  167.15  258.86
  -4  16   7  366.49  506.27
   4  16  -6 1263.00  550.35
  -4  16   6 1633.92  556.99
  -4 -16   6 1857.52  335.93
   4  16  -5 1281.57  719.15
  -4 -16   5 1913.69  310.73
  -4  16   5 1241.96  527.81
   4  16  -4 2910.97  830.60
  -4 -16   4 2661.86  326.93
  -4  16   4 1926.78  795.74
   4  16  -3 1488.85  528.97
  -4 -16   3 1787.61  374.85
   4  16  -2  756.11  444.57
   4 -16  -2  452.31  320.38
  -4 -16   2   32.18  152.96
   4  16  -1 6807.78  891.01
   4 -16  -1 5401.40  735.72
  -4 -16   1 6017.53  509.96
   4  16   0 1085.40  566.40
   4 -16   0  893.95  467.24
   4 -16   1 4016.62  786.53
   4  16   1 5943.30 1003.31
   4  16   2 -132.18  307.83
   4 -16   2 -232.98  232.04
   4  16   3 1007.49  404.59
   4 -16   3  868.11  309.40
   4  16   4  911.65  362.60
   4 -16   4  500.07  362.58
   4  16   5  441.81  410.76
   4 -16   5  159.81  263.80
   4  16   6 -300.07  254.06
   4 -16   6  -56.09  187.25
   4  16   7  449.99  392.81
   4 -16   7  213.15  212.54
   4  16   8  -36.20  338.64
   4 -16   8  191.70  200.72
   4  16   9 1575.59  542.70
   4 -16   9 1105.97  415.60
   4  16  10 2897.58  554.30
   4 -16  10 3112.96  556.47
   4  16  11  575.89  299.33
   4 -16  11  199.62  231.11
   4  16  12   95.07  342.29
   4 -16  12   -0.99  193.60
   4 -16  13  578.24  360.67
   4  16  13  213.38  476.93
   4  16  14  328.02  350.77
   4 -16  14  266.75  354.70
   4 -16  15 1530.69  398.78
   4 -16  16  977.18  441.73
  -4 -16 -16  157.20  623.66
   4 -16  17 3337.14  540.90
  -4 -16 -17 2978.38 1044.84
   4 -16  18  377.64  408.48
  -4 -16 -18  108.98  442.62
   4 -16  19 2554.79  724.01
  -4 -16 -19 2331.54 1070.78
   4 -16  20  706.23  420.02
   4  17 -22  497.09  634.41
   4 -17 -22  273.31  482.14
  -4 -17  22 1199.20  999.96
  -4  17  22 1080.29 1195.72
   4  17 -21 3385.00  986.20
   4 -17 -21 1207.84  466.94
  -4 -17  21 2013.59 1147.89
  -4  17  21 2738.77 1077.56
   4  17 -20 1045.28  725.30
   4 -17 -20  -59.53  440.58
  -4 -17  20 1766.00  835.32
  -4  17  20 1951.31 1082.39
   4  17 -19 1299.74  667.35
   4 -17 -19 1517.78  377.17
  -4 -17  19 1492.38  975.93
  -4  17  19 1743.88 1266.65
   4  17 -18 1039.93  780.48
   4 -17 -18  907.47  420.15
  -4 -17  18  394.26  812.51
  -4  17  18 1330.64  791.51
   4 -17 -17  526.86  346.19
   4  17 -17  474.12  711.08
  -4 -17  17  358.02  503.69
  -4  17  17  492.29  682.29
   4  17 -16  842.65  713.16
   4 -17 -16 1552.97  406.86
  -4 -17  16 1349.44  814.67
  -4  17  16 1156.13  813.01
   4 -17 -15  653.72  282.42
   4  17 -15  317.72  532.63
  -4 -17  15   61.32  547.57
  -4  17  15   48.50  834.28
   4  17 -14 2232.15  660.99
   4 -17 -14 1173.53  346.35
  -4 -17  14  626.06  657.99
  -4  17  14 1488.90 1022.02
   4 -17 -1319107.58 1362.37
   4  17 -1317074.86 2134.15
  -4 -17  1316159.15 1953.81
  -4  17  1315477.08 2366.65
   4  17 -12   -6.89  395.89
   4 -17 -12   92.10  189.04
  -4 -17  12   73.06  353.77
  -4  17  12 -223.15  587.69
   4  17 -11  544.18  610.35
   4 -17 -11  935.08  230.18
  -4 -17  11 1166.23  497.08
  -4  17  11 1500.94  843.69
   4  17 -10 4995.06 1439.49
   4 -17 -10 5478.83  462.27
  -4 -17  10 6679.29  892.42
  -4  17  10 4754.62 1464.36
   4  17  -9  585.83  538.26
  -4 -17   9  -53.14  303.39
  -4  17   9  121.57  552.54
   4  17  -8  575.88  517.24
  -4 -17   8  906.10  391.82
  -4  17   8 1184.53  553.81
   4  17  -7  186.26  527.88
  -4 -17   7  197.93  277.44
  -4  17   7  134.34  527.27
   4  17  -6  722.60  445.03
  -4 -17   6  696.77  308.85
  -4  17   6  516.21  445.35
   4  17  -5 1056.27  667.81
  -4 -17   5 1047.26  273.03
  -4  17   5 1932.54  672.43
   4  17  -4  492.70  391.42
  -4 -17   4  333.33  193.11
  -4  17   4  285.33  503.68
   4  17  -3 1359.21  620.08
   4 -17  -3  985.09  451.65
  -4 -17   3  677.80  202.51
   4  17  -2  829.86  415.93
   4 -17  -2  535.25  419.52
  -4 -17   2  657.43  263.40
   4 -17  -1 5175.05  927.34
   4  17  -1 5391.89 1165.59
  -4 -17   1 5460.34  478.53
   4  17   0 1279.31  435.22
   4 -17   0  348.74  442.73
   4  17   1  398.59  362.52
   4 -17   1  351.77  371.15
   4 -17   2 9742.09 1242.39
   4  17   214571.58 1388.52
   4  17   3 6219.73  763.38
   4 -17   3 3382.15  577.24
   4  17   4 1041.13  390.95
   4 -17   4  286.11  258.35
   4  17   5 1626.84  475.30
   4 -17   5  158.43  214.85
   4  17   6  529.86  308.38
   4 -17   6  260.89  301.46
   4  17   7 2576.10  710.49
   4 -17   7 2938.56  541.53
   4  17   8 -205.23  402.17
   4 -17   8  333.19  278.04
   4  17   9 4216.47  784.66
   4 -17   9 2966.94  617.65
   4  17  10  973.07  395.73
   4 -17  10  960.45  397.30
   4  17  11 4803.01  937.99
   4 -17  11 4297.48  530.57
   4  17  12  -98.80  266.22
   4 -17  12  -17.30  281.61
   4  17  13 1763.91  687.11
   4 -17  13 1705.16  519.12
   4  17  14  -52.74  450.57
   4 -17  14  232.45  242.72
   4  17  15 1032.80  433.26
   4 -17  15  342.86  418.65
   4 -17  16  355.41  287.44
   4 -17  17  967.00  487.61
  -4 -17 -17  653.66  518.91
   4 -17  18 -122.35  265.19
  -4 -17 -18  107.98  387.29
   4 -17  19  469.06  482.02
  -4 -17 -19  520.22  718.52
   4  18 -21  696.60  712.54
   4 -18 -21  160.44  452.95
  -4 -18  21  201.77  847.20
  -4  18  21  985.30  807.48
   4  18 -20   16.83  423.07
   4 -18 -20  -36.52  361.06
  -4  18  20  104.87  892.40
  -4 -18  20  862.57  683.55
   4  18 -19  764.11  856.19
   4 -18 -19  783.18  476.12
  -4 -18  19 1083.84  655.54
  -4  18  19 3230.13 1232.20
   4  18 -18  566.27  528.36
   4 -18 -18  356.82  292.13
  -4 -18  18  420.37  553.61
  -4  18  18 2949.73  778.62
   4  18 -17  302.94  777.48
   4 -18 -17  609.30  366.83
  -4 -18  17  430.43  741.87
  -4  18  17 1205.12  712.38
   4  18 -16  452.91  652.19
   4 -18 -16 -105.69  261.10
  -4 -18  16  307.96  483.93
  -4  18  16  339.72  531.70
   4  18 -15  -79.75  555.97
   4 -18 -15  578.40  290.93
  -4 -18  15  -25.37  530.67
  -4  18  15   77.58  805.62
   4  18 -14 5282.47 1149.44
   4 -18 -14 5720.85  610.50
  -4  18  14 2784.15 1675.84
  -4 -18  14 5022.51  844.09
   4  18 -1316703.48 2326.66
   4 -18 -1319149.71 1556.89
  -4 -18  1320245.80 2252.07
  -4  18  1319920.00 2646.32
   4  18 -1236468.92 4007.19
  -4 -18  1236494.24 3507.36
  -4  18  1240876.93 5349.70
   4  18 -11  727.69  739.10
  -4 -18  11  135.02  449.64
  -4  18  11 1451.07  763.15
   4  18 -10 6980.66 1703.99
  -4 -18  10 7705.13 1010.60
  -4  18  10 4593.62 1597.42
   4  18  -9 5140.54 1168.01
  -4 -18   9 3299.05  719.46
  -4  18   9 3018.77 1200.31
   4  18  -8  437.62  467.83
  -4  18   8  753.01  675.47
  -4 -18   8  409.36  354.34
   4  18  -7  -82.03  536.25
  -4 -18   7   80.74  244.22
  -4  18   7  469.45  388.21
   4  18  -6 1864.65  776.30
  -4 -18   6 4041.28  472.85
  -4  18   6 2040.45  959.22
   4  18  -5 2980.83  885.72
  -4 -18   5 2481.83  417.04
  -4  18   5 2284.53  639.25
   4  18  -4 3843.45  692.45
  -4 -18   4 2528.95  343.40
   4  18  -3  375.28  632.82
   4 -18  -3  661.11  608.51
  -4 -18   3  703.29  198.32
   4  18  -2 1057.85  572.35
   4 -18  -2 1497.95  474.52
  -4 -18   2  308.28  159.43
   4  18  -1 7924.82 1042.86
   4 -18  -1 5785.25 1056.46
   4  18   0 3656.54  816.92
   4 -18   0 1487.80  637.41
   4  18   1   67.46  476.81
   4 -18   1  386.07  377.00
   4 -18   2 1951.30  578.32
   4  18   2 2094.25  772.55
   4  18   3 2601.71  777.09
   4 -18   3 1544.04  513.37
   4  18   4  942.43  431.80
   4 -18   4  211.28  363.64
   4  18   5 1294.54  614.60
   4 -18   5 1087.82  382.39
   4  18   6 5563.36  791.16
   4 -18   6 3923.39  634.61
   4  18   7 2340.80  713.10
   4 -18   7 2353.04  515.69
   4  18   8 4445.44  832.14
   4 -18   8 2539.48  580.84
   4  18   9 2160.66  669.17
   4 -18   9 1932.99  510.24
   4  18  10  725.12  389.87
   4 -18  10  891.25  386.86
   4  18  11 3258.57  788.46
   4 -18  11 2190.29  421.39
   4  18  12 2619.18  626.89
   4 -18  12 2610.20  599.52
   4  18  13  319.65  393.99
   4 -18  13 -101.79  292.35
   4  18  14 2268.10  666.62
   4 -18  14 1011.56  364.96
   4  18  15  456.53  524.57
   4 -18  15  245.08  374.18
   4  18  16 1470.26  543.61
   4 -18  16 1238.47  398.41
   4  18  17  327.99  260.70
   4 -18  17  428.40  427.67
   4 -18  18 2248.91  708.20
   4 -18  19 1068.79  437.48
   4  19 -21  762.43  881.07
  -4 -19  21 1102.48  773.67
  -4  19  21 1479.19 1023.65
   4  19 -20 1039.25  725.52
  -4 -19  20 2096.99 1072.62
  -4  19  20 1785.04 1441.37
   4  19 -19 1537.99  932.00
  -4 -19  19 1197.12 1005.68
  -4  19  19 1213.23 1300.51
   4  19 -18 2388.57 1156.03
  -4 -19  18 2554.98 1127.94
  -4  19  18 2053.38 1084.70
   4  19 -17  338.59  638.86
  -4 -19  17 -279.64  553.36
  -4  19  17  486.62  604.59
   4  19 -16 2576.73 1391.80
  -4 -19  16 3014.23 1096.15
  -4  19  16 4516.15 1170.95
   4  19 -15  592.50  821.46
  -4 -19  15  467.97  450.41
  -4  19  15 1022.71  943.12
   4  19 -14  640.78  734.29
  -4 -19  14  105.96  522.67
  -4  19  14  666.99  821.10
   4  19 -13  237.39  611.06
  -4 -19  13   51.63  420.25
  -4  19  13  -15.46  480.44
   4  19 -12 2022.97 1023.58
  -4 -19  12 1894.49  668.95
  -4  19  12  895.95 1085.33
   4  19 -11  993.38  637.72
  -4 -19  11 -144.55  390.34
  -4  19  11  120.06  649.35
   4  19 -10 1202.30  663.90
  -4 -19  10  115.61  363.05
  -4  19  10  -84.60  668.23
   4  19  -9  685.64  629.72
  -4 -19   9  173.39  333.80
  -4  19   9  114.07  646.07
   4  19  -8 1814.18  776.79
  -4 -19   8 2628.96  470.04
  -4  19   8 2455.36  999.50
   4  19  -7  948.60  608.42
  -4 -19   7  100.86  251.97
  -4  19   7  548.53  581.65
   4  19  -6  805.98  708.19
  -4 -19   6  349.65  291.02
  -4  19   6 2258.69  506.58
   4  19  -5  478.75  629.80
  -4 -19   5  470.80  233.86
  -4  19   5 1744.32  620.16
   4  19  -4 1682.12  816.69
   4 -19  -4 1269.11  830.05
  -4 -19   4 1658.24  320.33
   4  19  -316391.09 1765.28
   4 -19  -312143.86 1553.66
   4  19  -2 1644.03  772.49
   4 -19  -2 1397.48  471.69
   4  19  -1  541.78  719.72
   4 -19  -1 1555.42  583.62
   4  19   0  888.26  622.59
   4 -19   0  583.87  471.40
   4 -19   1 2466.60  665.91
   4  19   1 3446.23  936.04
   4  19   2 7944.09 1425.11
   4 -19   2 7975.53 1090.61
   4  19   3 2236.38  724.74
   4 -19   3  732.06  454.38
   4  19   4 4644.74  755.68
   4 -19   4 1623.30  611.11
   4  19   5  551.98  589.02
   4 -19   5  846.87  266.05
   4  19   6 1937.07  509.23
   4 -19   6  977.76  293.87
   4  19   7 1003.95  557.44
   4 -19   7  826.93  283.34
   4  19   8 3858.07  821.79
   4 -19   8 2422.63  427.55
   4 -19   9  345.70  353.69
   4  19   9  716.15  391.79
   4  19  10 -319.34  278.92
   4 -19  10  237.26  264.10
   4  19  11  620.38  461.91
   4 -19  11   61.65  228.00
   4  19  12 -209.22  297.35
   4 -19  12  165.80  273.33
   4 -19  13 1816.49  461.63
   4  19  13  434.55  461.88
   4  19  14 3156.10  787.00
   4 -19  14 1343.96  564.74
   4  19  15 1093.50  578.17
   4 -19  15  219.37  416.69
   4  19  16  405.11  412.33
   4 -19  16  222.70  409.40
   4 -19  17  479.10  347.00
   4  19  17  647.17  473.49
   4  19  18  456.55  472.91
   4 -19  18  351.17  468.18
   4  20 -20 1826.65  977.10
  -4 -20  20 1163.69 1063.54
  -4  20  20   11.54 1374.63
   4  20 -19 1301.55  888.55
  -4 -20  19  815.82  949.27
  -4  20  19  670.37  914.03
   4  20 -18 1279.95  989.49
  -4 -20  18 2256.57  895.63
  -4  20  18  341.56  964.10
   4  20 -17 1061.09  627.82
  -4 -20  17  183.36  545.82
  -4  20  17 1784.56  822.62
   4  20 -16 1953.38  897.27
  -4 -20  16  233.01  657.74
  -4  20  16  269.77  725.33
   4  20 -15 -275.71  661.08
  -4 -20  15  -80.01  477.83
  -4  20  15  873.98  746.50
   4  20 -14 3138.05 1357.00
  -4 -20  14 3393.90  983.31
  -4  20  14 4267.81 1527.15
   4  20 -13  257.29  838.68
  -4 -20  13 1074.44  583.06
  -4  20  13  454.87  662.32
   4  20 -12 1339.44 1062.17
  -4 -20  12 2078.45  708.11
  -4  20  12 1828.18 1132.68
   4  20 -11  702.91  822.35
  -4 -20  11  218.32  478.25
  -4  20  11 2128.85  842.20
   4  20 -10 1243.83  696.88
  -4 -20  10  -74.60  333.07
  -4  20  10  902.79  710.15
   4  20  -9  564.76  688.64
  -4 -20   9  400.26  375.01
  -4  20   9  182.15  485.86
   4  20  -8 5392.10 1050.87
  -4 -20   8 6059.04  812.72
  -4  20   8 3257.72 1353.47
   4  20  -7 5096.12 1243.13
  -4  20   7 3287.82 1166.24
   4  20  -6 1783.10  625.39
  -4 -20   6  -39.07  244.19
  -4  20   6  736.25  427.99
   4 -20  -5 1404.07  563.28
   4  20  -5  869.31  557.40
  -4 -20   5  618.82  292.30
   4  20  -4  704.04  556.77
   4 -20  -4  -76.74  417.61
   4  20  -3 1612.22  926.02
   4 -20  -3 2394.00  773.79
   4  20  -2 1377.74  956.09
   4 -20  -2 2360.48  554.54
   4  20  -1 -250.89  373.80
   4 -20  -1  268.18  285.28
   4  20   0 2573.45  680.91
   4 -20   0 2002.21  710.37
   4  20   1 2873.84  685.74
   4 -20   1 1561.04  641.75
   4  20   2 1728.47  576.32
   4 -20   2 1020.49  549.53
   4  20   3  853.95  538.08
   4 -20   3   19.51  245.52
   4  20   4  470.57  576.10
   4 -20   4  162.89  252.54
   4  20   5  850.27  785.57
   4 -20   5 1258.90  302.23
   4 -20   6 2661.26  523.10
   4  20   6 2585.53  679.89
   4  20   7 1153.12  568.11
   4 -20   7 1560.91  446.42
   4  20   8  444.27  428.19
   4 -20   8  774.40  279.66
   4  20   9 2478.88  552.49
   4 -20   9 1135.03  361.35
   4  20  10 1024.45  658.86
   4 -20  10  885.77  411.14
   4  20  11  447.00  592.31
   4 -20  11  829.67  297.58
   4  20  12  943.51  613.58
   4 -20  12  569.76  402.36
   4  20  13  906.93  525.23
   4 -20  13 1123.27  353.85
   4  20  14 -103.81  312.01
   4 -20  14  162.75  316.92
   4  20  15 2881.38  701.06
   4 -20  15 2647.14  530.90
   4  20  16 1400.40  542.80
   4 -20  16  632.88  520.19
   4  20  17  838.06  829.19
   4 -20  17 1389.33  434.91
   4  21 -19 1141.38  665.46
  -4 -21  19 1372.50  998.47
  -4  21  19  149.06  959.82
   4  21 -18  215.63  737.90
  -4 -21  18  178.61  668.58
  -4  21  18  346.12  723.52
   4  21 -17 1451.42  769.07
  -4 -21  17 1385.76  908.47
  -4  21  17 2204.75  993.84
   4  21 -16 1355.37  672.92
  -4 -21  16   92.06  685.02
  -4  21  16  278.03  759.94
   4  21 -15  598.44  954.08
  -4 -21  15  494.31  697.29
  -4  21  15 1846.83 1056.22
   4  21 -14  936.03  837.43
  -4 -21  14  531.77  442.10
  -4  21  14  -66.10  954.54
   4  21 -13 1090.15 1073.25
  -4 -21  13 1273.01  753.70
  -4  21  13 2532.18  855.11
   4  21 -12 -277.38  788.97
  -4 -21  12 1045.12  484.62
  -4  21  12 -508.54  837.44
   4  21 -11 2430.08 1091.81
  -4 -21  11 1652.36  635.71
  -4  21  11 1540.67 1089.26
   4  21 -10 3082.65 1157.77
  -4 -21  10 2063.03  660.64
  -4  21  10 2141.38  817.68
   4  21  -9 2273.83  919.72
  -4 -21   9  830.24  519.93
  -4  21   9 1072.67  651.96
   4  21  -8 1221.40  529.84
  -4 -21   8  126.71  360.79
  -4  21   8    4.53  478.48
   4  21  -7 4480.60  888.94
  -4 -21   7 2576.19  543.77
  -4  21   7 3163.62  819.66
   4  21  -6 1129.22  572.49
  -4 -21   6  -40.74  231.71
   4  21  -5 2290.63  925.97
   4 -21  -5 1362.23  705.38
   4  21  -4 2337.28  961.35
   4 -21  -4 1690.01  946.49
   4 -21  -3 1419.00  498.43
   4  21  -3  686.47  622.85
   4  21  -2 -250.13  452.71
   4 -21  -2  693.95  479.74
   4  21  -1 -395.23  631.11
   4 -21  -1  586.55  350.23
   4  21   0  709.99  673.03
   4 -21   0  503.75  495.08
   4  21   1 3524.52 1003.16
   4 -21   1 1741.73  682.39
   4  21   2  534.45  496.28
   4 -21   2  605.69  326.82
   4  21   3 2930.41  938.99
   4 -21   3 1569.85  432.15
   4  21   4  548.25  655.17
   4 -21   4  345.84  347.87
   4 -21   5  584.69  361.04
   4  21   5  853.35  731.87
   4  21   6 1736.97  675.44
   4 -21   6 2322.81  384.67
   4  21   7 2667.84  700.81
   4 -21   7 2037.52  371.49
   4  21   8 1521.47  476.51
   4 -21   8  322.72  388.50
   4  21   9 3603.09  670.31
   4 -21   9 1733.74  424.20
   4  21  10  440.45  623.02
   4 -21  10  557.28  371.78
   4  21  11 1731.02  589.41
   4 -21  11 2013.18  526.28
   4  21  12 1337.93  737.20
   4 -21  12 1118.37  467.82
   4 -21  13   40.57  320.58
   4  21  13 -245.84  492.90
   4  21  14  614.68  476.49
   4 -21  14  212.72  412.12
   4  21  15  998.71  500.38
   4 -21  15  117.53  307.98
   4  21  16  773.39  613.08
   4 -21  16   46.45  421.08
   4  21  17  465.96  643.66
   4 -21  17  153.67  438.48
   4  22 -19 1303.85  738.30
  -4 -22  19  749.95 1000.14
  -4  22  19 1820.43 1062.72
   4  22 -18  927.31 1008.73
  -4  22  18 1343.32  967.13
  -4 -22  18  903.01  907.87
   4  22 -17 1536.56  932.09
  -4 -22  17  692.06  601.48
  -4  22  17  548.22  881.45
   4  22 -16 1490.85  691.10
  -4 -22  16   30.15  516.45
  -4  22  16  703.80  786.21
   4  22 -15 1553.59 1071.50
  -4 -22  15  886.92  796.06
  -4  22  15 1386.70  883.48
   4  22 -14 -241.70  811.01
  -4  22  14 1761.45  913.33
  -4 -22  14  118.40  596.21
   4  22 -13  504.67  757.13
  -4 -22  13  530.48  500.76
  -4  22  13 -223.19  618.79
   4  22 -12  985.25  732.25
  -4  22  12  398.13  766.43
  -4 -22  12 -801.56  442.08
   4  22 -11 8334.16 2004.06
  -4 -22  11 7239.08 1206.81
  -4  22  11 8599.95 1466.48
   4  22 -10 4160.06 1195.97
  -4 -22  10 1100.35  696.80
  -4  22  10 2517.22  813.16
   4  22  -9 -353.58  774.71
  -4 -22   9  226.82  355.99
  -4  22   9 1605.56  715.18
   4  22  -8 3397.47 1007.23
  -4 -22   8  830.69  523.58
  -4  22   8 1265.57  900.05
   4  22  -7 4150.10 1205.35
  -4  22   7 2075.52  798.25
   4  22  -6 5639.13 1031.78
   4 -22  -6 3082.52 1049.15
   4  22  -5 7536.83 1724.75
   4 -22  -4  872.42  654.80
   4  22  -4  714.35  773.35
   4  22  -3  -38.13  589.94
   4 -22  -3  130.85  342.37
   4  22  -2  788.05  796.39
   4 -22  -2  674.99  572.05
   4  22  -1 1549.10  800.58
   4 -22  -1  585.23  594.58
   4 -22   0 6352.36  873.68
   4  22   0 7887.28 1637.18
   4  22   1 3088.25 1127.51
   4 -22   1 2628.35  778.25
   4  22   2 1589.66  494.63
   4 -22   2  -35.34  312.14
   4  22   3  573.57  623.22
   4 -22   3   60.22  374.60
   4 -22   4 1291.13  473.12
   4  22   4 1156.38  902.86
   4  22   5  464.92  710.98
   4 -22   5  344.08  251.26
   4  22   6  575.65  545.60
   4 -22   6  373.56  350.43
   4  22   7 1387.66  624.68
   4 -22   7 1115.03  422.51
   4  22   8 1325.27  500.73
   4 -22   8   73.79  240.61
   4  22   9 1186.47  715.90
   4 -22   9  703.33  415.16
   4  22  10  643.63  787.67
   4 -22  10 1062.59  317.76
   4  22  11  117.79  418.67
   4 -22  11  167.75  326.30
   4 -22  12  502.01  306.15
   4  22  12 1030.93  663.76
   4  22  13  285.71  685.98
   4 -22  13  635.64  429.85
   4  22  14 1929.70  862.56
   4 -22  14  799.38  524.07
   4  22  15  974.80  810.76
   4 -22  15  628.54  360.40
   4 -22  16 1432.91  586.77
   4  22  16  404.85  952.71
   4  23 -18 1213.76 1208.92
  -4 -23  18 2469.95 1112.83
  -4  23  18 1689.30 1611.13
   4  23 -17   29.64  976.11
  -4 -23  17 1261.41  866.76
  -4  23  17 2027.43 1308.96
   4  23 -16  623.41  740.14
  -4 -23  16  156.00  764.55
  -4  23  16 1483.10  831.01
   4  23 -15  653.54  934.71
  -4 -23  15  271.59  709.33
  -4  23  15  821.83  760.85
   4  23 -14   41.50  909.91
  -4  23  14 1337.34 1021.39
   4  23 -13  372.86  866.04
  -4 -23  13  238.17  560.36
  -4  23  13 1149.47  937.25
   4  23 -12 4091.57 1664.53
  -4 -23  12 4269.41 1043.18
  -4  23  12 5382.25 1624.15
   4  23 -11 4573.32 1650.22
  -4 -23  11 4290.35  959.31
  -4  23  11 4624.09 1153.13
   4  23 -10 1492.70 1213.49
  -4 -23  10 1866.05  677.61
  -4  23  10 2425.54 1103.77
   4  23  -9 1899.97  745.20
  -4 -23   9  124.78  404.01
  -4  23   9 -924.09  659.57
   4  23  -8 1797.18 1138.33
  -4  23   8 2082.23 1027.91
   4  23  -7 1488.86  849.30
   4 -23  -7  241.38  630.93
   4  23  -6  363.49  698.73
   4 -23  -6  176.27  715.00
   4  23  -5 2356.50  946.96
   4 -23  -5  695.41  674.36
   4  23  -4 1420.79  876.82
   4 -23  -4  925.96  546.32
   4  23  -3  139.87  570.02
   4 -23  -3 1071.72  633.45
   4  23  -2 -380.26  505.96
   4 -23  -2 -173.04  374.46
   4  23  -1 3126.68  884.34
   4 -23  -1 2582.73  922.76
   4  23   0 1008.08  662.23
   4 -23   0 -415.71  324.62
   4  23   1  529.83  725.97
   4 -23   1  347.96  501.89
   4  23   2 1426.60  903.96
   4 -23   2  837.53  403.65
   4 -23   3  451.31  464.67
   4  23   4 4438.29  989.23
   4 -23   4  774.71  383.65
   4 -23   5 1231.49  527.36
   4  23   5 3377.70 1075.91
   4  23   617959.85 2950.01
   4 -23   614949.56 1573.91
   4  23   7 1579.31  586.89
   4 -23   7  383.59  291.03
   4  23   8  940.07  873.04
   4 -23   8  853.76  411.99
   4  23   9 2115.44  815.39
   4 -23   9  314.37  285.64
   4  23  10  231.80  872.79
   4 -23  10 1418.86  461.46
   4  23  11  310.56  737.79
   4 -23  11  460.36  391.70
   4  23  12 1524.01  891.30
   4 -23  12 3144.38  507.46
   4  23  13 1576.49  754.24
   4 -23  13  228.11  463.50
   4  23  14 1773.53  746.63
   4 -23  14  192.28  328.75
   4  23  15 1375.28  808.15
   4 -23  15  294.28  342.47
   4  24 -17  721.08 1084.55
  -4 -24  17 1789.49  973.41
  -4  24  17  786.35 1397.89
   4  24 -16 1529.15 1149.42
  -4 -24  16  631.90  883.52
  -4  24  16 1258.21 1296.55
   4  24 -15  215.50  979.56
  -4 -24  15   62.06  739.38
  -4  24  15 1373.12  808.38
   4  24 -14 1047.69 1060.04
  -4 -24  14  866.58  736.04
  -4  24  14 1365.32 1145.22
   4  24 -13 -366.43 1009.15
  -4 -24  13 1424.91  688.18
  -4  24  13 1282.14 1080.82
   4  24 -12 1544.70  975.50
  -4 -24  12 2474.85  840.78
  -4  24  12 2952.25  972.40
   4  24 -11 4165.37 1160.19
  -4 -24  11 2811.27  916.23
  -4  24  11 3494.04 1433.81
   4  24 -10 1326.74  840.30
  -4  24  10 1466.13 1028.71
   4  24  -9 2165.45  942.44
  -4  24   9 2406.83 1168.04
   4  24  -8  734.43  696.83
   4 -24  -8  720.06  416.96
   4 -24  -7  924.08  678.04
   4  24  -7  603.37  686.33
   4  24  -6  598.94  911.52
   4 -24  -6 1197.35  935.54
   4  24  -5 1050.91 1097.95
   4 -24  -5 2285.77  931.16
   4  24  -4 7817.46 1772.27
   4 -24  -4 6026.83 1486.19
   4 -24  -3  836.02  527.49
   4  24  -3 1743.67  942.70
   4  24  -2   53.82  635.84
   4  24  -1 3326.86  944.08
   4 -24  -1 2456.00  891.61
   4  24   0 1013.50  548.55
   4 -24   0  -62.56  378.47
   4  24   1  367.19  590.81
   4 -24   1 -183.21  380.78
   4  24   2 3396.24 1218.72
   4 -24   2 1963.40  577.82
   4  24   3 -182.71  579.58
   4 -24   3   43.43  319.80
   4  24   4 4757.45 1037.57
   4 -24   4  737.54  408.12
   4  24   5  770.36 1018.23
   4 -24   5 1452.71  528.51
   4  24   6  679.95  708.88
   4 -24   6   29.20  231.83
   4  24   7 1812.57 1017.12
   4 -24   7  790.71  422.28
   4  24   8 1868.74  969.61
   4 -24   8  839.41  321.44
   4 -24   9 1641.80  534.89
   4  24   9 3156.97 1224.94
   4  24  10  605.52  761.44
   4 -24  10 1029.33  464.97
   4  24  11  178.94  718.47
   4  24  12  -26.46  592.05
   4 -24  12  659.13  434.42
   4 -24  13  332.49  421.31
   4  24  13  165.70  564.37
   4  24  14 1298.52  923.03
   4 -24  14  867.82  401.03
   4  25 -16 1374.55 1158.01
  -4 -25  16  453.16  651.54
  -4  25  16 2227.39 1339.32
   4  25 -15 1812.13 1138.74
  -4 -25  15  316.14  866.17
  -4  25  15 1171.97 1221.11
   4  25 -14 1641.50 1074.26
  -4 -25  14  502.96  759.00
  -4  25  14  969.45  844.37
   4  25 -13  372.93  762.02
  -4 -25  13  944.56  712.15
  -4  25  13 1628.18 1094.62
   4  25 -12  372.50  792.97
  -4  25  12 1620.07  789.32
   4  25 -11  759.57 1032.96
  -4  25  11  720.18  967.06
   4  25 -10 2001.83 1121.38
  -4  25  10  673.96  719.60
   4  25  -9 2172.73 1068.94
   4 -25  -9  780.18  483.78
   4  25  -8  698.21  879.30
   4 -25  -8  240.25  640.32
   4  25  -7 1752.20 1162.60
   4 -25  -7 1481.71 1148.93
   4  25  -6 1243.56  990.48
   4 -25  -6  642.38  806.51
   4  25  -5  843.34  666.06
   4 -25  -5 -389.04  405.78
   4  25  -4  708.79  882.54
   4  25  -3 4532.90 1181.53
   4 -25  -3 1104.41  688.82
   4 -25  -2 1275.56  794.33
   4  25  -2 1094.04 1071.58
   4  25  -1  606.26  919.92
   4  25   0  806.29  477.07
   4 -25   0 -354.98  331.80
   4  25   1  747.53  869.32
   4 -25   1  350.58  557.83
   4 -25   2  330.33  378.67
   4 -25   3 2307.71  738.31
   4  25   4 1435.25  674.90
   4 -25   4  339.25  489.76
   4  25   5 1413.88 1205.94
   4 -25   5 1759.78  449.89
   4  25   6  786.85  955.38
   4 -25   6  681.70  450.05
   4  25   7 -631.73  710.63
   4 -25   7  118.95  227.54
   4 -25   8   12.62  382.60
   4  25   8 1713.04  818.70
   4  25   9 1336.42  781.26
   4 -25   9  734.25  467.63
   4  25  10 2683.83 1038.79
   4 -25  10  395.03  325.16
   4  25  11 1681.39 1079.28
   4 -25  11  926.04  525.01
   4  25  12  849.52  975.38
   4 -25  12  654.27  485.93
   4  25  13 4382.83 1162.94
   4 -25  13 3410.20  643.28
   4  26 -15 1800.17 1454.64
  -4  26  15 2065.66 1513.02
   4  26 -14  573.11  835.41
  -4  26  14 1331.43  880.67
   4  26 -13 1234.16 1294.15
  -4  26  13 2174.53 1333.77
   4  26 -12  753.89 1190.67
  -4  26  12 1571.70 1160.40
   4  26 -11 8736.99 2150.96
  -4  26  11 4798.34 1974.25
   4  26 -10 1002.80  771.80
   4 -26 -10 -242.65  342.46
   4  26  -9 2981.87 1344.82
   4 -26  -9  848.89 1339.35
   4  26  -8 4022.74 1591.41
   4 -26  -8 2765.73 1602.15
   4  26  -7 3640.15 1499.72
   4 -26  -7 2679.36 1278.41
   4  26  -6 1949.30 1107.36
   4 -26  -6  579.58  917.03
   4  26  -5 2483.09 1027.61
   4 -26  -5 3261.13 1193.89
   4 -26  -4  527.27  711.11
   4  26  -3 2277.02  949.91
   4  26  -2  -90.29  737.23
   4 -26  -2  173.66  541.22
   4 -26  -1 2904.20  793.61
   4  26  -1 2833.79 1493.32
   4 -26   0 2018.04  639.33
   4 -26   1 2640.89  918.94
   4 -26   2 -140.36  369.51
   4 -26   3  836.48  422.33
   4  26   4  479.64  696.83
   4 -26   4  874.68  539.47
   4  26   5 1356.13  899.04
   4 -26   5  321.18  346.70
   4  26   6 2230.00  781.66
   4 -26   6 -124.08  287.61
   4  26   7 2120.98 1146.45
   4 -26   7  985.23  516.91
   4  26   8 1741.16 1027.48
   4 -26   8  487.17  350.61
   4  26   9  591.40  541.25
   4 -26   9  -67.61  254.11
   4  26  10  200.34 1031.03
   4 -26  10  685.73  478.16
   4  26  11  362.05  830.52
   4 -26  11  684.45  496.56
   4  26  12 2026.46 1084.89
   4 -26  12  447.70  377.59
   4  27 -14 1321.18 1151.04
  -4  27  14  223.16 1207.03
   4  27 -13 2285.54 1324.53
  -4  27  13  986.87  956.07
   4  27 -12 1672.35 1280.67
  -4  27  12  917.55 1229.10
   4  27 -11   59.52  725.09
   4 -27 -11  531.08  470.63
   4  27 -10  925.04  878.68
   4 -27 -10  844.14 1222.04
   4  27  -9 2135.04 1440.94
   4 -27  -9 1735.94 1440.13
   4  27  -8 1675.52 1318.73
   4 -27  -8 1670.34  833.93
   4  27  -7 -150.86  936.81
   4 -27  -7  608.64  601.08
   4  27  -6  982.06 1242.04
   4 -27  -6 1935.43 1090.31
   4 -27  -5  196.63  812.15
   4  27  -5 1259.27  981.44
   4  27  -4 1399.57 1275.32
   4 -27  -4 2216.62 1055.69
   4  27  -3 1134.08 1094.27
   4 -27  -3 1165.00  681.20
   4  27  -2 1940.16  893.71
   4 -27  -2 1339.50  709.55
   4  27  -1 1128.77 1159.49
   4 -27  -1 1236.72  663.42
   4  27   0 3540.28 1489.34
   4 -27   0 2908.54 1116.16
   4  27   1  387.14  769.95
   4 -27   1 1325.86  757.95
   4 -27   2 2815.95  692.04
   4 -27   3  808.53  468.55
   4 -27   4 1969.31  789.50
   4  27   5 1048.19  916.40
   4 -27   5  274.25  539.84
   4 -27   6  225.51  339.48
   4  27   6  174.04  840.31
   4  27   7 1378.80 1002.23
   4 -27   7  509.51  370.90
   4  27   8 1795.28  785.06
   4 -27   8  262.65  552.32
   4  27   9 1592.19 1264.71
   4 -27   9 1328.82  613.51
   4 -27  10  529.21  380.88
   4  27  10 1419.59 1009.61
   4  27  11 1244.41 1022.88
   4 -27  11  418.74  380.11
   4  28 -12  980.45 1373.48
   4 -28 -12 1621.37 1113.79
   4  28 -11 1172.61 1305.94
   4 -28 -11 1269.00 1430.57
   4  28 -10 7706.10 2696.87
   4 -28 -10 9051.72 2789.14
   4  28  -9  389.28 1062.98
   4  28  -8 2198.16 1321.83
   4 -28  -8  593.45 1158.09
   4  28  -7 1115.49  932.42
   4 -28  -7 1767.80 1166.20
   4  28  -6  987.87  923.44
   4 -28  -6 1805.60 1065.49
   4  28  -5 1250.84  990.64
   4 -28  -5  217.83  637.76
   4  28  -4 1726.08 1487.91
   4 -28  -4 3010.48  981.95
   4  28  -3 1235.58 1155.63
   4 -28  -3 1166.26  737.71
   4  28  -2 -252.45  636.31
   4  28  -1  534.74 1006.88
   4  28   0 1440.37 1272.39
   4  28   1  798.33  745.79
   4 -28   1  481.08  789.51
   4  28   2 1632.76  966.68
   4 -28   2  162.15  460.09
   4 -28   3  580.79  481.06
   4  28   4 1351.78  880.58
   4 -28   4 1354.88  771.82
   4  28   5 1160.90  879.39
   4 -28   5 1642.54  761.28
   4 -28   6 -457.24  520.91
   4  28   6 -182.89  671.69
   4  28   7  -45.13  629.44
   4 -28   7  296.49  362.20
   4  28   8  204.16  942.32
   4 -28   8  439.37  385.22
   4  28   9  561.43  991.04
   4 -28   9  458.60  544.82
   4  28  10 1227.19  803.18
   4  29 -11 -377.74 1297.47
   4 -29 -11 2378.56 1401.10
   4  29 -10  446.59  841.92
   4 -29 -10  450.44  727.08
   4  29  -9 1657.07 1444.64
   4 -29  -9 1152.79 1268.70
   4  29  -8  464.15 1162.62
   4 -29  -8  703.40 1055.33
   4  29  -7  509.43 1117.56
   4  29  -6  781.26 1301.47
   4 -29  -6 1587.44 1172.80
   4 -29  -5 1637.85 1279.98
   4  29  -4 2059.39 1249.00
   4 -29  -4  515.25 1132.68
   4 -29  -3 2160.27 1282.89
   4  29  -3 1671.68 1383.66
   4 -29  -2 2957.68 1430.53
   4  29  -1 1804.35 1401.18
   4  29   1 1004.81 1209.81
   4 -29   1 1315.19  856.43
   4 -29   2 1663.58  917.83
   4  29   3 2750.47 1363.82
   4 -29   3 1796.68  711.56
   4  29   4  726.63 1033.28
   4 -29   4  607.40  527.75
   4  29   5 6260.56 1472.73
   4 -29   5 4169.77 1324.00
   4  29   6 3016.11 1477.22
   4 -29   6 2300.11  950.43
   4  29   7  513.38 1218.20
   4 -29   7 1620.19  804.73
   4  29   8 1975.26 1353.45
   4  30  -9 4763.22 2049.69
   4 -30  -9 2366.25 1829.89
   4  30  -8 1324.82 1005.25
   4 -30  -8  877.94  954.10
   4  30  -7 2001.67 1548.72
   4 -30  -7 1425.35 1398.43
   4  30  -6 1033.21 1332.20
   4 -30  -6 1227.26 1294.81
   4  30  -5 2344.77 1177.97
   4 -30  -5 -131.24  788.02
   4  30  -4  354.10  884.20
   4 -30  -4 1357.75  826.18
   4  30  -3 1085.79 1261.85
   4 -30  -3  997.60 1133.27
   4 -30  -2 1297.67 1075.22
   4 -30  -1 5161.98 1676.34
   4 -30   0 2679.59 1290.54
   4 -30   1 1352.90  927.74
   4 -30   2  673.86  773.80
   4 -30   3  342.22  509.89
   4  30   4 1184.16 1158.65
   4 -30   4  860.34  614.78
   4  30   5  801.28  863.71
   4 -30   5  -39.47  420.46
   4  30   6 1672.12 1159.68
   4 -30   6  821.22  619.76
   4  31  -5 1002.12 1259.50
   4 -31  -5  499.39 1109.49
   4  31  -4 1419.41  999.59
   4 -31  -4  839.26 1168.72
   4  31  -3 2513.83 1227.63
   4 -31  -3  234.50  693.34
   4 -31  -2  513.07  640.13
   4 -31  -1  644.89  666.50
   4 -31   0  604.82  582.54
   4 -31   1  320.86  523.50
   4  31   2 1041.23  851.93
   4 -31   2  586.07  604.68
   4  31   3 1960.75 1129.18
   4 -31   3  257.04  585.27
   5   0 -25   90.44  260.26
   5   0 -24 1041.90  568.46
  -5   0  24 1187.24 1194.21
   5   0 -23  342.13  457.59
  -5   0  23 1435.61  985.99
   5   0 -22 2113.89  612.64
  -5   0  22 1148.50 1249.75
   5   0 -21  929.17  550.27
  -5   0  21 2132.73 1062.50
   5   0 -2023233.19 2363.80
  -5   0  2026011.10 3888.98
   5   0 -19  396.86  449.77
  -5   0  19  164.10  761.29
   5   0 -1811473.25 1455.01
  -5   0  1810113.27 2138.69
   5   0 -17  173.48  377.57
  -5   0  17   77.18  456.85
   5   0 -16  488.51  379.75
  -5   0  16  441.34  702.29
   5   0 -15  327.98  422.84
  -5   0  15 -116.51  576.12
   5   0 -14 2345.44  560.67
  -5   0  14 2256.63  710.58
   5   0 -13  336.25  399.61
  -5   0  13 -282.58  499.77
   5   0 -12 2217.50  764.19
  -5   0  12 3089.36  889.90
   5   0 -11 -167.67  387.36
  -5   0  11  104.93  292.13
   5   0 -10 1149.50  631.89
  -5   0  10 1054.72  622.80
   5   0  -9  203.42  407.86
  -5   0   9 -305.39  297.16
   5   0  -8  280.06  484.34
  -5   0   8  927.40  505.77
   5   0  -7  -61.21  254.99
  -5   0   7  174.60  330.95
   5   0  -619749.65 1687.84
  -5   0   618948.84 1904.04
   5   0  -5  210.25  354.71
  -5   0   5   53.75  330.06
   5   0  -4 1247.72  504.42
  -5   0   4 1177.88  466.19
   5   0  -3  138.37  356.50
  -5   0   3  400.35  317.06
   5   0  -2 7323.04  928.61
  -5   0   2 7532.35  840.27
   5   0  -1 -168.21  334.58
  -5   0   1 -358.00  283.12
   5   0   048838.90 3908.53
  -5   0   044440.81 3403.18
   5   0   1  -77.67  191.41
   5   0   1  109.28  228.95
   5   0   2  762.48  230.91
   5   0   2   75.04  312.30
   5   0   3  298.66  251.93
   5   0   3   13.25  160.47
   5   0   4 7916.33  856.85
   5   0   4 7167.01  570.48
   5   0   5 -105.74  240.82
   5   0   5  145.09  112.88
   5   0   6   97.70  128.67
   5   0   6  371.97  233.64
   5   0   7   59.45  130.39
   5   0   7   49.11  203.28
   5   0   812819.64 1185.36
   5   0   814516.87  827.43
   5   0   9   73.54  125.26
   5   0   9 -112.52  211.34
   5   0  1031047.81 2211.20
   5   0  1029235.53 1914.10
   5   0  11   87.26  181.36
  -5   0 -11   50.21  302.92
   5   0  12   45.39  190.52
  -5   0 -12   45.05  230.03
   5   0  13  144.15  215.86
  -5   0 -13   -8.91  333.88
  -5   0 -14  876.18  497.08
   5   0  15  680.93  314.33
  -5   0 -15  104.73  471.24
  -5   0 -16 1111.84  610.65
  -5   0 -17  975.32  631.77
  -5   0 -18 1307.01  733.45
  -5   0 -19  666.61  668.75
  -5   0 -20  687.11  524.73
  -5   0 -21 1532.28  725.29
  -5   0 -22  595.10  867.43
   5   1 -25  294.56  312.72
   5  -1 -25    5.92  275.62
   5  -1 -24  255.41  448.94
   5   1 -24  656.69  371.60
  -5  -1  24 1043.37 1094.01
  -5   1  24 1473.05  793.21
   5   1 -23  823.45  525.99
   5  -1 -23  944.14  525.63
  -5  -1  23 1319.47  827.12
  -5   1  23 1069.61  818.02
   5  -1 -22 1318.95  388.20
   5   1 -22  705.22  561.24
  -5  -1  22  694.13  798.45
  -5   1  22 1494.07 1106.85
   5   1 -21  399.21  484.40
   5  -1 -21  453.42  349.56
  -5  -1  21 2079.49  940.78
  -5   1  21 1548.79  936.36
   5   1 -20  427.87  433.98
   5  -1 -20  525.79  319.20
  -5  -1  20  145.08  847.52
  -5   1  20  145.52  610.58
   5   1 -19 1020.64  494.96
   5  -1 -19 1928.37  415.25
  -5  -1  19 2276.36  786.82
  -5   1  19 1115.99  792.01
   5  -1 -18  587.62  368.92
   5   1 -18 1085.62  380.83
  -5  -1  18  427.95  602.14
  -5   1  18  142.43  830.70
   5   1 -17 6019.22 1009.31
   5  -1 -17 3681.24  825.61
  -5  -1  17 4998.36 1314.61
  -5   1  17 1573.64  996.41
   5   1 -16 3098.03  842.85
   5  -1 -16 3212.94  836.36
  -5  -1  16 3225.53  830.88
  -5   1  16 1854.85 1163.57
   5   1 -15  270.08  370.31
   5  -1 -15  326.24  453.04
  -5  -1  15  -35.25  610.27
  -5   1  15  511.24  459.88
   5  -1 -14 8230.46 1178.21
   5   1 -14 7675.30 1194.42
  -5  -1  14 4292.77 1425.12
  -5   1  14 7483.50 1136.43
   5   1 -13 1354.53  712.01
   5  -1 -13 2372.83  663.55
  -5  -1  13 1217.00  816.21
  -5   1  13 1838.31  602.43
   5  -1 -12  232.65  375.26
   5   1 -12  -69.62  282.66
  -5  -1  12  195.36  430.77
  -5   1  12 -184.46  440.54
   5   1 -11   43.92  300.91
   5  -1 -11   17.71  361.84
  -5  -1  11  -66.68  297.11
  -5   1  11 -110.83  304.34
   5  -1 -10   -2.18  375.37
   5   1 -10  -78.68  388.44
  -5  -1  10  363.29  380.69
  -5   1  10 -104.52  291.98
   5   1  -9 1302.43  687.58
   5  -1  -9 2152.54  670.27
  -5  -1   9 2236.40  675.43
  -5   1   9 1759.38  516.15
   5   1  -8 -145.44  392.78
   5  -1  -8   42.34  270.18
  -5  -1   8  311.22  375.82
  -5   1   8  156.14  404.61
   5   1  -720970.23 1848.42
   5  -1  -720368.83 2103.96
  -5  -1   721435.81 1758.97
  -5   1   720467.45 2157.44
   5  -1  -6  757.59  429.81
   5   1  -6  362.54  345.32
  -5   1   6  374.45  430.15
  -5  -1   6  398.30  412.63
   5   1  -5  121.47  371.09
   5  -1  -5  158.90  359.27
  -5  -1   5  -24.75  327.27
  -5   1   5  416.78  353.53
   5   1  -4  184.27  344.10
   5  -1  -4    6.03  326.16
  -5   1   4  160.88  331.20
  -5  -1   4   55.24  293.73
   5   1  -3 2834.75  674.39
   5  -1  -3 3057.26  635.36
  -5  -1   3 3301.31  585.84
  -5   1   3 2859.36  616.89
   5  -1  -214313.66 1392.75
   5   1  -215149.81 1197.70
  -5   1   213631.07 1316.31
  -5  -1   213351.62 1208.37
   5   1  -122573.17 2101.99
   5  -1  -123146.26 2006.00
  -5  -1   123462.47 1702.50
  -5   1   124883.15 1999.73
   5   1   0  251.78  305.93
   5  -1   0  235.15  281.79
  -5  -1   0   81.55  187.90
  -5   1   0  -48.78  242.01
   5   1   1 1775.51  444.66
   5   1   1 1192.94  327.25
   5  -1   1 1206.55  371.90
   5  -1   1 1161.46  404.14
   5   1   2  -84.90  233.67
   5   1   2  123.49  128.15
   5  -1   2 -126.07  172.08
   5  -1   2  -64.88  222.20
   5   1   3  348.45  285.03
   5   1   3  112.31  137.57
   5  -1   3  248.69  267.52
   5  -1   3  243.90  190.97
   5   1   4   24.07  282.95
   5   1   4  589.07  178.85
   5  -1   4  331.99  195.06
   5  -1   4  461.74  296.87
   5   1   5  845.21  320.08
   5   1   5  588.45  159.93
   5  -1   5  438.21  286.13
   5  -1   5  356.76  184.71
   5   1   6 1030.62  287.86
   5   1   6 1791.15  180.39
   5  -1   6 1114.79  344.19
   5   1   7  127.35  136.44
   5   1   7  703.44  277.49
   5  -1   7 1164.41  189.98
   5  -1   7  111.19  253.95
   5   1   8 6314.29  401.80
   5   1   8 3990.18  654.77
   5  -1   8 3890.20  407.74
   5  -1   8 4564.16  609.85
   5   1   9 2594.67  322.86
   5   1   9 2959.44  492.61
   5  -1   9 3443.85  356.53
   5  -1   9 1506.78  449.34
   5   1  10  279.04  178.81
   5  -1  10  127.06  181.44
   5   1  10   26.90  194.85
   5  -1  10    5.72  189.45
   5   1  11 7280.46  614.70
   5  -1  11 7103.17  570.71
  -5   1 -11 4466.64  818.77
   5   1  12  280.03  182.03
   5  -1  12  209.75  221.15
  -5  -1 -12 -254.74  357.04
  -5   1 -12  259.63  336.88
   5   1  13  294.45  234.01
   5  -1  13  -20.75  239.56
  -5  -1 -13  528.21  281.25
  -5   1 -13  214.86  368.86
   5  -1  14  395.27  285.65
  -5  -1 -14  500.56  453.32
  -5   1 -14  375.15  419.18
   5  -1  15  654.98  342.21
  -5  -1 -15  806.92  512.25
  -5   1 -15  583.70  486.48
   5  -1  16  505.63  327.04
  -5  -1 -16 -473.52  496.21
  -5   1 -16 1016.66  486.45
  -5  -1 -17  121.98  369.10
  -5   1 -17  422.62  359.58
  -5  -1 -18 1121.79  782.23
  -5   1 -18 2095.03  763.62
  -5  -1 -19  848.99  713.29
  -5  -1 -20 1100.73  804.42
  -5   1 -20  967.19  815.28
  -5  -1 -21 1583.28  954.76
  -5   1 -21 1494.76  986.60
  -5  -1 -22  562.50  942.12
  -5   1 -22 1641.98  973.92
   5  -2 -25  909.29  514.67
   5   2 -24  187.84  326.63
   5  -2 -24  177.61  391.77
  -5   2  24  219.27  946.57
  -5  -2  24 1346.62  702.13
   5   2 -23  620.38  366.81
   5  -2 -23  914.02  381.28
  -5  -2  23 1339.50 1067.45
  -5   2  23 1486.97 1092.85
   5   2 -22  412.93  294.68
   5  -2 -22   60.98  277.04
  -5   2  22 -199.12  803.24
  -5  -2  22 -248.68  794.87
   5  -2 -21 2274.63  765.36
   5   2 -21 4388.99  623.46
  -5  -2  21 6623.06 1575.25
  -5   2  21 5637.32 1588.06
   5   2 -20  718.94  410.31
   5  -2 -20  691.23  475.70
  -5   2  20  635.42  932.57
  -5  -2  20  919.31  917.80
   5   2 -19 4007.47  692.65
   5  -2 -19 4272.96  773.53
  -5  -2  19 3455.33 1424.48
  -5   2  19 2213.99 1454.95
   5   2 -18 6873.24 1239.68
   5  -2 -18 6563.87  925.47
  -5  -2  18 7571.30 1684.32
  -5   2  18 3901.28 1282.39
   5   2 -17  621.86  546.69
   5  -2 -17  373.76  450.34
  -5  -2  17  588.20  727.27
  -5   2  17  340.49  743.14
   5   2 -16  713.82  418.85
   5  -2 -16  250.44  435.68
  -5   2  16  208.31  518.51
  -5  -2  16  902.64  708.34
   5   2 -15 4023.16  949.21
   5  -2 -15 4236.76  636.44
  -5  -2  15 4474.38 1175.15
  -5   2  15 1634.37  865.93
   5   2 -14  -95.05  340.57
   5  -2 -14  369.35  391.73
  -5   2  14   15.68  393.26
  -5  -2  14  379.20  526.04
   5  -2 -13  502.07  435.13
   5   2 -13  129.48  355.22
  -5  -2  13   42.01  540.38
  -5   2  13  413.16  415.98
   5   2 -12    3.54  369.86
   5  -2 -12  393.29  404.94
  -5   2  12  345.30  520.92
  -5  -2  12  224.50  496.95
   5   2 -11 -225.92  327.73
   5  -2 -11  121.56  365.34
  -5  -2  11  186.71  315.44
  -5   2  11  255.56  330.79
   5   2 -10 -337.52  334.73
   5  -2 -10 -246.03  392.53
  -5  -2  10 -213.45  440.81
  -5   2  10 -149.75  354.95
   5   2  -9  526.67  534.25
   5  -2  -9  530.42  486.44
  -5  -2   9  485.29  490.41
  -5   2   9  660.89  387.76
   5  -2  -8 7244.12 1070.99
  -5   2   8 7163.29 1157.40
  -5  -2   8 6788.25  817.63
   5  -2  -7 1687.00  630.86
   5   2  -7 2866.14  729.73
  -5  -2   7 2243.62  650.00
  -5   2   7 2384.61  697.21
   5   2  -6  431.46  507.99
   5  -2  -6  489.44  453.18
  -5   2   6  772.58  512.05
  -5  -2   6 1283.64  450.72
   5   2  -5 1590.29  536.37
   5  -2  -5 4545.45  700.91
  -5  -2   5 3453.16  538.67
  -5   2   5 2389.19  699.15
   5   2  -414812.95 1613.48
   5  -2  -415942.06 1544.09
  -5   2   415917.51 1613.18
  -5  -2   415333.48 1380.72
   5   2  -3  190.04  300.01
   5  -2  -3  -53.90  267.26
  -5  -2   3   43.38  236.99
  -5   2   3 -193.68  271.01
   5   2  -2 3325.94  688.21
   5  -2  -2 4037.49  622.92
  -5  -2   2 3721.20  528.88
  -5   2   2 2823.46  640.20
   5  -2  -119330.82 1642.71
   5   2  -121119.37 1615.67
  -5  -2   118889.62 1446.92
  -5   2   117996.96 1620.30
   5   2   0 1733.12  447.39
   5  -2   0  891.93  383.15
  -5   2   0  908.99  370.01
  -5  -2   0  808.45  249.47
   5  -2   1  198.49  248.03
   5   2   1  215.89  316.00
   5   2   1  407.64  219.39
   5  -2   1  182.55  292.43
   5   2   2 1894.85  414.26
   5   2   2  730.05  200.93
   5  -2   2 1641.88  375.84
   5  -2   2 1281.61  324.58
   5  -2   3  353.76  286.70
   5   2   3  999.73  343.40
   5   2   3  298.77  142.32
   5  -2   3  533.64  234.92
   5   2   4  704.07  345.86
   5   2   4  670.91  134.83
   5  -2   4 1789.59  343.90
   5  -2   4 1017.39  250.03
   5   2   5  362.69  302.21
   5   2   5  250.34  111.07
   5  -2   5  380.44  246.73
   5  -2   5  270.91  154.87
   5   2   6   93.11   95.53
   5   2   6   99.80  180.28
   5  -2   6  140.59  201.59
   5  -2   6   78.86  161.78
   5  -2   7 9031.86  682.47
   5   2   7 9419.98  525.29
   5   2   7 8129.77  884.31
   5  -2   7 9532.55  828.07
   5   2   8  356.12  228.34
   5  -2   8  307.47  197.75
   5  -2   8  691.49  268.46
   5   2   8  442.05  136.40
   5   2   9 1525.44  220.77
   5   2   9 2165.63  406.62
   5  -2   9 1726.61  303.07
   5  -2   9 1249.27  310.23
   5   2  10 1525.78  456.03
   5  -2  10 2952.63  330.78
   5  -2  10 1563.43  292.89
   5   2  10  963.47  258.73
   5  -2  1120802.62 1428.97
   5   2  1121448.64 1292.68
  -5   2 -1113348.64 1479.54
   5   2  12   70.13  187.63
   5  -2  12   34.79  211.64
  -5  -2 -12   78.84  337.71
  -5   2 -12  421.08  314.91
   5  -2  13  552.63  268.61
  -5   2 -13 1382.13  443.01
  -5  -2 -13  587.16  478.13
   5  -2  14  -34.64  236.95
  -5  -2 -14   29.06  271.02
  -5   2 -14  278.30  333.34
   5  -2  15   89.00  303.95
  -5  -2 -15  245.88  341.54
  -5   2 -15 1067.08  435.34
   5  -2  16  591.94  362.05
  -5  -2 -16 1121.85  554.59
  -5   2 -16   82.23  508.01
   5  -2  17  103.38  356.87
  -5  -2 -17 1182.59  541.76
  -5   2 -17  174.88  499.63
  -5  -2 -18 2951.11  923.72
  -5   2 -18 1943.77  849.73
  -5  -2 -19  659.32  581.23
  -5   2 -19 -182.54  572.05
  -5  -2 -20 -475.92  428.69
  -5   2 -20 1321.42  587.58
  -5   2 -21  243.67  660.77
  -5  -2 -21  173.62  666.23
  -5  -2 -22 1374.76  948.58
  -5   2 -22  688.92  936.95
   5  -3 -25  336.68  426.60
   5   3 -24  867.93  331.77
   5  -3 -24  -97.59  293.20
  -5  -3  24  166.61  977.87
  -5   3  24  681.73  716.11
   5   3 -23 -263.66  304.43
   5  -3 -23  575.48  345.28
  -5  -3  23  218.29  826.92
  -5   3  23  759.70  841.27
   5   3 -22  569.91  329.24
   5  -3 -22   93.01  422.48
  -5  -3  22  172.65  661.60
  -5   3  22  663.33  888.99
   5  -3 -21  -79.46  388.73
   5   3 -21  400.69  369.59
  -5  -3  21  469.35  607.08
  -5   3  21  867.00  612.46
   5   3 -20 -108.75  322.60
   5  -3 -20  264.50  256.95
  -5  -3  20 -168.32  551.11
  -5   3  20 1029.40  553.87
   5   3 -19 2290.34  670.31
   5  -3 -19 1545.49  436.49
  -5  -3  19 1846.85  820.02
  -5   3  19 1270.17 1125.59
   5   3 -1810685.87 1470.56
   5  -3 -18 7195.11  795.24
  -5  -3  1810037.51 1449.49
  -5   3  18 2651.64 1875.36
   5   3 -17  679.48  442.25
   5  -3 -17  716.81  307.54
  -5  -3  17  976.49  805.82
  -5   3  17  817.35  814.70
   5   3 -1610525.10 1539.31
   5  -3 -1610428.28  964.73
  -5  -3  1610030.09 1858.55
  -5   3  16 5505.68 1398.81
   5   3 -15 7534.65  999.29
   5  -3 -15 7490.79  781.04
  -5  -3  15 7937.27 1200.52
  -5   3  15 6874.85 1222.20
   5   3 -14  561.90  523.47
   5  -3 -14  155.15  420.11
  -5  -3  14  247.27  587.27
  -5   3  14  219.77  433.19
   5   3 -1320277.75 2386.05
   5  -3 -1319789.51 2022.78
  -5  -3  1320248.04 2500.43
  -5   3  1320040.95 2134.32
   5   3 -12  948.84  612.46
   5  -3 -12  555.73  457.56
  -5  -3  12  554.41  579.23
  -5   3  12  313.69  626.94
   5   3 -11 6164.40 1253.53
   5  -3 -11 7716.16  791.11
  -5  -3  11 6072.84  921.98
  -5   3  11 6837.99 1007.72
   5   3 -10 3523.07  893.35
   5  -3 -10  408.63  714.45
  -5  -3  10 3840.23  811.78
  -5   3  10 4533.79  695.65
   5  -3  -9  185.69  562.18
   5   3  -9  907.33  525.13
  -5  -3   9 3585.87  639.49
  -5   3   9 1907.16  682.31
   5   3  -816605.47 1928.16
   5  -3  -816139.81 1679.20
  -5  -3   813562.60 1592.36
  -5   3   815171.89 1846.58
   5   3  -7  519.77  568.58
   5  -3  -7  814.75  473.00
  -5  -3   7 1282.07  466.49
  -5   3   7  572.65  552.30
   5   3  -6 -288.82  364.39
   5  -3  -6   62.52  312.06
  -5  -3   6   13.56  308.86
  -5   3   6  393.96  367.23
   5  -3  -5 3357.21  709.24
   5   3  -5 3856.62  793.73
  -5  -3   5 3289.62  635.32
  -5   3   5 4285.55  788.76
   5   3  -4 5602.78  994.22
   5  -3  -4 6845.73  894.88
  -5  -3   4 6137.87  762.77
  -5   3   4 7086.80  976.58
   5   3  -310453.12 1153.80
   5  -3  -3 8914.78  882.37
  -5  -3   3 8060.63  884.94
  -5   3   3 7844.29 1044.62
   5   3  -2  353.04  387.77
   5  -3  -2  160.11  316.13
  -5  -3   2  349.83  219.40
  -5   3   2  575.62  358.60
   5   3  -1 9016.51 1095.78
   5  -3  -1 9480.03  915.91
  -5  -3   1 7649.46  651.08
  -5   3   1 8670.84  989.38
   5   3   0 1053.02  409.92
   5  -3   0  523.94  305.61
  -5  -3   0  461.84  199.12
  -5   3   0  299.17  342.18
   5   3   1 1283.58  318.26
   5   3   1  466.84  249.14
   5  -3   1  637.23  289.48
   5  -3   1 1138.51  386.62
   5   3   2  -13.22  309.76
   5   3   2  312.40  116.11
   5  -3   2  -22.32  244.20
   5  -3   2  -88.33  244.42
   5   3   3   82.55  109.04
   5  -3   3  223.56  210.31
   5  -3   3  308.07  230.67
   5   3   3  699.37  316.79
   5   3   4 1236.57  317.14
   5   3   4 1610.92  146.22
   5  -3   4 1217.37  342.83
   5  -3   4 1981.54  397.01
   5   3   5   -5.64  254.39
   5   3   5  -13.14   75.28
   5  -3   5   90.61  164.82
   5  -3   5  112.14  153.05
   5   3   6   42.96  183.10
   5   3   6  129.49   84.99
   5  -3   6  -55.51  189.61
   5  -3   6  -28.37  173.57
   5   3   7  589.78  124.85
   5   3   7  588.49  229.99
   5  -3   7  555.57  219.04
   5  -3   7  336.33  244.04
   5   3   8 3040.78  230.19
   5   3   8 2377.01  531.69
   5  -3   8 2052.16  419.27
   5  -3   8 1688.29  360.81
   5   3   9  -63.91   98.68
   5   3   9  -45.64  172.24
   5  -3   9  284.19  164.07
   5  -3   9   15.90  187.49
   5   3  1011504.00  658.03
   5   3  1010546.96 1091.43
   5  -3  10 8943.91  753.90
   5  -3  10 6495.20  618.66
   5   3  11  778.28  168.52
   5   3  11  -66.65  166.46
   5  -3  11  403.19  240.20
  -5   3 -11  418.56  324.51
   5  -3  12  469.49  246.14
  -5  -3 -12   14.22  391.31
  -5   3 -12  199.36  342.56
   5  -3  13  396.71  279.27
  -5  -3 -13  778.91  441.04
  -5   3 -13  283.36  381.15
   5  -3  14 2611.05  486.54
  -5  -3 -14 1361.61  707.02
  -5   3 -14 2560.53  661.30
   5  -3  15 8534.20  887.33
  -5  -3 -15 5130.14 1125.52
  -5   3 -15 5608.55 1010.29
   5  -3  16 3247.69  559.84
  -5  -3 -16 2993.55  834.19
  -5   3 -16 1352.91  744.68
   5  -3  17  892.98  605.09
  -5  -3 -17 3767.06  659.80
  -5   3 -17 3291.92  802.66
   5  -3  18 2243.99  600.22
  -5   3 -18 1407.90  837.58
  -5  -3 -18 2344.96  872.96
  -5  -3 -19  521.43  482.03
  -5   3 -19  491.99  634.81
  -5  -3 -20 1219.98  781.44
  -5   3 -20  472.70  750.12
  -5  -3 -21 1027.72  953.59
  -5   3 -21 1576.19  924.96
   5  -4 -25  219.57  279.31
   5   4 -24 2419.21  523.97
   5  -4 -24 2196.70  643.78
  -5  -4  24 2935.22 1533.03
  -5   4  24 2062.65 1508.89
   5   4 -23   64.87  353.98
   5  -4 -23  579.94  397.82
  -5   4  23 1238.00  956.63
  -5  -4  23 1296.84  722.74
   5   4 -22 2078.16  503.43
   5  -4 -22 1815.63  412.88
  -5  -4  22 2649.03  987.58
  -5   4  22 3384.62 1317.65
   5   4 -21   -3.90  353.72
   5  -4 -21  196.22  382.25
  -5   4  21 1540.11  812.44
  -5  -4  21  747.79  824.17
   5   4 -2012173.52 1536.52
   5  -4 -20 9761.92 1235.42
  -5  -4  20 8922.68 2361.82
  -5   4  2011830.33 2366.61
   5   4 -19  978.58  677.51
   5  -4 -19 1026.85  441.08
  -5   4  19  675.68  696.72
  -5  -4  19 1148.23  957.32
   5   4 -18  819.69  448.37
   5  -4 -18  541.17  441.70
  -5  -4  18  431.03  834.98
  -5   4  18  680.72  832.52
   5   4 -1714253.29 1953.39
   5  -4 -1712807.95 1102.16
  -5   4  1713752.63 1851.54
  -5  -4  1713981.18 2416.09
   5   4 -16 2506.98  905.44
   5  -4 -16 3185.30  525.90
  -5  -4  16 2307.33  849.13
  -5   4  16 2692.33 1148.93
   5   4 -15 4911.93 1259.02
   5  -4 -15 6473.25  914.83
  -5  -4  15 6207.62 1439.11
  -5   4  15 5869.09 1481.01
   5   4 -1412470.01 1462.15
   5  -4 -1412729.58 1355.45
  -5  -4  1414159.73 1609.85
  -5   4  1413378.75 2107.54
   5   4 -13 -271.58  330.23
   5  -4 -13  256.90  313.61
  -5  -4  13  221.45  429.78
  -5   4  13 -158.62  332.68
   5   4 -12 1547.74  519.48
   5  -4 -12  999.46  360.68
  -5  -4  12  504.30  657.98
  -5   4  12  853.41  704.24
   5   4 -11  -94.44  409.79
   5  -4 -11  592.26  423.58
  -5   4  11  685.15  447.68
  -5  -4  11  841.12  397.42
   5   4 -10 3070.33  593.45
   5  -4 -10 1903.76  565.46
  -5  -4  10 2044.33  673.53
  -5   4  10  876.94  581.21
   5   4  -9  298.08  498.79
   5  -4  -9  256.94  368.34
  -5   4   9  495.48  495.15
  -5  -4   9  103.25  419.88
   5   4  -8  434.08  357.61
   5  -4  -8  -33.77  397.78
  -5  -4   8  470.91  399.83
  -5   4   8  302.60  471.69
   5   4  -7 1374.88  426.83
   5  -4  -7  201.94  471.49
  -5   4   7 1227.59  576.04
  -5  -4   7  900.90  454.26
   5   4  -6 2860.72  608.40
   5  -4  -6 2923.21  658.24
  -5  -4   6 3309.26  645.14
  -5   4   6 3217.18  609.57
   5   4  -5 1025.34  440.06
   5  -4  -5 1635.91  490.05
  -5  -4   5 1394.69  472.80
  -5   4   5 2204.47  592.04
   5   4  -4 7127.73  875.55
   5  -4  -4 8609.49  864.48
  -5  -4   4 7179.42  729.09
  -5   4   4 9074.93 1129.22
   5   4  -3   10.22  424.06
   5  -4  -3  615.37  296.06
  -5   4   3  634.97  413.56
  -5  -4   3  619.13  298.49
   5   4  -2  270.98  398.60
   5  -4  -2  320.69  300.74
  -5  -4   2  281.14  211.91
  -5   4   2  596.93  371.75
   5   4  -1  138.02  280.41
   5  -4  -1  410.89  281.50
  -5   4   1  379.22  252.89
  -5  -4   1  413.98  187.25
   5   4   0 2932.16  603.98
   5  -4   0 2831.10  456.45
  -5  -4   0 2567.91  298.11
  -5   4   0 2049.44  552.93
   5  -4   1    2.43  210.93
   5   4   1   -3.01  145.26
   5  -4   1   64.80  273.87
   5   4   1   42.65  286.75
   5   4   2 3478.77  603.29
   5   4   2 2640.06  272.12
   5  -4   2 3032.39  502.25
   5  -4   2 2686.03  499.85
   5   4   311375.93 1132.87
   5   4   3 9528.26  571.84
   5  -4   3 8483.79  852.47
   5  -4   310102.21  899.31
   5   4   4 5902.48  900.86
   5   4   4 8763.52  474.81
   5  -4   410136.05  791.18
   5  -4   4 9617.60  838.63
   5   4   5   21.32   82.81
   5  -4   5  -42.60  145.06
   5  -4   5   15.58  184.40
   5   4   5  -67.87  251.41
   5   4   6 7743.91  921.38
   5   4   6 8635.02  409.88
   5  -4   6 7395.37  700.69
   5  -4   6 7172.37  656.90
   5   4   7  371.52  101.34
   5   4   7  183.11  318.03
   5  -4   7  513.22  240.32
   5  -4   7  642.19  245.13
   5   4   8 6251.38  910.52
   5  -4   8 8350.05  692.40
   5  -4   8 7849.30  743.74
   5   4   9  964.48  374.87
   5  -4   9  884.57  268.33
   5  -4   9  448.84  272.10
   5   4   9  875.05  154.12
   5   4  1013012.62 1247.51
   5  -4  10 8450.45  704.17
   5  -4  1014355.15  985.27
   5   4  11 3905.56  537.40
   5  -4  11 2460.51  462.50
  -5   4 -11 2457.13  544.06
   5  -4  12 5159.12  587.48
  -5  -4 -12 2779.63  805.10
  -5   4 -12 4620.01  695.53
   5  -4  13   36.84  228.50
  -5  -4 -13   16.33  370.29
  -5   4 -13  143.38  297.84
   5  -4  14  371.05  275.27
  -5  -4 -14 -229.70  435.18
  -5   4 -14  229.99  362.51
   5  -4  15  483.81  277.58
  -5  -4 -15  -43.49  328.85
  -5   4 -15 -106.19  373.03
   5  -4  16  154.39  319.86
  -5  -4 -16  605.94  495.55
  -5   4 -16  206.82  423.03
   5  -4  17   18.01  372.29
  -5   4 -17  650.49  480.11
  -5  -4 -17  675.42  554.01
   5  -4  18    9.61  417.62
  -5  -4 -18  446.13  458.45
  -5   4 -18 1636.39  585.98
  -5  -4 -19   40.12  622.14
  -5   4 -19  549.58  577.05
  -5  -4 -20  259.47  540.27
  -5   4 -20 1204.22  701.86
  -5   4 -21  543.39  914.10
  -5  -4 -21 1843.85  705.83
   5   5 -24  820.69  392.89
   5  -5 -24  180.04  436.71
  -5  -5  24 1304.48 1102.13
  -5   5  24 1056.65  807.97
   5  -5 -23  161.11  269.39
   5   5 -23  265.18  323.46
  -5  -5  23  -44.22  654.56
  -5   5  23  924.85  644.36
   5  -5 -22 1471.52  510.64
   5   5 -22 1170.66  533.63
  -5  -5  22 2665.99 1241.98
  -5   5  22 2087.88  891.33
   5   5 -21  126.63  526.34
   5  -5 -21  549.10  364.19
  -5  -5  21  365.23  880.08
  -5   5  21  637.18  647.87
   5   5 -20  240.74  461.34
   5  -5 -20   58.39  265.82
  -5  -5  20  299.87  574.02
  -5   5  20 1749.72  772.68
   5  -5 -19  162.66  333.29
   5   5 -19  625.86  511.59
  -5  -5  19 -154.08  524.75
  -5   5  19  -72.41  706.03
   5   5 -1811583.40 1325.61
   5  -5 -1811172.31 1150.22
  -5  -5  18 9022.41 1667.88
  -5   5  1812107.11 1747.81
   5   5 -17  305.23  561.65
   5  -5 -17  479.34  370.90
  -5  -5  17  143.11  512.86
  -5   5  17  342.44  536.84
   5   5 -16 -329.01  314.70
   5  -5 -16   23.31  278.87
  -5  -5  16  368.63  545.69
  -5   5  16  342.30  552.61
   5  -5 -15  477.00  389.78
   5   5 -15  122.66  559.28
  -5  -5  15  274.66  641.13
  -5   5  15  275.52  653.60
   5  -5 -14 2968.20  607.26
   5   5 -14 1767.21  896.56
  -5  -5  14 2935.19 1003.58
  -5   5  14 1706.92 1025.54
   5   5 -13 2120.38  737.47
   5  -5 -13 3631.90  599.13
  -5  -5  13 3371.68  748.46
  -5   5  13 1771.29  768.10
   5   5 -12 1182.32  822.85
   5  -5 -12 2232.86  579.79
  -5  -5  12 1789.06  790.44
  -5   5  12 2366.09  891.08
   5  -5 -11 6463.95  714.57
   5   5 -11 5363.81 1284.89
  -5  -5  11 7400.09  936.12
  -5   5  11 7540.35 1008.05
   5  -5 -10 3559.85  613.41
   5   5 -10 2355.48  866.29
  -5  -5  10 2969.52  759.46
  -5   5  10 1334.20  665.36
   5  -5  -9 4217.64  691.23
   5   5  -9 3070.55  748.11
  -5  -5   9 4300.01  823.34
  -5   5   9 4495.53  993.71
   5   5  -8 2010.31  712.49
   5  -5  -8  885.36  506.46
  -5  -5   8 1714.46  566.53
  -5   5   8 1786.80  516.33
   5  -5  -7 1664.77  544.39
   5   5  -7 1112.88  691.97
  -5  -5   7 1752.66  465.28
  -5   5   7 2260.00  686.41
   5  -5  -6  434.33  330.44
   5   5  -6 -279.91  303.57
  -5  -5   6  287.13  311.33
  -5   5   6  179.18  427.89
   5   5  -5 5977.14  734.41
   5  -5  -5 3650.29  739.41
  -5  -5   5 6030.61  660.17
  -5   5   5 3898.57  945.52
   5   5  -4 3750.44  724.76
   5  -5  -4 3136.71  550.39
  -5  -5   4 3099.90  439.44
  -5   5   4 1077.48  507.95
   5  -5  -3 2156.38  495.24
   5   5  -3 1721.28  614.67
  -5  -5   3 1813.19  406.61
  -5   5   3 2645.15  483.16
   5  -5  -244643.46 3362.49
   5   5  -241150.92 3852.81
  -5  -5   242194.63 2978.27
  -5   5   245883.51 3993.94
   5  -5  -1  374.23  284.78
   5   5  -1  971.80  420.22
  -5  -5   1  431.24  231.74
  -5   5   1  392.58  374.88
   5   5   0 9641.80  925.66
   5  -5   010620.61  848.03
  -5  -5   010668.96  654.81
  -5   5   0 8870.98  874.36
   5   5   1 2676.20  484.41
   5   5   1 4171.26  315.87
   5  -5   1 2521.77  505.72
   5  -5   1 2524.44  659.95
   5   5   2  796.99  298.03
   5   5   2  400.49  138.54
   5  -5   2  523.60  246.01
   5  -5   2 1014.52  241.91
   5   5   3 4056.94  284.12
   5   5   3 4732.00  724.42
   5  -5   3 3757.31  442.33
   5  -5   3 3998.60  579.84
   5   5   4   22.46  317.04
   5   5   4  317.99   86.43
   5  -5   4   65.45  194.32
   5  -5   4    2.88  257.11
   5   5   5 -168.47  310.15
   5   5   5  146.35   82.62
   5  -5   5  329.43  224.89
   5  -5   5  140.25  232.05
   5   5   6 5632.02  748.52
   5   5   6 5099.76  289.93
   5  -5   6 5164.91  533.28
   5  -5   6 4583.84  521.41
   5   5   7  -39.42   89.09
   5   5   7  361.34  255.41
   5  -5   7  286.73  194.41
   5  -5   7   26.44  157.00
   5   5   8  394.51  100.90
   5   5   8  167.10  245.76
   5  -5   8  158.95  187.98
   5  -5   8  513.25  235.53
   5  -5   9  601.48  268.10
   5  -5   9  528.11  242.09
   5   5   9 1026.99  367.85
   5   5  10  511.49  335.48
   5  -5  10  317.86  223.51
   5  -5  10   19.16  166.32
   5   5  11 1938.83  396.16
   5  -5  11 1902.89  365.80
  -5   5 -11  843.76  414.50
   5  -5  12 1309.42  354.46
  -5   5 -12  874.43  415.63
   5  -5  13  613.99  307.89
  -5  -5 -13  451.32  345.57
  -5   5 -13  473.54  372.43
   5  -5  14 9034.18  833.22
  -5  -5 -14 4380.20 1164.47
  -5   5 -14 6428.58  909.65
   5  -5  15  159.20  286.14
  -5  -5 -15  323.52  466.91
  -5   5 -15  145.46  371.78
   5  -5  16  102.06  289.47
  -5  -5 -16   99.45  316.55
  -5   5 -16    1.43  327.29
   5  -5  17  950.90  470.10
  -5  -5 -17 1513.42  526.43
   5  -5  18 1204.70  618.11
  -5   5 -18 1950.98  787.55
  -5  -5 -18 3211.09  889.48
   5  -5  19  142.38  449.22
  -5  -5 -19  240.29  486.12
  -5   5 -19 1401.21  607.98
  -5  -5 -20 1506.97 1047.96
  -5   5 -20 2735.56  967.56
  -5  -5 -21 1692.08 1033.21
   5  -6 -24 1304.51  487.46
   5   6 -24  651.55  427.72
  -5  -6  24 1422.89  872.68
  -5   6  24 -228.15 1200.31
   5   6 -23  600.80  377.43
   5  -6 -23  409.17  420.92
  -5   6  23 1951.96 1060.02
  -5  -6  23  862.98 1055.21
   5  -6 -22  -50.62  251.65
   5   6 -22  331.21  363.90
  -5  -6  22  716.20  829.83
  -5   6  22 1683.40  846.06
   5   6 -21 1047.37  505.53
   5  -6 -21 1565.80  480.99
  -5   6  21 2251.62 1155.81
  -5  -6  21 1519.01  841.49
   5   6 -20 1247.50  644.49
   5  -6 -20  613.65  369.54
  -5  -6  20  298.65  660.00
  -5   6  20 -152.08  655.19
   5   6 -19  786.67  643.45
   5  -6 -19  562.38  415.95
  -5   6  19  999.09  878.09
  -5  -6  19  525.71  853.50
   5   6 -18 2026.36  712.67
   5  -6 -18 3505.09  606.46
  -5  -6  18 3475.88 1246.90
  -5   6  18 1813.95  918.33
   5   6 -17 9945.68 1674.49
   5  -6 -17 9959.32 1052.14
  -5  -6  1713642.44 2145.27
  -5   6  17 6960.12 2082.79
   5   6 -16  302.81  518.58
   5  -6 -16 1270.31  437.07
  -5  -6  16 1296.69  610.05
  -5   6  16  765.80  852.23
   5   6 -15  209.64  737.27
   5  -6 -15 1698.65  326.40
  -5   6  15  871.79  887.08
  -5  -6  15  606.84  608.93
   5  -6 -1411648.96  911.17
   5   6 -1412144.45 1996.75
  -5  -6  1410906.16 1914.69
  -5   6  1412033.44 2051.84
   5   6 -13 8720.17 1466.68
   5  -6 -13 7835.45  728.01
  -5   6  13 3715.58 1169.33
  -5  -6  13 7562.88 1432.08
   5   6 -12 1589.13  831.75
   5  -6 -12 2142.77  498.86
  -5  -6  12 2052.47  590.16
  -5   6  12  949.21  856.91
   5   6 -11  457.37  543.79
   5  -6 -11  450.46  358.56
  -5   6  11  231.01  411.42
  -5  -6  11   90.99  500.54
   5   6 -1023315.23 2228.11
   5  -6 -1020947.32 1912.99
  -5  -6  1022487.07 2355.42
  -5   6  1021235.80 2193.04
   5   6  -9 1115.46  509.50
   5  -6  -9 1316.94  447.71
  -5  -6   9 1241.12  552.42
  -5   6   9 1017.45  701.32
   5   6  -8   36.12  582.30
   5  -6  -8  653.50  365.15
  -5  -6   8  615.52  437.69
  -5   6   8  877.38  429.75
   5   6  -7 9841.02 1503.26
   5  -6  -710617.71 1083.13
  -5   6   711430.11 1558.38
  -5  -6   710114.49 1153.38
   5   6  -616448.85 2033.26
   5  -6  -617429.63 1650.31
  -5  -6   621170.05 1704.01
  -5   6   618431.59 2130.99
   5   6  -5  583.39  329.27
   5  -6  -5  418.19  329.25
  -5  -6   5  394.81  316.87
  -5   6   5   77.92  327.82
   5   6  -4 1526.16  665.99
   5  -6  -4 2172.30  457.03
  -5  -6   4 3453.02  505.20
  -5   6   4 2827.04  699.58
   5   6  -3  168.02  425.70
   5  -6  -3  304.57  285.18
  -5  -6   3  308.52  218.10
  -5   6   3  869.17  429.36
   5   6  -2 1398.58  601.66
   5  -6  -2 2317.52  393.43
  -5  -6   2 1535.00  293.77
  -5   6   2 1376.23  553.28
   5   6  -1 4474.79  781.93
   5  -6  -1 3919.86  433.02
  -5  -6   1 3845.10  328.90
  -5   6   1 2903.38  721.28
   5   6   0  580.94  420.94
   5  -6   0 1132.90  272.52
  -5  -6   0  352.17  192.76
   5   6   117652.62 1669.04
   5   6   117584.03 1031.88
   5  -6   115150.75 1047.36
   5  -6   119945.20 1801.19
   5   6   2  345.59  103.55
   5  -6   2  583.45  218.36
   5  -6   2  642.05  321.14
   5   6   2  271.26  276.89
   5   6   311277.99 1262.62
   5  -6   3 9340.03  826.17
   5  -6   312786.57 1079.70
   5   6   4  498.96  244.79
   5   6   4  250.34   69.02
   5  -6   4  457.60  182.11
   5  -6   4  158.55  278.98
   5   6   5 6297.16  842.57
   5   6   5 4807.98  239.80
   5  -6   5 6279.83  534.44
   5  -6   5 6384.93  670.56
   5   6   6 6888.02  830.44
   5  -6   6 5506.07  475.98
   5  -6   6 6420.67  638.20
   5  -6   7  583.63  265.92
   5  -6   7  339.42  187.00
   5   6   8 1773.85  507.91
   5  -6   8 2535.50  369.99
   5  -6   8 1330.01  260.09
   5   6   9 1673.64  545.05
   5  -6   9 2535.86  389.09
   5  -6   9 1201.78  303.18
   5  -6  10 1101.94  328.93
   5  -6  10  867.73  289.97
   5   6  10 1172.76  451.97
   5   6  11  554.82  499.57
   5  -6  11 1158.17  344.37
  -5   6 -11 1550.18  384.37
   5  -6  12 7198.88  716.55
  -5   6 -12 4002.99  717.82
   5  -6  13 1615.38  407.36
  -5  -6 -13  797.06  602.52
  -5   6 -13 1228.01  453.84
   5  -6  1412316.69 1082.43
  -5   6 -1411009.55 1195.78
  -5  -6 -14 9808.44 1517.13
   5  -6  15 1954.96  489.79
  -5  -6 -15 2339.52  773.34
  -5   6 -15 1851.35  617.82
   5  -6  16  405.05  341.17
  -5  -6 -16 -184.58  543.91
  -5   6 -16  629.51  430.72
   5  -6  17 1580.21  467.81
  -5  -6 -17  289.15  689.77
  -5   6 -17  681.60  592.61
   5  -6  18 1909.57  575.94
  -5  -6 -18  699.00  866.40
  -5   6 -18 2099.76  743.14
   5  -6  19  138.48  435.56
  -5  -6 -19  697.14  648.71
  -5  -6 -20 1063.68  866.01
  -5  -6 -21  311.47  538.71
   5  -7 -24 -152.49  331.40
   5   7 -24  316.87  403.88
  -5  -7  24  135.58  596.83
  -5   7  24  -68.95  607.21
   5   7 -23  663.33  504.32
   5  -7 -23   48.78  406.55
  -5  -7  23  401.27 1008.34
  -5   7  23 1665.60  758.75
   5  -7 -22  594.95  387.39
   5   7 -22 -387.57  404.40
  -5  -7  22 1530.18  695.69
  -5   7  22  989.86  695.97
   5   7 -21 1559.52  666.97
   5  -7 -21 4241.03  671.09
  -5  -7  21 5060.51 1100.32
  -5   7  21 3341.11 1519.73
   5  -7 -20 2027.76  538.37
   5   7 -20 2296.14  892.23
  -5  -7  20 1813.45 1190.16
  -5   7  20 2359.53 1276.46
   5   7 -19 3440.90  944.96
   5  -7 -19 2719.31  402.85
  -5  -7  19 2618.59 1225.34
  -5   7  19  699.05  947.55
   5   7 -18  452.74  539.66
   5  -7 -18 1544.04  451.95
  -5  -7  18 1600.44  908.34
  -5   7  18  583.06  969.77
   5   7 -17  740.90  833.94
   5  -7 -17 1956.73  510.55
  -5  -7  17 3686.45 1032.01
  -5   7  17 1466.31 1077.20
   5  -7 -16 1638.68  349.93
   5   7 -16 2118.11  648.84
  -5  -7  16 3230.84  953.66
  -5   7  16 1739.61 1027.15
   5   7 -15  728.31  588.49
   5  -7 -15 1607.16  344.38
  -5  -7  15 3526.76  885.87
  -5   7  15  522.57  934.49
   5  -7 -14 5725.35  729.02
   5   7 -14 5982.75 1360.27
  -5  -7  14 5627.11  952.83
  -5   7  14 1994.53 1353.29
   5   7 -13 5670.86 1229.89
   5  -7 -13 5252.68  636.40
  -5  -7  13 3764.11 1176.32
  -5   7  13 2478.61  932.55
   5  -7 -12 5904.04  752.76
   5   7 -12 5153.28 1215.02
  -5  -7  12 5596.40 1169.71
  -5   7  12 2083.66 1287.04
   5   7 -1128073.24 3400.56
   5  -7 -1130984.73 2435.31
  -5  -7  1133484.19 3329.20
  -5   7  1128328.76 2932.93
   5   7 -10   -5.41  342.69
   5  -7 -10   32.73  302.08
  -5  -7  10   87.70  412.11
  -5   7  10  202.97  357.67
   5   7  -9 3370.83 1067.03
   5  -7  -9 4700.20  668.44
  -5  -7   9 4578.96  869.23
  -5   7   9 3618.00 1091.32
   5  -7  -8 1182.03  367.59
   5   7  -8 1625.76  491.14
  -5  -7   8 1135.27  438.73
  -5   7   8 1082.09  503.66
   5   7  -715779.02 1944.37
   5  -7  -715195.04 1318.14
  -5  -7   714592.53 1439.56
  -5   7   717116.52 2073.07
   5  -7  -6 8775.94  808.44
   5   7  -6 8750.54 1279.74
  -5  -7   6 8317.14  933.24
  -5   7   6 6428.89 1297.56
   5   7  -515852.08 1460.33
   5  -7  -516265.58 1370.33
  -5  -7   516154.01 1366.63
  -5   7   514622.90 1513.81
   5   7  -4  383.59  388.22
   5  -7  -4 1103.84  363.82
  -5  -7   4 1173.22  301.76
  -5   7   4 1187.48  553.04
   5  -7  -323365.71 1675.79
  -5  -7   328367.17 1823.23
  -5   7   328614.50 2784.41
   5   7  -2 7258.50  802.72
   5  -7  -2 5166.48  546.69
  -5  -7   2 6442.70  569.37
  -5   7   2 6850.44  974.73
   5   7  -1 -155.56  241.73
   5  -7  -1 -137.72  167.14
  -5  -7   1   73.03  155.49
  -5   7   1  -25.92  317.03
   5   7   0   33.00  295.05
   5  -7   0  -31.45  145.29
   5  -7   0 -145.55  227.41
  -5  -7   0   37.90  113.29
   5   7   1   38.11  369.84
   5   7   1  446.32  125.54
   5  -7   1   45.02  192.15
   5  -7   1   30.12  324.04
   5   7   2 1349.35  385.43
   5   7   2  318.93   77.42
   5  -7   2   -1.67  185.06
   5  -7   2  241.85  333.70
   5   7   3 3242.61  662.66
   5  -7   3 2852.81  338.40
   5  -7   3 2751.15  551.20
   5   7   4 2126.03  108.43
   5  -7   4 2534.99  311.02
   5  -7   4 2806.15  491.07
   5   7   4 2317.43  437.21
   5   7   5  991.88  311.85
   5  -7   5  412.37  204.11
   5  -7   5  829.87  321.50
   5   7   6  324.44  254.29
   5  -7   6  471.75  173.57
   5  -7   6  273.18  258.39
   5   7   7 2450.14  588.86
   5  -7   7 2546.41  310.09
   5  -7   7 2322.83  449.01
   5   7   8  358.71  236.65
   5  -7   8  140.21  165.04
   5  -7   8   69.14  145.51
   5   7   9  525.58  322.05
   5  -7   9 1298.00  303.89
   5  -7   9  397.37  185.19
   5   7  10  503.73  299.18
   5  -7  10 1077.22  307.61
   5  -7  10  641.48  252.08
   5   7  11  605.46  313.58
   5  -7  11  692.30  314.05
   5   7  12 1013.73  374.96
   5  -7  12 1043.54  358.90
  -5   7 -12  904.22  380.52
   5  -7  1314393.59 1206.10
  -5   7 -13 9982.43 1203.48
   5  -7  14  813.45  378.14
  -5  -7 -14 1009.05  428.89
  -5   7 -14  781.27  424.10
   5  -7  15 1175.75  358.94
  -5  -7 -15   -2.24  392.09
  -5   7 -15  163.48  405.12
   5  -7  16  679.76  286.36
  -5  -7 -16  206.49  598.44
  -5   7 -16  627.24  461.80
   5  -7  17 2276.98  581.79
  -5  -7 -17 1457.51  870.83
   5  -7  18  173.65  420.54
  -5  -7 -18  803.45  467.14
   5  -7  19   27.47  382.60
  -5  -7 -19  143.54  546.39
   5  -7  20  279.87  511.83
  -5  -7 -20  829.35  544.76
   5  -7  21  909.83  486.57
  -5  -7 -21  198.21  854.89
   5   8 -24  861.21  623.00
   5  -8 -24  946.39  494.18
  -5  -8  24 1039.54  925.08
  -5   8  24 2762.19 1311.01
   5   8 -23 1143.08  648.11
   5  -8 -23  156.75  444.19
  -5  -8  23 2055.23 1042.76
  -5   8  23 1048.65 1112.91
   5   8 -22 -148.44  498.46
   5  -8 -22  149.05  346.97
  -5  -8  22  761.82  594.01
  -5   8  22  462.60  880.61
   5   8 -21 1415.68  677.34
   5  -8 -21 1816.01  389.53
  -5   8  21 3591.49  971.09
  -5  -8  21 2326.84 1221.84
   5   8 -20  -57.63  607.68
   5  -8 -20  174.00  354.67
  -5  -8  20 1527.47  803.26
  -5   8  20 1179.56  871.29
   5   8 -19  587.68  596.56
   5  -8 -19  345.84  247.94
  -5  -8  19  238.00  563.53
  -5   8  19  809.02  619.01
   5   8 -18  749.56  586.81
   5  -8 -18 1601.71  422.28
  -5  -8  18 1648.82  714.36
  -5   8  18 1443.29 1045.56
   5   8 -17 1206.99  744.44
   5  -8 -17 1251.74  445.36
  -5  -8  17  851.11  640.91
  -5   8  17 1105.20  962.66
   5   8 -16 1912.01  645.56
   5  -8 -16 1758.26  472.19
  -5  -8  16 2825.17  710.39
  -5   8  16  737.97  745.54
   5   8 -15  329.39  480.04
   5  -8 -15  788.85  340.87
  -5  -8  15  771.01  513.23
  -5   8  15  258.06  549.56
   5   8 -14  181.88  561.81
   5  -8 -14 -114.96  279.11
  -5  -8  14  468.65  518.24
  -5   8  14  375.57  559.62
   5   8 -13 -392.16  557.89
   5  -8 -13  255.32  206.77
  -5  -8  13  258.60  393.37
  -5   8  13  226.68  596.00
   5   8 -12 5456.79 1289.78
   5  -8 -12 6187.86  681.74
  -5  -8  12 4156.14 1203.80
  -5   8  12 4883.84 1341.62
   5   8 -11  -19.44  613.13
   5  -8 -11  621.77  329.17
  -5  -8  11  687.67  557.13
  -5   8  11  198.80  465.26
   5   8 -10  -12.27  343.70
   5  -8 -10   78.03  243.77
  -5  -8  10  102.45  394.83
  -5   8  10   15.67  353.36
   5   8  -9 2402.61 1102.07
   5  -8  -9 5008.12  690.66
  -5  -8   9 4950.26  895.53
  -5   8   9 4184.44 1109.08
   5   8  -8  490.66  462.32
   5  -8  -8 1003.40  368.40
  -5  -8   8 1223.01  480.75
  -5   8   8  910.62  661.34
   5   8  -7 4266.80  880.18
   5  -8  -7 2727.05  489.89
  -5  -8   7 3886.10  650.92
  -5   8   7 3107.42  913.59
   5   8  -6 -189.76  272.59
   5  -8  -6  -76.95  186.03
  -5  -8   6   45.40  219.35
  -5   8   6  436.37  398.93
   5   8  -5  157.94  290.45
   5  -8  -5  128.67  205.96
  -5   8   5  233.88  421.36
  -5  -8   5    0.55  222.50
   5   8  -4 3621.08  832.59
   5  -8  -4 3737.82  461.66
  -5  -8   4 4677.14  562.22
  -5   8   4 3995.59  694.66
   5   8  -3 3237.80  659.10
   5  -8  -3 1648.97  330.91
  -5  -8   3 1293.42  308.70
  -5   8   3 3044.31  676.92
   5   8  -2  372.36  377.29
   5  -8  -2  -16.00  169.01
  -5  -8   2   20.80  133.44
  -5   8   2  669.64  364.20
   5   8  -1 2013.14  477.21
   5  -8  -1  243.11  214.69
  -5   8   1  671.42  460.88
  -5  -8   1  676.07  196.93
   5   8   0  159.79  262.60
   5  -8   0  170.77  392.93
   5  -8   0    0.92  205.98
  -5  -8   0  259.06  115.30
   5   8   1 1631.86  526.05
   5   8   1 1373.01  118.16
   5  -8   1 2347.41  377.20
   5  -8   1  950.29  307.22
   5   8   2 2963.51  597.33
   5  -8   2 5132.04  443.62
   5  -8   2 3785.00  675.58
   5   8   318075.87 1771.13
   5  -8   316491.99 1110.43
   5  -8   315938.71 1524.36
   5   8   4 2005.16  533.89
   5  -8   4 1856.29  321.63
   5  -8   4 1596.42  358.82
   5   8   5 6905.90  911.30
   5  -8   5 4613.78  417.09
   5  -8   5 8114.16  777.25
   5   8   6  796.43  415.11
   5  -8   6  759.13  217.27
   5  -8   6 1243.44  325.44
   5   8   7  371.66  268.03
   5  -8   7  130.05  169.56
   5  -8   7  847.43  274.93
   5   8   8 8812.46 1026.76
   5  -8   8 8005.88  774.74
   5  -8   8 6415.81  565.59
   5   8   9 6201.54  997.34
   5  -8   9 8305.88  822.95
   5   8  10  362.16  323.15
   5  -8  10  -48.53  242.28
   5  -8  10  114.41  178.08
   5   8  11  801.81  292.22
   5  -8  11   24.14  290.01
   5   8  12  187.12  400.11
   5  -8  12  180.00  287.03
  -5   8 -12  350.18  243.60
   5   8  13   54.23  205.09
   5  -8  13  709.73  317.22
  -5   8 -13  782.85  284.43
   5  -8  14  265.69  233.11
  -5  -8 -14  792.82  476.65
  -5   8 -14   76.72  332.75
   5  -8  15  204.16  248.10
  -5  -8 -15  783.22  507.53
   5  -8  16  853.97  374.74
  -5  -8 -16  -37.79  408.25
   5  -8  17  748.31  477.04
  -5  -8 -17 1660.11  542.49
   5  -8  18  936.41  493.46
  -5  -8 -18  626.09  737.61
   5  -8  19  555.46  532.66
  -5  -8 -19 1404.80  589.11
   5  -8  20   24.06  390.17
  -5  -8 -20 -136.92  579.53
   5  -8  21 1066.87  648.81
  -5  -8 -21 1156.16  946.93
   5  -9 -24  393.66  308.30
  -5  -9  24  723.85  745.48
   5   9 -23 -201.91  564.56
   5  -9 -23  413.45  375.60
  -5  -9  23  859.00  917.60
  -5   9  23  392.87  728.11
   5   9 -22 1842.80  757.35
   5  -9 -22 1058.70  382.15
  -5  -9  22 3139.17  891.40
  -5   9  22 1648.30 1307.98
   5   9 -21 -239.69  406.36
   5  -9 -21 -169.93  314.52
  -5   9  21 1358.86  811.60
  -5  -9  21 1968.79  750.73
   5   9 -20  336.07  453.91
   5  -9 -20   33.53  355.36
  -5  -9  20  584.16  591.36
  -5   9  20 1604.85  657.57
   5   9 -19 4003.21 1283.92
   5  -9 -19 5379.28  586.58
  -5  -9  19 4242.64 1159.60
  -5   9  19 3880.55 1699.11
   5   9 -18  247.79  506.79
   5  -9 -18  786.47  363.78
  -5  -9  18 1704.39  834.03
  -5   9  18  905.02  878.37
   5   9 -17 2089.93  865.20
   5  -9 -17 1457.86  298.25
  -5  -9  17 1710.33  939.00
  -5   9  17  598.33  731.91
   5   9 -1610249.86 1428.00
   5  -9 -1611324.45  995.10
  -5  -9  16 9457.77 1937.16
  -5   9  16 9185.70 1592.79
   5   9 -15 3125.40 1257.90
   5  -9 -15 4766.68  626.94
  -5   9  15 1403.67  999.65
  -5  -9  15 5480.02 1199.70
   5   9 -14 5747.47 1429.89
   5  -9 -14 6129.52  705.09
  -5  -9  14 6946.99 1055.98
  -5   9  14 2984.26 1519.64
   5   9 -1311237.17 1924.14
   5  -9 -1311149.51  987.26
  -5   9  1312430.96 2121.26
  -5  -9  1312047.16 1843.32
   5   9 -12 -139.50  581.31
   5  -9 -12  295.13  286.29
  -5  -9  12  428.19  544.75
  -5   9  12  933.76  647.93
   5   9 -11 -174.00  496.57
   5  -9 -11  122.12  221.87
  -5  -9  11  566.70  441.72
  -5   9  11 -345.03  386.38
   5   9 -10  568.33  561.32
   5  -9 -10 1607.24  347.26
  -5  -9  10 1648.75  658.86
  -5   9  10 1504.69  587.82
   5   9  -9  552.26  414.99
   5  -9  -9  250.25  281.22
  -5   9   9  631.81  613.49
  -5  -9   9  398.78  452.26
   5   9  -811220.32 1715.66
   5  -9  -811556.86  977.89
  -5  -9   811243.31 1367.16
  -5   9   814893.15 1910.49
   5   9  -7 4303.79  794.05
   5  -9  -7 6280.53  588.92
  -5   9   7 4215.67 1145.52
  -5  -9   7 4120.68  668.71
   5   9  -6 1212.83  471.35
   5  -9  -6 1699.27  350.82
  -5  -9   6 1060.22  366.53
  -5   9   6  530.99  485.78
   5   9  -5 3599.78  824.69
   5  -9  -5 2884.75  447.45
  -5   9   5 1954.82  868.98
  -5  -9   5 3492.94  518.93
   5   9  -4 9291.17 1280.60
   5  -9  -4 7947.16  701.16
  -5  -9   410491.49  789.10
  -5   9   4 9690.77 1406.88
   5   9  -3 2036.47  451.49
   5  -9  -3 1213.52  280.73
  -5  -9   3  945.23  274.82
  -5   9   3 1992.93  447.62
   5   9  -212729.19 1507.63
   5  -9  -2 8310.42  820.91
  -5  -9   212330.88  731.56
  -5   9   210488.98 1111.01
   5   9  -1 2765.32  727.86
  -5   9   1 3454.99  737.92
  -5  -9   1 2925.20  286.64
   5   9   0  414.58  290.58
   5  -9   0  158.58  198.15
   5  -9   0  232.65  416.75
  -5  -9   0  262.43   99.81
   5   9   1  113.90   54.46
   5  -9   1  289.53  325.07
   5  -9   1   88.81  172.37
   5   9   1  695.98  353.99
   5   9   2  366.08  265.68
   5  -9   2   48.48  134.86
   5  -9   2  160.12  217.40
   5   9   3  133.19  366.90
   5  -9   3  259.58  174.81
   5  -9   3   60.28  219.06
   5   9   4  722.70  401.71
   5  -9   4  562.16  162.48
   5  -9   4  298.70  265.34
   5  -9   5  132.33  140.34
   5  -9   5   86.10  287.42
   5   9   5  706.82  362.29
   5   9   6 6419.95  752.87
   5  -9   6 7151.06  645.24
   5  -9   6 9508.08  831.02
   5   9   7  590.83  429.97
   5  -9   7  519.92  174.26
   5  -9   7  941.87  243.06
   5   9   8  480.77  277.37
   5  -9   8  309.11  293.41
   5   9   9 1219.89  383.25
   5  -9   9 1411.00  392.18
   5   9  10 1521.95  548.09
   5  -9  10 1191.34  295.40
   5   9  11 1649.55  442.42
   5  -9  11   64.58  324.32
   5   9  12 1770.45  428.83
   5  -9  12 1215.51  449.33
   5  -9  13  802.64  277.29
   5   9  13  894.66  391.85
   5  -9  14   56.45  201.92
   5  -9  15  622.58  293.53
  -5  -9 -15  836.17  585.84
   5  -9  16  136.85  412.88
  -5  -9 -16 1824.38  625.16
   5  -9  17 1326.81  499.28
  -5  -9 -17  841.88  532.00
   5  -9  18 4588.40  849.24
  -5  -9 -18 3395.53 1211.04
   5  -9  19   61.64  416.50
  -5  -9 -19  457.23  620.44
   5  -9  20 3456.49  829.04
  -5  -9 -20 1023.33 1145.96
   5  -9  21  180.57  534.93
  -5  -9 -21  590.02  565.05
   5  10 -23 2351.82  667.38
   5 -10 -23 2241.43  609.84
  -5 -10  23 1784.68 1466.29
  -5  10  23 2280.67 1159.79
   5  10 -22  973.87  621.33
   5 -10 -22  560.95  298.63
  -5 -10  22  998.37  745.26
  -5  10  22  344.72  770.57
   5  10 -21  316.17  669.70
   5 -10 -21  379.85  387.24
  -5 -10  21 1452.27  911.45
  -5  10  21  579.81  962.61
   5  10 -20 1365.47  551.49
   5 -10 -20  649.05  431.70
  -5 -10  20 1319.21  723.22
  -5  10  20  791.79  762.21
   5  10 -19 4400.03 1075.88
   5 -10 -19 2205.04  435.93
  -5 -10  19 5226.22 1302.18
  -5  10  19 3513.27 1345.44
   5  10 -18  384.80  634.90
   5 -10 -18  291.71  317.00
  -5 -10  18  897.83  749.04
  -5  10  18  375.26  592.17
   5  10 -17 4952.70 1358.00
   5 -10 -17 4950.14  651.06
  -5 -10  17 4529.73 1406.41
  -5  10  17 4148.44 1183.48
   5  10 -16  726.44  496.51
   5 -10 -16  329.17  303.19
  -5 -10  16 1805.05  727.03
  -5  10  16  253.55  577.45
   5  10 -15  196.19  648.67
   5 -10 -15  323.46  260.18
  -5 -10  15  558.36  620.48
  -5  10  15   17.62  510.34
   5  10 -14 4186.51 1443.28
   5 -10 -14 7067.09  714.46
  -5 -10  14 6000.93 1359.82
  -5  10  14 2295.45 1172.94
   5  10 -13 2493.85 1015.37
   5 -10 -13 2827.84  470.14
  -5 -10  13 2095.86  991.20
  -5  10  13 2725.92 1130.17
   5  10 -12 1706.62  850.35
   5 -10 -12 2087.32  367.99
  -5 -10  12  855.71  785.74
  -5  10  12  713.64  668.05
   5 -10 -11 1518.05  310.21
   5  10 -11 1135.49  756.19
  -5 -10  11 1099.68  511.27
  -5  10  11  493.06  592.70
   5  10 -10 1879.01  849.71
   5 -10 -10 1840.83  387.04
  -5 -10  10 1955.97  543.94
  -5  10  10 1633.57  663.53
   5  10  -9  682.42  518.33
   5 -10  -9 1115.01  303.33
  -5 -10   9 1665.05  583.40
  -5  10   9  886.47  540.54
   5  10  -8 4061.41 1190.98
   5 -10  -8 5808.35  532.93
  -5 -10   8 6984.01  968.63
  -5  10   8 4208.24 1255.29
   5  10  -7 1227.36  572.66
  -5 -10   7 2935.94  493.56
  -5  10   7 1482.63  600.10
   5  10  -6 2955.08  753.79
   5 -10  -6 1954.39  312.60
  -5 -10   6 1569.94  481.67
  -5  10   6 2936.25  592.73
   5  10  -510118.60 1091.30
   5 -10  -5 9333.06  734.85
  -5 -10   5 8810.87  780.98
  -5  10   510883.53 1207.03
   5  10  -4 1587.08  663.56
   5 -10  -4 1907.93  297.13
  -5 -10   4 2432.77  394.62
  -5  10   4 1319.32  543.66
   5  10  -310271.43 1370.51
   5 -10  -3 8032.26  619.20
  -5 -10   311275.50  881.41
  -5  10   310797.53 1396.21
   5  10  -2 6605.87  746.21
   5 -10  -2 4931.13  516.59
  -5 -10   2 5631.91  495.07
  -5  10   2 4614.88  742.45
   5  10  -1  485.22  368.47
   5 -10  -1  -22.42  176.70
  -5 -10   1  147.32  129.76
   5  10   0  329.87  306.23
   5 -10   0  870.94  467.22
   5 -10   0  225.01  177.69
  -5 -10   0  387.16   84.94
   5 -10   1  727.21  387.33
   5 -10   1  323.26  167.27
   5  10   1  152.51  399.02
   5  10   2 3369.60  579.38
   5 -10   2 2966.24  292.55
   5 -10   2 3042.13  646.85
   5  10   3  594.06  333.86
   5 -10   3  514.62  187.45
   5 -10   3 1015.54  389.32
   5  10   4 -117.32  234.52
   5 -10   4   10.46  287.11
   5  10   5 3093.50  619.64
   5 -10   5 5756.69  708.91
   5  10   6 2245.87  521.92
   5 -10   6 1187.80  305.24
   5  10   7   17.16  218.40
   5 -10   7   -4.82  227.47
   5  10   8 1288.45  354.58
   5 -10   8 1094.51  392.49
   5  10   9 2061.08  398.57
   5 -10   9 1110.55  302.85
   5  10  10  570.22  331.79
   5 -10  10  426.20  309.63
   5  10  11 1082.56  461.54
   5 -10  11  512.88  354.14
   5  10  12  599.18  313.29
   5 -10  12  157.63  230.48
   5  10  13 1237.85  449.95
   5 -10  13   33.72  236.47
   5  10  14  564.40  341.92
   5 -10  14   79.85  240.06
   5 -10  15  260.27  258.24
   5 -10  16 -174.14  330.65
  -5 -10 -16  691.74  489.56
   5 -10  17  494.80  462.59
  -5 -10 -17 1488.47  697.50
   5 -10  18  510.40  466.66
  -5 -10 -18  482.95  497.58
   5 -10  19  410.11  523.67
  -5 -10 -19 1188.89  751.46
   5 -10  20  653.27  517.93
  -5 -10 -20  105.99  550.22
   5  11 -23  990.23  669.45
   5 -11 -23  492.82  328.42
  -5 -11  23  819.14 1073.50
  -5  11  23 1627.46 1144.64
   5  11 -22 2415.08  697.35
   5 -11 -22 2873.68  640.64
  -5 -11  22 3305.31 1118.92
  -5  11  22 2727.83 1593.41
   5  11 -21 1768.51  798.21
   5 -11 -21  653.01  423.50
  -5 -11  21 2912.05 1069.29
  -5  11  21  184.07  807.55
   5  11 -20 4300.59 1299.70
   5 -11 -20 4386.99  719.09
  -5 -11  20 6104.50 1263.60
  -5  11  20 6871.11 1824.57
   5  11 -19 -111.61  421.76
   5 -11 -19   -7.94  220.41
  -5 -11  19  225.07  685.06
  -5  11  19 1587.95  567.76
   5  11 -18  520.84  671.23
   5 -11 -18  484.73  335.00
  -5 -11  18  393.18  762.69
  -5  11  18  501.87  634.15
   5  11 -17  -84.28  391.11
   5 -11 -17  146.96  241.61
  -5 -11  17 -118.55  558.45
  -5  11  17 -229.87  646.86
   5  11 -16   -4.23  544.81
   5 -11 -16   39.77  240.15
  -5 -11  16  145.68  408.91
  -5  11  16  452.75  661.02
   5  11 -15  455.57  663.71
   5 -11 -15  299.23  263.67
  -5 -11  15  -26.23  442.23
  -5  11  15  520.89  524.23
   5  11 -14  971.12  652.28
   5 -11 -14 1904.56  358.81
  -5 -11  14 1493.58  810.42
  -5  11  14  486.82  719.09
   5  11 -13  889.87  452.23
   5 -11 -13  143.31  226.45
  -5 -11  13  323.37  544.36
  -5  11  13  114.52  695.68
   5  11 -12 2115.82  655.97
   5 -11 -12 1636.21  322.88
  -5 -11  12  864.19  731.95
  -5  11  12 1193.75  685.92
   5  11 -11 7291.52 1108.39
   5 -11 -11 7596.44  661.18
  -5 -11  11 9199.87 1340.46
  -5  11  11 3786.11 1175.89
   5  11 -10  319.11  576.10
   5 -11 -10  292.31  185.34
  -5 -11  10  474.30  490.76
  -5  11  10   62.16  457.27
   5  11  -914133.03 1975.79
   5 -11  -912490.80  881.82
  -5 -11   916862.79 1740.49
  -5  11   912093.95 1627.49
   5  11  -8 3370.31  740.25
   5 -11  -8 4477.47  406.01
  -5 -11   8 1794.85  816.47
  -5  11   8 2600.59 1096.60
   5  11  -7 3179.03  977.36
   5 -11  -7 3908.28  420.15
  -5 -11   7 4701.56  651.48
  -5  11   7 3620.01  814.78
   5  11  -6   32.64  275.64
   5 -11  -6  -65.02  120.06
  -5 -11   6  272.62  251.24
  -5  11   6   88.11  418.39
   5  11  -5  648.22  416.45
   5 -11  -5   72.73  147.36
  -5 -11   5   86.49  205.29
  -5  11   5 -279.29  446.74
   5  11  -4 3527.02  678.97
   5 -11  -4 3649.43  330.64
  -5 -11   4 3317.02  415.41
  -5  11   4 4005.80  920.72
   5  11  -3 2168.81  704.01
   5 -11  -3 1784.19  255.55
  -5 -11   3 1959.50  296.61
  -5  11   3 1598.03  525.96
   5  11  -2  248.21  339.56
   5 -11  -2  -21.70  108.26
  -5  11   2   76.91  355.83
   5  11  -1 1710.22  687.14
   5 -11  -1 2344.24  560.99
  -5 -11   1 2331.55  231.89
   5 -11   0  499.42  454.67
   5  11   0  105.19  290.05
   5  11   1 3838.03  815.31
   5 -11   1 4134.07  778.33
   5  11   2  388.78  423.78
   5 -11   2  284.81  264.24
   5  11   3 2526.27  610.32
   5 -11   3 1309.20  375.71
   5  11   4  -71.97  370.81
   5 -11   4  177.31  303.65
   5  11   5 5436.35  913.35
   5 -11   5 4477.16  761.77
   5  11   6 1020.19  328.07
   5 -11   6   35.42  222.76
   5  11   7 7131.48 1089.41
   5 -11   7 8388.11  917.26
   5  11   8  378.63  456.76
   5 -11   8  786.78  362.65
   5  11   9 1627.81  454.11
   5 -11   9  100.00  344.44
   5  11  10 1218.38  502.98
   5 -11  10  564.26  259.83
   5  11  11  510.58  322.49
   5 -11  11   67.65  306.93
   5 -11  12  366.49  317.78
   5  11  12  208.43  427.46
   5  11  13 -104.23  428.02
   5 -11  13  422.93  321.78
   5  11  14  -71.39  305.25
   5 -11  14  -86.92  299.82
   5  11  15   46.18  205.31
   5 -11  15  161.73  314.86
   5 -11  16  210.34  268.75
   5 -11  17 1154.62  554.94
  -5 -11 -17 2152.45  824.85
   5 -11  18  376.59  409.47
  -5 -11 -18  123.61  452.83
   5 -11  19  959.90  526.17
  -5 -11 -19    2.00  683.16
   5 -11  20 -280.16  411.21
  -5 -11 -20  411.88  439.32
   5  12 -23 1662.94  849.73
   5 -12 -23 1744.25  565.73
  -5 -12  23  687.59 1373.49
  -5  12  23 1899.43 1081.40
   5  12 -22 1591.68  832.38
   5 -12 -22  669.19  456.12
  -5 -12  22  460.04  798.42
  -5  12  22 1454.45 1197.56
   5 -12 -21 2004.93  589.08
   5  12 -21 3256.33  814.94
  -5 -12  21 3775.89 1369.68
  -5  12  21 2225.60 1104.82
   5  12 -20  913.59  589.63
   5 -12 -20  839.14  401.31
  -5 -12  20  598.99  670.44
  -5  12  20  568.13 1066.58
   5  12 -19  686.16  626.70
   5 -12 -19  -91.94  301.38
  -5 -12  19    0.65  711.72
  -5  12  19 1169.61  605.87
   5  12 -18  524.76  701.91
   5 -12 -18 2095.24  427.85
  -5 -12  18 1687.56 1012.25
  -5  12  18 1009.54 1158.32
   5  12 -17 4455.08 1413.70
   5 -12 -17 5432.66  656.54
  -5 -12  17 3095.25 1044.77
  -5  12  17 3915.20 1656.89
   5  12 -16  209.80  658.12
   5 -12 -16  163.58  254.65
  -5 -12  16   32.44  595.02
  -5  12  16  394.32  715.07
   5  12 -15   69.88  506.87
   5 -12 -15  370.74  264.48
  -5 -12  15  335.17  618.22
  -5  12  15  584.51  755.27
   5  12 -14 6093.51 1203.94
   5 -12 -14 6916.79  680.54
  -5 -12  14 6791.52 1450.57
  -5  12  14 5535.71 1342.58
   5 -12 -13  113.28  205.80
   5  12 -13  259.16  414.81
  -5 -12  13    3.50  344.40
  -5  12  13 -354.56  608.82
   5  12 -12 -287.69  477.83
   5 -12 -12   13.71  166.32
  -5 -12  12 -152.58  408.94
  -5  12  12  219.73  386.04
   5 -12 -11 1399.02  246.97
   5  12 -11  568.92  608.42
  -5 -12  11 1628.18  684.85
  -5  12  11 1867.85  906.59
   5  12 -10  424.15  430.38
   5 -12 -10  233.52  158.29
  -5 -12  10  396.44  459.62
  -5  12  10  -24.39  616.55
   5 -12  -9  349.31  177.29
   5  12  -9 -196.10  585.76
  -5 -12   9  406.04  484.61
  -5  12   9  726.80  473.58
   5  12  -8 -506.56  486.60
   5 -12  -8  -70.80  157.34
  -5 -12   8  177.26  324.18
  -5  12   8 1286.89  368.66
   5  12  -7 1011.64  553.65
  -5 -12   7 1511.04  481.10
  -5  12   7 2892.11  847.15
   5  12  -6 2964.08  929.02
   5 -12  -6 3463.97  276.97
  -5 -12   6 3863.79  562.16
  -5  12   6 2943.75 1010.13
   5 -12  -5   76.66  127.42
   5  12  -5  345.73  325.75
  -5 -12   5  282.61  215.78
  -5  12   5 -108.95  360.36
   5  12  -4 1176.38  592.32
   5 -12  -4  980.22  165.69
  -5 -12   4  533.50  343.94
  -5  12   4 1984.84  460.43
   5 -12  -3   88.77  103.72
   5  12  -3  378.96  326.32
  -5 -12   3  483.30  174.41
  -5  12   3  603.78  457.94
   5  12  -2 3272.89  790.99
  -5  12   2 2856.38  844.07
   5 -12  -111758.92 1272.75
   5  12  -112760.06 1552.07
  -5 -12   110310.55  600.42
   5  12   0  951.73  394.72
   5 -12   0 1093.94  500.13
   5  12   1 8272.94 1166.65
   5 -12   1 7512.36 1114.10
   5  12   2  468.90  470.58
   5 -12   2  671.07  417.35
   5  12   3 5919.78 1112.30
   5 -12   3 8190.80 1005.37
   5  12   4  394.32  276.48
   5 -12   4 -126.49  210.27
   5  12   519987.14 1813.30
   5 -12   521176.39 1936.55
   5 -12   6    3.69  202.94
   5  12   6  746.49  391.84
   5  12   7  785.82  543.18
   5 -12   7 2064.97  445.59
   5  12   8  762.47  381.10
   5 -12   8 1079.33  292.94
   5  12   9 1015.81  528.13
   5 -12   9 1307.58  407.71
   5 -12  10 1506.29  456.91
   5  12  10 1983.68  630.67
   5  12  11  672.25  383.63
   5 -12  11  775.64  372.66
   5  12  12  344.08  435.46
   5 -12  12  291.48  329.68
   5  12  13  635.27  372.05
   5 -12  13  392.03  371.92
   5  12  14 1240.61  402.02
   5 -12  14    2.71  396.24
   5  12  15 1486.60  503.62
   5 -12  15  869.91  490.25
   5  12  16 -326.01  228.13
   5 -12  16  195.02  357.46
   5 -12  17 1371.79  413.15
   5 -12  18  359.39  459.45
  -5 -12 -18  687.11  677.02
   5 -12  19  806.80  391.91
  -5 -12 -19  306.48  557.86
   5 -12  20  419.77  530.56
   5  13 -22  802.18  597.13
   5 -13 -22  570.44  444.66
  -5 -13  22 1043.83  765.11
  -5  13  22 1123.45  882.56
   5 -13 -21  705.15  401.05
   5  13 -21   75.55  757.64
  -5 -13  21  784.01  967.81
  -5  13  21 1059.61 1104.19
   5  13 -20  668.59  622.32
   5 -13 -20  302.00  311.87
  -5 -13  20 -304.11  524.66
  -5  13  20 -404.41  624.95
   5  13 -19 -144.50  484.89
   5 -13 -19  630.98  327.77
  -5 -13  19 -123.12  753.46
  -5  13  19  508.29  892.29
   5  13 -18 -204.34  710.15
   5 -13 -18  494.25  309.40
  -5 -13  18  193.80  747.78
  -5  13  18  382.92  886.93
   5  13 -17 -166.63  595.48
   5 -13 -17  199.66  254.27
  -5 -13  17   19.62  447.22
  -5  13  17   15.35  753.09
   5  13 -16  552.99  718.43
   5 -13 -16 1618.93  368.89
  -5 -13  16 1437.30  901.05
  -5  13  16  883.83 1102.03
   5  13 -15  504.18  711.89
   5 -13 -15  239.39  263.25
  -5 -13  15  199.73  624.79
  -5  13  15  596.78  761.30
   5  13 -1414242.29 2594.38
   5 -13 -1417174.77 1348.34
  -5 -13  1417150.77 2339.78
  -5  13  1412748.21 2160.37
   5  13 -13 1695.51  847.39
   5 -13 -13  892.76  307.97
  -5 -13  13 1422.77  722.86
  -5  13  13 1150.12  919.77
   5  13 -12 2466.21 1021.41
   5 -13 -12 2513.78  365.01
  -5 -13  12 1330.73  828.09
  -5  13  12 1479.09  840.48
   5  13 -11 -130.05  600.47
   5 -13 -11  225.56  191.58
  -5 -13  11  259.35  480.10
  -5  13  11  261.60  633.37
   5  13 -1015806.12 2570.69
   5 -13 -1017790.14 1092.90
  -5 -13  1017453.72 2072.70
  -5  13  1019273.12 2803.99
   5 -13  -9  932.80  193.59
   5  13  -9 1806.24  749.63
  -5 -13   9 1909.89  586.32
  -5  13   9 1078.94  786.97
   5  13  -8 3043.38  751.77
   5 -13  -8 3261.22  271.78
  -5 -13   8 2245.94  801.69
  -5  13   8 4158.87  791.84
   5  13  -7  674.56  572.48
   5 -13  -7  471.09  129.76
  -5 -13   7  350.01  365.51
  -5  13   7  642.07  623.68
   5  13  -6 2522.19  994.27
   5 -13  -6 4258.72  265.97
  -5 -13   6 5447.96  637.16
  -5  13   6 2155.85  845.43
   5  13  -5  315.73  343.06
  -5 -13   5  277.87  232.91
  -5  13   5 -109.38  515.07
   5  13  -4 2217.48  726.33
  -5 -13   4 1826.15  320.48
  -5  13   4 2563.40  781.12
   5  13  -3  224.13  386.85
  -5 -13   3  627.28  253.70
  -5  13   3  763.20  546.83
   5  13  -2 2139.65  754.65
   5 -13  -2 1419.34  363.42
  -5 -13   2 3438.15  339.72
   5  13  -110464.63 1544.26
   5 -13  -111698.77 1692.33
   5  13   0   45.95  305.35
   5 -13   0  417.79  397.00
   5  13   1 3420.90  631.67
   5  13   2  311.36  339.48
   5 -13   2  584.09  413.42
   5  13   3  540.11  338.51
   5 -13   3  371.97  285.45
   5  13   4  400.08  411.97
   5 -13   4   42.18  328.75
   5  13   5 1312.05  496.11
   5 -13   5  468.34  304.21
   5  13   6  816.15  442.67
   5 -13   6   49.27  311.86
   5  13   7  298.19  311.61
   5 -13   7  505.26  332.29
   5  13   8 -138.76  289.03
   5 -13   8  423.87  229.56
   5  13   9  859.92  446.13
   5 -13   9 1535.15  323.33
   5  13  10 2428.95  594.09
   5 -13  10  738.48  435.93
   5  13  11 1027.87  518.15
   5 -13  11  331.00  359.25
   5  13  12 1339.79  575.62
   5 -13  12  387.21  392.75
   5  13  13   49.41  304.13
   5 -13  13  180.44  318.11
   5  13  14  423.89  341.17
   5 -13  14   68.38  246.37
   5  13  15  643.90  461.51
   5 -13  15  933.65  347.68
   5  13  16 2090.56  688.63
   5 -13  16 3405.74  683.77
   5  13  17 1309.48  541.84
   5 -13  17  744.75  522.93
   5 -13  18  666.07  508.53
   5 -13  19  403.96  382.92
  -5 -13 -19 -452.29  396.17
   5  14 -22 3156.52 1183.82
   5 -14 -22 2575.02  669.84
  -5 -14  22 3250.94 1533.33
  -5  14  22 2081.51 1280.40
   5  14 -21 1631.63  613.18
   5 -14 -21  348.07  452.58
  -5 -14  21 1159.01 1047.51
  -5  14  21 1696.95 1231.35
   5  14 -20 -576.75  606.15
   5 -14 -20 -113.08  300.86
  -5 -14  20 1035.00  711.42
  -5  14  20  916.06  616.28
   5  14 -19 2728.87  905.92
   5 -14 -19  765.41  439.40
  -5 -14  19 2583.63 1041.82
  -5  14  19 1529.92 1248.25
   5  14 -18 2983.95 1098.13
   5 -14 -18 1757.17  482.24
  -5 -14  18 2098.21 1142.67
  -5  14  18 3130.55 1365.28
   5  14 -17  450.93  674.44
   5 -14 -17  170.16  293.72
  -5 -14  17   82.42  513.08
  -5  14  17 1251.66  611.50
   5  14 -16  933.13 1136.18
   5 -14 -16 2324.16  428.59
  -5 -14  16 1678.16  998.85
  -5  14  16 1454.79  904.75
   5  14 -15  477.54  526.30
   5 -14 -15  191.06  248.75
  -5 -14  15  292.43  612.83
  -5  14  15  576.48  778.32
   5  14 -14  270.17  514.59
   5 -14 -14  468.40  254.30
  -5 -14  14   80.71  607.46
  -5  14  14  101.07  785.50
   5  14 -1313090.65 1666.72
   5 -14 -13 9778.96  871.25
  -5 -14  1313420.05 1843.14
  -5  14  1310397.17 1737.73
   5 -14 -12  701.92  204.73
   5  14 -12   -8.77  545.48
  -5 -14  12  647.09  606.28
  -5  14  12  629.07  788.44
   5  14 -11 1647.99  708.55
   5 -14 -11 1817.53  308.03
  -5 -14  11 1320.53  735.92
  -5  14  11 1230.63 1004.19
   5  14 -10 -105.26  442.86
   5 -14 -10  215.37  150.44
  -5 -14  10  173.83  454.00
  -5  14  10  435.65  622.44
   5  14  -9 -724.19  517.85
   5 -14  -9  996.82  212.99
  -5 -14   9 1349.74  556.85
  -5  14   9 1787.01  775.49
   5 -14  -8   21.56  104.42
   5  14  -8 -208.09  459.87
  -5 -14   8  203.69  350.08
  -5  14   8 -268.86  495.00
   5  14  -7 6644.92 1352.15
  -5 -14   7 8150.85  908.35
  -5  14   7 3208.34 1079.54
   5  14  -6  508.78  490.35
  -5 -14   6 1441.77  404.88
  -5  14   6  649.20  721.02
   5  14  -5 2002.74  729.59
  -5 -14   5 1930.45  386.05
  -5  14   5 1345.66  785.00
   5  14  -4 4491.34  959.59
  -5 -14   4 4567.15  438.47
  -5  14   4  935.20  766.59
   5  14  -3 1779.80  454.70
  -5 -14   3  447.53  216.59
  -5  14   3 1001.84  447.97
   5 -14  -2  130.67  353.66
   5  14  -2  167.62  431.74
   5  14  -1   22.18  444.24
   5 -14  -1  472.51  502.55
   5  14   0 2105.10  708.30
   5 -14   0 2153.88  696.91
   5  14   1  415.63  480.42
   5 -14   1  368.96  297.33
   5  14   211510.92 1586.64
   5 -14   216690.56 1701.28
   5  14   3  742.79  540.33
   5 -14   3  885.69  462.88
   5  14   4 9479.83 1021.29
   5 -14   4 6698.00  766.92
   5  14   5 1608.81  538.23
   5 -14   5  638.35  338.56
   5  14   6 -343.19  306.23
   5 -14   6  666.60  304.09
   5  14   7 1890.71  645.13
   5 -14   7 2001.15  515.19
   5  14   8 3597.90  817.39
   5 -14   8 3197.85  483.62
   5  14   9 -304.33  318.54
   5 -14   9  539.54  231.51
   5 -14  10  527.04  298.77
   5  14  10 1658.13  402.94
   5  14  11 1569.05  504.19
   5 -14  11  149.81  263.96
   5  14  12 2276.52  481.18
   5 -14  12  345.40  348.88
   5  14  13 -164.83  262.61
   5 -14  13  105.28  206.33
   5  14  14  526.86  579.35
   5 -14  14  818.61  442.68
   5  14  15  910.37  649.45
   5 -14  15 1002.69  477.21
   5  14  16  558.71  551.04
   5 -14  16 1911.33  422.03
   5  14  17  463.25  483.69
   5 -14  17  774.39  482.86
   5  14  18  -39.72  457.70
   5 -14  18  530.84  337.96
   5  14  19  892.34  362.92
   5 -14  19  926.77  581.28
   5  15 -22  758.81  599.78
   5 -15 -22  472.91  461.81
  -5 -15  22  161.04 1054.03
  -5  15  22 1457.99 1223.32
   5  15 -21 2224.59  925.49
   5 -15 -21  756.93  509.91
  -5 -15  21 1331.70  864.30
  -5  15  21 2235.73 1035.20
   5  15 -20  290.29  610.36
   5 -15 -20  -39.86  303.39
  -5 -15  20 -115.19  703.77
  -5  15  20  646.32  848.93
   5 -15 -19  -82.66  285.47
   5  15 -19  283.71  434.73
  -5 -15  19  156.90  494.06
  -5  15  19  454.37  805.93
   5  15 -18 1987.02  681.06
   5 -15 -18   94.62  292.72
  -5 -15  18 -278.24  698.29
  -5  15  18 -482.37  615.44
   5 -15 -17  362.64  325.71
   5  15 -17 1068.70  785.77
  -5 -15  17  497.24  558.13
  -5  15  17 1511.36  723.91
   5  15 -16   24.60  449.84
   5 -15 -16  -25.21  218.82
  -5 -15  16   43.14  526.64
  -5  15  16  -67.75  503.59
   5  15 -15 4902.06 1661.69
   5 -15 -15 6032.17  631.60
  -5 -15  15 4881.69 1404.83
  -5  15  15 5855.56 1464.30
   5  15 -14  304.34  642.97
   5 -15 -14  -24.72  222.69
  -5 -15  14  898.02  531.86
  -5  15  14  199.11  722.69
   5  15 -13 1698.63 1019.44
   5 -15 -13 1887.45  317.90
  -5 -15  13 3153.50  843.80
  -5  15  13 1197.09  826.51
   5  15 -12 3623.83 1139.96
   5 -15 -12 2589.26  388.11
  -5 -15  12 2605.16  881.54
  -5  15  12 3330.51 1269.06
   5  15 -11 2534.04  841.62
  -5 -15  11 2817.30  847.40
  -5  15  11 3383.15 1235.43
   5  15 -10 6080.31 1634.56
  -5 -15  10 6519.01 1269.26
  -5  15  10 8626.05 1329.09
   5  15  -9  263.89  660.19
  -5 -15   9  605.71  423.44
  -5  15   9  352.89  523.60
   5  15  -8 4440.59 1181.77
  -5 -15   8 4281.10  778.64
  -5  15   8 4242.83 1278.35
   5  15  -715103.39 1740.69
  -5 -15   715025.80 1673.46
  -5  15   712366.64 2192.30
   5  15  -6  751.49  507.44
  -5 -15   6 1322.76  482.58
  -5  15   6  750.78  510.21
   5  15  -5 4950.37 1149.01
  -5 -15   5 6226.43  670.74
  -5  15   5 4493.03  905.87
   5  15  -4  375.66  507.00
  -5 -15   4  225.46  265.85
  -5  15   4  363.37  534.14
   5  15  -3  647.82  431.02
   5  15  -219169.03 1975.92
   5 -15  -222816.11 2679.99
   5  15  -1 4388.63 1049.66
   5 -15  -1 4787.23  927.74
   5  15   0 2974.04  758.79
   5 -15   0 1598.33  691.18
   5  15   1 1952.30  740.79
   5 -15   1 2119.40  660.56
   5  15   2 -169.52  327.87
   5 -15   2  617.53  299.08
   5  15   3   63.12  285.94
   5 -15   3 -119.47  247.23
   5  15   4 2618.86  668.79
   5 -15   4  639.93  507.28
   5 -15   5 1362.28  508.37
   5  15   5 1046.65  489.58
   5  15   6 1252.22  611.12
   5 -15   6 1136.89  444.22
   5  15   7 1993.56  724.46
   5 -15   7 1773.89  380.95
   5  15   8  313.16  417.99
   5 -15   8  137.87  236.81
   5  15   9 2296.44  773.97
   5 -15   9 2360.27  415.07
   5  15  10  852.20  389.83
   5 -15  10  706.79  299.90
   5  15  11 1369.66  578.05
   5 -15  11  686.82  313.45
   5  15  12 1309.28  511.74
   5 -15  12 1382.54  500.29
   5  15  13  547.03  470.14
   5 -15  13 -128.82  323.96
   5  15  14 1252.48  592.69
   5 -15  14  442.81  450.88
   5  15  15 1581.30  745.85
   5 -15  15 1473.14  409.70
   5  15  16 1857.49  895.50
   5 -15  16 2831.65  702.53
   5 -15  17 1149.88  402.90
   5  15  17  656.53  535.22
   5  15  18  860.16  762.03
   5 -15  18  949.79  569.39
   5  16 -21 1930.42  762.62
   5 -16 -21 1604.78  590.18
  -5 -16  21 1857.28 1298.71
  -5  16  21 2224.55 1529.44
   5  16 -20 2300.77  834.25
   5 -16 -20 2057.22  437.31
  -5 -16  20 2580.02 1308.75
  -5  16  20 2393.57 1569.13
   5  16 -19 1759.64 1096.05
   5 -16 -19 2150.01  555.43
  -5 -16  19 2702.44  923.23
  -5  16  19 2491.96 1133.91
   5  16 -18  777.15  644.75
   5 -16 -18  540.66  384.37
  -5 -16  18  779.98  908.05
  -5  16  18 2507.06  847.54
   5  16 -17 2142.23 1117.39
   5 -16 -17 2155.58  500.10
  -5 -16  17 1300.96 1107.99
  -5  16  17 4062.23 1064.78
   5  16 -16 2626.04  966.28
  -5 -16  16 1235.86  813.23
  -5  16  16 -440.31  795.62
   5  16 -15  375.96  486.58
  -5 -16  15 -213.32  570.62
  -5  16  15  170.74  563.51
   5  16 -14  599.32  709.52
  -5 -16  14 2031.94  786.96
  -5  16  14 1568.16 1102.73
   5  16 -13  120.98  877.27
  -5 -16  13 1765.72  682.69
  -5  16  13  319.89  984.42
   5  16 -12 -129.99  666.97
  -5 -16  12  495.48  515.13
  -5  16  12  191.17  724.29
   5  16 -1116910.24 2742.37
  -5 -16  1116723.92 2020.02
  -5  16  1113739.54 2178.09
   5  16 -10 2628.49  926.44
  -5 -16  10 1012.56  535.15
  -5  16  10  679.77  678.06
   5  16  -9  177.81  578.82
  -5 -16   9   89.59  399.87
  -5  16   9  122.24  430.66
   5  16  -8 7835.01 1683.01
  -5 -16   8 9963.45 1264.92
  -5  16   8 6558.00 1296.37
   5  16  -714364.68 1784.08
  -5 -16   715600.71 1586.26
  -5  16   710930.54 2062.70
   5  16  -6 2575.62  772.63
  -5 -16   6 4283.11  635.61
  -5  16   6 1390.92 1022.87
   5  16  -5 -210.68  514.15
  -5 -16   5  241.96  291.68
  -5  16   5  667.76  533.35
   5  16  -4 7081.68 1430.93
  -5  16   4 9152.95 1192.18
   5  16  -3 -640.52  569.33
   5 -16  -3 -275.30  446.66
   5  16  -2 1535.44  555.04
   5 -16  -2  639.49  767.80
   5  16  -1 3798.94  837.00
   5 -16  -1 5314.50  972.39
   5  16   0  381.65  413.42
   5 -16   0 1273.69  528.18
   5  16   1 3051.82  628.51
   5 -16   1 2161.51  721.47
   5  16   2 1633.15  556.20
   5 -16   2    4.68  474.36
   5  16   3 3729.46  944.61
   5 -16   3 3758.44  831.38
   5  16   4  255.19  369.49
   5 -16   4  393.82  296.90
   5  16   5  641.66  627.38
   5 -16   5  925.75  358.46
   5  16   6  546.11  506.01
   5 -16   6  334.57  259.63
   5  16   7  958.24  701.44
   5 -16   7 1574.35  368.63
   5  16   8   26.36  433.25
   5 -16   8  297.39  251.46
   5  16   911443.76 1577.64
   5 -16   9 9980.11  963.25
   5  16  10 1189.83  514.95
   5 -16  10 1439.47  361.00
   5  16  11 5237.66 1111.12
   5 -16  11 6292.43  850.15
   5  16  12  288.35  394.53
   5 -16  12  532.82  385.74
   5  16  13   93.19  519.59
   5 -16  13  315.42  373.31
   5  16  14  871.93  567.53
   5 -16  14  161.60  279.67
   5  16  15  424.69  548.18
   5 -16  15  350.38  418.03
   5  16  16  798.42  618.72
   5 -16  16  570.42  356.45
   5  16  17 -384.25  417.29
   5 -16  17 -108.47  432.10
   5  16  18  652.58  794.63
   5 -16  18 1193.35  447.30
   5  17 -21  692.12  638.58
  -5 -17  21 -126.60 1032.83
  -5  17  21 1285.52 1247.44
   5  17 -20 2098.82  962.03
  -5 -17  20  105.29 1073.78
  -5  17  20  891.79  980.97
   5  17 -19  743.88  643.47
  -5 -17  19 1805.93  984.00
  -5  17  19  495.14  905.63
   5  17 -18  635.62  821.30
  -5 -17  18  180.30  835.42
  -5  17  18  958.19 1087.88
   5  17 -17  717.54  774.56
  -5  17  17 2190.37 1207.22
  -5 -17  17 1234.83  923.75
   5  17 -16 3656.19 1384.07
  -5 -17  16 2995.90  885.35
  -5  17  16 3246.05 1569.17
   5  17 -15 2138.93 1096.34
  -5 -17  15 1020.30  926.19
  -5  17  15 2447.68  925.55
   5  17 -14 2300.22 1033.26
  -5 -17  14 4402.21 1148.59
  -5  17  14 4708.66 1173.85
   5  17 -13  274.65  562.25
  -5 -17  13  429.25  600.91
  -5  17  13  629.24  825.46
   5  17 -12   65.07  697.65
  -5 -17  12 2339.01  702.39
  -5  17  12 1159.01  738.23
   5  17 -11 2091.78 1205.47
  -5  17  11 3263.08  965.94
  -5 -17  11 2923.91  870.01
   5  17 -10 6795.31 1693.21
  -5 -17  10 6747.32 1136.12
  -5  17  10 3482.05 1579.17
   5  17  -9 2591.51  717.13
  -5  17   9 1086.66 1007.01
  -5 -17   9 1450.42  684.66
   5  17  -8  991.57  630.02
  -5 -17   8 1455.51  584.47
  -5  17   8 1869.80  907.59
   5  17  -7 2326.11  834.05
  -5 -17   7 5511.99  806.80
  -5  17   7 1829.89  825.64
   5  17  -6 8951.35 1327.91
  -5 -17   613987.73 1261.90
  -5  17   6 5063.82 1704.16
   5  17  -5 6004.05 1302.69
  -5  17   5 5955.87 1311.49
   5  17  -4  -18.18  445.02
   5  17  -311924.72 1923.40
   5 -17  -311899.22 1586.48
   5  17  -2 5934.54 1305.00
   5 -17  -2 4498.28  967.79
   5  17  -1   48.45  485.19
   5 -17  -1  121.10  419.33
   5 -17   0  549.16  476.27
   5  17   0  348.86  554.81
   5  17   1  612.44  554.88
   5 -17   1  274.00  462.47
   5  17   2 -306.29  358.17
   5 -17   2 -163.92  421.38
   5  17   3 1058.27  516.72
   5 -17   3 -258.48  418.82
   5 -17   4  623.30  414.24
   5  17   4  106.56  397.35
   5  17   5  871.00  574.38
   5 -17   5  212.40  363.04
   5  17   6 3308.35  806.29
   5 -17   6 1771.46  582.29
   5  17   7  982.86  481.12
   5 -17   7 1254.81  469.35
   5  17   8 1702.94  503.29
   5 -17   8  500.44  469.31
   5  17   9  379.85  537.19
   5 -17   9  532.02  294.89
   5  17  10 2612.27  794.56
   5 -17  10 1358.22  420.10
   5  17  11 -215.94  470.76
   5 -17  11  -23.51  322.72
   5 -17  12   74.66  359.22
   5  17  12  288.02  362.89
   5  17  13  965.63  643.03
   5 -17  13  726.24  335.14
   5  17  14  426.16  668.98
   5 -17  14  860.58  468.44
   5  17  15 2193.30  748.92
   5 -17  15  347.13  513.15
   5 -17  16  681.05  397.67
   5  17  16 1461.33  684.24
   5  17  17 1676.01  650.50
   5 -17  17 1959.41  684.59
   5  18 -20 2193.98 1135.36
  -5 -18  20 1519.59 1285.74
  -5  18  20 1726.18 1220.43
   5  18 -19 2986.74 1382.85
  -5 -18  19 3545.98 1447.63
  -5  18  19 2474.15 1755.65
   5  18 -18 1941.19 1140.63
  -5 -18  18 2431.16  850.57
  -5  18  18  281.48 1454.54
   5  18 -17  609.06  919.71
  -5 -18  17  -64.79  813.85
  -5  18  17 1567.23 1061.08
   5  18 -16 1493.60  745.93
  -5 -18  16  633.56  857.97
  -5  18  16  369.65 1141.79
   5  18 -15 1584.39  967.44
  -5 -18  15 1229.96  822.13
  -5  18  15 -174.99 1125.53
   5  18 -14   56.85  733.49
  -5 -18  14   66.58  599.59
  -5  18  14  537.03  596.88
   5  18 -13   24.82  563.11
  -5 -18  13  673.40  604.45
  -5  18  13  643.64  874.20
   5  18 -12  387.48  613.20
  -5 -18  12 1403.16  627.16
  -5  18  12   32.89  679.58
   5  18 -11  507.20  591.10
  -5 -18  11  499.36  556.41
  -5  18  11  393.15  824.01
   5  18 -10  397.10  508.69
  -5 -18  10  190.44  471.06
  -5  18  10  -32.06  710.16
   5  18  -9 2187.45  720.40
  -5 -18   9 1479.20  666.68
  -5  18   9 1288.96 1039.49
   5  18  -8 -159.64  438.72
  -5 -18   8  108.09  346.59
  -5  18   8  954.22  609.21
   5  18  -7  233.72  469.35
  -5 -18   7  218.97  343.86
  -5  18   7  619.95  627.04
   5  18  -6 2924.63  952.46
  -5  18   6 5728.86  947.90
   5  18  -5 4713.96  980.04
  -5  18   5 6908.63 1321.47
   5 -18  -4 1200.29  616.79
   5  18  -4 1351.57  779.84
   5  18  -3 1129.14  602.62
   5 -18  -3 1578.09  827.98
   5  18  -2 3925.65  998.32
   5 -18  -2 5859.15  849.42
   5  18  -1  -54.22  372.32
   5 -18  -1  287.26  432.73
   5 -18   0 1738.49  751.74
   5  18   0 3014.85  677.11
   5  18   1  692.69  444.18
   5 -18   1  321.82  497.75
   5  18   2  389.18  617.79
   5 -18   2  818.94  496.60
   5  18   3  142.36  318.48
   5 -18   3  -63.25  225.91
   5  18   4 1887.20  675.48
   5 -18   4  446.40  367.77
   5  18   5  998.35  506.02
   5 -18   5  673.78  311.21
   5  18   6 4422.21  911.83
   5 -18   6 4091.03  759.03
   5  18   7  369.02  391.80
   5 -18   7  215.62  369.49
   5 -18   8 1219.57  527.20
   5  18   8 1868.94  569.75
   5  18   9  935.22  585.77
   5 -18   9  640.03  432.05
   5  18  10  -45.03  488.87
   5 -18  10  217.28  245.66
   5  18  11 6973.88 1095.31
   5 -18  11 8559.86 1102.93
   5  18  12  468.25  427.34
   5 -18  12  668.33  431.79
   5  18  13 1502.91  545.18
   5 -18  13  -47.93  287.30
   5  18  14 1453.96  731.55
   5 -18  14  850.15  522.21
   5  18  15  104.06  742.91
   5 -18  15 1321.84  403.82
   5 -18  16  400.88  513.44
   5  18  16 1199.50  738.46
   5 -18  17 1063.58  439.11
   5  19 -19  768.61  791.14
  -5 -19  19 -101.79  594.93
  -5  19  19  204.03 1038.82
   5  19 -18   52.28  544.63
  -5 -19  18  234.16  750.90
  -5  19  18  548.56  979.26
   5  19 -17  736.87  890.16
  -5  19  17 -149.08  757.64
  -5 -19  17  540.58  573.71
   5  19 -16 1323.35  865.88
  -5 -19  16 2074.40 1007.44
  -5  19  16 1281.50 1297.97
   5  19 -15 -338.44  457.84
  -5  19  15 -434.36  714.81
  -5 -19  15  696.97  547.07
   5  19 -14 2059.59 1070.57
  -5 -19  14 1474.62  878.12
  -5  19  14  694.67 1207.99
   5  19 -13  275.22  807.78
  -5  19  13  826.58  659.27
  -5 -19  13  220.56  635.25
   5  19 -12 1976.17  877.27
  -5 -19  12 2414.10  881.86
  -5  19  12 1966.55 1262.61
   5  19 -11  -69.22  492.13
  -5 -19  11  215.53  465.72
  -5  19  11  211.58  712.42
   5  19 -10 2360.94  996.94
  -5 -19  10 3766.27  902.85
  -5  19  10 3034.17 1010.12
   5  19  -9 2027.40  689.23
  -5  19   9  444.27  683.76
  -5 -19   9 1134.19  620.90
   5  19  -8 4078.36  872.36
  -5  19   8  991.32  832.17
   5  19  -7  568.10  491.26
  -5  19   7   86.76  465.28
   5  19  -6 1227.53  804.71
  -5  19   6 5378.11 1059.51
   5  19  -5 1301.68  635.40
   5  19  -4  785.31  491.79
   5 -19  -4  272.32  528.91
   5  19  -3  194.26  437.68
   5 -19  -3  198.89  604.99
   5  19  -2 8539.98 1213.26
   5 -19  -2 3927.41 1200.22
   5 -19  -1  574.00  395.79
   5  19  -1  143.22  664.62
   5  19   0  635.77  644.87
   5 -19   0  221.82  484.18
   5  19   1 1009.24  599.37
   5 -19   1  -58.27  448.06
   5  19   2 1035.16  463.29
   5 -19   2   73.91  337.39
   5 -19   3   66.11  256.37
   5 -19   4  -59.82  352.90
   5  19   5 1847.28  690.07
   5 -19   5 1650.45  538.03
   5  19   6 -108.10  372.44
   5 -19   6   23.18  308.15
   5  19   7  643.42  416.04
   5 -19   7  154.69  279.13
   5  19   8 2531.12  698.00
   5 -19   8 2140.10  626.95
   5 -19   9  155.13  311.34
   5  19   9 -486.32  489.70
   5  19  10  445.16  445.85
   5 -19  10  -77.84  222.02
   5  19  11 1165.97  601.76
   5 -19  11 1712.16  412.45
   5  19  12 2048.12  837.03
   5 -19  12 5083.15  774.61
   5 -19  13  305.45  299.87
   5  19  13  203.73  567.38
   5  19  14 2393.71 1077.63
   5 -19  14 3937.81  786.56
   5  19  15  862.06  689.71
   5 -19  15  498.61  360.99
   5  19  16  784.85  816.57
   5 -19  16 1169.97  591.56
   5  20 -19 2606.77 1210.77
  -5 -20  19 1727.46 1234.57
  -5  20  19  603.62 1152.74
   5  20 -18 1530.48  767.78
  -5 -20  18 1903.63 1067.07
  -5  20  18 -131.82  973.66
   5  20 -17 3356.62 1446.47
  -5 -20  17 1704.95 1253.88
  -5  20  17 2657.18 1201.48
   5  20 -16  947.97 1027.09
  -5 -20  16  810.47  887.96
  -5  20  16  658.41  856.11
   5  20 -15  598.02  739.18
  -5 -20  15 1967.10  857.26
  -5  20  15  422.56  842.19
   5  20 -14 1149.60 1040.55
  -5 -20  14 1574.53  846.27
  -5  20  14  517.78 1176.08
   5  20 -13 1805.02  865.04
  -5 -20  13  769.68  602.90
  -5  20  13 -678.11  683.92
   5  20 -12 -313.59  775.19
  -5 -20  12   84.08  501.05
  -5  20  12 1326.35  821.71
   5  20 -11  465.87  559.13
  -5 -20  11   50.70  453.55
  -5  20  11   57.74  561.50
   5  20 -10 1379.60  719.97
  -5  20  10  280.22  932.18
   5  20  -9 -167.75  450.35
  -5  20   9  181.32  603.88
   5  20  -8 2444.24  898.27
  -5  20   8 2679.39 1161.20
   5  20  -7 1293.28  771.82
  -5  20   7 2462.52  974.66
   5  20  -6  402.20  573.03
  -5  20   6 -110.45  401.03
   5  20  -5 -141.90  601.26
   5 -20  -5  -90.62  450.91
   5  20  -4 1576.09  795.62
   5 -20  -4  220.08  836.57
   5  20  -3  845.89  816.36
   5 -20  -3  926.75  495.83
   5  20  -2 1158.16  860.25
   5 -20  -2  917.22  676.03
   5  20  -1   35.40  547.09
   5 -20  -1   43.45  303.43
   5  20   0  257.89  507.40
   5 -20   0  536.00  513.91
   5  20   1  500.93  548.53
   5 -20   1  -38.48  295.09
   5  20   2 1122.01  484.47
   5 -20   2  -22.90  332.66
   5  20   3 3657.55 1045.27
   5 -20   3 1757.75  686.50
   5  20   4  988.53  589.86
   5 -20   4  775.81  515.23
   5  20   5  974.00  622.67
   5 -20   5 1074.12  346.60
   5  20   6  102.25  665.44
   5 -20   6  316.42  369.39
   5  20   7  539.21  730.23
   5 -20   7  953.27  470.22
   5  20   8 -114.66  419.40
   5 -20   8  307.61  261.87
   5  20   9  246.79  422.46
   5 -20   9   63.91  350.71
   5  20  10  413.66  622.48
   5 -20  10  559.52  419.52
   5  20  11 1487.86  721.97
   5 -20  11 2809.16  499.27
   5  20  12  668.22  600.86
   5 -20  12 1458.59  530.97
   5  20  13  228.18  753.69
   5 -20  13  748.13  352.38
   5  20  14  177.00  539.41
   5 -20  14   -0.69  369.03
   5  20  15 1047.96  659.86
   5 -20  15   99.14  329.93
   5 -20  16  562.39  535.22
   5  21 -18  472.31 1007.58
  -5 -21  18  961.09 1025.20
  -5  21  18 1085.12 1292.65
   5  21 -17 1696.58 1402.14
  -5 -21  17 2638.14 1256.73
  -5  21  17 1948.95 1614.21
   5  21 -16 1198.14 1240.61
  -5 -21  16 1726.28 1058.75
  -5  21  16 1400.80 1394.21
   5  21 -15  461.90  621.84
  -5 -21  15 -180.29  643.68
  -5  21  15  607.21  698.53
   5  21 -14 2591.70 1232.23
  -5 -21  14 1371.18  898.68
  -5  21  14 2026.08 1370.56
   5  21 -13 4602.26 1526.83
  -5 -21  13 2749.13 1072.31
  -5  21  13 4739.09 1666.90
   5  21 -12 1200.36 1136.54
  -5  21  12 1752.19  895.05
   5  21 -11 5169.86 1256.91
  -5  21  11 3815.28 1623.47
   5  21 -10 1401.02  795.93
  -5  21  10 1273.31 1058.49
   5  21  -9  991.17  825.08
  -5  21   9  -30.61  796.72
   5  21  -8 -291.28  609.45
  -5  21   8  172.11  417.07
   5  21  -7 3653.56 1421.79
  -5  21   7 3865.93  961.59
   5  21  -6  168.67  686.98
   5 -21  -6  302.50  527.31
   5  21  -5 2124.88 1075.48
   5 -21  -5 1747.22 1096.61
   5 -21  -4  240.61  512.11
   5  21  -4  494.57  690.38
   5  21  -3  376.95  599.09
   5 -21  -3  932.06  480.73
   5  21  -2 -223.26  470.97
   5 -21  -2  512.84  495.61
   5  21  -1  626.56  773.92
   5 -21  -1  670.31  429.82
   5  21   0   63.47  671.82
   5 -21   0  274.38  488.10
   5  21   1 1313.00  568.82
   5 -21   1  303.85  397.45
   5  21   2  502.15  661.85
   5 -21   2   27.49  457.65
   5  21   3  492.53  513.09
   5 -21   3  277.80  440.26
   5  21   4  342.36  464.13
   5 -21   4   40.57  275.10
   5  21   5    7.16  778.64
   5 -21   5  743.74  421.59
   5  21   6  519.99  697.51
   5 -21   6  156.32  374.06
   5  21   7  577.13  805.20
   5 -21   7  585.15  324.73
   5  21   8 1685.08  666.97
   5 -21   8 1055.76  520.86
   5  21   9 1186.84  657.70
   5 -21   9 1114.57  380.52
   5  21  10 1068.84  897.34
   5 -21  10 1033.72  500.89
   5  21  11  447.66  515.35
   5 -21  11  530.63  328.27
   5  21  12  430.11  527.41
   5 -21  12  410.70  446.48
   5  21  13  387.28  766.33
   5 -21  13  462.88  339.94
   5  21  14  -79.45  657.06
   5 -21  14  146.21  397.90
   5 -21  15  963.47  436.57
   5  22 -17  668.38  871.26
  -5 -22  17 1480.83 1065.83
  -5  22  17  946.70 1365.52
   5  22 -16 -112.27  953.53
  -5 -22  16  861.77  743.17
  -5  22  16  -79.58 1059.85
   5  22 -15  456.64  790.20
  -5 -22  15  980.39  821.15
  -5  22  15 1587.06 1224.57
   5  22 -14 2380.00 1318.67
  -5  22  14 1744.69 1076.45
   5  22 -13 1136.39 1340.65
  -5  22  13 3527.24 1447.20
   5  22 -12 1796.74 1182.72
  -5  22  12 1410.70 1186.15
   5  22 -11 1787.28  974.78
  -5  22  11 3047.19 1302.26
   5  22 -10 3092.74 1296.19
  -5  22  10 1674.15  891.82
   5  22  -9 1277.85 1121.25
  -5  22   9 1574.68  774.58
   5  22  -8 2378.86 1103.82
  -5  22   8  977.28 1049.56
   5  22  -7 1637.00 1092.97
   5  22  -6  116.44  675.82
   5  22  -5   94.80  522.20
   5 -22  -5  372.73  526.59
   5  22  -4 1925.95  671.14
   5 -22  -4  332.48  537.67
   5  22  -3 1278.90  881.74
   5 -22  -3  649.09  708.23
   5  22  -2  784.68  796.47
   5 -22  -2  174.82  553.21
   5  22  -1  412.11  549.40
   5 -22  -1 -741.66  393.11
   5  22   0 1414.85  973.92
   5 -22   0  962.65  656.54
   5 -22   1 3611.16  759.33
   5 -22   2 1380.74  624.79
   5 -22   3  440.25  374.55
   5  22   3 1290.47  624.65
   5  22   4 3449.51 1290.57
   5 -22   4 2678.57  654.39
   5  22   5  574.48  856.33
   5 -22   5  562.06  315.27
   5  22   6 2962.31 1357.51
   5 -22   6 3114.34  702.21
   5 -22   7  272.40  484.92
   5  22   7 3106.51  971.03
   5  22   8 3890.66  869.33
   5 -22   8 1670.42  466.70
   5  22   9 1215.86  692.79
   5 -22   9  809.30  515.03
   5  22  10  701.85  910.47
   5 -22  10  781.10  355.95
   5  22  11 -718.00  524.48
   5 -22  11  635.04  389.39
   5  22  12  369.27  545.29
   5 -22  12  290.79  444.70
   5  22  13  705.46  900.94
   5 -22  13  632.64  384.62
   5  22  14  822.06  863.61
   5 -22  14  194.68  483.47
   5  23 -16 2415.82 1505.10
  -5  23  16 2077.86 1692.90
   5  23 -15 1131.46  816.90
  -5  23  15  225.67 1260.85
   5  23 -14  630.05 1199.17
  -5  23  14 1930.85 1318.81
   5  23 -13  391.59 1056.57
  -5  23  13  926.84  783.87
   5  23 -12  759.13  769.17
  -5  23  12  894.24 1047.39
   5  23 -11  350.34  990.99
  -5  23  11  636.39  678.73
   5  23 -10 4118.03 1555.51
  -5  23  10 2187.57 1374.73
   5  23  -9   -2.26  967.20
  -5  23   9 1204.72  898.81
   5  23  -8 7491.32 2044.51
   5  23  -7 1572.15  830.47
   5  23  -6 3054.08  914.09
   5 -23  -6  562.33 1165.46
   5  23  -5 1249.56 1028.35
   5  23  -4 7449.86 1885.95
   5  23  -3 1440.08 1056.80
   5  23  -2 -161.29  800.02
   5 -23  -2  431.75  416.65
   5  23  -1  589.33  656.47
   5 -23  -1 -269.66  434.72
   5  23   0  647.61  673.18
   5  23   1  213.51  847.93
   5 -23   1  439.27  399.58
   5  23   2 1696.34  747.45
   5 -23   2  749.30  596.39
   5  23   3 -382.16  802.67
   5 -23   3  418.28  328.67
   5 -23   4  515.75  416.42
   5 -23   5  557.69  325.46
   5  23   5 1519.94  944.36
   5  23   6  876.10  900.32
   5 -23   6  396.70  435.05
   5  23   7  862.40 1047.34
   5 -23   7  822.79  368.47
   5  23   8 1620.72 1241.88
   5 -23   8 1392.11  570.28
   5 -23   9 1757.27  666.17
   5  23   9 3071.79  977.87
   5  23  10 1651.66  809.00
   5 -23  10  -36.33  284.96
   5  23  11  612.84  990.35
   5 -23  11  705.77  511.56
   5  23  12  823.16  813.01
   5 -23  12 1615.74  466.50
   5 -23  13  317.59  476.30
   5  23  13  212.41  907.02
   5  24 -15  656.59  878.53
  -5  24  15 1542.16  963.86
   5  24 -14 1853.56 1370.74
  -5  24  14 1925.66 1448.18
   5  24 -13 2559.97 1181.01
  -5  24  13 -592.74 1162.43
   5  24 -12  423.42  831.35
  -5  24  12 1338.13  817.69
   5  24 -11 2349.57 1415.54
  -5  24  11 1678.57 1289.52
   5  24 -10 1456.81 1195.31
  -5  24  10  837.09 1070.37
   5  24  -9 -231.63  641.69
  -5  24   9  669.84  574.07
   5 -24  -8  536.85  660.55
   5  24  -8  361.98  697.92
   5  24  -7  557.31 1088.64
   5 -24  -7 1648.77 1060.89
   5  24  -6  999.37 1223.61
   5 -24  -6 2944.85 1200.42
   5  24  -5 3811.24 1556.32
   5  24  -4 1523.96  817.53
   5  24  -3 2112.12  930.54
   5 -24  -3  204.46  478.28
   5 -24  -2 1433.91  579.21
   5  24   2 3357.77  920.41
   5 -24   2  915.23  724.79
   5 -24   3  738.11  549.64
   5  24   4 2300.08 1261.68
   5 -24   4 1933.76  453.75
   5 -24   5  267.72  401.67
   5  24   5 1641.98  935.11
   5  24   6 7512.32 1714.72
   5 -24   6 3241.68  585.09
   5  24   7 2283.55 1423.11
   5 -24   7 2190.29  682.85
   5  24   8 1455.71  813.61
   5 -24   8  385.23  489.28
   5  24   9 2578.99  842.79
   5 -24   9  207.27  362.41
   5  24  10 1042.79 1218.27
   5 -24  10  888.75  544.13
   5  24  11  588.93 1045.47
   5 -24  11  463.30  363.36
   5  24  12 1409.58  857.85
   5 -24  12  662.98  421.70
   5  25 -14  935.72 1220.30
  -5  25  14  917.62  920.44
   5  25 -13 1317.36 1094.14
  -5  25  13 3460.62 1496.04
   5  25 -12 2226.81 1246.38
  -5  25  12  582.70  885.02
   5  25 -11  808.06 1318.13
  -5  25  11 1576.65 1180.63
   5  25 -10 1049.89  860.05
  -5  25  10  599.35  738.78
   5  25  -9 2961.57 1468.44
   5 -25  -9 1859.79 1047.42
   5  25  -8 -319.95  795.38
   5 -25  -8  170.92  748.50
   5  25  -7 5293.56 2063.83
   5 -25  -7 6805.06 1483.32
   5 -25  -6 1995.48  775.48
   5  25  -5 3504.37 1693.79
   5 -25  -5 4306.50  992.14
   5  25  -4   86.00 1080.70
   5 -25  -4 1348.08  578.97
   5  25  -3 1580.25  742.32
   5 -25  -3  300.56  520.14
   5  25  -2 1876.16 1104.93
   5 -25  -2  605.84  757.90
   5  25  -1  289.44  651.30
   5  25   0 2509.12 1391.92
   5  25   1 2228.89  835.59
   5 -25   1  594.72  473.59
   5 -25   2  329.13  515.68
   5 -25   3  807.56  525.85
   5 -25   4  339.40  300.42
   5  25   5  903.87  990.44
   5 -25   5  499.81  424.85
   5  25   6 1878.98  990.68
   5 -25   6  211.11  454.63
   5  25   7  170.80 1139.29
   5 -25   7 1068.23  419.44
   5  25   8  -38.55  752.71
   5 -25   8  697.83  485.82
   5  25   9 1773.14 1254.25
   5 -25   9  644.58  567.23
   5 -25  10   71.09  333.11
   5  25  10 1727.03  988.09
   5  25  11 1863.33 1666.91
   5  26 -13  662.62 1131.38
  -5  26  13  456.57  801.48
   5  26 -12 1330.80 1377.62
  -5  26  12 1365.59 1302.07
   5  26 -11   88.19  718.58
  -5  26  11 -454.00  648.39
   5  26 -10  737.12 1314.95
   5 -26 -10 1252.26  910.83
   5  26  -9 -854.81 1000.58
   5 -26  -9  922.05  710.45
   5  26  -8 1051.36  902.39
   5 -26  -8  840.29  831.55
   5  26  -7  371.08  970.84
   5 -26  -7  336.92  770.78
   5  26  -6  783.22 1078.30
   5 -26  -6  593.55  836.62
   5 -26  -5  462.26  764.54
   5 -26  -4  645.83  746.12
   5  26  -3 1508.10 1252.28
   5  26  -2  657.70  770.03
   5 -26   1 1522.98  578.69
   5 -26   2 1235.05  536.41
   5 -26   3 1091.41  610.34
   5 -26   4  383.81  451.73
   5 -26   5 1773.50  450.48
   5  26   5 1915.31 1336.42
   5  26   6  165.15 1016.72
   5 -26   6  660.64  492.64
   5  26   7  932.54 1200.98
   5 -26   7 1063.43  574.39
   5  26   8  482.32  840.46
   5 -26   8 1022.76  430.50
   5 -26   9  931.76  427.57
   5  26   9  115.15 1134.12
   5  26  10 1988.74 1042.99
   5  27 -11 3997.00 2208.06
   5 -27 -11 5053.44 1609.39
   5  27 -10    8.73 1410.20
   5 -27 -10 1667.19  983.68
   5  27  -9 2704.25 1212.69
   5 -27  -9 2180.59 1622.67
   5  27  -8 2945.98 1337.02
   5 -27  -8   -5.62 1030.82
   5  27  -7 2691.26 1440.33
   5 -27  -7 1369.34  842.79
   5  27  -6  473.98  929.98
   5 -27  -6 1353.26  724.96
   5  27  -5 2902.58 1237.80
   5 -27  -5  131.66  906.54
   5  27  -4  598.50 1189.77
   5 -27  -4 1115.05  861.04
   5  27  -3 1282.22 1085.98
   5 -27  -3  333.14  768.31
   5  27  -2 1160.11 1254.13
   5  27  -1 2061.73 1483.22
   5  27   0  479.93  854.27
   5 -27   0  819.62  526.51
   5 -27   1  325.61  463.61
   5 -27   2  624.34  452.24
   5 -27   3  300.52  531.46
   5 -27   4  290.88  489.91
   5  27   5 1468.34 1212.61
   5 -27   5  848.59  571.33
   5  27   6 2074.68 1164.54
   5 -27   6  798.62  444.50
   5 -27   7  526.88  408.95
   5  27   7 1508.17 1087.99
   5  27   8  746.77  802.48
   5  28  -9  136.16 1277.30
   5 -28  -9 1090.66 1048.40
   5  28  -8 1070.64 1157.10
   5 -28  -8  219.34  689.88
   5  28  -7 1896.95 1396.10
   5 -28  -7  876.77 1125.42
   5  28  -6 1895.72 1300.48
   5 -28  -6  423.00  958.67
   5  28  -5 1666.94  892.43
   5 -28  -5  353.81  659.95
   5  28  -4 1436.93 1295.28
   5 -28  -4 1047.90  725.35
   5  28  -3 1306.90  820.92
   5 -28  -3  255.21  604.71
   5  28  -2 3616.39 1431.44
   5 -28  -2 1019.08  779.29
   5  28  -1 1633.67 1197.99
   5 -28  -1  463.65  659.22
   5  28   0 1882.50  894.70
   5 -28   0  138.38  627.04
   5 -28   1  277.92  535.07
   5 -28   2 1716.37  683.32
   5 -28   3  508.75  489.79
   5  28   4 3906.44 1731.35
   5 -28   4 3010.86 1031.92
   5  28   5  326.80  943.99
   5 -28   5  175.38  527.80
   5  28   6 1834.29 1403.94
   5 -29  -7 1441.11  940.92
   5 -29  -6 2560.24 1362.92
   5 -29  -5  561.67  924.29
   5 -29  -4 1021.80  981.62
   5 -29  -3 1126.64  781.85
   5 -29  -2 -617.21  721.07
   5 -29  -1  798.19  743.94
   5 -29   0 1510.05  865.18
   5 -29   2  594.84  580.24
   5 -29   3  554.88  558.54
   5  29   4 1122.41 1284.31
   6   0 -23  142.56  543.74
  -6   0  23 1885.61 1083.35
   6   0 -22 7138.21  947.88
  -6   0  22 7502.86 2341.26
   6   0 -21  -68.86  295.31
  -6   0  21  999.85  780.79
   6   0 -20 6197.50  921.19
  -6   0  20 5435.84 1936.96
   6   0 -19  689.97  421.00
  -6   0  19  845.06  703.59
   6   0 -18 2332.29  913.93
  -6   0  18 2050.79 1237.90
   6   0 -17  149.64  470.09
  -6   0  17   -4.76  474.55
   6   0 -16 3789.04 1044.58
  -6   0  16 4306.10 1397.56
   6   0 -15  -17.08  345.22
  -6   0  15 -284.46  598.69
   6   0 -14 -150.97  519.79
  -6   0  14  985.81  640.93
   6   0 -13  494.32  378.62
  -6   0  13  -85.96  436.76
   6   0 -12 2375.52  788.40
  -6   0  12 1230.19  877.15
   6   0 -11 -411.91  500.48
  -6   0  11   58.67  383.72
   6   0 -10  115.32  461.73
  -6   0  10   64.72  347.57
   6   0  -9  269.88  505.85
  -6   0   9  167.93  496.21
   6   0  -810303.30 1635.42
  -6   0   811443.43 1628.58
   6   0  -7  176.95  402.52
  -6   0   7 -135.05  369.57
   6   0  -6  -22.78  388.81
  -6   0   6   38.46  270.64
   6   0  -5  125.50  391.83
  -6   0   5 -253.77  374.47
   6   0  -4 5788.95 1089.62
  -6   0   4 6195.99  956.66
   6   0  -3  -43.59  336.17
  -6   0   3   21.73  282.40
   6   0  -2  719.12  624.32
  -6   0   2 1992.71  433.57
   6   0  -1  231.13  340.28
  -6   0   1  -51.20  273.86
   6   0   0  689.44  473.20
   6   0   1 -276.21  323.36
   6   0   1  246.96  262.18
   6   0   2 1348.27  513.36
   6   0   2 1396.34  327.22
   6   0   3  386.59  324.97
   6   0   3  -42.00  189.58
   6   0   4 1490.53  573.97
   6   0   4 2076.08  359.40
   6   0   5  -98.32  341.21
   6   0   5 -149.50  158.99
   6   0   6 1126.19  530.69
   6   0   6 1165.10  227.40
   6   0   7   58.03  230.05
   6   0   7  115.47  164.30
   6   0   8 4800.16  769.84
   6   0   8 5339.98  463.74
   6   0   9 -198.30  290.67
   6   0   9    6.75  137.84
   6   0  10 3507.73  709.22
   6   0  11  231.44  370.12
   6   0  1216785.42 1803.51
   6   0  13  526.42  432.61
   6   0  14 1095.53  540.63
   6   0  15 -768.41  540.25
   6   0  16 4148.15  788.34
  -6   0 -18 2506.32  974.08
  -6   0 -19   15.65  382.64
  -6   0 -20 2505.38 1147.35
   6   1 -23 2598.39  683.64
   6  -1 -23  237.46  449.21
  -6  -1  23 2439.28  981.14
  -6   1  23 2483.22 1307.93
   6   1 -22  720.45  480.49
   6  -1 -22   17.01  355.12
  -6  -1  22  251.32  699.15
  -6   1  22  600.65  938.43
   6  -1 -21 1125.82  476.83
   6   1 -21 1075.15  740.27
  -6  -1  21 1623.05  913.76
  -6   1  21 2849.50  921.04
   6   1 -20 3801.40  833.99
   6  -1 -20 1121.11  689.26
  -6  -1  20 3343.86 1383.52
  -6   1  20 1838.45  990.90
   6  -1 -19  566.33  662.13
   6   1 -19 2123.42  669.04
  -6  -1  19 1186.75 1077.48
  -6   1  19  824.72 1062.23
   6   1 -18 2281.57  811.02
   6  -1 -18 1542.24  483.41
  -6  -1  18  428.39  785.56
  -6   1  18 1019.29  779.96
   6  -1 -17 -230.64  317.42
   6   1 -17  159.99  324.07
  -6  -1  17   50.94  600.80
  -6   1  17  108.82  600.33
   6   1 -16  993.89  706.33
   6  -1 -16  738.67  659.72
  -6  -1  16 1262.45  878.87
  -6   1  16  973.06  892.98
   6   1 -15   66.71  560.05
   6  -1 -15   92.43  551.67
  -6  -1  15 1148.37  508.93
  -6   1  15  -49.51  710.79
   6   1 -14 -166.09  406.99
   6  -1 -14  233.65  376.48
  -6  -1  14 1055.25  463.99
  -6   1  14   94.09  667.07
   6   1 -13 1549.40  729.31
   6  -1 -13 1127.40  724.45
  -6  -1  13 2650.12  827.22
  -6   1  13  121.28  844.16
   6   1 -12 3379.33  878.32
   6  -1 -12 1040.74  554.04
  -6  -1  12 1584.29  850.44
  -6   1  12 1922.95  645.72
   6  -1 -11 1242.55  777.25
   6   1 -11 1636.92  796.99
  -6  -1  11 1723.74  801.73
  -6   1  11 1285.26  813.92
   6   1 -10  661.92  682.90
   6  -1 -10  683.10  648.31
  -6   1  10 1015.11  675.50
  -6  -1  10 1170.42  672.10
   6   1  -9  848.16  610.88
   6  -1  -9  873.17  576.47
  -6  -1   9  495.34  572.08
  -6   1   9  318.24  441.44
   6   1  -8 2992.98  887.42
  -6  -1   8 2043.02  610.20
  -6   1   8 3270.60  845.00
   6  -1  -7 2020.63  837.12
   6   1  -7 1993.77  661.35
  -6  -1   7 2589.20  763.55
  -6   1   7 3840.07  829.80
   6   1  -6 1308.73  695.46
   6  -1  -6 1659.08  687.89
  -6  -1   6 2018.55  631.02
  -6   1   6 1295.94  661.34
   6   1  -5  171.18  425.38
   6  -1  -5  275.45  408.12
  -6  -1   5    9.88  370.74
  -6   1   5   91.13  389.77
   6   1  -413319.78 1343.72
   6  -1  -413895.48 1563.20
  -6  -1   410624.21 1343.46
  -6   1   412394.00 1411.59
   6   1  -3 1229.51  458.64
   6  -1  -3 1711.44  600.57
  -6  -1   3 1389.53  482.38
  -6   1   3 1603.04  545.19
   6   1  -2 4961.62  929.30
   6  -1  -2 4568.91  881.56
  -6  -1   2 4101.73  618.94
  -6   1   2 5022.13  790.64
   6   1  -1 2960.54  739.55
   6  -1  -1 2476.48  688.94
  -6  -1   1 3331.73  562.77
  -6   1   1 2413.74  605.83
   6   1   0  408.98  362.74
   6  -1   0 -313.01  279.16
  -6  -1   0  189.54  250.54
   6   1   122106.16 2262.60
   6   1   121626.21 1838.94
   6  -1   120198.14 2075.20
   6  -1   122993.57 2017.79
   6   1   2  309.59  350.89
   6   1   2   79.67  171.20
   6  -1   2  183.25  345.67
   6  -1   2  195.17  226.03
   6   1   3  173.97  194.47
   6  -1   3   98.30  193.37
   6  -1   3  586.31  343.32
   6   1   3  193.96  364.35
   6   1   412126.71 1321.23
   6   1   411203.23  737.91
   6  -1   410087.23 1172.90
   6  -1   4 7456.72  731.90
   6   1   5 1439.42  529.36
   6   1   5 1060.84  214.85
   6  -1   5 1797.22  413.24
   6  -1   5 1136.76  235.23
   6   1   6  655.22  420.45
   6   1   6  820.82  164.63
   6  -1   6  988.88  430.19
   6  -1   6  225.62  232.19
   6   1   7 2911.90  767.75
   6   1   7 3935.56  318.70
   6  -1   7 5628.71  729.38
   6   1   8  587.04  396.46
   6   1   8  474.18  181.12
   6  -1   8  549.51  359.19
   6  -1   8  608.99  220.12
   6   1   9 3435.11  741.47
   6  -1   9 1384.66  628.56
   6  -1   9 4428.02  405.26
   6   1  10 1064.86  484.12
   6  -1  10 1041.46  294.88
   6  -1  10 1163.94  446.09
   6   1  11  112.61  313.03
   6  -1  11   89.58  295.77
   6  -1  11  -66.58  195.31
   6   1  12  177.41  376.35
   6  -1  12   50.46  347.72
   6  -1  13  629.68  468.34
   6   1  13 1102.67  365.99
   6   1  14  470.58  462.11
   6  -1  14  276.27  424.46
   6   1  15 1747.85  715.50
   6  -1  15 1760.53  665.67
   6   1  16  193.26  412.22
   6  -1  16  396.27  368.95
  -6   1 -18  783.90  733.08
  -6  -1 -18 1186.10  757.71
  -6  -1 -19  849.85  841.06
  -6   1 -19 1509.11  820.83
  -6  -1 -20   32.09  705.87
  -6   1 -20  615.34  703.72
   6  -2 -23  -25.04  506.09
   6   2 -23  879.32  549.18
  -6   2  23 1331.38  795.20
  -6  -2  23  301.50 1103.98
   6   2 -22 1513.90  608.34
   6  -2 -22  300.09  555.16
  -6  -2  22 1701.47 1212.97
  -6   2  22 1523.34  876.43
   6   2 -21  810.72  592.07
   6  -2 -21  266.36  500.12
  -6  -2  21 1100.18  986.38
  -6   2  21 -183.64  965.46
   6   2 -20  224.39  596.41
   6  -2 -20  148.33  509.82
  -6  -2  20 1481.18  726.39
  -6   2  20 2399.93 1000.65
   6   2 -19  664.75  610.09
   6  -2 -19 -295.94  505.86
  -6   2  19  586.46  614.97
  -6  -2  19  727.74  626.56
   6   2 -18 1467.47  519.62
   6  -2 -18  320.24  577.26
  -6  -2  18  587.04  963.17
  -6   2  18  347.21  959.94
   6   2 -17 6893.54 1446.83
   6  -2 -17 7014.60 1133.21
  -6   2  17 5036.11 1322.10
  -6  -2  17 6302.07 1316.44
   6   2 -16  333.53  654.65
   6  -2 -16  745.47  601.14
  -6  -2  16 1481.28  815.67
  -6   2  16  331.98  620.93
   6   2 -15 6682.35 1086.40
   6  -2 -15 8719.04  998.84
  -6   2  15 3167.66 1293.06
  -6  -2  15 8893.73 1654.64
   6   2 -14 1322.39  638.30
   6  -2 -14 -270.19  547.75
  -6  -2  14 1357.94  695.64
  -6   2  14  264.56  544.77
   6   2 -13  537.41  695.94
   6  -2 -13  350.58  563.47
  -6  -2  13 1205.74  681.07
  -6   2  13  540.29  751.93
   6   2 -12 1792.43  570.01
   6  -2 -12  278.94  659.46
  -6  -2  12 1400.35  547.66
  -6   2  12  493.91  807.77
   6   2 -11  423.05  418.98
   6  -2 -11  230.27  499.85
  -6   2  11  528.75  581.83
  -6  -2  11   52.29  563.20
   6   2 -10 3617.82  765.27
   6  -2 -10 2670.20  962.77
  -6  -2  10 3280.22  954.08
  -6   2  10 2679.12 1002.30
   6  -2  -9  472.91  557.47
   6   2  -9  318.75  442.20
  -6   2   9  640.46  596.46
  -6  -2   9  880.22  557.75
   6   2  -8 1874.96  875.66
   6  -2  -8 1980.12  774.08
  -6  -2   8 3513.85  760.39
  -6   2   8 1755.12  834.95
   6   2  -7 4637.82 1033.52
   6  -2  -7 1832.35  910.36
  -6   2   7 1661.88  709.62
  -6  -2   7 6034.64  854.36
   6   2  -6  527.11  567.40
   6  -2  -6  160.99  512.18
  -6  -2   6 1122.51  482.37
  -6   2   6  619.46  564.32
   6   2  -5 3143.19 1060.72
   6  -2  -5 7969.55 1061.43
  -6  -2   5 4438.08  902.39
  -6   2   5 5530.27 1020.09
   6   2  -4  332.99  557.99
   6  -2  -4  719.84  501.15
  -6  -2   4  970.32  432.72
  -6   2   4  828.37  504.31
   6   2  -3  764.10  514.34
   6  -2  -3 1051.90  468.00
  -6   2   3  506.33  456.32
  -6  -2   3  382.83  379.35
   6   2  -2   15.23  421.02
   6  -2  -2  197.95  370.65
  -6  -2   2  407.30  271.96
  -6   2   2   60.61  351.00
   6   2  -1  571.94  374.16
   6  -2  -1  445.72  445.88
  -6   2   1  671.26  409.81
  -6  -2   1  628.12  288.55
   6   2   0 -226.97  372.01
   6  -2   0 -105.07  303.34
  -6  -2   0   74.06  225.67
   6   2   1  190.54  238.38
   6  -2   1  311.85  309.17
   6  -2   1  334.83  386.02
   6   2   1  853.60  439.63
   6   2   2 5562.68  963.15
   6   2   2 5785.14  483.87
   6  -2   2 5350.55  740.76
   6  -2   2 6556.52  681.68
   6   2   3 1766.20  492.70
   6   2   3 2971.37  291.98
   6  -2   3 2179.06  587.29
   6  -2   3 2073.58  428.66
   6   2   4   82.95  107.20
   6   2   4  583.84  348.31
   6  -2   4  123.62  284.91
   6  -2   4 -160.42  172.43
   6   2   5 4429.49  850.98
   6   2   5 3854.00  321.16
   6  -2   5 3795.69  400.26
   6  -2   5 2890.95  649.65
   6   2   6  913.34  476.35
   6   2   6 1056.95  197.33
   6  -2   6  897.21  447.21
   6  -2   6  798.93  230.63
   6   2   7 1763.83  642.90
   6  -2   7 1993.38  477.50
   6  -2   7 2978.42  340.38
   6   2   8  136.14  350.53
   6  -2   8  340.83  293.59
   6  -2   8  157.11  200.46
   6   2   9 2133.28  619.90
   6  -2   9 1906.55  321.44
   6  -2   9 1810.20  505.25
   6   2  10  817.57  471.27
   6  -2  10  863.42  289.95
   6  -2  10  623.84  392.96
   6   2  1120202.93 2148.93
   6  -2  1119703.91 1544.64
   6  -2  1118403.63 1898.57
   6   2  12 5388.03 1062.40
   6  -2  12 5320.51  579.83
   6  -2  12 4732.13  919.50
   6   2  13 1472.80  602.50
   6  -2  13 1647.31  522.04
   6   2  14 1114.17  546.31
   6  -2  14  403.81  467.09
   6   2  15 2321.21  785.87
   6  -2  15 1978.59  694.31
   6   2  16  555.45  342.48
   6  -2  16  -90.93  177.87
   6   2  17  221.74  258.97
  -6   2 -18 1215.71  761.35
  -6  -2 -19 1499.23  994.90
  -6   2 -19 2315.85  952.94
  -6  -2 -20  969.65  882.60
   6   3 -23 1362.14  676.45
   6  -3 -23  529.73  615.12
  -6   3  23 3333.00 1346.81
  -6  -3  23 2358.52 1348.82
   6   3 -22  282.47  595.44
   6  -3 -22   53.43  340.33
  -6  -3  22 2241.41 1006.17
  -6   3  22 1690.25  992.46
   6  -3 -21 6057.25  826.42
   6   3 -21 4962.97 1277.97
  -6   3  21 6204.03 2027.26
  -6  -3  21 5697.08 2048.85
   6   3 -20   91.83  584.35
   6  -3 -20  184.36  360.66
  -6  -3  20 1850.29  973.08
  -6   3  20 2104.91  709.95
   6   3 -19 2926.52  667.24
   6  -3 -19 1234.49  646.09
  -6   3  19 1795.69 1210.70
  -6  -3  19 1318.13  913.97
   6   3 -18  255.36  480.31
   6  -3 -18 -167.61  388.11
  -6  -3  18  388.78  472.73
  -6   3  18 -247.94  475.07
   6   3 -17  158.54  675.30
   6  -3 -17  964.52  527.02
  -6   3  17  248.79  869.32
  -6  -3  17  925.60  847.55
   6   3 -16 -124.12  372.33
   6  -3 -16  -86.80  282.93
  -6  -3  16  -28.35  641.74
  -6   3  16 -204.09  655.86
   6   3 -15  841.15  590.44
   6  -3 -15  -99.04  346.74
  -6  -3  15  362.60  480.10
  -6   3  15  430.59  677.84
   6   3 -14  163.09  655.15
   6  -3 -14 1790.44  701.31
  -6  -3  14 3525.58  690.79
  -6   3  14 1145.28 1005.19
   6   3 -13  368.56  738.00
   6  -3 -13   44.35  574.93
  -6   3  13  580.26  575.51
  -6  -3  13 1819.71  537.44
   6   3 -12 1789.81  693.93
   6  -3 -12  131.70  527.44
  -6  -3  12  430.94  636.79
  -6   3  12  421.38  702.75
   6   3 -11 2280.50  702.96
   6  -3 -11  -68.25  581.94
  -6   3  11  419.72  735.08
  -6  -3  11  964.67  482.47
   6   3 -10  385.67  571.33
   6  -3 -10 -204.30  467.84
  -6  -3  10  476.51  515.57
  -6   3  10  597.87  560.84
   6   3  -910245.51 1844.04
   6  -3  -912570.66 1714.67
  -6  -3   912496.99 1325.33
  -6   3   912052.08 1831.06
   6   3  -8 4938.00 1203.94
   6  -3  -8 5182.73 1034.69
  -6  -3   8 5624.52 1030.52
  -6   3   8 3672.35  869.01
   6   3  -7   95.34  388.69
   6  -3  -7  373.98  465.54
  -6  -3   7  715.96  460.24
  -6   3   7  287.85  534.76
   6   3  -6  575.60  557.76
   6  -3  -6  425.11  493.26
  -6  -3   6  606.83  448.08
  -6   3   6  586.38  536.65
   6  -3  -5 6907.53  956.97
   6   3  -5 5603.95 1174.88
  -6  -3   5 7917.55  961.56
  -6   3   5 5150.78 1167.54
   6   3  -4 6199.68  849.62
   6  -3  -4 5235.44  983.16
  -6  -3   4 7131.83  891.39
  -6   3   4 4734.18 1042.57
   6   3  -3  662.72  476.71
   6  -3  -3  -94.59  331.47
  -6   3   3  673.94  419.14
  -6  -3   3  269.38  326.91
   6   3  -2 5851.00 1162.31
   6  -3  -2 7794.01 1050.46
  -6  -3   2 8225.59  750.15
  -6   3   2 5825.58  976.95
   6   3  -1 1515.54  488.56
   6  -3  -1 2103.37  557.64
  -6  -3   1 1860.02  348.84
  -6   3   1 1182.83  545.54
   6   3   0 4330.57  728.97
   6  -3   0 4591.97  683.05
   6  -3   0 3858.98  793.51
  -6  -3   0 6144.05  528.73
   6   3   1 3252.30  361.70
   6  -3   1 4037.26  686.87
   6  -3   1 3649.93  638.66
   6   3   1 5294.58  875.71
   6   3   2 1720.31  253.22
   6   3   2 1499.65  607.71
   6  -3   2 1559.45  507.55
   6  -3   2 1537.75  435.48
   6  -3   3 1431.37  460.01
   6   3   3 1125.73  210.99
   6  -3   3 1106.75  374.30
   6   3   3 2223.47  552.56
   6   3   411203.62 1316.48
   6  -3   410037.25  984.35
   6  -3   4 6748.08  759.47
   6   3   5 4627.94  348.94
   6  -3   5 6138.77  590.32
   6  -3   5 5552.16  697.08
   6   3   5 7330.78  805.52
   6   3   6  -43.32  253.04
   6  -3   6  379.43  304.15
   6  -3   6   77.74  169.31
   6   3   7 1715.37  572.85
   6  -3   7 1629.19  445.82
   6  -3   7  965.55  338.60
   6   3   8 7344.83  975.90
   6  -3   8 4083.61  821.07
   6  -3   8 6659.74  652.79
   6   3   9  614.92  482.41
   6  -3   9  865.88  385.96
   6  -3   9  760.57  280.26
   6   3  10  366.73  487.36
   6  -3  10 1164.29  354.63
   6  -3  10  704.92  294.77
   6   3  1114470.17 1764.84
   6  -3  1114934.63 1234.38
   6  -3  1112383.16 1445.50
   6   3  12  643.59  408.83
   6  -3  12  923.86  322.63
   6  -3  12  625.41  446.88
   6   3  13  758.14  509.52
   6  -3  13  457.42  334.25
   6  -3  13 1154.17  425.55
   6   3  14  484.56  439.22
   6  -3  14  -56.20  357.47
   6   3  15  366.21  427.77
   6  -3  15  790.15  470.70
   6   3  16 1340.46  565.89
   6   3  17   24.63  386.64
  -6   3 -18  965.15  714.00
  -6  -3 -19  847.12  588.35
   6   4 -23 1155.43  705.72
  -6  -4  23  984.07 1411.80
  -6   4  23 3666.79 1419.76
   6   4 -22  -37.57  607.32
   6  -4 -22  161.94  466.30
  -6  -4  22 1807.81 1008.90
  -6   4  22  982.13  736.45
   6   4 -21  433.12  598.75
   6  -4 -21  535.72  461.79
  -6   4  21  396.08  720.63
  -6  -4  21  511.79  988.85
   6   4 -20  164.91  458.39
   6  -4 -20  355.10  457.00
  -6  -4  20 1238.74  896.75
  -6   4  20  -48.69  883.74
   6  -4 -19  852.57  546.86
   6   4 -19 1289.88  556.45
  -6  -4  19 2131.98 1041.06
  -6   4  19  154.89  765.96
   6   4 -18 1216.31  819.26
   6  -4 -18 1020.58  394.96
  -6  -4  18 1130.47 1022.81
  -6   4  18 1417.35 1034.16
   6  -4 -17 9836.03  996.36
   6   4 -17 5915.77 1550.43
  -6  -4  17 8062.17 1970.23
  -6   4  17 4166.71 1968.32
   6   4 -16 3674.62  859.14
   6  -4 -16 3514.66  590.07
  -6  -4  16 4409.28 1282.72
  -6   4  16 1242.50  979.73
   6  -4 -15 1493.43  684.51
   6   4 -15 1079.45  825.37
  -6   4  15  961.44  726.12
  -6  -4  15 2148.22  928.99
   6   4 -14 6204.37 1740.60
   6  -4 -1410535.61 1340.58
  -6  -4  14 9060.37 1662.00
  -6   4  14 3162.57 1768.43
   6   4 -13  984.11  585.63
   6  -4 -13 1068.14  579.50
  -6  -4  13 1243.38  753.68
  -6   4  13  513.63  817.48
   6   4 -12 5109.34 1378.17
   6  -4 -12 7430.93  838.71
  -6  -4  12 6162.91 1293.22
  -6   4  12 2359.21 1077.29
   6   4 -1110894.88 1785.57
   6  -4 -1110313.83 1424.12
  -6  -4  1112110.10 1673.24
  -6   4  11 8959.07 1422.98
   6   4 -10 1105.26  676.95
   6  -4 -10  267.45  523.60
  -6  -4  10 1289.41  581.26
  -6   4  10  316.13  505.61
   6   4  -9  692.37  533.49
   6  -4  -9  522.26  621.99
  -6  -4   9 1705.79  633.01
  -6   4   9 1732.92  751.50
   6   4  -8 8415.41 1218.12
   6  -4  -8 9326.50 1348.08
  -6  -4   8 9913.56 1359.67
  -6   4   8 6472.31 1562.74
   6  -4  -7  410.77  565.47
   6   4  -7 1445.71  678.53
  -6  -4   7 1320.65  551.74
  -6   4   7 1384.88  696.42
   6   4  -613559.41 1589.29
   6  -4  -617649.83 1892.98
  -6  -4   619003.94 1796.09
  -6   4   615620.78 2042.17
   6   4  -5 1050.60  680.55
   6  -4  -5 1369.08  567.59
  -6  -4   5 1247.14  427.62
  -6   4   5 1648.19  637.25
   6   4  -4  488.18  381.91
   6  -4  -4  245.55  439.16
  -6  -4   4  605.78  373.22
  -6   4   4  429.98  485.15
   6  -4  -3 4242.01  872.55
   6   4  -3 4530.07 1021.36
  -6  -4   3 5870.36  630.40
  -6   4   3 5763.61  975.24
   6   4  -2 3026.03  808.20
   6  -4  -2 2830.02  650.81
  -6  -4   2 3164.91  447.66
  -6   4   2 2719.73  727.54
   6  -4  -1  624.13  393.64
   6   4  -1  460.87  370.68
  -6  -4   1  583.19  243.05
  -6   4   1  468.35  437.27
   6   4   0  498.94  470.37
   6  -4   0  565.22  371.05
   6  -4   0    1.70  424.71
  -6  -4   0  303.32  208.29
   6   4   1 1563.75  586.57
   6   4   1 1090.84  243.71
   6  -4   1 2309.85  479.21
   6  -4   1 1386.57  472.68
   6   4   2 2436.83  593.84
   6   4   2  797.34  200.49
   6  -4   2 1185.01  472.46
   6  -4   2 1993.73  426.86
   6   4   3 1155.31  408.54
   6   4   3 1264.69  192.45
   6  -4   3  132.28  378.26
   6  -4   3 1480.13  393.24
   6   4   4  670.92  491.95
   6   4   4  557.38  123.69
   6  -4   4  400.62  369.96
   6  -4   4  353.77  323.93
   6  -4   5  725.32  472.66
   6  -4   5 1770.76  397.36
   6   4   5 2293.09  643.10
   6   4   6 1009.34  491.93
   6  -4   6 2842.55  553.49
   6  -4   6 2974.79  436.77
   6   4   7 1472.37  533.10
   6  -4   7  882.54  386.65
   6  -4   7  611.07  311.69
   6   4   8  768.23  488.71
   6  -4   8  618.45  404.89
   6  -4   8 1150.97  277.17
   6  -4   9  126.41  279.25
   6  -4   9   15.73  224.95
   6   4   9  523.48  385.86
   6   4  10 2397.00  644.82
   6  -4  10 1636.77  411.18
   6  -4  10 1808.65  501.97
   6   4  11  -44.45  396.51
   6  -4  11  180.99  221.96
   6  -4  11 -163.72  275.24
   6   4  12  652.66  565.86
   6  -4  12 1203.81  338.70
   6  -4  12  167.62  425.87
   6  -4  13  267.16  243.97
   6  -4  13  230.67  332.83
   6   4  13  145.31  446.08
   6   4  14 -148.69  514.58
   6  -4  14  478.29  321.70
   6  -4  14  667.46  399.65
   6   4  15  526.71  588.84
   6   4  16  848.77  702.73
   6   4  17  606.50  505.80
   6   4  18  499.89  325.82
   6   5 -23  443.61  626.05
   6  -5 -23  390.94  422.42
  -6  -5  23 1099.61 1054.01
  -6   5  23 -133.77  760.20
   6  -5 -22  936.08  611.96
   6   5 -22 1172.62  767.09
  -6  -5  22 2658.59  948.09
  -6   5  22  840.32 1332.83
   6   5 -21  102.17  527.02
   6  -5 -21   44.13  303.36
  -6  -5  21 1375.69  654.98
  -6   5  21  158.61  890.81
   6  -5 -20 3111.15  805.00
   6   5 -20 4997.77  936.77
  -6  -5  20 5565.93 1262.01
  -6   5  20 1884.61 1262.57
   6   5 -19 2935.18  773.77
   6  -5 -19 2936.60  785.61
  -6  -5  19 4731.70 1467.27
  -6   5  19 1286.53 1447.48
   6  -5 -1810691.71 1338.97
   6   5 -1810214.91 1918.19
  -6  -5  18 8261.67 2339.89
  -6   5  1810384.03 1797.87
   6   5 -17  254.43  421.41
   6  -5 -17  283.80  368.39
  -6  -5  17 -310.26  713.83
  -6   5  17   83.00  526.53
   6  -5 -16  565.77  441.56
   6   5 -16  635.73  648.73
  -6  -5  16  -78.11  738.66
  -6   5  16 -225.57  760.26
   6   5 -15   28.30  684.44
   6  -5 -15 3943.08  646.22
  -6  -5  15 1654.55  761.33
  -6   5  15  906.72 1052.33
   6  -5 -14   53.19  459.22
   6   5 -14 -377.02  638.18
  -6  -5  14  809.84  622.21
  -6   5  14  413.28  486.29
   6   5 -13 3061.76  911.18
   6  -5 -13 3993.94  862.83
  -6  -5  13 4167.74 1111.03
  -6   5  13 2204.10 1252.33
   6  -5 -12 1284.26  544.52
   6   5 -12  736.63  569.53
  -6  -5  12  698.09  717.44
  -6   5  12 1044.34  602.19
   6   5 -11 3412.05  979.89
   6  -5 -11 5282.26  961.97
  -6  -5  11 4569.66 1140.92
  -6   5  11 8104.69 1386.09
   6  -5 -10  873.68  541.63
   6   5 -10  990.61  575.97
  -6  -5  10 1634.76  656.70
  -6   5  10 1641.26  816.82
   6   5  -9  815.98  474.68
   6  -5  -9  149.95  473.68
  -6  -5   9 1102.94  536.49
  -6   5   9  436.26  492.92
   6   5  -8 6169.77 1618.68
   6  -5  -8 9175.68 1305.86
  -6  -5   810411.90 1340.05
  -6   5   8 9730.61 1649.97
   6   5  -7  903.40  707.99
   6  -5  -7 1532.87  560.50
  -6  -5   7  843.12  483.27
  -6   5   7 1196.93  518.68
   6  -5  -616149.08 1617.56
   6   5  -614703.71 1654.14
  -6  -5   616060.88 1669.89
  -6   5   615865.83 1693.34
   6   5  -5  555.44  643.89
   6  -5  -5 1539.17  525.01
  -6  -5   5 1182.70  460.81
  -6   5   5  882.49  635.92
   6  -5  -4 2692.93  569.53
   6   5  -4 1678.66  536.16
  -6  -5   4 1002.20  481.84
  -6   5   4 1593.06  672.86
   6   5  -3  648.29  525.01
   6  -5  -3 1002.21  416.34
  -6  -5   3  517.17  331.54
  -6   5   3  -28.86  501.96
   6  -5  -2  667.03  512.77
   6   5  -2 2537.90  669.26
  -6  -5   2 1378.95  320.44
  -6   5   2 2370.79  600.71
   6   5  -111208.33 1481.58
   6  -5  -1 9422.93 1062.85
  -6  -5   1 9316.84  741.53
  -6   5   1 8280.08 1215.67
   6  -5   0 8943.16  900.55
   6   5   0 9805.30 1324.23
   6  -5   010400.98 1264.09
  -6  -5   0 6702.02  572.13
   6   5   1  434.16  176.30
   6   5   1 2051.13  523.32
   6  -5   1 1063.86  429.44
   6  -5   1 1075.27  321.82
   6   5   2   69.40  371.03
   6   5   2   30.53   99.38
   6  -5   2  193.26  267.99
   6  -5   2  -59.36  229.23
   6   5   3   -2.86  409.65
   6  -5   3   69.26  248.70
   6  -5   3  381.58  290.04
   6   5   4 1043.91  500.59
   6  -5   4  598.78  352.91
   6  -5   4  282.73  351.62
   6   5   5 2336.06  648.78
   6  -5   5 1473.95  420.88
   6  -5   5  962.47  362.78
   6   5   6 2690.26  640.70
   6  -5   6 3976.84  641.89
   6  -5   6 4947.08  577.83
   6   5   7  353.97  404.83
   6  -5   7  127.27  255.98
   6  -5   7   70.37  238.30
   6  -5   8 1603.85  503.96
   6   5   8 2211.26  490.99
   6  -5   8 3048.54  455.05
   6  -5   9 1233.55  301.86
   6  -5   9  155.74  263.01
   6   5   9 1569.13  516.23
   6  -5  10  627.20  344.21
   6   5  10 1722.18  432.14
   6  -5  10  986.26  345.67
   6   5  11  172.69  391.95
   6  -5  11   66.53  236.74
   6  -5  11    3.46  269.03
   6   5  12  820.90  584.00
   6  -5  12  611.91  335.33
   6   5  13 1042.97  484.39
   6  -5  13  746.57  371.25
   6   5  14  978.49  464.15
   6  -5  14  907.25  394.67
   6   5  15 1899.56  805.65
   6  -5  15 1715.37  500.64
   6   5  16 -111.31  385.74
   6   5  17  874.53  562.16
   6   5  18 1357.24  697.22
   6   6 -23  324.28  568.50
   6  -6 -23   -4.52  297.19
  -6  -6  23 1555.06  728.09
   6  -6 -22 1241.91  545.19
   6   6 -22  883.00  780.79
  -6  -6  22 2973.82  985.29
  -6   6  22  513.29 1333.50
   6   6 -21  526.05  724.96
   6  -6 -21  219.26  470.81
  -6  -6  21 1897.24  753.59
  -6   6  21   57.94  758.54
   6  -6 -20  121.44  279.83
   6   6 -20 -270.12  440.29
  -6  -6  20 1710.23  619.46
  -6   6  20   70.98  853.64
   6   6 -19 3061.23  786.08
   6  -6 -19 2030.14  646.08
  -6  -6  19 2946.27 1006.07
  -6   6  19 1493.63 1010.14
   6   6 -18 1052.28  630.70
   6  -6 -18  -74.10  414.67
  -6  -6  18  457.51  825.75
  -6   6  18  294.93  822.67
   6   6 -17 2691.57  824.33
   6  -6 -17 3999.04  751.20
  -6  -6  17 3694.83 1393.05
  -6   6  17 1511.29 1343.94
   6  -6 -16 2442.55  555.02
   6   6 -16 1237.28  926.51
  -6  -6  16 1020.97  788.09
  -6   6  16  556.78 1064.67
   6   6 -15 -102.35  412.96
   6  -6 -15  342.31  384.10
  -6  -6  15  -37.93  624.31
  -6   6  15  270.74  641.89
   6  -6 -14 4508.02  799.26
   6   6 -14 4710.09 1339.10
  -6  -6  14 3647.34 1235.08
  -6   6  14 2213.77 1375.38
   6   6 -13  482.90  640.49
   6  -6 -13  143.27  457.77
  -6  -6  13  487.12  612.32
   6  -6 -12 2104.17  668.86
   6   6 -12 1931.45  726.08
  -6  -6  12 1954.41  878.26
  -6   6  12 2503.97 1037.97
   6   6 -11 9848.49 1575.26
   6  -6 -1111860.02 1458.29
  -6  -6  1113817.08 1408.32
  -6   6  1113373.76 2196.00
   6   6 -10  482.34  470.07
   6  -6 -10  592.25  442.95
  -6  -6  10  334.63  523.25
  -6   6  10  -21.54  654.02
   6   6  -911201.87 1585.65
   6  -6  -913418.32 1475.06
  -6  -6   912694.05 1647.95
  -6   6   915873.45 2156.92
   6  -6  -8 2324.17  623.06
   6   6  -8 1661.28  882.41
  -6  -6   8 2112.16  676.14
  -6   6   8 2025.03  697.29
   6   6  -7  124.03  548.65
   6  -6  -7  693.93  430.96
  -6  -6   7  152.20  425.00
  -6   6   7   85.47  554.62
   6  -6  -6 8605.23 1066.44
   6   6  -6 8451.31 1169.90
  -6  -6   6 9233.31 1140.22
  -6   6   610120.50 1515.39
   6   6  -5 4981.57 1246.71
   6  -6  -5 7772.31 1029.28
  -6  -6   5 7689.59  942.03
  -6   6   5 5637.99 1253.04
   6  -6  -4 1028.26  518.69
   6   6  -4 2710.70  604.48
  -6  -6   4 2237.42  503.70
  -6   6   4 3193.73  579.30
   6   6  -3 1419.12  678.48
   6  -6  -3 2035.76  452.49
  -6  -6   3 1714.82  355.53
  -6   6   3 1079.66  643.46
   6   6  -2  324.57  383.16
   6  -6  -2 1070.28  371.86
  -6  -6   2  307.12  226.31
  -6   6   2  566.02  466.61
   6   6  -1   85.21  393.62
   6  -6  -1 -112.23  224.24
  -6  -6   1    5.41  152.47
  -6   6   1   53.61  340.69
   6  -6   0 2127.26  429.99
   6  -6   0 1731.33  696.07
   6   6   0 1766.88  530.12
   6   6   1 1900.23  679.41
   6  -6   1 2149.84  565.66
   6  -6   1 1765.57  435.89
   6   6   2  794.93  479.24
   6  -6   2  487.26  275.48
   6  -6   2  180.37  362.34
   6   6   3  320.62  445.22
   6  -6   3  292.24  272.81
   6  -6   3  180.78  320.13
   6  -6   4  411.73  258.42
   6  -6   4  -20.78  321.73
   6   6   4  324.91  448.02
   6   6   5  316.69  448.27
   6  -6   5  171.04  241.40
   6  -6   5  119.96  295.08
   6   6   6  597.10  378.37
   6  -6   6 1140.34  357.32
   6  -6   6  524.82  249.68
   6   6   7  968.24  490.21
   6  -6   7  458.27  284.12
   6  -6   7  191.27  292.20
   6  -6   8  393.61  262.45
   6  -6   8 -113.49  247.69
   6   6   8   41.23  380.39
   6   6   9 1022.71  434.67
   6  -6   9  790.49  308.71
   6  -6   9 1524.97  283.10
   6   6  10 1644.69  654.20
   6  -6  10 1226.41  395.53
   6   6  11 -145.71  377.91
   6  -6  11   69.83  227.52
   6   6  12  758.30  447.94
   6  -6  12  670.98  351.23
   6   6  13  598.41  500.99
   6  -6  13   -2.56  287.05
   6   6  14 1081.63  629.69
   6  -6  14  729.38  396.74
   6   6  15 -251.56  532.57
   6  -6  15  434.27  335.73
   6  -6  16  349.29  354.25
   6   6  16  -85.48  572.53
   6   6  17 1559.22  910.22
   6   6  18  473.10  551.10
   6   6  19  692.34  649.05
   6  -7 -23  887.55  546.59
  -6  -7  23 1900.42  980.42
   6   7 -22  256.05  659.95
   6  -7 -22  739.60  328.75
  -6  -7  22  969.55  827.75
  -6   7  22  310.70 1118.66
   6   7 -21 1211.11  742.44
   6  -7 -21  437.19  421.59
  -6   7  21   52.94 1050.33
  -6  -7  21 1141.23 1067.03
   6   7 -20 1522.17  614.18
   6  -7 -20  208.27  538.88
  -6  -7  20 1975.59 1182.06
  -6   7  20 2610.66  837.15
   6   7 -19 4209.76 1075.81
   6  -7 -19 5480.99  686.31
  -6  -7  19 6836.96 1862.39
  -6   7  19 6047.78 1799.31
   6   7 -18 1342.03  653.32
   6  -7 -18  235.41  375.13
  -6  -7  18 -251.37  605.88
  -6   7  18  253.80  820.70
   6   7 -17  -13.16  484.68
   6  -7 -17  501.71  405.36
  -6   7  17  422.06  571.94
  -6  -7  17  175.37  789.56
   6   7 -16 -850.20  578.18
   6  -7 -16  -30.55  336.82
  -6  -7  16  281.63  653.08
  -6   7  16   66.82  505.52
   6   7 -15 2926.87 1136.54
   6  -7 -15 5957.44  630.57
  -6  -7  15 6602.17 1523.15
  -6   7  15 1793.65 1176.25
   6   7 -14  640.92  640.30
   6  -7 -14  244.18  272.81
  -6  -7  14 -325.98  445.82
  -6   7  14  394.03  680.46
   6   7 -13 4304.57 1206.46
   6  -7 -13 3435.93  549.30
  -6  -7  13 2534.73 1148.55
  -6   7  13 3472.79 1303.10
   6   7 -1211715.57 1659.59
   6  -7 -1213391.97 1567.12
  -6  -7  1211980.07 1471.73
  -6   7  1213244.98 2312.63
   6   7 -11  102.52  380.08
   6  -7 -11   70.28  334.14
  -6  -7  11 -181.80  424.98
  -6   7  11 -145.60  385.41
   6   7 -10 1229.27  578.84
   6  -7 -10 1346.74  488.81
  -6  -7  10  649.00  614.98
  -6   7  10  594.85  597.96
   6   7  -9  865.91  454.05
   6  -7  -9  -95.60  334.00
  -6   7   9  107.94  617.24
  -6  -7   9  610.86  455.66
   6   7  -8 4784.31 1340.72
   6  -7  -8 6516.22  892.24
  -6  -7   8 6095.42 1020.66
  -6   7   8 4628.67 1362.34
   6   7  -7  238.20  579.92
   6  -7  -7  579.89  394.16
  -6   7   7 -128.68  600.93
  -6  -7   7  615.79  429.06
   6   7  -6  457.48  453.40
   6  -7  -6 1227.31  451.91
  -6  -7   6  466.93  382.30
  -6   7   6  573.16  459.95
   6   7  -518435.42 2139.87
   6  -7  -514870.51 1468.27
  -6   7   513452.62 1683.32
  -6  -7   517206.73 1418.95
   6   7  -4  266.44  438.98
   6  -7  -4  184.26  314.53
  -6  -7   4   11.90  222.15
  -6   7   4   75.23  442.40
   6   7  -3  388.01  361.69
   6  -7  -3  235.80  354.79
  -6  -7   3  482.95  242.81
  -6   7   3  372.37  481.89
   6   7  -2  238.54  463.67
   6  -7  -2  333.51  304.06
  -6  -7   2   91.55  181.13
  -6   7   2  437.13  432.30
   6   7  -1 1330.54  460.27
   6  -7  -1  619.77  327.85
  -6  -7   1  957.36  287.43
   6   7   0 -185.33  364.08
   6  -7   0   -5.79  372.27
   6  -7   0   48.66  196.99
   6   7   119931.77 2378.14
   6  -7   122088.13 1916.34
   6  -7   122523.96 2209.79
   6   7   2 1220.02  461.56
   6  -7   2   -0.70  227.54
   6  -7   2  199.94  349.12
   6   7   3 4706.15 1060.58
   6  -7   3 5205.36  659.45
   6  -7   3 6162.59  843.10
   6   7   4 2332.60  670.50
   6  -7   4 1528.14  357.01
   6  -7   4 1522.41  527.89
   6   7   521314.29 2283.37
   6  -7   515669.59 1334.93
   6  -7   516703.37 1647.04
   6   7   6 -257.87  297.37
   6  -7   6  -82.17  265.41
   6   7   7 2014.79  641.49
   6  -7   7  986.40  400.64
   6   7   8 2025.64  584.43
   6  -7   8  895.69  386.58
   6   7   9 1826.24  684.32
   6  -7   9 1934.95  477.00
   6   7  10 2133.41  701.53
   6  -7  10 1320.78  412.32
   6   7  11  338.29  369.74
   6  -7  11  329.32  295.99
   6   7  12  215.42  561.66
   6  -7  12  581.43  333.10
   6   7  13 1132.45  738.11
   6  -7  13 3760.82  580.69
   6   7  14  636.93  484.41
   6  -7  14  -73.68  309.65
   6   7  15  300.34  523.78
   6  -7  15  124.11  332.58
   6   7  16  665.43  497.66
   6  -7  16  576.12  424.70
   6   7  17  115.36  469.62
   6  -7  17  399.33  389.88
   6   7  18  790.28  838.08
   6   7  19  -15.27  442.34
   6   8 -22 -315.27  739.49
   6  -8 -22  350.12  439.49
  -6  -8  22 1369.18 1093.45
  -6   8  22 2121.91 1038.53
   6   8 -21 1008.23  774.11
   6  -8 -21  529.22  325.47
  -6  -8  21 1522.87 1136.45
  -6   8  21 1442.71  792.29
   6   8 -20  549.18  832.71
   6  -8 -20 1365.80  470.94
  -6  -8  20  876.53 1198.32
  -6   8  20 1723.55 1145.78
   6   8 -19  982.32  625.52
   6  -8 -19  858.36  369.04
  -6  -8  19 2465.47 1133.54
  -6   8  19 1864.11  805.30
   6   8 -18 3414.90  987.14
   6  -8 -18 2261.73  589.12
  -6  -8  18 1288.65 1297.25
  -6   8  18 1199.93  928.72
   6  -8 -17 1890.65  482.78
   6   8 -17 1218.25  890.87
  -6  -8  17  517.58  805.41
  -6   8  17  512.37 1077.95
   6   8 -16  315.25  675.04
   6  -8 -16  479.16  397.34
  -6  -8  16  103.46  768.74
  -6   8  16   97.53  800.62
   6   8 -15  217.16  579.93
   6  -8 -15  635.51  293.67
  -6  -8  15  696.62  795.02
  -6   8  15  296.87  836.04
   6   8 -1422835.14 3520.63
   6  -8 -1423386.21 2118.11
  -6  -8  1426732.85 3454.70
  -6   8  1424395.98 3116.18
   6   8 -13 7156.69 1930.94
   6  -8 -1310757.03 1226.87
  -6  -8  1310436.66 1833.28
  -6   8  13 9579.61 2100.34
   6   8 -12 3148.50  866.45
   6  -8 -12 3230.50  670.50
  -6  -8  12 3029.77 1036.28
  -6   8  12 3652.86  933.37
   6   8 -11 2947.19 1036.57
   6  -8 -11 6287.64  802.13
  -6  -8  11 5835.38 1156.87
  -6   8  11 4041.01 1421.02
   6   8 -10 1462.87  803.49
   6  -8 -10 4636.55  701.12
  -6  -8  10 2588.61  868.14
  -6   8  10 2134.72 1161.11
   6  -8  -9 9307.51 1049.07
   6   8  -9 9670.33 1344.17
  -6  -8   9 9471.23 1346.83
  -6   8   9 8975.71 1417.62
   6   8  -8 5923.50 1485.79
   6  -8  -8 7852.01  972.99
  -6  -8   8 6738.40 1076.05
  -6   8   8 5917.89 1517.82
   6   8  -7 2581.17  913.36
   6  -8  -7 2410.92  487.67
  -6  -8   7 2742.01  668.58
  -6   8   7 1728.59  937.68
   6   8  -6  289.98  537.89
   6  -8  -6  245.87  294.96
  -6  -8   6  354.83  380.11
  -6   8   6  362.51  560.58
   6   8  -5  689.53  453.95
  -6  -8   5 1053.30  413.80
  -6   8   5  457.74  642.59
   6   8  -4  278.02  464.34
   6  -8  -4  261.71  321.11
  -6  -8   4  126.78  231.72
  -6   8   4   83.11  492.13
   6   8  -3 1035.00  587.24
   6  -8  -3  324.24  317.54
  -6  -8   3 1120.84  261.89
  -6   8   3  231.00  425.25
   6   8  -2  266.15  335.61
   6  -8  -2   40.30  279.10
  -6  -8   2  115.10  159.49
  -6   8   2  400.42  423.47
   6   8  -1 3286.66  726.07
   6  -8  -1 1141.24  353.31
   6  -8  -1 2566.41  392.11
  -6  -8   1 1522.28  333.87
   6   8   0  785.91  506.02
   6  -8   0  718.09  384.10
   6  -8   0  127.64  250.78
   6   8   1  938.84  575.22
   6  -8   1  809.04  289.94
   6  -8   1  799.68  506.84
   6  -8   2 4778.23  515.05
   6  -8   2 1465.85  683.15
   6   8   2 2052.99  867.71
   6   8   3 1227.93  620.98
   6  -8   3  964.97  472.20
   6   8   4 1507.02  637.00
   6  -8   4 1056.11  498.19
   6   8   5 1503.09  460.44
   6  -8   5  584.31  433.26
   6   8   6  812.66  533.36
   6  -8   6  600.51  345.41
   6   8   7  560.99  384.64
   6  -8   7  415.54  340.89
   6   8   8  973.52  498.48
   6  -8   8  332.42  354.71
   6   8   9  629.55  542.93
   6  -8   9  646.34  345.57
   6   8  10  183.42  367.44
   6  -8  10  305.89  216.53
   6   8  11 3079.77  949.50
   6  -8  11 3143.86  557.79
   6   8  12  446.77  456.86
   6  -8  12  976.85  384.07
   6   8  13  159.60  551.19
   6  -8  13  240.49  323.56
   6   8  14  113.12  579.34
   6  -8  14  231.21  243.34
   6   8  15  364.65  516.49
   6  -8  15   87.12  242.87
   6   8  16 1214.06  709.00
   6  -8  16  560.09  331.95
   6   8  17 3164.40 1115.99
   6  -8  17 2627.26  700.78
   6   8  18 1239.62  689.41
   6   8  19 1034.29  970.75
   6   9 -22 1116.48  562.18
   6  -9 -22  -56.03  431.96
  -6  -9  22 2287.75 1134.56
  -6   9  22  551.29 1061.62
   6   9 -21 1333.62  683.80
   6  -9 -21 1345.99  402.72
  -6  -9  21 2530.97 1356.13
  -6   9  21 3079.62 1305.29
   6   9 -20 1457.31  908.07
   6  -9 -20 1126.65  484.19
  -6  -9  20 1948.50 1221.18
  -6   9  20 1129.44  870.90
   6   9 -19 1713.07  898.04
   6  -9 -19  816.01  482.42
  -6  -9  19 1616.30 1197.43
  -6   9  19 3400.41 1180.89
   6   9 -18  966.26  621.23
   6  -9 -18  639.12  397.56
  -6  -9  18  434.31 1024.21
  -6   9  18 2073.15 1014.36
   6   9 -17  926.80  818.89
   6  -9 -17 1047.81  435.70
  -6  -9  17  229.50  983.20
  -6   9  17  724.45 1001.81
   6   9 -16  764.88  558.85
   6  -9 -16  386.84  334.00
  -6  -9  16  -78.36  575.11
  -6   9  16 -425.76  794.41
   6  -9 -15 1427.24  435.50
   6   9 -15 1059.42  992.07
  -6  -9  15 1743.52 1009.83
  -6   9  15 1433.06 1074.34
   6   9 -14  397.11  667.50
   6  -9 -14  192.09  340.33
  -6  -9  14  298.99  660.58
  -6   9  14  199.95  754.13
   6   9 -13 3638.08  985.29
   6  -9 -13 4565.15  506.90
  -6  -9  13 2990.10  944.59
  -6   9  13 1942.40 1047.10
   6   9 -12  469.20  551.29
   6  -9 -12  610.80  352.63
  -6  -9  12  992.92  686.66
  -6   9  12  586.30  802.20
   6   9 -11 -453.66  459.74
   6  -9 -11  548.99  337.39
  -6  -9  11  284.17  510.30
  -6   9  11  306.69  668.49
   6   9 -10 4236.74 1477.49
   6  -9 -10 8358.67  860.05
  -6  -9  10 2451.71 1144.91
  -6   9  10 8452.39 1589.43
   6   9  -9 -289.27  404.21
   6  -9  -9  292.59  323.40
  -6  -9   9  127.87  393.82
  -6   9   9  126.25  574.50
   6   9  -8  -98.57  335.57
   6  -9  -8  117.25  228.63
  -6  -9   8 -121.66  322.54
  -6   9   8  -76.15  488.97
   6   9  -7 3578.86  805.01
   6  -9  -7 4133.58  679.52
  -6  -9   7 2971.21  673.21
  -6   9   7 4589.15 1113.92
   6   9  -6 2242.61  800.83
   6  -9  -6  910.08  389.50
  -6  -9   6 1736.51  524.39
  -6   9   6 2197.22  606.01
   6   9  -5 4248.27 1169.52
   6  -9  -5 6181.67  683.51
  -6  -9   5 4884.31  652.58
  -6   9   5 4133.52  911.89
   6   9  -4  289.15  338.36
   6  -9  -4  -19.24  236.01
  -6  -9   4  351.21  239.86
  -6   9   4  127.97  354.93
   6   9  -3 -233.27  340.70
   6  -9  -3  275.89  249.47
  -6  -9   3  273.18  200.93
  -6   9   3  486.02  485.16
   6   9  -2  215.98  447.35
   6  -9  -2  108.62  210.59
  -6  -9   2   39.11  201.88
  -6   9   2  227.55  421.46
   6   9  -1  420.23  410.50
   6  -9  -1  520.47  333.05
   6  -9  -1 -163.61  199.24
   6   9   0 1916.82  757.58
   6  -9   0 2248.67  798.12
   6   9   1  485.19  398.88
   6  -9   1  929.02  490.84
   6   9   2 3247.27  676.96
   6  -9   2 3784.37  768.17
   6  -9   3 1399.95  544.37
   6   9   3 1647.92  663.31
   6   9   4 3192.74  790.52
   6  -9   4 1595.89  632.63
   6   9   5  536.54  466.36
   6  -9   5  920.26  432.23
   6   9   6 9273.68 1493.31
   6  -9   610075.61 1088.42
   6   9   7  618.79  494.09
   6  -9   7  114.86  324.35
   6   9   8 1826.91  629.34
   6  -9   8  429.79  384.28
   6   9   9 1878.07  581.06
   6  -9   9  511.68  272.12
   6   9  10  710.84  472.50
   6  -9  10  -97.48  274.43
   6   9  11   -2.25  396.79
   6  -9  11  777.57  344.08
   6   9  12 1342.32  759.08
   6  -9  12 1552.01  469.45
   6   9  13  143.37  361.69
   6  -9  13   32.10  212.64
   6   9  14 -137.08  365.28
   6  -9  14   95.86  219.63
   6  -9  15   10.74  246.56
   6   9  15  400.84  383.60
   6   9  16  225.12  420.50
   6  -9  16  108.30  363.37
   6   9  17  675.19  660.80
   6  -9  17   97.35  406.45
   6   9  18 2606.90 1133.20
   6  -9  18 2289.54  748.51
   6 -10 -22  644.63  491.79
  -6 -10  22 2401.00 1241.11
  -6  10  22  515.13 1214.52
   6  10 -21  504.13  512.73
   6 -10 -21  368.39  400.02
  -6 -10  21 1206.37 1012.30
  -6  10  21 -218.77  717.00
   6  10 -20  321.56  605.30
   6 -10 -20  414.85  420.63
  -6 -10  20 1457.57 1074.98
  -6  10  20 3742.08 1096.92
   6  10 -19  974.76  687.88
   6 -10 -19   45.70  266.37
  -6 -10  19 2343.68  909.92
  -6  10  19  960.24  918.44
   6  10 -18 1464.98  701.37
   6 -10 -18  696.00  451.23
  -6 -10  18 2238.60 1156.97
  -6  10  18 2773.61  860.73
   6  10 -17  790.89  684.35
   6 -10 -17  170.22  310.94
  -6 -10  17   34.34  810.93
  -6  10  17  581.48  616.38
   6  10 -16  312.75  663.50
   6 -10 -16 1175.81  417.32
  -6 -10  16  872.61  956.58
  -6  10  16  606.80  774.03
   6  10 -15  950.87  934.21
   6 -10 -15 1393.90  416.01
  -6 -10  15  719.50  948.39
  -6  10  15  438.29  765.45
   6  10 -14  795.14  637.11
   6 -10 -14 1136.21  370.74
  -6  10  14  386.44  940.31
  -6 -10  14  621.12  877.81
   6  10 -13  107.77  448.82
   6 -10 -13  123.65  300.63
  -6 -10  13   91.85  607.08
  -6  10  13  224.19  682.37
   6  10 -12 8699.26 1828.77
   6 -10 -12 7709.75  885.80
  -6  10  12 5234.45 1896.67
  -6 -10  12 9878.20 1603.90
   6  10 -11  181.34  515.66
   6 -10 -11  -97.16  227.34
  -6 -10  11   13.69  430.55
  -6  10  11  145.25  404.07
   6  10 -10 1359.09 1030.76
   6 -10 -10 3271.44  545.80
  -6 -10  10 1462.37  800.31
  -6  10  10 1950.44  815.69
   6  10  -9 1087.95  710.62
   6 -10  -9  943.10  354.87
  -6 -10   9  358.92  516.75
  -6  10   9  225.38  575.02
   6  10  -8  -48.11  477.48
   6 -10  -8  -36.62  228.56
  -6 -10   8  -86.44  330.91
  -6  10   8  543.28  496.70
   6  10  -7 5934.99 1431.44
   6 -10  -7 7468.67  860.62
  -6 -10   7 7358.26 1000.45
  -6  10   7 5668.47 1135.51
   6  10  -619851.13 2211.75
   6 -10  -623449.98 1859.60
  -6  10   623335.18 3030.55
  -6 -10   623248.45 1964.64
   6  10  -5  396.32  414.97
   6 -10  -5  595.79  309.79
  -6 -10   5  223.61  305.59
  -6  10   5  986.22  622.29
   6  10  -4  362.46  569.38
   6 -10  -4  263.01  259.99
  -6 -10   4 1109.24  283.99
  -6  10   4  246.03  602.10
   6  10  -3 1054.55  637.23
  -6 -10   3  904.64  246.77
  -6  10   3  943.37  642.70
   6  10  -2 9318.15 1502.49
  -6  10   2 8340.75 1442.25
   6  10  -1 1376.03  432.06
   6 -10  -1  389.68  499.82
   6  10   0 2414.04  566.14
   6 -10   0 1709.26  715.70
   6  10   1  724.25  450.87
   6 -10   1 1292.06  426.16
   6  10   2  -80.71  310.69
   6 -10   2  341.56  367.36
   6  10   3 2588.76  737.59
   6 -10   3 1536.25  603.93
   6  10   4 1181.17  596.23
   6 -10   4  509.35  470.84
   6  10   513564.22 1902.26
   6 -10   511355.18 1394.17
   6  10   6  317.78  330.24
   6 -10   6   18.82  215.36
   6 -10   7  559.43  351.07
   6  10   7  118.04  559.58
   6  10   8  268.18  426.68
   6 -10   8  -50.03  189.54
   6  10   9 1789.56  713.39
   6 -10   9 1581.18  476.54
   6  10  10 2464.12  541.32
   6 -10  10  597.85  447.21
   6 -10  11  -45.86  199.38
   6  10  11  487.73  463.12
   6  10  12  650.05  461.23
   6 -10  12  749.28  397.88
   6  10  13  179.02  562.82
   6 -10  13  249.41  343.03
   6  10  14 1367.95  671.10
   6 -10  14  180.37  405.45
   6  10  15 1238.26  819.93
   6 -10  15  861.04  491.87
   6  10  16  959.90  613.71
   6 -10  16   61.34  287.73
   6  10  17  337.42  762.70
   6 -10  17  784.99  498.76
   6  10  18 2186.30  841.32
   6 -10  18 2337.34  739.22
   6 -11 -22  261.92  429.90
  -6 -11  22 1745.06  842.55
   6  11 -21 3338.59 1296.27
   6 -11 -21 3504.25  755.63
  -6 -11  21 4665.00 1825.51
  -6  11  21 4574.71 1868.05
   6  11 -20  956.11  819.30
   6 -11 -20  551.07  425.85
  -6  11  20 1702.57 1110.11
  -6 -11  20  305.24 1080.58
   6  11 -19 2118.51  755.52
   6 -11 -19 1092.38  532.83
  -6 -11  19 5033.88 1349.82
  -6  11  19 2087.13  992.14
   6  11 -18 1317.43  753.00
   6 -11 -18   22.06  352.18
  -6 -11  18  193.20  893.78
  -6  11  18 1858.51  944.08
   6  11 -17 2571.74  711.00
   6 -11 -17 1026.47  445.13
  -6 -11  17  252.99 1106.23
  -6  11  17 1911.32 1171.74
   6  11 -16 3679.38 1029.82
   6 -11 -16  722.29  412.54
  -6 -11  16  661.78 1059.27
  -6  11  16 3878.76 1163.18
   6  11 -15  197.39  562.70
   6 -11 -15  351.45  295.46
  -6 -11  15  807.04  792.86
  -6  11  15  748.21  853.23
   6  11 -14 1775.22  817.03
   6 -11 -14 2740.78  424.86
  -6  11  14  263.47  906.49
  -6 -11  14 2624.22 1111.48
   6  11 -13  438.78  854.33
   6 -11 -13 1069.77  367.74
  -6 -11  13 1916.00  859.84
  -6  11  13  467.76  990.34
   6  11 -12 3463.84 1307.45
   6 -11 -12 4385.76  504.77
  -6 -11  12 3444.16 1221.21
   6  11 -11  237.23  459.55
   6 -11 -11  173.60  276.50
  -6 -11  11  320.41  519.25
  -6  11  11 -217.63  666.36
   6  11 -10  107.78  432.00
   6 -11 -10   12.90  248.80
  -6  11  10  710.61  636.73
  -6 -11  10  149.67  452.63
   6  11  -9  -62.24  414.00
   6 -11  -9  224.83  237.51
  -6 -11   9   68.45  408.81
  -6  11   9   77.37  593.47
   6  11  -8 2551.95  700.63
   6 -11  -8 2510.14  461.27
  -6 -11   8 1075.71  538.80
  -6  11   8 2393.08  736.06
   6  11  -7  576.28  606.19
   6 -11  -7  402.62  274.98
  -6 -11   7  160.23  388.61
  -6  11   7  516.88  656.96
   6  11  -6 -218.06  487.93
  -6  11   6 -305.02  395.50
  -6 -11   6   39.62  276.59
   6  11  -5 -327.78  454.73
  -6 -11   5  266.95  274.31
  -6  11   5 -199.32  480.20
   6  11  -4  221.73  530.80
  -6  11   4  948.44  585.39
  -6 -11   4  346.55  247.29
   6  11  -3 -269.33  349.67
  -6  11   3   13.13  501.37
   6  11  -2   18.78  305.49
   6  11  -1 4483.27  718.43
   6 -11  -1 2868.07  863.47
   6  11   0  680.76  382.38
   6 -11   0   98.92  508.36
   6  11   1 8433.64 1099.43
   6 -11   112860.82 1520.11
   6  11   2  -45.81  492.18
   6 -11   2  562.99  425.25
   6  11   3  505.37  541.23
   6 -11   3  541.39  450.76
   6  11   4 2732.46  862.85
   6 -11   4 6542.91  668.00
   6  11   5 5968.97 1007.60
   6 -11   5 1611.79  717.32
   6  11   6  590.61  556.54
   6 -11   6  225.48  241.81
   6  11   7 2065.82  596.37
   6 -11   7 1597.84  517.61
   6 -11   8  -91.23  300.07
   6  11   8  -28.61  348.61
   6  11   9  965.84  644.59
   6 -11   9 1017.24  430.74
   6  11  10  190.48  449.75
   6 -11  10   -5.85  284.14
   6  11  11  276.01  397.88
   6 -11  11  145.07  330.80
   6 -11  12  209.48  371.86
   6  11  12  774.51  574.88
   6  11  13  786.31  701.47
   6 -11  13  846.71  445.60
   6  11  14  365.42  436.99
   6 -11  14   93.97  364.48
   6  11  15  282.88  473.79
   6 -11  15  175.81  387.07
   6 -11  16 2042.73  657.56
   6  11  16 2664.67 1117.94
   6  11  17  629.23  688.85
   6 -11  17  253.06  331.68
   6  11  18  236.09  857.07
   6 -11  18  956.46  556.81
   6  12 -21  256.74  577.56
   6 -12 -21  -18.52  392.12
  -6 -12  21 2457.15 1046.24
  -6  12  21 1772.71 1067.81
   6  12 -20 2178.92 1032.99
   6 -12 -20 1448.03  544.08
  -6 -12  20  845.88 1322.29
  -6  12  20 2167.48 1025.22
   6  12 -19 2785.76  970.91
   6 -12 -19  919.64  506.99
  -6  12  19 1426.12 1303.36
  -6 -12  19 2487.21 1243.35
   6  12 -18 1332.51  540.11
   6 -12 -18   17.98  242.11
  -6 -12  18  -67.07  868.25
  -6  12  18 1762.39  925.77
   6  12 -17  708.74  824.45
   6 -12 -17  609.79  376.29
  -6  12  17 1488.73 1016.60
  -6 -12  17  729.35  966.13
   6  12 -16  -49.13  518.44
   6 -12 -16  -25.44  280.21
  -6 -12  16  771.44  720.90
  -6  12  16 1057.87  774.11
   6  12 -15  994.77  853.94
   6 -12 -15  327.60  324.99
  -6 -12  15 1499.71  630.92
  -6  12  15  407.87  944.11
   6  12 -14  253.79  576.89
   6 -12 -14  -74.44  209.61
  -6 -12  14  338.33  585.30
  -6  12  14  189.60  646.09
   6  12 -13 4406.63 1112.89
   6 -12 -13 4967.08  578.56
  -6 -12  13 5170.74 1422.77
  -6  12  13 4159.50 1247.28
   6  12 -12  819.49  672.01
   6 -12 -12 1282.72  373.04
  -6 -12  12 3289.84  885.67
  -6  12  12  497.76 1030.64
   6  12 -11 3070.41 1385.59
   6 -12 -11 4662.83  567.29
  -6  12  11 4815.14 1534.97
  -6 -12  11 5350.89 1225.51
   6  12 -10  469.94  860.24
   6 -12 -10 1182.15  313.99
  -6 -12  10 1055.50  687.85
  -6  12  10 2120.05  914.45
   6  12  -9 2029.51  927.60
  -6 -12   9 1201.32  674.48
  -6  12   9 2725.54 1005.78
   6  12  -8    4.84  559.43
  -6 -12   8    9.96  369.56
  -6  12   8  678.59  609.29
   6  12  -7 2142.36  792.03
  -6  12   7 1555.42  653.91
  -6 -12   7  972.89  446.40
   6  12  -6 5960.45 1371.08
  -6 -12   6 7577.18  927.41
  -6  12   6 6059.62 1550.96
   6  12  -518653.89 2105.13
  -6 -12   519856.87 1640.62
  -6  12   518435.69 2133.33
   6  12  -4 2004.11  565.00
  -6  12   4 1031.25  826.46
  -6  12   3  592.44  622.18
   6  12  -2 8472.03 1151.56
   6 -12  -2 7913.62 1306.61
   6  12  -1  408.13  340.52
   6 -12  -1 -129.71  404.50
   6  12   0   24.34  384.59
   6 -12   0  791.08  375.72
   6  12   1 1171.56  700.98
   6 -12   1 2118.05  641.16
   6  12   2  324.67  509.80
   6 -12   2  422.33  455.80
   6  12   3  223.12  349.57
   6 -12   3  191.20  296.50
   6  12   4  -51.35  495.21
   6 -12   4  429.50  392.11
   6  12   5  323.83  373.95
   6 -12   5   75.83  375.82
   6  12   6 6602.09 1336.21
   6 -12   6 4716.38  585.21
   6  12   7  282.58  597.57
   6 -12   7  678.42  400.37
   6  12   8  208.62  688.01
   6 -12   8 1039.63  434.80
   6  12   9  422.57  557.49
   6 -12   9  473.76  278.44
   6  12  10  475.42  417.27
   6 -12  10  295.98  270.03
   6  12  11 1089.47  643.34
   6 -12  11  433.44  296.10
   6  12  12  392.51  429.05
   6 -12  12  187.90  261.17
   6  12  13  394.06  419.14
   6 -12  13  186.81  283.90
   6  12  14 1028.12  808.61
   6 -12  14 1089.09  379.07
   6  12  15 -368.92  654.71
   6 -12  15  465.64  396.63
   6  12  16 -550.01  518.52
   6 -12  16  -91.24  429.24
   6  12  17 1285.54  716.40
   6 -12  17  786.18  566.43
   6 -13 -21  143.10  369.28
  -6 -13  21  713.28  935.25
   6 -13 -20 2960.00  657.10
   6  13 -20 2866.04  999.42
  -6 -13  20 4290.30 1632.36
  -6  13  20 5046.98 1826.03
   6  13 -19 2057.76  968.47
   6 -13 -19  569.64  422.32
  -6 -13  19 2164.43 1101.50
  -6  13  19  887.25  874.92
   6  13 -18 1283.56  898.40
   6 -13 -18  502.70  416.18
  -6 -13  18 2537.69 1034.37
  -6  13  18  888.03  821.09
   6  13 -17  441.44  494.85
   6 -13 -17 -103.85  264.57
  -6 -13  17  178.35  673.39
  -6  13  17 -515.66  546.56
   6  13 -16  244.26  893.32
   6 -13 -16  320.72  354.63
  -6 -13  16 3650.58  908.82
  -6  13  16  856.89  746.32
   6  13 -15 1008.55  853.73
   6 -13 -15  567.13  332.62
  -6 -13  15 1020.78  866.41
  -6  13  15  930.05  734.05
   6  13 -14  552.14  628.89
  -6 -13  14 1198.21  868.55
  -6  13  14  657.35  963.53
   6  13 -13  573.16  929.16
  -6 -13  13 1699.94  919.33
  -6  13  13 1293.96 1056.00
   6  13 -12  675.49  937.02
  -6 -13  12 2448.80  889.92
  -6  13  12  692.99 1048.38
   6  13 -11  239.32  608.64
  -6 -13  11 -343.56  526.87
   6  13 -10  338.26  506.68
  -6 -13  10   56.12  568.12
  -6  13  10  745.13  544.09
   6  13  -9  367.35  461.41
  -6 -13   9   16.24  458.74
  -6  13   9  501.61  509.72
   6  13  -8  270.78  420.06
  -6 -13   8   94.68  317.90
  -6  13   8  139.14  456.41
   6  13  -7 -128.49  357.79
  -6 -13   7   31.72  296.96
  -6  13   7   16.76  545.78
   6  13  -6  362.05  438.95
  -6 -13   6  423.56  299.63
  -6  13   6  292.42  638.05
   6  13  -5 3627.07  877.56
  -6  13   5 5341.57 1219.76
   6  13  -4 1984.78  519.31
  -6  13   4  -12.88  564.76
   6  13  -3 7660.37 1137.94
  -6  13   3 8814.31 1197.85
   6  13  -2 9318.03 1313.80
   6 -13  -212228.89 1556.88
   6  13  -1  406.56  356.52
   6 -13  -1 -127.57  429.00
   6  13   0 -187.00  343.30
   6 -13   0  431.52  340.78
   6  13   1 1884.64  713.99
   6 -13   1 1357.52  472.97
   6  13   2 2008.63  773.11
   6 -13   2 1541.51  668.23
   6  13   3  387.82  389.99
   6 -13   3  484.35  460.75
   6  13   4 1697.05  643.99
   6 -13   4  359.94  485.72
   6 -13   5    6.74  238.10
   6  13   6 8292.82 1211.60
   6 -13   6 6460.06  952.21
   6  13   7  -55.75  316.35
   6 -13   7   66.85  293.90
   6  13   8  965.44  500.64
   6 -13   8  598.72  444.49
   6  13   9 1121.94  686.06
   6 -13   9  385.53  403.58
   6  13  10 2628.88  987.57
   6 -13  10 3007.41  656.10
   6  13  11  303.37  523.94
   6 -13  11   -2.74  324.64
   6  13  12 1798.86  585.19
   6 -13  12  462.43  482.41
   6  13  13 -302.54  478.57
   6 -13  13  107.50  317.84
   6  13  14 1235.55  705.71
   6 -13  14  277.01  445.47
   6  13  15  537.92  752.22
   6 -13  15  538.55  462.61
   6  13  16  756.68  835.87
   6 -13  16  643.27  514.24
   6  13  17  356.49  553.66
   6 -13  17  181.67  459.77
   6  14 -20 3137.79 1294.27
  -6 -14  20 2729.56 1585.57
  -6  14  20 2666.54 1286.67
   6  14 -19  831.34  821.25
  -6 -14  19 -160.59  943.68
  -6  14  19  425.33 1045.75
   6  14 -18 2097.41  854.58
  -6 -14  18 2675.19 1294.90
  -6  14  18 1177.43 1449.90
   6  14 -17  903.95  960.26
  -6 -14  17 1322.04  960.58
  -6  14  17 -247.32 1101.15
   6  14 -16 2989.37 1340.58
  -6 -14  16 2070.60 1326.75
  -6  14  16 3782.86 1567.65
   6  14 -15 1487.42  834.85
  -6 -14  15 3039.81 1127.90
  -6  14  15 1600.76 1271.18
   6  14 -14 4912.07 1380.82
  -6 -14  14 3436.64 1333.17
  -6  14  14 2893.73 1140.18
   6  14 -13  -77.95  507.69
  -6  14  13 -390.49  760.85
  -6 -14  13 1028.52  647.68
   6  14 -12 3160.56 1131.19
  -6 -14  12 8206.08 1458.99
  -6  14  12 4610.90 1281.93
   6  14 -11 1032.26 1058.98
  -6 -14  11 2102.92  947.29
  -6  14  11 2898.65 1133.82
   6  14 -10 4655.23 1556.68
  -6 -14  10 6242.67 1276.81
  -6  14  10 4825.01 1565.99
   6  14  -9  270.30  644.78
  -6  14   9  365.85  714.65
  -6 -14   9  276.36  498.36
   6  14  -8  470.81  634.48
  -6 -14   8  222.42  421.42
  -6  14   8  559.93  733.96
   6  14  -7  148.79  578.04
  -6  14   7  382.23  677.05
   6  14  -6 2718.22  917.68
  -6  14   6 1792.50  717.88
   6  14  -511963.92 1981.62
  -6  14   512457.30 2092.32
   6  14  -4 2456.02  965.07
  -6  14   4 3282.46 1047.17
   6  14  -3 1441.09  555.75
   6 -14  -3 1125.48  402.79
   6 -14  -2  146.83  506.33
   6  14  -2  663.71  439.49
   6  14  -1 2742.46  734.57
   6 -14  -1 4904.27  780.68
   6  14   0 4387.95 1091.11
   6 -14   0 5115.11  847.98
   6  14   1  207.80  419.49
   6 -14   1  -35.31  292.29
   6  14   2  154.31  297.77
   6 -14   2 -139.72  271.84
   6  14   3  155.03  449.68
   6 -14   3   55.35  291.97
   6  14   4  147.70  383.34
   6 -14   4  352.98  302.53
   6  14   5  263.97  405.12
   6 -14   5  449.80  438.93
   6  14   6  680.15  634.39
   6 -14   6  411.00  409.17
   6  14   7 3678.54  999.32
   6 -14   7 2654.98  679.12
   6  14   8 5497.23 1360.84
   6 -14   8 4955.38  878.08
   6  14   9  475.50  532.90
   6 -14   9  946.11  450.39
   6  14  10 5516.49 1321.46
   6 -14  10 5471.31  888.76
   6  14  11 -206.37  388.06
   6 -14  11  383.36  346.86
   6  14  12 1893.35  751.70
   6 -14  12  425.85  472.71
   6  14  13 1108.45  728.83
   6 -14  13  334.93  443.56
   6  14  14 2584.43  757.45
   6 -14  14 2145.90  490.91
   6  14  15  586.02  747.72
   6 -14  15  508.44  483.99
   6  14  16 1377.27 1191.85
   6 -14  16 2864.12  751.85
   6 -14  17  737.58  415.97
   6  15 -20 3285.94 1059.67
  -6 -15  20 3813.91 1294.64
  -6  15  20 4775.99 1985.88
   6  15 -19   24.91 1003.92
  -6 -15  19  934.21 1140.18
  -6  15  19 2811.28 1310.72
   6  15 -18 -140.86  775.58
  -6 -15  18   64.37  842.88
  -6  15  18-1043.61 1004.01
   6  15 -17 2636.49  972.59
  -6 -15  17 2568.16 1281.70
  -6  15  17 1535.59 1071.00
   6  15 -16 1037.79  929.76
  -6 -15  16  908.40  904.88
  -6  15  16  289.19  773.05
   6  15 -15  540.20  984.05
  -6 -15  15 1190.64  950.81
  -6  15  15 1475.78 1122.32
   6  15 -14  115.95  498.99
  -6 -15  14   50.98  653.45
  -6  15  14  258.42  774.30
   6  15 -13  412.29  594.27
  -6 -15  13 -625.93  551.00
  -6  15  13  164.55  461.90
   6  15 -12   76.33  823.58
  -6 -15  12 1205.89  768.88
  -6  15  12  448.19  914.34
   6  15 -11  742.73  713.44
  -6 -15  11 1406.78  839.76
  -6  15  11 1428.46  749.15
   6  15 -10  318.81  505.73
  -6 -15  10  336.58  574.09
  -6  15  10   65.98  541.67
   6  15  -9 2903.52  914.07
  -6 -15   9 1508.78  609.34
  -6  15   9  177.76  731.18
   6  15  -8  137.81  619.68
  -6  15   8 -536.21  502.72
   6  15  -7 1698.56  892.96
  -6  15   7 1612.54  696.17
   6  15  -6  406.98  499.43
  -6  15   6 -611.76  547.89
   6  15  -5  965.29  679.54
  -6  15   5  551.66  537.55
   6  15  -414099.35 2136.27
  -6  15   415989.19 2357.43
   6 -15  -317461.88 2147.97
   6  15  -314855.92 1810.99
   6  15  -2 1170.56  559.87
   6 -15  -2 1429.93  671.41
   6  15  -1  212.30  528.72
   6 -15  -1  345.15  530.97
   6  15   0 4260.25 1203.87
   6 -15   0 7489.34 1280.21
   6  15   1 1952.10  639.24
   6 -15   1 3442.33  865.87
   6  15   2 1987.44  781.85
   6 -15   2 1712.86  733.60
   6  15   3 2177.71  580.90
   6 -15   3 1473.28  721.85
   6  15   4 -639.45  514.57
   6 -15   4   32.10  427.85
   6 -15   5  302.97  440.27
   6  15   5  225.46  548.91
   6  15   6 -398.67  344.28
   6 -15   6  305.76  319.72
   6  15   7 1262.57  991.80
   6 -15   7 2727.46  654.60
   6  15   8  134.78  500.45
   6 -15   8   23.63  345.74
   6 -15   9  319.31  357.89
   6  15   9 -281.03  598.01
   6  15  10 1486.59  607.46
   6 -15  10  733.92  508.22
   6  15  11 1081.41  708.39
   6 -15  11  603.97  463.95
   6  15  12  693.77  774.89
   6 -15  12  993.39  365.61
   6 -15  13 1026.66  335.46
   6  15  13 -788.11  524.92
   6  15  14  324.44  531.37
   6 -15  14  870.60  483.68
   6  15  15  863.46  594.01
   6 -15  15  631.75  517.15
   6  15  16 1741.45  706.08
   6 -15  16  931.47  461.87
   6  16 -19 2817.99 1297.65
  -6 -16  19 1733.49 1053.46
  -6  16  19 2314.25 1191.63
   6  16 -18  335.99  634.91
  -6 -16  18 1399.77  947.34
  -6  16  18  107.42  793.35
   6  16 -17  338.46 1028.97
  -6 -16  17 1625.07  994.76
  -6  16  17  329.59 1159.39
   6  16 -16 1033.00  794.99
  -6 -16  16  583.45 1006.75
  -6  16  16 1467.89  872.31
   6  16 -15 1412.48 1194.75
  -6 -16  15 2464.99  854.22
  -6  16  15 1885.09 1028.30
   6  16 -14 1441.90  986.46
  -6 -16  14 1412.41  935.45
  -6  16  14  158.75 1085.69
   6  16 -13 2009.01  875.05
  -6 -16  13 2045.75 1083.24
  -6  16  13 2939.58 1307.21
   6  16 -12  886.63  914.50
  -6 -16  12 1324.73  844.11
  -6  16  12  625.82  763.98
   6  16 -11 3041.95 1302.32
  -6 -16  11 2698.28 1086.78
  -6  16  11 2774.61 1039.92
   6  16 -10    3.21  414.21
  -6  16  10   77.91  628.37
   6  16  -9  242.04  482.94
  -6  16   9  188.41  726.59
   6  16  -8 4044.97 1048.08
  -6  16   8 6869.80 1529.48
   6  16  -7 -289.41  623.59
  -6  16   7  886.09  681.69
   6  16  -6  897.35  805.45
  -6  16   6 1399.15  639.11
   6  16  -5  961.53  782.69
  -6  16   5 1379.87  849.12
   6  16  -4  575.91  639.22
   6 -16  -3 3001.36 1247.85
   6  16  -2  933.25  615.86
   6 -16  -2  146.02  434.89
   6  16  -1 5696.32 1301.21
   6 -16  -1 7915.29 1394.79
   6  16   0 5695.45 1256.65
   6 -16   0 5378.96 1280.64
   6  16   1 -251.29  342.53
   6 -16   1  129.20  469.92
   6 -16   2  422.11  534.59
   6  16   3  771.10  649.63
   6 -16   3 1011.52  613.53
   6  16   4  290.15  411.39
   6 -16   4  371.05  343.57
   6  16   5  523.05  451.84
   6  16   6 4316.27  696.99
   6 -16   6  825.60  473.36
   6  16   7 1418.65  655.13
   6 -16   7 1366.32  418.42
   6  16   8  177.66  487.51
   6 -16   8  893.44  463.95
   6  16   9 4349.05 1277.44
   6 -16   9 4593.48  850.90
   6 -16  10   73.06  411.21
   6  16  10 -814.45  481.65
   6  16  11 1941.63 1037.19
   6 -16  11 3286.59  705.58
   6  16  12  523.32  572.09
   6 -16  12 1153.11  383.30
   6  16  13  -27.54  545.64
   6 -16  13 1214.96  494.61
   6 -16  14  618.04  520.51
   6  16  14 1132.55  828.57
   6  16  15  875.05  871.75
   6 -16  15 1058.94  426.23
   6 -16  16  600.41  550.40
   6  17 -19 -567.19  566.59
  -6 -17  19 1928.75  875.10
   6  17 -18  605.49  994.66
  -6 -17  18 1652.82 1088.69
  -6  17  18  340.82 1283.54
   6  17 -17 1260.14  826.26
  -6 -17  17  738.09  783.22
  -6  17  17 1748.36 1318.50
   6  17 -16  972.46 1063.94
  -6 -17  16  665.48  725.12
  -6  17  16 1572.43 1233.58
   6  17 -15 1296.36  805.44
  -6 -17  15  352.42 1010.32
  -6  17  15 2894.41 1239.35
   6  17 -14  452.24  898.06
  -6 -17  14  684.13  825.48
  -6  17  14  678.40  741.52
   6  17 -13  119.86  682.31
  -6 -17  13 1144.62  845.54
  -6  17  13 1938.67 1046.67
   6  17 -12  895.06  788.76
  -6 -17  12 1557.95  931.51
  -6  17  12 2909.13 1185.92
   6  17 -11  391.78  751.22
  -6  17  11   75.77  778.82
   6  17 -10 2427.30  901.11
  -6  17  10   77.73  702.08
   6  17  -9 1617.93  740.87
   6  17  -8 3735.94  990.00
  -6  17   8 3961.23 1046.20
   6  17  -7 7365.20 1838.28
  -6  17   7 8907.08 1436.87
   6  17  -6  222.80  647.85
  -6  17   6  510.25  683.31
   6  17  -5 3245.43 1350.47
  -6  17   5 7930.72 1501.73
   6  17  -4   95.76  435.59
   6 -17  -4  596.33  536.20
   6  17  -3 1348.42  592.74
   6 -17  -3 1322.45  958.00
   6  17  -2 2369.50 1039.35
   6 -17  -2 3181.22  751.05
   6 -17  -1 3834.58 1049.48
   6  17  -1 2615.43 1036.81
   6  17   0 2235.12  632.09
   6 -17   0 1164.25  794.41
   6  17   1 1430.22  760.85
   6 -17   1 1368.10  768.27
   6  17   2   48.45  413.51
   6 -17   2  604.89  389.68
   6 -17   3 1360.39  533.18
   6  17   3 1179.38  540.60
   6  17   4 1602.25  751.32
   6 -17   4 1035.94  642.70
   6  17   5 1085.41  843.26
   6 -17   5 1996.23  587.90
   6  17   6 1888.35  866.09
   6 -17   6 1248.57  579.96
   6 -17   7 3429.63  615.36
   6  17   7 5545.61 1325.80
   6  17   8  893.11  809.83
   6 -17   8 1410.33  433.74
   6  17   9 2093.64  738.30
   6 -17   9 2146.35  649.33
   6  17  10 1552.13  974.71
   6 -17  10 1704.26  612.82
   6  17  11 1723.66  751.51
   6 -17  11 1700.34  610.56
   6  17  12  392.83  531.75
   6 -17  12 -142.72  257.10
   6  17  13 1323.35  812.48
   6 -17  13  609.93  531.12
   6  17  14  955.62  759.72
   6 -17  14  319.94  351.33
   6 -17  15  695.51  577.37
   6  17  15 1332.00  922.01
   6  18 -18 1418.68 1059.84
  -6 -18  18 1029.90 1149.96
  -6  18  18  726.20 1020.19
   6  18 -17  917.71  853.35
  -6  18  17 1720.37  952.07
  -6 -18  17  404.41 1088.11
   6  18 -16 1014.49 1199.53
  -6 -18  16 1763.48 1130.25
  -6  18  16 1428.37 1009.75
   6  18 -15 1390.69  843.51
  -6 -18  15 -555.91  791.06
  -6  18  15  373.78  992.13
   6  18 -14 2401.82 1305.23
  -6 -18  14 2207.19 1150.85
  -6  18  14 2253.16 1460.92
   6  18 -13 1483.45 1044.37
  -6  18  13  926.20  860.15
  -6  18  12 2747.07 1441.69
   6  18 -11 1227.15 1085.53
  -6  18  11 1734.77  862.38
   6  18 -10 3529.84 1460.16
  -6  18  10 4984.72 1590.85
   6  18  -9 1122.30  627.36
  -6  18   9 -103.59  852.54
   6  18  -8 3154.07  909.71
  -6  18   8 2312.26 1207.47
   6  18  -7   90.73  623.17
  -6  18   7 -325.17  624.67
   6  18  -6 -270.33  503.89
  -6  18   6  317.00  537.54
   6  18  -5  177.92  534.24
   6 -18  -5   -5.65  270.28
   6  18  -4 3175.77  815.34
   6  18  -3 3664.14 1164.78
   6  18  -2 -775.41  637.73
   6 -18  -2  -43.84  427.71
   6  18  -1  305.23  574.15
   6 -18  -1 1865.52  740.67
   6  18   0  475.38  719.49
   6 -18   0 1004.39  657.37
   6  18   1  307.21  422.40
   6 -18   2  -47.69  443.10
   6 -18   3  334.14  497.52
   6  18   4  141.71  395.93
   6 -18   4   97.38  316.19
   6  18   5 1096.25  638.28
   6 -18   5 1769.39  454.70
   6  18   6 1485.90  690.72
   6 -18   6 2523.62  674.85
   6  18   7 1200.01  655.09
   6 -18   7 1453.97  596.68
   6  18   8 2918.99 1059.76
   6 -18   8 2074.57  533.67
   6  18   9 1059.74  512.69
   6 -18   9  215.34  328.58
   6  18  10 1470.19  755.64
   6 -18  10  167.84  479.26
   6  18  11 2724.49  751.43
   6 -18  11  939.27  614.90
   6  18  12 1530.40  750.38
   6 -18  12  538.08  381.57
   6  18  13  738.52  658.44
   6 -18  13   21.54  447.18
   6  18  14 4053.05 1425.43
   6 -18  14 4372.94  723.11
   6  19 -17 2262.05 1389.17
  -6 -19  17 1036.23 1235.51
  -6  19  17 2965.25 1605.75
   6  19 -16  733.47 1039.22
  -6  19  16  569.45 1181.33
   6  19 -15 1795.45 1051.79
  -6  19  15  266.94  884.59
   6  19 -14  195.03  724.61
  -6  19  14 1479.93  833.39
   6  19 -13  446.41  889.78
  -6  19  13  468.18  982.78
   6  19 -12 2020.06  842.90
  -6  19  12  681.31  888.00
   6  19 -11 1571.31 1325.59
  -6  19  11 3473.05 1390.78
   6  19 -10  731.38  878.18
  -6  19  10  565.00  663.66
   6  19  -9 1620.92  778.78
  -6  19   9 1426.26  774.90
   6  19  -8  368.16  500.03
  -6  19   8  -30.30  497.31
   6  19  -7 1553.83 1150.13
  -6  19   7 2621.06  835.23
   6  19  -6 -258.47  648.43
  -6  19   6 -137.01  488.53
   6  19  -5  601.61  608.99
   6 -19  -5 1022.47  694.24
   6  19  -4  475.77  552.63
   6 -19  -4  963.58  851.23
   6  19  -3 -246.02  619.25
   6 -19  -3 -198.25  430.53
   6  19  -2  624.38  571.01
   6  19  -1  263.97  687.01
   6 -19  -1  318.08  582.17
   6  19   0 4969.73 1083.53
   6 -19   0 5286.29 1292.10
   6  19   1 1074.59  899.95
   6 -19   1 1357.83  554.64
   6  19   2 2641.02  748.70
   6 -19   2 2167.24  920.77
   6  19   3 1159.11  501.38
   6 -19   3  -20.45  392.54
   6  19   4 1976.53  838.08
   6 -19   4  672.36  667.87
   6  19   5  822.34  753.06
   6 -19   5  617.42  515.01
   6  19   6 4137.65 1283.25
   6 -19   6 4266.59  676.65
   6  19   7  371.52  597.37
   6 -19   7 1226.03  543.00
   6  19   8 2260.66  897.96
   6 -19   8 3431.85  803.19
   6  19   9  460.83  555.50
   6 -19   9  -55.94  268.03
   6  19  10  294.67  556.10
   6 -19  10  724.99  492.14
   6  19  11  717.47  772.27
   6 -19  11  337.56  462.80
   6  19  12 1174.45  725.67
   6 -19  12   59.81  324.97
   6 -19  13 1128.38  623.73
   6  19  13 1487.04  915.97
   6 -19  14  947.14  450.31
   6  20 -17 2622.81 1570.94
   6  20 -16  230.75  755.68
  -6  20  16 1096.58 1159.26
   6  20 -15  910.93 1295.70
  -6  20  15 3006.75 1506.22
  -6  20  14 1797.74 1430.10
   6  20 -13 1428.58 1171.84
  -6  20  13 1271.39  946.30
   6  20 -12   10.51  715.48
  -6  20  12 1754.72 1028.81
   6  20 -11  813.13  880.05
  -6  20  11 2397.12  882.42
   6  20 -10  301.48 1045.23
  -6  20  10 2091.99 1061.80
   6  20  -9 2937.96  995.47
  -6  20   9 2513.58 1307.67
   6  20  -8 3299.62  986.23
  -6  20   8 2805.23 1314.55
   6  20  -7  739.50 1088.86
  -6  20   7 2848.52 1091.78
   6  20  -6 1364.97  937.97
   6 -20  -6  910.54  753.36
   6  20  -5 1351.71  729.68
   6  20  -4 1480.40  942.43
   6  20  -3  530.80  623.61
   6 -20  -3 1330.73  582.80
   6  20  -2  605.90  919.24
   6 -20  -2 1550.81  810.35
   6  20  -1  240.84  504.25
   6  20   0  734.41  815.29
   6 -20   0  656.55  690.79
   6  20   1 1734.10  713.15
   6 -20   1  892.56  778.43
   6 -20   2  709.15  710.79
   6 -20   3  247.41  513.70
   6  20   4 1451.20  874.92
   6 -20   4  906.88  674.08
   6  20   5  -76.55  882.31
   6 -20   5 1371.85  429.68
   6  20   6  482.29  879.52
   6 -20   6 1082.49  567.36
   6  20   7  556.75  798.17
   6 -20   7  574.23  379.36
   6  20   8  688.77  639.68
   6 -20   8  909.10  558.69
   6  20   9 1223.21 1079.46
   6 -20   9 1637.09  648.53
   6  20  10 -366.51  554.78
   6 -20  10  821.69  364.76
   6  20  11  380.04  781.09
   6 -20  11  379.42  474.60
   6  20  12 3505.74 1345.73
   6 -20  12 2603.56  590.90
   6 -20  13  426.14  517.29
   6  21 -16  372.42  800.81
   6  21 -16  253.75  771.17
  -6  21  16 1454.72  920.89
   6  21 -15 1316.34 1494.78
  -6  21  15 3300.41 1250.25
   6  21 -14  138.46  639.41
  -6  21  14  422.72  988.59
   6  21 -13 2178.09 1118.68
  -6  21  13 -523.80 1207.25
   6  21 -12  764.75  879.90
  -6  21  12 1841.02  884.86
   6  21 -11 1173.90 1180.09
  -6  21  11 1441.94 1156.50
   6  21 -10  825.77  908.13
  -6  21  10  274.69  651.91
   6  21  -9  838.01  666.66
  -6  21   9  167.96  642.09
   6  21  -8 2223.13 1385.98
  -6  21   8 3926.71 1366.01
   6  21  -7 1531.76 1098.20
   6  21  -6  -76.13  474.38
   6  21  -5  288.00  785.87
   6 -21  -5  579.99  829.75
   6 -21  -4 1381.27  643.54
   6 -21  -3 1015.39  596.88
   6  21   0  837.68  572.80
   6 -21   0  251.50  463.54
   6 -21   1 2009.37  902.09
   6  21   2  443.22  776.51
   6  21   3 2787.46  972.37
   6 -21   3 3417.66  947.29
   6  21   4 1876.81  856.96
   6  21   5  931.87  720.84
   6 -21   5 1166.65  602.67
   6  21   6  982.08  720.06
   6 -21   6  941.27  435.39
   6  21   7 2799.14 1032.06
   6 -21   7  539.06  616.71
   6  21   8 1752.96  899.98
   6 -21   8  384.18  369.12
   6  21   9  343.69  645.26
   6 -21   9  584.52  509.98
   6  21  10 1341.66  772.65
   6 -21  10   94.02  331.55
   6  21  11 2479.36 1334.99
   6 -21  11 2363.77  773.46
   6  22 -15 2098.72 1522.19
  -6  22  15 2618.50 1728.64
   6  22 -14 1604.70  988.01
  -6  22  14 1495.17 1093.07
   6  22 -13  696.82 1115.33
  -6  22  13  854.88  845.20
   6  22 -12 1596.81  981.36
  -6  22  12 1692.53 1329.73
   6  22 -11 -178.55  993.10
  -6  22  11  746.66  688.55
   6  22 -10 4482.48 1783.22
  -6  22  10 4380.52 1701.63
   6  22  -9 1371.97  904.99
  -6  22   9 2054.40 1164.50
   6  22  -8 3377.59 1323.71
  -6  22   8 1741.25  922.30
   6  22  -7 -234.63  487.67
   6 -22  -7  298.16  500.55
   6  22  -6  714.35  811.15
   6 -22  -6   72.79  608.87
   6  22  -5 2155.26 1162.50
   6 -22  -5 1620.72  713.54
   6  22  -4 1250.82  748.04
   6 -22  -4 1112.84  634.74
   6 -22  -3 4203.18 1208.30
   6  22  -3 2596.62 1399.58
   6  22  -2  260.54  794.17
   6  22  -1 1457.28  821.08
   6  22   0  274.07  968.59
   6 -22   0 1174.74  543.19
   6  22   1 1006.14  671.68
   6 -22   1  156.79  666.95
   6  22   2  426.77  589.69
   6 -22   2  316.31  419.93
   6 -22   3 1056.23  711.72
   6 -22   4 1377.11  655.05
   6  22   5  678.50  717.36
   6 -22   5  629.64  398.73
   6  22   6 1757.37  760.41
   6 -22   6  184.06  567.86
   6  22   7 2564.00 1038.60
   6 -22   7  362.11  417.92
   6  22   8   75.52 1055.28
   6 -22   8  903.64  549.37
   6  22   9 1432.62  766.98
   6 -22   9  432.50  400.38
   6  22  10 1021.40 1169.50
   6 -22  10  877.39  584.81
   6 -22  11  409.88  373.06
   6  23 -13 1729.87 1242.01
  -6  23  13  288.73 1245.00
   6  23 -12  555.44  971.13
  -6  23  12 2094.22  956.26
   6  23 -11 1997.19 1408.55
  -6  23  11 1560.93 1336.94
   6  23 -10 2113.96  913.68
  -6  23  10  588.97  854.90
   6  23  -9  235.00 1225.39
  -6  23   9 1717.36  825.81
   6  23  -8 3343.84 1391.34
   6 -23  -8 1606.69  992.72
   6  23  -7  100.11  748.45
   6 -23  -7 1896.93 1009.86
   6  23  -6  165.99  943.30
   6 -23  -6 1086.70  941.39
   6  23  -5 1338.32  725.77
   6 -23  -5   41.33  788.06
   6  23  -4 1090.99 1042.02
   6  23  -3 1604.07  854.83
   6 -23  -1  598.28  512.53
   6  23   0 5791.68 1350.13
   6 -23   0 3662.36  904.16
   6 -23   1  507.92  665.69
   6 -23   2 1934.89  860.26
   6 -23   3  428.76  443.80
   6 -23   4 1932.35  738.06
   6  23   5  241.28 1014.02
   6 -23   5  786.36  568.36
   6  23   6 2797.42  966.86
   6 -23   6  -32.69  363.03
   6  23   7  647.30  882.61
   6 -23   7 1013.83  619.92
   6  23   8 1612.68 1436.82
   6 -23   8 1462.28  500.71
   6  23   9 1030.13 1027.44
   6 -23   9  979.28  628.35
   6 -23  10  273.60  484.99
   6  24 -12  588.19 1053.57
  -6  24  12 3316.87 1382.98
   6  24 -11  124.83 1090.97
  -6  24  11  565.56  730.92
   6  24 -10  520.20  816.21
  -6  24  10  587.77 1009.15
   6  24  -9 3244.32 1442.68
   6 -24  -9 1268.30 1017.12
   6  24  -8 2436.19 1076.04
   6 -24  -8 1770.67 1008.08
   6  24  -7 1720.77 1064.70
   6 -24  -7  157.19  736.89
   6  24  -6 2458.89 1142.43
   6 -24  -6 3967.69 1268.68
   6  24  -5 1099.37  813.21
   6 -24  -5 -455.35  630.04
   6  24  -4  847.48  840.04
   6 -24  -4 1691.47  888.35
   6  24  -3 2762.03 1488.23
   6  24  -2  185.77  623.76
   6  24  -1  874.70  781.77
   6 -24  -1  566.65  498.22
   6  24   0  305.07 1004.22
   6 -24   0  487.41  482.91
   6 -24   1  238.37  409.88
   6 -24   2  923.15  718.23
   6 -24   3 -186.16  560.02
   6 -24   4  432.71  392.05
   6  24   5 2379.58 1279.15
   6 -24   5  753.25  659.87
   6  24   6 1306.01 1101.47
   6 -24   6  442.24  579.93
   6  24   7  898.94  834.92
   6 -24   7  503.60  427.38
   6  24   8  -56.54  988.76
   6 -24   8  228.91  475.48
   6  25 -11  940.13  835.86
  -6  25  11 -364.48 1021.99
   6  25 -10 1370.88 1371.03
   6 -25 -10 1056.37  568.45
   6  25  -9  831.51  944.80
   6 -25  -9 1241.78 1210.68
   6  25  -8  840.69  930.05
   6 -25  -8 -442.07  860.48
   6  25  -7  459.17  807.05
   6 -25  -7  692.31  630.10
   6  25  -6 1424.34 1142.18
   6 -25  -6  486.80  634.54
   6  25  -5 1067.06  819.74
   6 -25  -5  654.19  626.80
   6  25  -4  844.72 1251.42
   6 -25  -4 1317.68  862.48
   6  25  -3 1997.41 1024.58
   6  25  -2  900.04 1166.08
   6 -25  -1  134.49  411.64
   6 -25   0  492.51  491.38
   6  25   1 1823.52  840.96
   6 -25   1  272.52  497.26
   6  25   2  916.27  856.96
   6 -25   2  576.61  700.04
   6  25   3 1659.73 1086.02
   6 -25   3 2026.59  800.82
   6  25   4 1653.56  859.56
   6 -25   4  475.77  439.88
   6  25   5 1148.24 1017.51
   6 -25   5 1436.79  527.22
   6  25   6  831.95 1211.76
   6 -25   6  979.57  656.61
   6  25   7  934.93 1207.59
   6  26  -9 3988.16 2049.14
   6  26  -8 2372.97 1658.29
   6 -26  -8 2152.50 1154.87
   6  26  -7  788.95 1405.19
   6 -26  -7 1816.21 1137.92
   6  26  -6 1111.41 1288.47
   6 -26  -6  891.57  986.59
   6  26  -5 3591.66 1531.94
   6 -26  -5 1618.09  813.76
   6  26  -4  116.65  740.45
   6 -26  -4  397.45  519.33
   6 -26  -3  993.76  628.88
   6 -26  -2  179.23  445.21
   6  26  -1  485.40  936.62
   6 -26  -1 1067.13  575.22
   6  26   0  487.96  711.81
   6 -26   0    4.91  418.56
   6 -26   1 1653.50  628.45
   6 -26   2 1780.67  896.49
   6 -26   3  449.14  574.34
   6  26   4 3172.14 1069.70
   6 -26   4  844.29  731.68
   6  26   5   67.34  649.16
   6  27  -5 2042.74 1081.14
   6 -27  -5  778.94 1114.55
   6 -27  -4 1914.85  872.32
   6  27  -3  693.24 1113.06
   6 -27  -3  332.86  584.48
   6  27  -2 2061.87 1137.40
   6 -27  -2 1560.02  781.57
   6  27  -1  183.24  816.28
   6 -27  -1  365.53  513.77
   6 -27   0 -285.52  450.38
   6 -27   1 1176.72  574.24
   7   0 -21  156.32  487.66
  -7   0  21 2903.15 1121.30
   7   0 -20 1062.53  572.03
  -7   0  20 2035.98  936.97
   7   0 -19  377.70  512.26
  -7   0  19  836.04  978.28
   7   0 -18 1230.03  626.83
  -7   0  18 1468.92 1153.62
   7   0 -17  458.81  756.22
  -7   0  17 1459.85  758.92
   7   0 -16  240.87  628.42
  -7   0  16  369.93  587.53
   7   0 -15  -32.72  520.38
  -7   0  15  178.86  491.21
   7   0 -14 2134.05  685.93
  -7   0  14 1344.65  761.60
   7   0 -13 1045.70  744.51
  -7   0  13  710.97  843.32
   7   0 -12 4101.66 1242.18
  -7   0  12 3595.42  940.42
   7   0 -11 1334.28  787.66
  -7   0  11  568.59  790.87
   7   0 -10  511.50  655.47
  -7   0  10  460.08  671.50
   7   0  -9 -324.06  538.67
  -7   0   9   48.07  557.84
   7   0  -8 2444.25 1077.16
  -7   0   8 3414.53 1038.67
   7   0  -7 -201.70  579.58
  -7   0   7 -272.43  535.33
   7   0  -6  474.73  675.38
  -7   0   6  794.96  586.42
   7   0  -5  -88.76  508.97
  -7   0   5  280.05  433.19
   7   0  -4 2198.45  771.72
  -7   0   4 1093.29  633.59
   7   0  -3   27.18  549.20
  -7   0   3  639.96  456.08
   7   0  -2 3147.26 1104.67
  -7   0   2 5383.77  837.97
   7   0  -1 -124.44  538.90
  -7   0   1  900.26  419.20
   7   0   0 9112.85 1448.01
   7   0   0 8252.40 1187.82
   7   0   1  -65.28  307.49
   7   0   1 1036.09  485.46
   7   0   2   42.11  255.43
   7   0   2  247.76  422.34
   7   0   3  210.79  456.86
   7   0   3  207.88  218.52
   7   0   4 1305.40  367.30
   7   0   4 1576.72  664.59
   7   0   5    2.44  355.62
   7   0   6 1322.99  644.63
   7   0   7  496.36  525.42
   7   0   812590.62 1761.73
   7   0   9  142.54  431.58
   7   0  10  427.48  532.47
   7   0  11 -704.26  607.21
   7   0  12 1170.58  650.73
   7   0  13  566.84  604.29
   7   0  14 1226.30  775.65
   7   0  15 -236.78  562.18
   7   1 -21 1245.70  632.12
   7  -1 -21  -65.51  530.87
  -7  -1  21  496.97 1036.08
  -7   1  21  -60.87  767.11
   7   1 -20 1389.06  738.28
   7  -1 -20  709.96  732.46
  -7  -1  20  911.04  877.37
  -7   1  20 1219.26 1196.33
   7   1 -19 1872.74 1142.22
   7  -1 -19 3221.85  955.53
  -7  -1  19 3436.63 1557.83
  -7   1  19 2964.79 1139.98
   7   1 -18 1398.10  868.24
   7  -1 -18 1843.77  853.56
  -7   1  18 1328.33 1173.20
  -7  -1  18  794.41  839.62
   7   1 -17 1587.86  871.15
   7  -1 -17 1063.66  599.38
  -7  -1  17  604.97 1090.96
  -7   1  17 2052.24 1126.63
   7   1 -16 1237.76  787.76
   7  -1 -16 2384.18  743.46
  -7  -1  16 3490.39 1255.09
  -7   1  16 4141.43 1293.22
   7   1 -15 3019.46  898.46
   7  -1 -15  504.24  812.05
  -7  -1  15  579.77 1003.91
  -7   1  15 1554.04 1016.54
   7   1 -14  788.53  762.63
   7  -1 -14  286.33  703.12
  -7  -1  14  721.18  878.42
  -7   1  14 2001.12  879.44
   7   1 -13 1115.18  593.97
   7  -1 -13   99.59  516.20
  -7  -1  13 1044.56  592.25
  -7   1  13 1165.99  615.78
   7   1 -12 2563.25 1073.43
   7  -1 -12 3360.03  946.34
  -7  -1  12 2434.13 1049.41
  -7   1  12 1094.41 1091.00
   7   1 -11  830.73  888.77
   7  -1 -11  896.77  885.68
  -7  -1  11 2995.10  920.84
  -7   1  11 1675.39  932.60
   7   1 -10 2285.74  939.28
   7  -1 -10  693.61  915.17
  -7  -1  10 2076.65  904.52
  -7   1  10 2832.57  970.99
   7   1  -9  754.59  500.98
   7  -1  -9    2.99  647.05
  -7  -1   9   50.18  645.39
  -7   1   9 1452.86  690.03
   7   1  -8  136.44  346.70
   7  -1  -8 -151.92  447.45
  -7  -1   8  -21.90  431.70
  -7   1   8  -41.43  459.96
   7   1  -7 2209.99  715.49
   7  -1  -7 1684.60  877.75
  -7  -1   7 1643.35  838.27
  -7   1   7 2371.90  855.85
   7   1  -6  374.99  533.06
   7  -1  -6  106.81  533.52
  -7  -1   6 -113.88  452.22
  -7   1   6  259.98  365.47
   7   1  -5  440.33  467.32
   7  -1  -5  122.53  341.80
  -7  -1   5  -23.79  364.98
  -7   1   5 -358.83  398.03
   7   1  -4 2420.29  954.34
   7  -1  -4 2129.46  913.20
  -7  -1   4 2616.17  634.23
  -7   1   4 3825.92  813.52
   7  -1  -3 4095.80  892.61
   7   1  -3 1692.01  702.14
  -7  -1   3 3589.09  735.45
  -7   1   3 2423.32  652.99
   7   1  -2   28.70  460.56
   7  -1  -2  422.71  435.40
  -7  -1   2  -46.22  285.10
  -7   1   2  173.26  373.26
   7  -1  -1 2676.67  846.03
   7   1  -1 1889.87  870.81
  -7  -1   1 3194.32  561.45
  -7   1   1 3555.02  724.55
   7   1   0 4113.77 1215.17
   7   1   0 5973.15  840.97
   7  -1   0 5835.47 1125.92
   7  -1   0 7651.05 1060.57
   7   1   1 5166.79 1213.58
   7   1   1 6518.14  714.39
   7  -1   1 6089.29  853.04
   7  -1   1 4597.05 1080.83
   7   1   2 1776.92  885.46
   7   1   2 2839.86  527.04
   7  -1   2 3585.15  589.25
   7  -1   2 4249.60  872.06
   7   1   3  294.61  521.77
   7  -1   3  178.03  479.01
   7  -1   3  485.06  299.08
   7   1   4  593.31  456.98
   7  -1   4 1062.75  573.99
   7  -1   4 1166.31  343.48
   7   1   5 -363.93  376.84
   7  -1   5   60.96  185.48
   7  -1   5  168.18  368.93
   7  -1   6  240.41  467.19
   7   1   6  501.62  503.46
   7   1   7  424.67  573.77
   7  -1   7  931.07  537.61
   7   1   8  892.13  547.89
   7  -1   8  -76.34  508.68
   7   1   9 1291.76  486.91
   7  -1   9 1288.71  613.76
   7  -1  10  632.59  563.71
   7   1  10  810.91  596.04
   7   1  11 1467.21  602.57
   7  -1  11 2418.34  762.22
   7   1  12  594.80  540.34
   7  -1  12  209.81  503.62
   7   1  13 3468.86 1087.04
   7  -1  13 4299.87  779.68
   7   1  14  618.07  692.69
   7   1  15  133.70  548.30
   7   1  16  437.37  515.23
   7   1  17 1455.18 1011.31
   7   2 -21 1624.87  716.33
   7  -2 -21  392.50  596.10
  -7  -2  21  377.62 1146.06
  -7   2  21 -178.09 1168.33
   7  -2 -20 2869.25  933.17
   7   2 -20 2966.91 1114.28
  -7  -2  20 1733.94 1523.27
  -7   2  20  682.97 1521.08
   7   2 -19  672.21  733.33
   7  -2 -19 1004.23  607.61
  -7  -2  19  -83.93  738.33
  -7   2  19  218.90 1016.47
   7  -2 -18 1259.27  568.19
   7   2 -18  634.99  684.97
  -7  -2  18  236.18  924.79
  -7   2  18 -776.97  690.86
   7   2 -17  302.93  548.68
   7  -2 -17 1017.69  702.39
  -7  -2  17  765.02  942.90
  -7   2  17 1071.13  976.55
   7  -2 -16  340.80  665.99
   7   2 -16  249.86  745.68
  -7  -2  16 2520.55  896.87
  -7   2  16   -0.79  902.59
   7   2 -15  410.86  697.14
   7  -2 -15   14.71  628.40
  -7  -2  15 1215.56  788.44
  -7   2  15  348.67  812.59
   7   2 -14 1585.81  632.87
   7  -2 -14  683.79  574.92
  -7  -2  14 2683.77  957.32
  -7   2  14  846.38  716.15
   7   2 -13 1519.22 1033.66
   7  -2 -13 1374.13  852.41
  -7  -2  13 1316.88 1014.73
  -7   2  13 3150.38 1061.10
   7  -2 -12  276.91  898.39
   7   2 -12 2531.60  781.82
  -7  -2  12 3258.44 1002.86
  -7   2  12 2613.60  798.95
   7   2 -11  532.37  563.06
   7  -2 -11 1829.37  746.84
  -7   2  11 1515.00  802.91
  -7  -2  11  259.07  542.09
   7  -2 -10 1985.92  616.25
   7   2 -10 1365.34  897.38
  -7  -2  10 1675.54  618.62
  -7   2  10 1022.78  915.31
   7   2  -9 -656.85  615.04
   7  -2  -9  231.68  564.09
  -7   2   9  744.79  456.06
  -7  -2   9  359.60  564.91
   7  -2  -8   91.03  500.84
   7   2  -8 -293.15  550.26
  -7  -2   8  128.76  416.35
  -7   2   8  488.29  542.70
   7   2  -7  426.84  662.13
   7  -2  -7  611.67  600.61
  -7  -2   7  550.95  557.65
  -7   2   7  196.62  606.55
   7   2  -6  347.75  630.55
   7  -2  -6  431.37  575.51
  -7  -2   6  802.84  500.42
  -7   2   6   13.48  548.57
   7   2  -5 2039.75  917.01
   7  -2  -5  386.18  880.08
  -7  -2   5 2761.86  625.71
  -7   2   5 3018.47  829.06
   7  -2  -4 -119.14  490.59
   7   2  -4  265.28  397.45
  -7  -2   4  301.13  329.98
  -7   2   4  108.69  459.94
   7   2  -3 6144.51 1394.01
   7  -2  -3 6333.21 1063.35
  -7  -2   3 6377.08 1025.46
  -7   2   3 7894.98 1145.34
   7  -2  -2  839.85  468.65
   7   2  -2  467.08  529.86
  -7  -2   2  -71.57  347.09
  -7   2   2    9.39  355.72
   7   2  -1  -39.71  346.17
   7  -2  -1 -238.53  414.72
  -7  -2   1 -116.76  263.39
   7   2   0  540.55  750.05
   7  -2   0 1951.34  643.46
   7   2   0 1398.47  448.66
   7  -2   0 2138.52  630.32
   7   2   121999.64 2758.75
   7   2   119523.22 1594.75
   7  -2   122964.19 2507.20
   7  -2   122890.30 2114.70
   7   2   2  367.22  584.92
   7  -2   2  501.92  309.21
   7  -2   2  940.54  440.17
   7   2   3 -370.97  466.35
   7  -2   3   48.25  418.22
   7  -2   3  511.48  290.94
   7  -2   4  272.98  384.07
   7   2   4  926.87  531.84
   7  -2   4  255.86  299.01
   7   2   5 1750.45  833.43
   7  -2   5 2039.14  766.18
   7  -2   5 2993.98  480.70
   7  -2   6  728.40  484.19
   7  -2   6  235.02  238.87
   7   2   6 1630.64  566.87
   7   2   7 3849.32  989.08
   7  -2   7 3183.43  893.45
   7   2   8   65.27  462.11
   7  -2   8 -122.83  395.96
   7   2   9 6218.71 1162.26
   7  -2   9 4976.32 1123.85
   7   2  10  597.75  580.11
   7  -2  10  391.29  495.76
   7   2  11  346.40  534.94
   7  -2  11  513.24  520.45
   7   2  12 1993.19  813.53
   7   2  13  303.44  588.05
   7   2  14  364.25  647.70
   7   2  15  366.60  660.74
   7   2  16  752.03  814.58
   7   2  17  180.93  729.26
   7   3 -21 3141.65 1014.97
   7  -3 -21 2493.31  656.39
  -7  -3  21 3534.70 1246.39
  -7   3  21 1156.12 1709.74
   7   3 -20   -2.01  658.08
   7  -3 -20  -11.50  342.35
  -7  -3  20 1841.98  921.84
  -7   3  20  266.25  669.64
   7   3 -19 1217.68  941.00
   7  -3 -19 1868.85  771.11
  -7  -3  19 1754.22  936.85
  -7   3  19  484.63 1276.44
   7   3 -18  101.90  559.97
   7  -3 -18 1380.81  597.05
  -7  -3  18 1219.95  962.61
  -7   3  18 -617.79  964.50
   7  -3 -17 1049.14  658.18
   7   3 -17  682.12  616.05
  -7  -3  17 1621.18  764.75
  -7   3  17 1079.17  765.51
   7   3 -16  959.65  870.55
   7  -3 -16  220.56  519.90
  -7  -3  16 2853.86  995.09
  -7   3  16 1592.67  741.10
   7   3 -15 2247.43  944.34
   7  -3 -15  640.73  573.94
  -7  -3  15 2136.13 1046.64
  -7   3  15 2283.40  801.39
   7   3 -14  250.29  910.52
   7  -3 -14  402.28  719.74
  -7  -3  14 1930.95  660.82
  -7   3  14 1289.05  953.12
   7   3 -13 3604.73 1239.76
   7  -3 -13 2225.47  978.83
  -7  -3  13 3729.41 1192.26
  -7   3  13 3140.44 1263.27
   7   3 -12 1825.12  943.65
   7  -3 -12 2839.00  811.36
  -7  -3  12  272.65  916.47
  -7   3  12 1070.67 1002.22
   7   3 -11 1181.36  849.79
   7  -3 -11 1609.58  713.30
  -7  -3  11 1064.67  790.66
  -7   3  11  577.98  885.35
   7   3 -10 -188.49  447.82
   7  -3 -10  125.51  413.05
  -7  -3  10  510.10  563.35
  -7   3  10  936.57  638.03
   7   3  -9 3931.92 1265.04
   7  -3  -9 4321.58 1176.65
  -7  -3   9 3604.79 1155.34
  -7   3   9 5031.48 1294.33
   7   3  -8  969.52  723.40
   7  -3  -8  626.55  618.92
  -7  -3   8  679.75  599.11
  -7   3   8  -44.42  678.29
   7   3  -7  741.79  810.50
   7  -3  -7 1028.63  690.64
  -7  -3   7 1338.15  667.76
  -7   3   7 1299.32  770.17
   7   3  -6   26.09  646.87
   7  -3  -6  928.27  566.82
  -7  -3   6  247.41  448.34
  -7   3   6  651.27  593.85
   7   3  -5  478.02  458.49
   7  -3  -5  648.92  568.23
  -7  -3   5  371.27  463.74
  -7   3   5  553.83  588.70
   7   3  -4 2675.03  965.56
   7  -3  -4 1613.98  898.23
  -7  -3   4 2336.97  603.19
  -7   3   4 4263.50  878.39
   7   3  -3 -212.26  551.94
   7  -3  -3  -48.07  496.68
  -7  -3   3  892.77  332.31
  -7   3   3 -170.09  472.94
   7   3  -2  447.64  515.98
   7  -3  -2  770.66  457.49
  -7  -3   2  100.33  285.99
  -7   3   2  -42.05  444.62
   7   3  -1 3002.27  734.38
   7  -3  -1 3237.67  818.04
  -7  -3   1 3446.64  615.72
   7   3   0 1653.28  744.73
   7  -3   0 1764.66  608.23
   7  -3   0  671.59  647.75
   7   3   1  106.00  563.88
   7  -3   1  422.71  461.87
   7  -3   1  659.55  413.44
   7  -3   2 1300.70  498.02
   7  -3   2  239.40  338.18
   7   3   2 1025.31  622.60
   7   3   3  254.44  472.81
   7  -3   3  -94.78  337.73
   7  -3   3 -417.05  300.95
   7  -3   4  281.41  487.53
   7   3   4 1223.84  600.22
   7  -3   4  535.69  293.99
   7   3   5  463.07  346.37
   7  -3   5  132.19  239.02
   7  -3   5 -148.12  333.83
   7   3   6  723.69  432.72
   7  -3   6  -82.76  219.07
   7  -3   6 -164.26  341.55
   7   3   7 4825.89  833.71
   7  -3   7 1858.39  875.97
   7  -3   7 4893.60  592.23
   7   3   8  261.34  650.97
   7  -3   8 1005.36  537.05
   7   3   9 2410.14  890.49
   7  -3   9 2733.37  823.75
   7   3  10  934.12  705.16
   7   3  11  934.19  641.79
   7   3  12 1583.18  797.34
   7   3  13 1194.23  791.11
   7   3  14 -277.06  650.43
   7   3  15 1432.42  911.43
   7   3  16  215.56  694.47
   7   3  17  757.71  951.95
   7   4 -21 2170.50  883.44
   7  -4 -21  631.10  626.87
  -7  -4  21  451.62  885.53
  -7   4  21    1.18  886.43
   7   4 -20 2107.75 1050.43
   7  -4 -20 1196.54  751.20
  -7  -4  20 4676.80 1481.70
  -7   4  20 1963.99 1426.35
   7   4 -19  359.45  511.32
   7  -4 -19  313.94  494.45
  -7   4  19  307.68  690.25
  -7  -4  19  952.23  954.39
   7   4 -18   22.20  554.55
   7  -4 -18  676.87  573.77
  -7  -4  18 1058.62  940.91
  -7   4  18  936.91  952.34
   7   4 -17  -66.18  681.04
   7  -4 -17  139.09  376.44
  -7  -4  17  929.32  833.30
  -7   4  17 1343.67  865.84
   7   4 -16 1090.71  827.44
   7  -4 -16  485.23  674.93
  -7  -4  16 1273.87  913.81
  -7   4  16  441.48  952.47
   7   4 -15 2163.69  696.04
   7  -4 -15 1019.98  758.46
  -7   4  15  854.00 1096.61
  -7  -4  15 1476.37 1014.67
   7   4 -14 1951.45 1039.93
   7  -4 -14 1937.28  768.34
  -7  -4  14  617.75  998.67
  -7   4  14 2348.97 1099.40
   7   4 -13 2295.76  798.10
   7  -4 -13 1591.40  826.45
  -7  -4  13 1176.89  741.08
  -7   4  13 4198.00 1149.32
   7   4 -12  958.55  843.44
   7  -4 -12 1047.27  468.22
  -7  -4  12  159.14  788.36
  -7   4  12 1509.12  900.81
   7   4 -11  261.80  887.37
   7  -4 -11 1094.70  718.70
  -7  -4  11 2134.88  839.73
  -7   4  11 2021.00  957.32
   7   4 -10 1695.77  778.31
   7  -4 -10   65.77  614.19
  -7  -4  10  227.23  668.50
  -7   4  10 1511.55  797.28
   7  -4  -9 1410.51  792.38
  -7   4   9 2970.05  953.91
  -7  -4   9  913.30  788.73
   7   4  -8  956.83  616.84
   7  -4  -8 1278.51  713.42
  -7  -4   8  878.14  681.81
  -7   4   8 1286.97  803.03
   7   4  -7  207.83  472.45
   7  -4  -7 1082.98  544.57
  -7   4   7  291.00  641.43
  -7  -4   7   88.67  513.42
   7   4  -6 8548.44 1214.35
   7  -4  -6 7667.57 1351.08
  -7  -4   6 7964.27 1272.65
  -7   4   6 6531.27 1494.16
   7   4  -5 2857.64 1105.53
   7  -4  -5 4351.22  942.97
  -7   4   5 3434.84  988.94
  -7  -4   5 3143.20  790.57
   7   4  -4 5823.02 1343.35
   7  -4  -4 7620.82 1096.00
  -7  -4   4 6299.43  836.72
  -7   4   4 7210.49 1312.16
   7   4  -3  412.93  668.01
   7  -4  -3  614.98  561.02
  -7  -4   3 1029.34  368.51
  -7   4   3  621.27  573.43
   7   4  -2  705.87  595.55
   7  -4  -2  605.52  512.62
  -7  -4   2  355.06  347.15
  -7   4   2  751.06  526.43
   7   4  -1  764.61  673.72
   7  -4  -1  558.33  468.61
   7  -4  -1  988.24  465.49
  -7  -4   1 1073.44  381.57
   7   4   0 2265.87  742.45
   7  -4   0 2209.82  726.59
   7  -4   0 4348.99  867.92
   7   4   113045.19 1541.65
   7  -4   110426.97 1446.89
   7  -4   111080.08 1437.00
   7   4   2  827.50  430.27
   7  -4   2  193.90  387.28
   7  -4   2  332.29  437.11
   7   4   3   82.86  444.00
   7  -4   3  799.30  408.09
   7  -4   3 1383.78  500.36
   7   4   4  667.64  478.53
   7  -4   4 -149.21  323.15
   7  -4   4  162.61  295.91
   7   4   5 3624.03  800.12
   7  -4   5 1170.47  434.60
   7  -4   5 1633.92  620.56
   7   4   6 3839.16 1039.46
   7  -4   6 1772.10  737.38
   7  -4   6 4338.41  496.01
   7   4   7  539.42  547.44
   7  -4   7  138.21  283.54
   7   4   8 1389.42  818.76
   7  -4   8 1526.70  408.96
   7   4   9  466.41  521.89
   7  -4   9  118.48  260.14
   7   4  10  526.02  642.71
   7   4  11 1265.98  722.70
   7   4  12 1512.71  821.16
   7   4  13 1807.13  917.89
   7   4  14  355.29  699.22
   7   4  15  415.62  730.22
   7   4  16  998.03  938.19
   7   4  17  373.07  867.38
   7   5 -21 1119.42  864.28
   7  -5 -21  567.42  406.13
  -7  -5  21 1208.66  913.70
  -7   5  21 1211.56 1175.95
   7  -5 -20 5570.36  828.65
   7   5 -20 4074.80 1504.88
  -7  -5  20 5775.40 1568.38
  -7   5  20 3917.43 2009.60
   7   5 -19 2188.55  931.94
   7  -5 -19   -9.15  605.30
  -7   5  19 2423.98 1184.32
  -7  -5  19 1998.13 1172.51
   7   5 -18 3379.62  874.24
   7  -5 -18 3138.31  764.04
  -7  -5  18 1836.53 1078.71
  -7   5  18 2128.89 1102.43
   7   5 -17  456.18  792.30
   7  -5 -17  290.04  555.97
  -7  -5  17 1190.91  907.82
  -7   5  17  556.21  698.78
   7   5 -16 1976.34  801.82
   7  -5 -16  242.35  555.42
  -7  -5  16  476.87  880.25
  -7   5  16  413.86  698.45
   7   5 -15 1729.84  787.47
   7  -5 -15  909.53  757.50
  -7  -5  15 2584.46 1031.23
  -7   5  15 1290.63  856.21
   7   5 -14 2297.13  893.75
   7  -5 -14  715.08  628.16
  -7  -5  14 -453.84  813.39
  -7   5  14  871.53  924.95
   7   5 -13 4225.16 1182.30
   7  -5 -13 1875.49  844.32
  -7   5  13 1466.94 1272.30
  -7  -5  13 3951.30 1118.98
   7   5 -12 3281.70  875.94
   7  -5 -12 2584.93  875.67
  -7  -5  12 2938.52 1060.96
  -7   5  12 1716.23 1249.58
   7   5 -11 -528.55  772.46
   7  -5 -11  478.49  554.10
  -7   5  11 1214.55  599.82
  -7  -5  11  952.84  679.33
   7   5 -10  955.36  730.65
   7  -5 -10  173.28  564.24
  -7  -5  10  331.25  644.72
  -7   5  10  737.34  564.41
   7   5  -9 3239.14  901.26
   7  -5  -9 3862.59  900.28
  -7  -5   9 2944.05  971.89
  -7   5   9 2501.58 1195.30
   7   5  -8  294.59  453.05
   7  -5  -8   63.76  431.84
  -7  -5   8  178.06  476.29
  -7   5   8  154.33  598.00
   7   5  -7 2065.41  729.21
   7  -5  -7 1698.92  828.29
  -7  -5   7 2660.77  670.81
  -7   5   7 2422.01  957.95
   7   5  -613449.41 1788.05
   7  -5  -614815.05 1726.37
  -7  -5   614280.24 1755.25
  -7   5   613236.91 1612.53
   7   5  -5 1752.07  981.42
   7  -5  -5 2493.81  687.90
  -7  -5   5 3717.19  675.45
  -7   5   5 1456.37  662.28
   7   5  -4 4389.41 1094.01
   7  -5  -4 5251.56  943.54
  -7  -5   4 2895.54  616.12
  -7   5   4 3899.06 1017.34
   7   5  -3  505.21  628.86
   7  -5  -3  723.08  446.42
  -7   5   3   11.90  552.01
  -7  -5   3  696.24  376.95
   7   5  -2 2420.89  735.87
   7  -5  -2  713.41  598.66
  -7  -5   2 1318.56  369.05
  -7   5   2 1334.38  678.51
   7   5  -1 1795.39  670.46
   7  -5  -1 1200.43  514.11
   7  -5  -1  184.98  474.57
  -7  -5   1  752.61  302.48
   7   5   0 -494.80  561.57
   7  -5   0  617.63  418.00
   7  -5   0  410.77  520.36
   7   5   1 1263.34  617.89
   7  -5   1  673.44  454.87
   7  -5   1  113.09  470.06
   7   5   2   74.43  468.04
   7  -5   2 -176.30  320.45
   7  -5   2  292.52  338.97
   7  -5   3  740.74  489.42
   7  -5   3  786.18  451.92
   7   5   3 1514.96  665.38
   7   5   4 1040.70  426.75
   7  -5   4  112.33  372.65
   7   5   5 -101.10  494.13
   7  -5   5  229.39  274.61
   7   5   6 2014.31  592.60
   7  -5   6 1363.78  441.78
   7  -5   7  905.08  388.78
   7   5   7 1029.69  729.06
   7   5   8 5500.84 1594.65
   7  -5   8 8989.67  978.71
   7   5   9 1315.22  609.34
   7  -5   9  181.39  307.81
   7   5  10 2029.30  835.66
   7  -5  10 1233.68  419.19
   7   5  11  684.00  480.52
   7   5  12 1147.59  785.07
   7   5  13  413.37  500.02
   7   5  14 1522.55  993.28
   7   5  15 1178.10  939.04
   7   5  16 1380.78 1081.10
   7   5  17  455.28  951.18
   7   6 -21 1772.78 1121.50
   7  -6 -21 2060.68  727.73
  -7   6  21 1942.92 1512.74
  -7  -6  21 2197.86 1585.48
   7   6 -20  419.02  708.92
   7  -6 -20 -166.64  445.35
  -7  -6  20 1020.47  727.62
  -7   6  20  636.14  711.40
   7   6 -19 2289.18 1123.19
   7  -6 -19 2084.93  541.64
  -7  -6  19 2160.99 1445.62
  -7   6  19 1369.70 1410.80
   7   6 -18  602.53  599.46
   7  -6 -18  762.91  537.20
  -7  -6  18 2067.10 1028.33
  -7   6  18 -681.33 1053.43
   7   6 -17  707.54  797.58
   7  -6 -17  558.97  463.25
  -7   6  17 -177.05  936.76
  -7  -6  17  325.00  899.44
   7   6 -16  743.99  710.54
   7  -6 -16   76.40  477.89
  -7  -6  16   11.49  557.59
  -7   6  16  848.14  855.75
   7   6 -15  979.51  608.52
   7  -6 -15  222.80  493.77
  -7  -6  15   31.03  565.62
  -7   6  15  830.92  877.83
   7   6 -14 1640.88 1090.78
   7  -6 -14 1904.48  759.98
  -7  -6  14 1296.42  718.73
  -7   6  14 1767.68 1151.49
   7   6 -13  502.90  694.76
   7  -6 -13  206.80  485.74
  -7  -6  13  393.74  638.71
  -7   6  13   29.03  552.94
   7   6 -12 1699.78  696.61
   7  -6 -12 1009.07  649.17
  -7  -6  12 1090.20  842.20
  -7   6  12 1428.37 1016.22
   7   6 -11  979.62  816.41
   7  -6 -11  471.39  571.07
  -7   6  11  471.40  858.75
  -7  -6  11 1041.90  697.46
   7   6 -10 1367.48  790.61
   7  -6 -10  488.81  545.22
  -7  -6  10  541.80  650.01
  -7   6  10  528.71  809.83
   7   6  -917636.72 2368.90
   7  -6  -923067.32 2496.62
  -7  -6   923335.26 2550.47
  -7   6   919462.74 3025.81
   7   6  -8 -293.11  446.80
   7  -6  -8  470.81  464.99
  -7  -6   8  212.47  493.15
  -7   6   8  615.56  468.76
   7   6  -7 1970.67  760.70
   7  -6  -7 1830.08  820.91
  -7  -6   7 3750.60  769.17
  -7   6   7 1698.63 1009.07
   7   6  -623015.27 2615.22
   7  -6  -626234.07 2859.91
  -7  -6   624043.36 2536.29
  -7   6   621991.34 3178.79
   7   6  -5  114.87  383.92
   7  -6  -5   77.27  408.67
  -7  -6   5   68.20  356.01
  -7   6   5   66.72  515.05
   7   6  -4  820.67  489.86
   7  -6  -4  929.64  529.28
  -7  -6   4  892.10  361.18
  -7   6   4 -201.33  613.91
   7   6  -3 3323.02  917.88
  -7  -6   3 2391.72  479.66
  -7   6   3 2431.69  849.33
   7   6  -2 1486.54  715.77
   7  -6  -2  732.03  578.96
  -7   6   2 1371.97  658.58
   7   6  -1 8298.41 1550.57
   7  -6  -1 7276.09 1154.08
   7  -6  -111337.11 1642.82
   7   6   0 5558.47 1385.76
   7  -6   0 5585.49  989.63
   7  -6   0 8175.38 1172.09
   7   6   1 1428.18  502.41
   7  -6   1  208.62  538.96
   7   6   2 1999.08  547.83
   7  -6   2  380.69  528.60
   7   6   3 1862.87  926.19
   7  -6   3 2967.05  646.93
   7   6   4 1123.00  628.49
   7  -6   4  350.24  401.02
   7   6   5 1897.77  659.96
   7  -6   5  221.93  423.96
   7   6   6 1485.52  632.40
   7  -6   6  185.66  354.73
   7   6   7  144.73  543.69
   7  -6   7  105.66  291.41
   7   6   8 1150.04  828.45
   7  -6   8 1176.50  402.07
   7   6   9 1359.73  696.75
   7  -6   9  571.24  355.80
   7   6  10  653.35  743.11
   7  -6  10  805.77  374.47
   7   6  11  424.69  502.56
   7  -6  11  389.92  336.65
   7   6  12  654.62  725.74
   7   6  13  648.23  771.65
   7   6  14  194.08  515.79
   7   6  15 1242.36  735.76
   7   6  16 1301.13  826.78
   7  -7 -21  962.48  604.55
  -7  -7  21 1207.07 1321.01
   7   7 -20  854.55  759.73
   7  -7 -20  -36.18  444.93
  -7  -7  20  506.29  731.21
  -7   7  20  560.32  991.65
   7   7 -19 2414.58  938.00
   7  -7 -19  500.52  540.99
  -7  -7  19 2905.65 1243.77
  -7   7  19  429.94  886.03
   7   7 -18 -205.24  478.23
   7  -7 -18  148.64  315.74
  -7  -7  18  453.42  833.69
  -7   7  18  587.15  627.63
   7  -7 -17 6046.68 1051.31
   7   7 -17 4599.90 1245.95
  -7  -7  17 9254.15 1951.24
  -7   7  17 5499.99 2056.94
   7   7 -16 -130.41  818.23
   7  -7 -16  298.22  466.37
  -7  -7  16 1488.12  900.32
  -7   7  16 2206.50 1003.51
   7  -7 -15 2394.03  813.21
   7   7 -15 2950.27  991.91
  -7  -7  15 2452.86 1283.92
  -7   7  15 4100.86 1075.42
   7   7 -14 -105.90  645.49
   7  -7 -14  125.42  375.23
  -7  -7  14 -128.73  580.93
  -7   7  14  115.70  497.07
   7   7 -13 4287.00 1550.97
   7  -7 -13 8251.89 1114.26
  -7  -7  13 1430.94 1040.55
  -7   7  13 6054.55 1682.78
   7   7 -12  429.66  476.31
   7  -7 -12  312.60  436.57
  -7  -7  12 -343.65  548.35
  -7   7  12 -210.59  697.97
   7   7 -11 6655.39 1661.15
   7  -7 -11 5867.50 1119.47
  -7  -7  11 7787.40 1379.74
  -7   7  11 4875.54 1312.22
   7   7 -10 2014.36  987.04
   7  -7 -10 1652.08  678.90
  -7  -7  10 1296.44  790.41
  -7   7  10 1210.48  749.84
   7  -7  -9 1569.42  632.97
   7   7  -9 1406.36  707.84
  -7  -7   9 1278.75  733.90
  -7   7   9 1177.61  706.86
   7   7  -8   33.42  414.82
   7  -7  -8  129.70  404.05
  -7  -7   8  193.47  444.30
  -7   7   8  -33.56  576.38
   7  -7  -713203.01 1618.75
   7   7  -7 8579.43 1536.40
  -7  -7   713150.98 1615.64
  -7   7   712263.25 2071.44
   7   7  -6 3587.52 1164.47
   7  -7  -6 8181.81 1139.62
  -7  -7   6 9307.17 1033.80
  -7   7   6 6580.30 1632.01
   7   7  -5  794.52  632.67
   7  -7  -5 1554.41  642.70
  -7  -7   5 1882.16  565.17
  -7   7   5 2058.02  881.78
   7   7  -4  395.42  438.85
   7  -7  -4  -84.66  447.12
  -7  -7   4  677.26  357.75
  -7   7   4  254.61  580.01
   7   7  -3 1389.25  508.34
   7  -7  -3  600.44  454.91
  -7   7   3  849.70  662.08
   7   7  -2 1875.62  568.44
  -7   7   2  907.10  526.76
   7   7  -1  350.81  577.65
   7  -7  -1  188.57  579.39
   7   7   0 1452.33  895.37
   7  -7   0 2037.13  557.08
   7  -7   1  920.52  600.03
   7   7   1 1593.11  747.96
   7   7   2  680.83  636.14
   7  -7   2  566.91  478.30
   7   7   3  252.02  490.32
   7  -7   3 1261.74  483.64
   7   7   4 2875.07  765.45
   7  -7   4  554.41  501.53
   7   7   5 -142.04  340.51
   7  -7   5   84.41  308.92
   7   7   6 1622.41  890.26
   7  -7   6 2173.78  514.03
   7   7   7 2051.43  800.46
   7  -7   7  854.60  434.71
   7   7   8 1831.19  817.65
   7  -7   8  852.25  399.80
   7  -7   9   74.35  301.69
   7   7   9  372.08  552.86
   7   7  10  163.81  436.23
   7  -7  10  173.66  304.61
   7   7  11 2755.77 1328.27
   7  -7  11 4149.00  664.07
   7   7  12 -176.93  701.33
   7  -7  12  625.66  371.28
   7   7  13 2089.67 1084.37
   7   7  14    9.93  633.19
   7   7  15  689.05  993.71
   7   7  16  342.18  903.48
   7   8 -20 2076.01  846.22
   7  -8 -20 1811.26  696.74
  -7  -8  20 3496.52 1140.85
  -7   8  20  721.51 1095.45
   7   8 -19 1124.88  706.97
   7  -8 -19 -193.71  408.97
  -7  -8  19  639.08  931.49
  -7   8  19  346.82  926.68
   7   8 -18 1175.01  865.05
   7  -8 -18  336.33  331.17
  -7  -8  18 1324.91 1028.01
  -7   8  18 1021.75 1067.04
   7   8 -17  858.87  597.16
   7  -8 -17  320.00  489.74
  -7   8  17 1191.98  755.95
  -7  -8  17   33.97  700.13
   7   8 -16 1411.23  872.43
   7  -8 -16   86.84  454.86
  -7  -8  16  223.02  872.44
  -7   8  16  786.52  698.62
   7   8 -15 2128.70  814.49
   7  -8 -15 1532.51  582.34
  -7  -8  15 1440.98 1081.33
  -7   8  15  902.88 1233.35
   7   8 -14  289.65  626.45
   7  -8 -14  -70.73  265.69
  -7  -8  14  264.32  574.90
  -7   8  14   31.90  703.61
   7   8 -13 -130.96  514.40
   7  -8 -13  368.20  399.67
  -7  -8  13  404.98  619.87
  -7   8  13   -7.29  572.75
   7   8 -12  468.50  683.87
   7  -8 -12  193.19  386.33
  -7  -8  12  -47.90  576.08
  -7   8  12  199.67  752.79
   7   8 -11 2220.17 1113.61
   7  -8 -11 2223.87  722.76
  -7  -8  11 2277.81  901.39
  -7   8  11 1510.96 1174.33
   7   8 -10  825.93  578.73
   7  -8 -10  354.63  484.33
  -7  -8  10  432.62  512.92
  -7   8  10  484.85  802.82
   7   8  -9  427.09  586.32
   7  -8  -9  724.94  508.95
  -7   8   9 1023.86  782.13
  -7  -8   9  521.46  601.84
   7   8  -8 2318.95 1024.78
   7  -8  -8 2711.49  696.08
  -7  -8   8 1679.19  642.04
  -7   8   8 1816.56 1055.27
   7   8  -7 1297.43  805.93
   7  -8  -7 1194.78  533.06
  -7  -8   7  978.01  562.36
  -7   8   7  422.14  592.49
   7   8  -6 5706.90 1500.41
   7  -8  -6 6261.11  943.75
  -7  -8   6 7574.76  932.99
  -7   8   6 5691.96 1624.48
   7   8  -5 6239.35 1476.04
  -7   8   5 5437.32 1495.59
  -7  -8   5 9044.88 1075.27
   7   8  -4  633.71  607.67
  -7   8   4  131.16  593.87
   7   8  -3 1173.47  692.63
  -7   8   3  642.66  682.32
   7   8  -2  447.02  609.42
   7   8  -1 5441.21  850.48
   7  -8  -1 1568.80  883.93
   7   8   0 1909.19  626.84
   7  -8   0 1725.98  721.13
   7   8   1  694.57  754.49
   7  -8   1 1313.61  427.65
   7   8   2  225.57  729.13
   7  -8   2 1674.93  565.11
   7   8   3 2028.80  600.92
   7  -8   3  970.45  588.59
   7   8   4 4784.91 1101.81
   7  -8   4 3276.91  758.18
   7   8   5  243.39  382.54
   7  -8   5  -58.33  345.18
   7   8   6  622.21  877.56
   7  -8   6 2084.06  504.35
   7   8   7   40.17  551.43
   7  -8   7 -116.44  305.94
   7   8   8  235.61  607.38
   7  -8   8 -245.76  305.43
   7   8   9  847.73  493.35
   7  -8   9  196.18  364.12
   7   8  10  889.09  853.89
   7  -8  10 1115.47  438.91
   7   8  11 3728.22 1281.96
   7  -8  11 3087.23  638.30
   7   8  12  805.69  544.88
   7  -8  12  392.44  395.51
   7   8  13 1340.13  803.36
   7  -8  13  256.71  406.11
   7   8  14 -149.33  753.06
   7   8  15  543.23 1013.02
   7   8  16  478.34  990.46
   7   9 -20 1096.36  688.72
   7  -9 -20  830.49  491.40
  -7  -9  20  382.72  917.13
  -7   9  20 1393.10 1261.13
   7   9 -19  593.56  626.64
   7  -9 -19  845.37  503.67
  -7  -9  19 1675.31 1158.87
  -7   9  19  -24.89  844.64
   7   9 -18 1321.56 1151.13
   7  -9 -18 1966.60  622.14
  -7  -9  18 1449.63 1374.92
  -7   9  18 2384.93 1428.48
   7   9 -17 1152.26  700.86
   7  -9 -17 1235.04  487.50
  -7  -9  17   61.64  827.31
  -7   9  17 1408.42 1200.77
   7   9 -16  572.50  948.59
   7  -9 -16  663.93  497.98
  -7  -9  16  732.66  954.73
  -7   9  16  746.81 1054.80
   7   9 -15 2252.29 1043.02
   7  -9 -15 1168.21  397.27
  -7  -9  15 1162.64  985.82
  -7   9  15  241.00  844.54
   7   9 -1411562.45 2452.77
   7  -9 -1412988.52 1469.03
  -7  -9  1412787.78 2363.13
  -7   9  1412843.59 2144.08
   7   9 -13  195.91  526.22
   7  -9 -13  268.81  399.29
  -7  -9  13   30.37  612.53
  -7   9  13    9.82  808.23
   7   9 -1218050.29 3015.81
   7  -9 -1214933.36 1704.99
  -7  -9  1216434.22 2347.86
  -7   9  1216932.01 2477.63
   7   9 -11  748.58  622.94
   7  -9 -11  781.11  469.26
  -7  -9  11  615.56  699.65
  -7   9  11 1006.26  684.32
   7   9 -10   78.09  458.63
   7  -9 -10  106.48  386.94
  -7  -9  10  -57.21  481.62
  -7   9  10  333.66  679.42
   7   9  -9  917.89  908.79
   7  -9  -9  823.84  540.16
  -7  -9   9  641.65  574.63
  -7   9   9 3066.46  923.22
   7   9  -8   69.25  545.46
  -7  -9   8   13.98  402.40
  -7   9   8 -120.63  416.95
   7   9  -7 2159.99  873.94
  -7  -9   7  857.95  516.35
  -7   9   7 1701.61  922.94
   7   9  -615495.05 2481.86
  -7   9   615934.06 2100.48
   7   9  -5  256.09  450.16
  -7   9   5  513.91  631.13
   7   9  -4  585.56  478.81
  -7   9   4  330.04  652.91
   7   9  -3  851.26  543.30
  -7   9   3 1477.00  729.80
   7   9  -2 3246.82  839.15
   7  -9  -2  600.31  663.30
   7   9  -1 2105.22  910.57
   7  -9  -1 1850.85  973.70
   7  -9   0 1848.61  651.09
   7   9   0  -13.49  717.63
   7   9   1  753.77  543.45
   7  -9   1 1194.04  577.75
   7   9   2 2122.86  881.42
   7  -9   2 2035.97  520.74
   7  -9   3 4363.35  933.05
   7   9   4 6023.43  934.70
   7  -9   4  638.46  500.95
   7   9   5 3135.09  811.25
   7  -9   5 3074.96  748.75
   7   9   6 1660.93  510.92
   7  -9   6  213.68  293.31
   7   9   7 1322.89  616.80
   7  -9   7  983.24  472.35
   7   9   8  875.86  596.48
   7  -9   8  718.31  434.20
   7  -9   9  565.99  420.89
   7   9   9  996.70  554.53
   7   9  10  844.81  789.65
   7  -9  10  570.52  401.58
   7   9  11 -506.24  517.94
   7  -9  11  550.36  349.43
   7   9  12 2035.44  931.79
   7  -9  12  911.94  491.66
   7  -9  13  551.02  373.13
   7   9  13 3846.31 1004.67
   7   9  14 -323.15  538.17
   7  -9  14  110.13  248.58
   7   9  15  524.59  752.83
   7   9  16 2315.89 1167.28
   7 -10 -20  894.89  497.57
  -7 -10  20  679.38  927.84
   7  10 -19  556.22  638.52
   7 -10 -19  683.07  440.12
  -7 -10  19 1401.68 1176.89
  -7  10  19  803.80 1214.47
   7  10 -18 2435.17  837.10
   7 -10 -18 1244.57  539.84
  -7 -10  18 3368.43 1377.25
  -7  10  18 1092.77 1028.93
   7  10 -17 1320.77  884.68
   7 -10 -17  895.52  468.62
  -7 -10  17  367.26  765.96
  -7  10  17  230.97  821.83
   7  10 -16 4402.79 1234.76
   7 -10 -16 5354.43  803.08
  -7  10  16 3009.69 1396.32
  -7 -10  16 3555.28 1713.21
   7  10 -15 1386.52  894.65
   7 -10 -15  565.70  392.18
  -7 -10  15  237.45  881.36
  -7  10  15  208.43 1029.70
   7  10 -14  184.39  656.28
   7 -10 -14  930.75  469.09
  -7  10  14  266.05 1058.56
  -7 -10  14 1454.59  865.67
   7  10 -13 -465.09  746.39
  -7 -10  13   71.91  664.71
  -7  10  13 -544.29  618.94
   7  10 -12  433.94  543.73
  -7  10  12   80.58  803.25
  -7 -10  12  129.98  594.41
   7  10 -11  586.14  531.15
  -7 -10  11  -46.14  565.62
  -7  10  11  347.64  821.17
   7  10 -10  414.03  834.64
  -7 -10  10  605.79  626.84
  -7  10  10  900.18  624.55
   7  10  -9   29.46  751.05
  -7 -10   9  252.63  574.13
  -7  10   9 1361.70  607.13
   7  10  -8 9292.25 1466.55
  -7 -10   8 9442.78 1394.26
  -7  10   8 6941.33 1980.38
   7  10  -7 1841.79  705.86
  -7  10   7 1390.07 1003.98
   7  10  -6  572.91  694.19
  -7  10   6  513.26  514.11
   7  10  -5 2401.22  931.08
  -7  10   5 1824.17  976.93
   7  10  -4 1049.18  824.06
  -7  10   4 1514.68  808.80
   7  10  -3 7236.49 1569.03
  -7  10   3 7799.97 1541.21
   7  10  -2 1363.85  573.08
   7 -10  -2  576.12  884.60
   7  10  -1  -95.87  511.09
   7 -10  -1   22.96  535.85
   7  10   0 6580.92 1312.63
   7 -10   0 4826.50 1173.35
   7  10   1  452.24  402.70
   7 -10   1  -48.53  322.30
   7  10   2 6487.85 1448.39
   7 -10   2 6879.38 1202.05
   7 -10   311960.19 1575.63
   7  10   4 2923.82  828.82
   7 -10   4  813.12  434.36
   7  10   5 1493.53  685.43
   7 -10   5   19.89  460.00
   7  10   6 2780.53  826.00
   7 -10   6 2814.09  645.20
   7  10   7  449.82  507.29
   7 -10   7  348.02  402.02
   7  10   8 1090.09  684.67
   7 -10   8 1360.81  516.63
   7  10   9  792.42  833.60
   7 -10   9 1056.55  457.34
   7  10  10 1153.90 1033.90
   7 -10  10 1736.39  396.13
   7  10  11  846.89  909.11
   7 -10  11  696.67  440.84
   7  10  12 1315.06  607.59
   7 -10  12  157.91  426.98
   7 -10  13  107.79  382.44
   7  10  13  667.37  803.66
   7  10  14 -165.88  759.01
   7 -10  14   84.76  349.06
   7  10  15 1019.17 1236.59
   7  11 -19  408.90  881.02
  -7 -11  19 1541.17 1117.54
  -7  11  19  -20.59  821.69
   7  11 -18 -268.42  557.57
  -7 -11  18 -360.91  948.71
  -7  11  18  -25.36  991.53
   7  11 -17  255.73  703.30
  -7 -11  17 1146.58  749.75
  -7  11  17  300.10 1096.42
   7  11 -16  442.79  953.77
  -7 -11  16 1109.40  962.51
  -7  11  16  259.10 1103.71
   7  11 -15  314.97  718.54
  -7 -11  15 2019.81 1009.76
  -7  11  15 1116.39 1195.53
   7  11 -14 -544.50  813.05
  -7 -11  14 -123.74  788.72
  -7  11  14 -628.29  680.60
   7  11 -13 3370.73 1006.70
  -7 -11  13 2483.01 1203.52
  -7  11  13 3790.37 1502.41
   7  11 -12  582.35  830.13
  -7 -11  12  482.04  675.17
  -7  11  12  470.79  700.46
   7  11 -11 1429.38 1127.50
  -7 -11  11 1290.99  863.57
  -7  11  11 4025.23 1213.95
   7  11 -10   53.80  492.30
  -7 -11  10  404.32  496.87
  -7  11  10  -83.60  729.83
   7  11  -9 2645.50  995.62
  -7 -11   9 3922.28  984.96
  -7  11   9 5850.72 1437.49
   7  11  -8  -30.23  557.81
  -7  11   8  -41.12  610.84
   7  11  -7  363.52  652.95
  -7  11   7  292.93  532.91
   7  11  -6  -24.29  397.99
  -7  11   6  262.63  578.00
   7  11  -513973.50 1780.22
  -7  11   513110.36 1758.73
   7  11  -4 2264.42  997.68
  -7  11   4 2780.63 1022.95
   7  11  -3 5555.59 1360.88
   7  11  -212774.50 2225.47
   7 -11  -216195.08 2536.25
   7  11  -1   45.33  435.29
   7 -11  -1  465.22  541.02
   7  11   0 2316.79  814.12
   7 -11   0  600.68  756.74
   7 -11   1 1534.09  709.18
   7 -11   2 3796.83  881.19
   7  11   2 2021.01 1040.42
   7  11   3  522.59  433.55
   7 -11   3  -20.66  326.74
   7  11   4  561.56  607.93
   7 -11   4  103.44  436.60
   7  11   5 1808.27  753.99
   7 -11   5  166.82  533.52
   7  11   6 -617.34  532.94
   7 -11   6  227.31  308.52
   7  11   7  859.56  956.81
   7 -11   7 1765.98  428.72
   7  11   8  893.85  619.59
   7 -11   8 -194.20  338.46
   7  11   9 1804.55  967.42
   7 -11   9 1460.95  553.44
   7 -11  10  378.48  449.03
   7  11  10 1622.00  649.69
   7  11  11 2065.40 1092.45
   7 -11  11 1058.09  518.15
   7  11  12 2073.67 1130.86
   7 -11  12  724.24  492.83
   7  11  13 2902.01  946.94
   7 -11  13 1437.81  619.09
   7  11  14   48.58  784.04
   7 -11  14 1002.21  499.98
   7  11  15 3281.95 1138.28
   7 -11  15 1689.92  701.40
   7  12 -19 1320.70  873.37
  -7 -12  19 2925.31 1499.54
  -7  12  19 1161.31 1533.61
   7  12 -18 2129.97  962.65
  -7 -12  18  135.28 1181.67
  -7  12  18   26.43  921.25
   7  12 -17 1836.42  717.42
  -7 -12  17 -188.88  779.41
  -7  12  17 -139.70  835.11
   7  12 -16  750.94 1024.78
  -7 -12  16 1215.67 1086.85
  -7  12  16  882.14  849.42
   7  12 -15 1968.15 1101.79
  -7 -12  15 1442.49 1133.94
  -7  12  15  838.01 1275.22
   7  12 -14  789.11 1006.19
  -7 -12  14  105.34  988.45
  -7  12  14 3275.74 1196.73
   7  12 -13 1384.75  922.37
  -7 -12  13  541.48  828.02
  -7  12  13  668.95  773.71
   7  12 -12  625.04  736.40
  -7 -12  12  -49.94  603.00
  -7  12  12  276.82  810.04
   7  12 -11  162.04  591.40
  -7 -12  11  591.76  612.05
  -7  12  11  719.56  637.68
   7  12 -10 3124.74 1495.94
  -7  12  10 5535.15 1208.73
   7  12  -9  975.02  818.56
  -7  12   9  510.47  659.07
   7  12  -8 1775.46  694.60
  -7  12   8  520.45  749.23
   7  12  -7 2611.14  804.02
  -7  12   7 2308.91 1178.15
   7  12  -6  -49.82  627.38
  -7  12   6  589.86  676.51
   7  12  -5 2251.40  821.19
  -7  12   5  731.02  647.08
   7  12  -4  724.10  531.38
  -7  12   4 1628.16  802.27
   7  12  -3 1683.79  649.52
   7 -12  -3 1741.58  817.55
   7  12  -2 1737.38  870.38
   7 -12  -2 1365.80 1048.84
   7  12  -1 4302.42 1053.50
   7 -12  -1 7302.80 1335.31
   7  12   0 1373.55  657.69
   7 -12   0 -266.62  617.54
   7 -12   1 1125.49  676.40
   7  12   2  457.25  659.81
   7 -12   2  594.65  554.61
   7 -12   3  355.33  541.16
   7  12   3  534.04  496.28
   7  12   4 1286.31  740.55
   7 -12   4  457.32  560.63
   7  12   5  835.80  714.92
   7 -12   5  358.95  506.31
   7  12   6  701.61  746.17
   7 -12   6  451.78  452.08
   7 -12   7 1036.41  406.95
   7  12   7 1955.72  923.71
   7  12   8  716.16  624.72
   7 -12   8  676.40  475.83
   7  12   9 2403.06  803.61
   7 -12   9  992.52  550.67
   7  12  10  458.13  817.91
   7 -12  10  428.85  420.20
   7  12  11 1305.14  924.67
   7 -12  11 1921.14  594.09
   7  12  12  216.30 1010.47
   7 -12  12  536.77  442.89
   7  12  13  549.10  963.23
   7 -12  13  463.90  340.13
   7  12  14 2147.32 1184.24
   7 -12  14  815.90  402.67
   7 -12  15  867.44  584.57
   7  12  15 1225.28 1244.27
  -7 -13  19 1702.27 1522.74
   7  13 -18  876.97  823.61
  -7 -13  18 4270.48 1432.76
  -7  13  18  697.65 1489.19
   7  13 -17 -446.37  752.51
  -7 -13  17  834.71  839.35
  -7  13  17 -566.83  873.43
   7  13 -16 2268.86 1167.40
  -7 -13  16  830.30 1250.00
  -7  13  16  941.28 1348.37
   7  13 -15  859.25  995.03
  -7 -13  15  -64.64 1037.93
  -7  13  15 2297.51 1180.60
   7  13 -14  447.50  860.52
  -7 -13  14 1016.58  850.93
  -7  13  14  224.16  740.06
   7  13 -13 1406.57  921.98
  -7 -13  13   92.05  834.48
  -7  13  13 1007.77 1053.70
   7  13 -12 1654.08  819.47
  -7  13  12 2122.94  946.14
   7  13 -11 1809.88 1010.97
  -7  13  11  690.82 1118.61
   7  13 -10  817.23  687.20
  -7  13  10 1574.01 1062.04
   7  13  -9  -91.23  632.96
  -7  13   9  346.82  718.21
   7  13  -8 1105.07  862.08
  -7  13   8  724.40  970.16
   7  13  -7  774.91  591.14
  -7  13   7 1082.18  878.89
   7  13  -6  132.83  456.06
  -7  13   6  326.70  478.77
   7  13  -5 -447.87  545.57
  -7  13   5  777.03  598.46
   7  13  -4 7897.20 1623.14
  -7  13   4 7932.64 1821.49
   7  13  -3  885.73  502.22
   7 -13  -3  -97.17  907.01
   7 -13  -2  368.64  514.03
   7  13  -2  -90.21  562.98
   7  13  -1  158.20  506.66
   7 -13  -1  938.90  498.32
   7  13   0 1783.48  809.98
   7 -13   0 1073.53  591.36
   7  13   1  619.33  509.27
   7 -13   1  584.71  620.52
   7  13   2  685.05  666.69
   7 -13   2  449.71  571.96
   7  13   3  -15.65  405.90
   7 -13   3  231.38  454.65
   7  13   4  668.17  471.47
   7 -13   4  103.20  501.53
   7  13   5   26.20  439.72
   7 -13   5  187.10  322.76
   7 -13   6  928.37  470.07
   7  13   6 3084.17  753.42
   7  13   7  799.76  548.09
   7 -13   7  223.86  320.42
   7  13   8 2122.61 1071.35
   7 -13   8 1406.50  449.29
   7  13   9  714.20  945.67
   7 -13   9  685.57  350.43
   7 -13  10 2185.82  475.18
   7  13  10 1621.50  922.34
   7  13  11 1628.80  860.15
   7 -13  11   56.95  290.29
   7  13  12 1839.70 1100.54
   7 -13  12  389.81  484.19
   7  13  13  677.27  859.73
   7 -13  13  576.76  501.18
   7  13  14 2160.52 1026.60
   7 -13  14 1366.18  661.21
   7  14 -18 1503.10 1166.83
  -7 -14  18 1864.83 1055.90
  -7  14  18 1338.37 1104.30
   7  14 -17 1380.08  899.17
  -7 -14  17 1941.63 1347.23
  -7  14  17 1205.35 1036.93
   7  14 -16 -205.50  629.33
  -7 -14  16 1754.78  924.39
  -7  14  16  -15.66  746.59
   7  14 -15 1668.28 1142.94
  -7 -14  15  540.49 1210.27
  -7  14  15 2209.00 1025.68
   7  14 -14  135.01  519.29
  -7  14  14   62.27  834.78
   7  14 -13  -55.23  750.72
  -7  14  13  379.67  630.51
   7  14 -12  677.81  863.63
  -7  14  12  564.96 1004.54
   7  14 -11   42.73  435.59
  -7  14  11  -45.00  490.55
   7  14 -10 1199.33 1029.44
  -7  14  10 1699.99  854.21
   7  14  -9  756.70  602.44
  -7  14   9  390.60  938.98
   7  14  -8  486.98  853.07
  -7  14   8 1430.49  950.85
   7  14  -7  149.01  669.33
  -7  14   7  495.29  731.88
   7  14  -6  557.25  500.60
  -7  14   6  314.66  551.92
   7  14  -5  200.39  648.87
  -7  14   5  727.26  737.15
   7  14  -4    0.41  537.66
   7 -14  -4  192.62  321.88
   7  14  -3  258.00  422.26
   7 -14  -3  201.61  793.37
   7  14  -2 3939.36 1251.60
   7 -14  -2 4304.59  992.25
   7  14  -1  347.66  416.31
   7 -14  -1  -72.61  429.11
   7  14   0  265.05  641.19
   7 -14   0  739.97  634.37
   7 -14   1 1979.27  814.00
   7  14   1 1277.01  636.08
   7 -14   2   25.89  446.98
   7 -14   3  -61.36  456.21
   7 -14   4 2053.55  808.84
   7  14   5 1218.90  651.72
   7 -14   5 1207.63  437.38
   7  14   6  296.96  772.06
   7 -14   6  583.60  351.11
   7  14   7 1103.38  801.27
   7 -14   7  377.33  348.80
   7 -14   8 1359.15  461.56
   7  14   8 1205.29 1070.74
   7  14   9  414.05  626.25
   7 -14   9  288.39  320.64
   7  14  10 2958.12 1251.10
   7 -14  10 1658.31  659.01
   7  14  11  135.41  533.37
   7 -14  11  -33.54  346.57
   7 -14  12 6304.11  972.38
   7  14  12 1776.46 1446.71
   7  14  13  828.84 1078.49
   7 -14  13    5.75  853.77
   7  14  14 1106.10 1004.98
   7 -14  14  212.39  354.61
   7  15 -17  760.83  785.95
  -7 -15  17  477.12 1169.59
  -7  15  17 1065.88 1258.47
   7  15 -16 1647.69 1259.13
  -7  15  16 1681.17 1479.50
   7  15 -15-1065.48  597.87
  -7  15  15 1877.90  984.19
   7  15 -14  811.60  814.37
  -7  15  14  -91.16  702.57
   7  15 -13  486.30  723.87
  -7  15  13 2222.09 1176.96
   7  15 -12 2147.77 1172.26
  -7  15  12 1911.19 1026.23
   7  15 -11  188.53  644.65
  -7  15  11 1828.69 1020.30
   7  15 -10 2574.88 1085.96
  -7  15  10  943.23  874.69
   7  15  -9 1716.58 1057.17
   7  15  -8 1245.25  644.93
  -7  15   8  970.00  730.29
   7  15  -7 -214.27  632.88
  -7  15   7  431.48  514.87
   7  15  -6 -243.80  566.82
  -7  15   6  110.25  632.16
   7  15  -5  599.30  534.07
  -7  15   5 1393.50  881.53
   7  15  -4 1778.40  830.34
   7 -15  -4 1292.91  855.11
   7  15  -3  338.06  453.97
   7 -15  -3  531.55  851.82
   7  15  -2  384.23  528.53
   7 -15  -2 -336.48  419.55
   7  15  -1  349.17  511.82
   7 -15  -1 1194.20  757.52
   7  15   0 1005.78  754.67
   7 -15   0 1036.32  754.90
   7  15   1 -294.31  414.42
   7 -15   1  553.10  395.42
   7 -15   2  104.43  340.95
   7  15   2  -29.96  369.44
   7 -15   3 1525.80  799.19
   7 -15   4  -59.16  437.60
   7  15   5 2398.02  814.25
   7 -15   5   90.48  539.52
   7  15   6  709.98  713.84
   7 -15   6   88.66  452.77
   7  15   7  572.97  573.09
   7 -15   7  270.55  474.64
   7  15   8 2909.52  864.55
   7 -15   8 1337.29  497.43
   7  15   9 1845.28 1186.51
   7 -15   9 1217.04  445.55
   7  15  10  657.98  904.07
   7 -15  10 1439.90  605.02
   7  15  11 -160.54  768.90
   7 -15  11   -7.71  371.72
   7  15  12 1745.84 1324.20
   7 -15  12  989.78  593.18
   7  15  13 2235.80 1362.18
   7 -15  13  800.31  432.56
   7  16 -16  124.47  649.76
   7  16 -16  222.25  665.35
  -7  16  16  668.42  758.05
   7  16 -15  852.91 1118.73
  -7  16  15 1356.31  958.52
   7  16 -14 1424.02  852.33
  -7  16  14 2128.14 1403.62
   7  16 -13 1333.87  997.99
  -7  16  13  269.87 1165.91
   7  16 -12   32.55  563.84
  -7  16  12  767.24  900.77
   7  16 -11  -24.69  999.14
  -7  16  11 1758.03  844.87
   7  16 -10  976.28  732.12
  -7  16  10 1364.96 1125.89
   7  16  -9 3263.51 1218.98
  -7  16   9 1957.70 1326.30
   7  16  -8  468.21  650.39
  -7  16   8 2309.11  992.01
   7  16  -7 2353.53  957.72
  -7  16   7  646.97 1065.06
   7  16  -6 -326.43  581.57
  -7  16   6  126.54  673.57
   7  16  -5  214.92  455.31
   7  16  -4  839.76  633.06
   7 -16  -4  -52.68  669.72
   7  16  -3 8994.88 1314.88
   7 -16  -3 9406.21 2415.66
   7  16  -2  313.53  584.28
   7 -16  -2  125.37  480.53
   7  16  -1 -287.15  407.48
   7 -16  -1  342.07  616.53
   7 -16   0 1567.35  657.13
   7 -16   1 1216.08  601.10
   7  16   2  570.79  475.47
   7 -16   2   25.26  593.02
   7  16   3  865.60  559.85
   7 -16   3  812.00  661.38
   7  16   4 -167.02  398.34
   7 -16   4  197.31  332.09
   7  16   5 1389.52  628.54
   7 -16   5  676.09  589.36
   7  16   6 -366.47  455.63
   7 -16   6  454.74  411.36
   7 -16   7  923.48  593.20
   7  16   7 1327.74  981.99
   7  16   8 1505.99  918.71
   7 -16   8  209.93  519.53
   7  16   9 1807.78  942.78
   7 -16   9 1696.12  507.75
   7  16  10 2155.03 1154.03
   7 -16  10  506.68  560.75
   7 -16  11 1130.74  614.45
   7  16  11 1984.25 1286.66
   7  16  12 1342.28  832.16
   7 -16  12  347.71  381.25
   7  17 -16  274.28 1021.59
  -7  17  16 1019.67 1186.92
   7  17 -15  245.33 1160.69
  -7  17  15 2748.34 1382.70
   7  17 -14  435.52  699.69
  -7  17  14  661.23  813.97
   7  17 -13 1278.71 1251.44
  -7  17  13 2653.78 1443.66
   7  17 -12 1424.67  828.17
  -7  17  12 1107.72 1277.06
   7  17 -11 2366.93 1348.56
  -7  17  11 3038.20 1534.25
   7  17 -10 1722.68  839.87
  -7  17  10 1982.25  916.31
   7  17  -9 2985.97 1377.82
  -7  17   9 4216.80 1528.61
   7  17  -8  666.35  931.32
  -7  17   8 1765.63 1047.58
   7  17  -7 1258.55  684.52
  -7  17   7 1163.94 1014.64
   7  17  -6 2046.36  886.53
  -7  17   6  342.17 1013.20
   7  17  -5  577.93  525.96
   7 -17  -5  370.83  693.37
   7  17  -4 1437.01  676.48
   7 -17  -4 -350.09  715.84
   7  17  -3 1531.18  649.31
   7 -17  -3 2576.52 1047.92
   7 -17  -2  496.47  576.67
   7 -17  -1 2021.23 1024.96
   7  17   0  372.54  460.61
   7 -17   0  424.94  502.66
   7 -17   1  423.72  655.24
   7 -17   2   43.54  375.77
   7 -17   3 1468.97  766.46
   7 -17   4 1233.24  726.82
   7  17   5 1842.15  974.01
   7 -17   5 2020.10  541.87
   7  17   6 2180.31  662.18
   7 -17   6 -348.33  325.13
   7  17   7 1465.85  711.77
   7 -17   7  461.17  601.82
   7 -17   8  984.67  636.58
   7  17   8 1232.93  767.99
   7  17   9 1305.64  982.14
   7 -17   9  413.93  387.89
   7  17  10 1125.58  758.33
   7 -17  10  127.42  521.93
   7  17  11 1879.10  994.93
   7 -17  11 1384.13  672.96
   7 -17  12  434.58  382.77
   7  18 -15  928.30  897.50
  -7  18  15 1895.76 1041.79
   7  18 -14 1510.27 1305.08
  -7  18  14 2222.21 1474.48
   7  18 -13 1116.66  851.31
  -7  18  13 -853.87  955.72
   7  18 -12 2875.83 1302.40
  -7  18  12 1287.63 1054.50
   7  18 -11 2742.23 1415.93
  -7  18  11 2787.57 1495.70
   7  18 -10  565.11  824.46
  -7  18  10  139.41  897.79
   7  18  -9  511.31  809.73
  -7  18   9  323.79  640.76
   7  18  -8  917.42  843.08
  -7  18   8  462.64  675.22
   7  18  -7  208.52  619.36
  -7  18   7 1370.27  686.11
   7  18  -6  451.49  684.87
   7 -18  -6  185.26  378.90
   7  18  -5 1539.89  713.82
   7 -18  -5 1812.50  940.22
   7 -18  -4  637.78  995.86
   7  18  -2 1889.12  665.53
   7 -18  -2  940.48  763.30
   7 -18   1   33.01  801.17
   7  18   1 1422.34  579.85
   7  18   2 5497.72 1077.81
   7 -18   2 5829.99 1438.96
   7 -18   3  425.92  608.32
   7 -18   4 5003.98  917.39
   7  18   5  187.09  449.71
   7 -18   5  289.96  481.56
   7  18   6 -226.95  523.45
   7 -18   6  853.66  511.40
   7  18   7    2.93  812.58
   7 -18   7  512.34  391.43
   7  18   8 2081.75 1122.28
   7 -18   8 1108.40  692.20
   7  18   9 1271.85 1018.69
   7 -18   9  540.86  408.44
   7  18  10 -170.30  721.46
   7 -18  10  555.70  502.22
   7 -18  11  225.62  478.19
   7  19 -14 3836.72 1595.82
  -7  19  14 2360.99 1337.52
   7  19 -13 -262.67  678.86
  -7  19  13 1238.30  777.45
   7  19 -12 2630.92 1635.00
  -7  19  12 4310.36 1709.02
   7  19 -11  820.88  657.30
  -7  19  11 -182.47  678.58
   7  19 -10 1423.56 1086.89
  -7  19  10  946.11 1151.72
   7  19  -9 1009.94 1158.59
  -7  19   9 2255.94 1206.76
  -7  19   8 2139.51  937.47
  -7  19   7 1077.95  751.20
   7 -19  -6 1513.84  926.03
   7 -19  -5 1867.49  961.75
   7  19  -4 1178.08  739.32
   7 -19  -4 2910.54 1101.80
   7  19  -3  818.11  866.33
   7 -19  -3 1293.63  949.85
   7  19  -2 2284.83  783.69
   7 -19  -2 2457.41  906.04
   7  19  -1  -10.70  539.83
   7 -19  -1 1184.71  583.96
   7  19   0  200.46  719.94
   7 -19   0-1268.53  787.58
   7 -19   1 1488.13  697.11
   7 -19   2 1767.01  985.15
   7 -19   3  296.23  437.02
   7 -19   4  820.82  714.38
   7  19   5  473.61  787.95
   7 -19   5  823.74  438.98
   7  19   6 2410.79 1033.64
   7 -19   6 1410.92  763.41
   7  19   7  432.63  601.24
   7 -19   7  488.71  559.75
   7  19   8 1560.69  915.46
   7 -19   8   93.48  573.82
   7  19   9  212.38  674.82
   7 -19   9  443.88  519.01
   7 -19  10 1469.21  535.17
   7  20 -13 1332.33  922.97
  -7  20  13 1532.79 1341.77
   7  20 -12 1464.16 1171.10
  -7  20  12  738.19  875.36
   7  20 -11  798.48  742.38
  -7  20  11  121.79 1021.88
   7  20 -10-1135.67  763.33
  -7  20  10  816.55  581.11
   7  20  -9  841.64 1112.96
  -7  20   9 1680.72 1159.33
  -7  20   8 1943.51 1251.61
   7 -20  -7 -463.85  722.37
   7  20  -6 1884.28  780.39
   7 -20  -6  462.70 1259.24
   7  20  -5 1750.15 1157.58
   7 -20  -5 2475.86 1381.42
   7  20  -4  549.86  617.54
   7 -20  -2 2518.39 1181.78
   7 -20  -1 1337.02  732.35
   7  20  -1 1248.79  703.55
   7  20   0 1101.95  696.51
   7 -20   0 1456.06  988.84
   7  20   1 1426.81 1065.47
   7 -20   1 2926.19 1123.26
   7 -20   2  371.71  494.63
   7  20   3 1422.15 1149.48
   7 -20   3 3619.82 1055.94
   7  20   4 1533.09  675.57
   7 -20   4  893.79  506.60
   7 -20   5 2254.51  852.75
   7  20   6 1478.91  704.59
   7 -20   6  -85.43  383.11
   7  20   7 2084.01 1131.98
   7 -20   7 1602.61  783.65
   7  20   8  671.49  712.62
   7 -20   8  616.78  425.48
   7 -20   9  892.98  639.44
   7  21 -12 2748.79 1496.20
  -7  21  12 1760.28 1556.87
   7  21 -11 2424.89 1497.02
  -7  21  11 2192.67 1095.44
   7  21 -10 -293.50  877.44
  -7  21  10  848.32  906.63
   7  21  -9 2917.57 1246.52
  -7  21   9  862.41  913.34
   7  21  -8 1151.88  800.33
   7  21  -7 2432.36 1358.89
   7  21  -6  148.29  717.90
   7 -21  -6 2194.33 1089.00
   7 -21  -5 1082.63  970.54
   7 -21  -4  661.93  872.67
   7  21  -3 1454.42  843.14
   7 -21  -3 2427.99 1138.25
   7  21  -2  -39.47  660.59
   7 -21  -1  364.88  573.46
   7 -21   0 1708.18 1124.05
   7  21   1  521.36  949.56
   7 -21   1 1007.59  922.19
   7 -21   2  717.72  575.16
   7 -21   3 1118.09  848.71
   7 -21   4  740.58  657.88
   7  21   5  430.73 1012.21
   7 -21   5 1301.55  522.71
   7  21   6 1210.45  655.16
   7 -21   6   80.46  621.57
   7  21   7 1666.28 1131.51
   7 -21   7 1368.72  567.53
   7 -21   8  811.80  630.76
   7  22 -11 1624.71 1405.31
   7  22 -10 -140.56  746.81
  -7  22  10 1689.48 1019.29
   7  22  -9 1143.82 1208.57
   7  22  -8  640.63  714.20
   7 -22  -8  194.16  727.02
   7 -22  -7 1052.88  861.77
   7 -22  -6 1043.59 1166.77
   7  22  -5 1075.42  754.47
   7 -22  -5  449.50  919.55
   7  22  -4  945.55 1059.04
   7  22  -2 2438.47 1034.04
   7  22  -1 1053.69  599.82
   7 -22  -1 -556.46  517.02
   7  22   0 3404.23 1139.27
   7 -22   0 2121.48  984.03
   7 -22   1 1732.66 1219.35
   7 -22   2 1025.18  912.11
   7  22   3 2621.74 1017.19
   7 -22   3 1467.55  749.19
   7  22   4  925.86  751.66
   7 -22   4  364.24  644.02
   7  22   5 2094.66  971.90
   7 -22   5 1261.81  810.48
   7  22   6 1036.50 1166.62
   7 -22   6  819.16  497.49
   7 -22   7  888.91  699.49
   7  23  -9 2399.28 1539.20
   7  23  -8  300.45 1299.58
   7 -23  -8 2231.16 1264.19
   7  23  -7  705.35  821.14
   7 -23  -7  918.08  823.45
   7  23  -6 1985.84 1147.29
   7 -23  -6  409.43  672.65
   7 -23  -5  447.11  608.71
   7  23  -4 1686.79 1062.41
   7 -23  -4 2942.52 1223.40
   7 -23  -1  589.13  634.99
   7 -23   0  734.55  714.66
   7 -23   1  142.75  562.77
   7 -23   2 1141.44 1012.26
   7 -23   3 -487.76  772.47
   7  23   4  226.93  996.18
   7 -23   4  259.58  421.85
   7 -23   5  983.73  712.78
   7  24  -6 1734.21 1046.31
   7 -24  -5 2135.78  888.97
   7 -24  -4  494.73  577.08
   7  24  -3  768.70  965.93
   7 -24  -3 1776.61  986.33
   7  24  -2 1962.21 1039.69
   7 -24  -2  901.65 1055.36
   7  24  -1  314.29  953.56
   7 -24  -1 1173.00  707.13
   7  24   0 1598.12 1153.21
   7 -24   0 1728.86  913.34
   7  24   1 2116.03 1176.86
   7 -24   1 1185.51  917.39
   7 -24   2  281.59  624.37
   8   0 -19  693.27  955.30
  -8   0  19 2002.25 1298.89
   8   0 -18 4214.32 1241.34
  -8   0  18 1621.17 1179.60
   8   0 -17  702.79  746.02
  -8   0  17  -15.07  679.89
   8   0 -16 3830.89 1387.16
  -8   0  16 4331.51 1277.74
   8   0 -15  702.83  792.45
   8   0 -14 2454.01 1168.43
  -8   0  14 2552.43 1354.75
   8   0 -13  848.74  962.36
  -8   0  13 2612.04 1135.33
   8   0 -12 2590.73 1273.72
  -8   0  12 2918.77 1315.80
   8   0 -11  284.27  492.49
  -8   0  11 -114.82  700.58
   8   0 -1016161.57 2845.84
  -8   0  1019463.74 2975.27
   8   0  -9 -480.39  693.99
  -8   0   9 1083.46  689.10
   8   0  -8 1000.05  858.48
  -8   0   8  891.61  803.28
   8   0  -7 1674.70  942.41
  -8   0   7 1277.76  818.42
   8   0  -6 3148.86 1223.77
  -8   0   6 3476.38 1038.30
   8   0  -5  675.40  738.90
  -8   0   5  734.95  640.97
   8   0  -4 9258.15 1800.94
  -8   0   4 9337.69 1462.34
   8   0  -3  494.30  642.38
  -8   0   3  388.16  440.01
   8   0  -2 7070.42 1520.88
   8   0  -1  345.84  600.86
   8   0   0 2357.72  888.32
   8   0   2  157.30  541.02
   8   0   3 1084.48  764.00
   8   0   4  744.19  680.78
   8   0   5 1117.40  770.76
   8   0   6  383.87  606.32
   8   0   7  648.10  684.21
   8   0   8 2050.76  929.69
   8   1 -19 1686.04 1009.29
   8  -1 -19  482.82  843.09
  -8   1  19 1365.76 1350.51
  -8  -1  19 2012.02  962.55
   8   1 -18  469.93  860.44
   8  -1 -18  671.32  622.17
  -8   1  18 1000.58  855.76
  -8  -1  18 1618.82 1143.47
   8   1 -17  524.34  883.88
   8  -1 -17  625.01  596.55
  -8   1  17  373.90  815.30
  -8  -1  17 2374.38 1084.23
   8   1 -16  880.70  938.68
   8  -1 -16 1322.52  679.02
  -8  -1  16 1835.14 1167.12
  -8   1  16 1019.94  876.59
   8   1 -15  457.75  664.42
   8  -1 -15  821.63  827.80
  -8   1  15 2391.86 1073.72
  -8  -1  15  650.25 1037.90
   8   1 -14  657.65  888.85
   8  -1 -14 1344.66  873.44
  -8  -1  14  529.13 1008.96
  -8   1  14 1165.18 1051.30
   8   1 -13  922.46  986.70
   8  -1 -13 1580.15  859.15
  -8   1  13  489.17  745.04
  -8  -1  13 1166.67  996.48
   8   1 -12  123.74  589.45
  -8  -1  12  355.56  820.28
  -8   1  12 1352.25  859.29
   8   1 -11  428.23  813.97
   8  -1 -11  686.81  807.30
  -8  -1  11   -1.90  834.75
  -8   1  11 1341.94  879.45
   8  -1 -10  761.98  723.19
   8   1 -10 1745.49  753.93
  -8   1  10 2072.77 1088.59
  -8  -1  10 2596.17 1024.17
   8   1  -9 1886.56 1264.09
   8  -1  -9 2523.74 1201.56
  -8  -1   9 3446.85 1235.54
  -8   1   9 4496.76 1233.87
   8   1  -8  255.00  898.91
   8  -1  -8 1757.45  886.21
  -8  -1   8  261.03  799.81
  -8   1   8 2177.93  881.66
   8   1  -7 -742.54  597.56
   8  -1  -7  736.27  570.65
  -8  -1   7 2695.54  685.33
  -8   1   7  592.08  714.41
   8  -1  -6 2430.59  922.58
   8   1  -6 1618.88  924.59
  -8  -1   6 1067.58  757.93
  -8   1   6  536.61  802.94
   8   1  -5 -698.41  772.88
   8  -1  -5 -162.06  767.08
  -8  -1   5 1748.04  635.01
  -8   1   5 1331.29  677.22
   8  -1  -4 1621.01  918.93
   8   1  -4 1704.99  952.47
  -8  -1   4 2017.12  739.79
  -8   1   4 1804.60  792.87
   8   1  -3  389.27  749.78
   8  -1  -3  401.61  711.28
  -8  -1   3  498.31  555.86
  -8   1   3 1588.06  600.06
   8  -1  -2 -252.13  603.82
   8   1  -2 -506.06  622.96
   8   1  -1  124.53  702.16
   8  -1  -1 1492.24  665.53
   8  -1  -1  520.92  603.50
   8   1   0 1566.81  770.15
   8  -1   0  953.74  754.97
   8   1   1 3218.33 1002.75
   8  -1   1 2261.13  958.32
   8   1   2 4533.44  945.94
   8  -1   2 4550.33 1248.41
   8   1   3 1251.42  764.20
   8  -1   3  695.60  705.18
   8   1   4  547.92  789.63
   8  -1   4 1943.82  744.93
   8   1   5  615.82  557.35
   8  -1   5 -137.08  559.06
   8   1   6 1879.45  991.10
   8  -1   6 3209.94  932.25
   8   1   7  876.63  768.48
   8   1   8 2001.25  963.53
   8   1   9 1840.85  981.87
   8   1  10  173.03  643.82
   8   2 -19  338.79 1035.70
   8  -2 -19 2500.36  870.67
  -8  -2  19  918.92 1029.25
  -8   2  19 1982.59 1425.94
   8   2 -18 1949.13 1031.29
   8  -2 -18  301.13  944.65
  -8  -2  18 2847.85 1295.91
  -8   2  18  410.35 1307.63
   8   2 -17  638.76  906.32
   8  -2 -17  926.05  831.73
  -8  -2  17 1646.86 1112.05
  -8   2  17  299.94 1153.73
   8   2 -16 1373.99  652.98
   8  -2 -16 1018.11  807.50
  -8  -2  16  134.77 1050.67
  -8   2  16  236.22 1116.76
   8   2 -15  613.43  900.98
   8  -2 -15  822.01  825.43
  -8  -2  15  660.83 1011.66
  -8   2  15 1501.20 1067.46
   8   2 -14  809.84 1003.15
   8  -2 -14 1749.26  889.42
  -8  -2  14 1553.62  819.01
  -8   2  14 1586.75 1192.78
   8   2 -13  163.69  555.24
   8  -2 -13   21.02  475.38
  -8  -2  13 -508.66  739.08
  -8   2  13 1896.55  814.77
   8   2 -12 2022.01  929.36
   8  -2 -12  322.58  776.09
  -8  -2  12  797.10  888.62
  -8   2  12  504.19  707.54
   8   2 -11 2672.66 1134.73
   8  -2 -11 6130.13 1512.67
  -8  -2  11 6580.54 1532.50
  -8   2  11 6466.31 1683.51
   8   2 -10  834.10  853.31
   8  -2 -10 1155.01  802.41
  -8   2  10  123.67  846.50
  -8  -2  10  522.49  806.14
   8   2  -9  580.69  638.73
   8  -2  -9  347.69  800.00
  -8  -2   9  977.92  800.76
  -8   2   9 1198.21  641.12
   8   2  -8 2575.03 1068.74
   8  -2  -8 1132.60  950.10
  -8   2   8 1110.92  964.39
  -8  -2   8 2410.40  911.18
   8   2  -7  225.61  984.38
   8  -2  -7 2046.63  903.92
  -8  -2   7 1863.14  823.28
  -8   2   7 1290.72  876.20
   8   2  -6 1793.22 1090.42
   8  -2  -6 3753.64 1017.78
  -8   2   6 1674.40  971.03
  -8  -2   6 2056.95  865.35
   8  -2  -5 2393.00  892.68
   8   2  -5  775.23  681.74
  -8  -2   5 1756.75  707.95
  -8   2   5  837.97  820.54
   8   2  -4 -227.19  571.80
   8  -2  -4  150.69  740.62
  -8  -2   4 1708.35  507.99
  -8   2   4 1228.70  660.58
   8   2  -3 2239.71  728.20
   8  -2  -3  228.60  659.41
  -8  -2   3  239.52  435.61
  -8   2   3  425.63  589.07
   8   2  -2  981.41  603.81
   8  -2  -2 -242.89  468.55
   8   2  -1 1834.82  682.35
   8  -2  -1 -158.92  611.23
   8  -2  -1   95.06  586.41
   8   2   0 1673.57  751.67
   8  -2   0 1206.88  691.51
   8  -2   0  597.48  490.36
   8  -2   1 1936.05  813.98
   8  -2   2 1080.19  699.80
   8   2   3 2850.31 1022.49
   8  -2   3 2691.50  938.17
   8   2   4 1060.61  790.24
   8   2   5 1073.46  772.72
   8   2   6  603.61  702.59
   8   2   7 1186.44  814.37
   8   2   8  665.98  743.26
   8   2   9 2052.83 1046.37
   8   2  10 -253.50  689.58
   8   2  11  390.23  786.95
   8   2  12   39.14  682.86
   8   3 -19  208.12  821.84
   8  -3 -19 -131.11  500.66
  -8  -3  19 1807.85  820.51
  -8   3  19 2026.93 1161.07
   8   3 -18  901.90  802.34
   8  -3 -18   66.23  448.40
  -8  -3  18 1342.56 1000.29
  -8   3  18  100.27 1042.12
   8   3 -17  746.58  594.11
   8  -3 -17  396.69  539.84
  -8  -3  17  239.50  998.02
  -8   3  17  485.26 1060.11
   8   3 -16  899.58  734.85
   8  -3 -16 1403.41  617.27
  -8  -3  16 1351.89 1110.53
  -8   3  16  490.66 1224.85
   8   3 -15  619.94  854.52
   8  -3 -15  352.12  548.55
  -8   3  15  966.14 1028.97
  -8  -3  15  981.05  938.27
   8   3 -14  736.35 1051.93
   8  -3 -14  792.32  797.87
  -8  -3  14  965.40 1004.92
  -8   3  14 1602.56  814.84
   8   3 -13 1233.72  719.63
   8  -3 -13-1235.73  553.71
  -8  -3  13 1041.94  699.28
  -8   3  13  405.06  773.23
   8   3 -12  185.53  835.12
   8  -3 -12  278.12  696.85
  -8  -3  12  301.48  584.24
  -8   3  12 1759.13  914.04
   8   3 -11-1618.99  854.91
   8  -3 -11  974.41  522.48
  -8   3  11  934.18  680.93
  -8  -3  11 1405.65  806.43
   8   3 -10 2855.98 1067.62
   8  -3 -10 2497.93  964.81
  -8  -3  10 1032.14  944.86
  -8   3  10  220.91  784.78
   8   3  -9 2334.21 1136.00
   8  -3  -9 2332.42 1012.98
  -8  -3   9 1918.99  980.04
  -8   3   9 1216.39 1119.29
   8   3  -8  127.68  573.44
   8  -3  -8  307.21  665.63
  -8  -3   8 1004.48  633.04
  -8   3   8  130.70  720.11
   8   3  -7  387.52  675.13
   8  -3  -7  330.13  576.64
  -8  -3   7 -105.45  512.98
  -8   3   7   18.30  599.73
   8   3  -6  877.11  882.38
   8  -3  -6  959.29  788.38
  -8  -3   6 1101.20  674.46
  -8   3   6  975.59  790.61
   8   3  -5 4356.24 1434.15
   8  -3  -5 4677.20 1106.91
  -8  -3   5 4220.91 1062.89
  -8   3   5 6619.66 1271.80
   8   3  -4 5498.02 1248.28
   8  -3  -4 4202.54 1425.79
  -8  -3   4 7213.60 1130.96
  -8   3   4 5940.09 1305.47
   8   3  -3 1481.45  704.74
   8  -3  -3 1187.12  822.66
  -8   3   3 2031.47  782.94
   8   3  -2 -299.64  657.63
   8  -3  -2  766.22  504.32
   8  -3  -2  357.18  461.50
   8   3  -1 8588.27 1609.12
   8  -3  -1 8396.12 1483.86
   8  -3  -1 6196.21 1581.05
   8   3   0  -40.22  704.12
   8  -3   0 1033.48  605.23
   8  -3   0  640.58  454.00
   8   3   1 1589.53  560.86
   8  -3   1  283.26  429.85
   8   3   2 1835.72  605.15
   8  -3   2 -259.22  302.00
   8   3   3 5816.89 1436.23
   8   3   4  965.91  583.02
   8   3   5 1853.50  938.87
   8   3   6 1686.02  926.04
   8   3   7 -364.67  654.46
   8   3   8  596.24  553.81
   8   3   9  644.67  801.92
   8   3  10  231.72  711.71
   8   3  11  191.13  748.92
   8   3  12 2310.13 1334.91
   8   3  13 1264.55 1081.43
   8   3  14  310.84  890.01
   8   4 -19 -225.11  933.14
   8  -4 -19  397.22  725.70
  -8  -4  19 1420.00  860.71
  -8   4  19 1201.40  892.72
   8   4 -18 1731.81  904.12
   8  -4 -18 2413.99  954.26
  -8  -4  18 2453.21 1523.53
  -8   4  18 3786.59 1637.12
   8  -4 -17 1106.97  784.98
   8   4 -17 1338.07  809.65
  -8  -4  17 2838.72 1273.67
  -8   4  17 1253.56 1374.87
   8   4 -16 2169.77 1190.07
   8  -4 -16 1475.68  995.37
  -8  -4  16 2265.57 1328.82
  -8   4  16 2681.08 1461.51
   8  -4 -15    5.77  720.51
   8   4 -15 1225.79  898.00
  -8  -4  15  457.26  945.78
  -8   4  15 1308.16  800.55
   8   4 -14 1200.68  681.23
   8  -4 -14  186.00  716.88
  -8  -4  14  184.45  881.43
  -8   4  14  581.74 1011.40
   8  -4 -13 -274.92  685.28
   8   4 -13  608.00  895.27
  -8  -4  13 1150.32  845.69
  -8   4  13 1542.32  988.40
   8   4 -12 2479.44 1309.41
   8  -4 -12 2459.00  999.31
  -8  -4  12 3324.82 1240.90
  -8   4  12 3099.43 1428.16
   8   4 -11 1688.39 1049.25
   8  -4 -11 1458.02  860.97
  -8  -4  11 1552.02  942.37
  -8   4  11  747.25 1100.29
   8   4 -10 2624.26 1233.99
   8  -4 -10 2177.01  954.20
  -8   4  10  880.38 1240.02
  -8  -4  10 3379.83 1072.49
   8   4  -9 1169.15  873.10
   8  -4  -9  771.59  762.45
  -8  -4   9  659.08  768.52
  -8   4   9  425.67  855.19
   8   4  -8  667.47  689.67
   8  -4  -8 1540.14  792.09
  -8   4   8  780.52  882.00
  -8  -4   8  945.27  770.94
   8   4  -7  739.25 1023.24
   8  -4  -7 1304.74  876.10
  -8  -4   7 2179.22  778.24
  -8   4   7 1109.71  950.83
   8   4  -6  352.57  705.77
  -8   4   6  428.74  498.62
  -8  -4   6  102.38  503.37
   8   4  -5  405.85  923.92
   8  -4  -5 1463.07  791.75
  -8   4   5 1784.99  804.61
   8   4  -4  745.55  530.62
   8  -4  -4   44.39  623.50
  -8   4   4  370.24  619.85
   8   4  -3  244.06  492.90
   8  -4  -3   30.91  598.00
  -8   4   3  885.64  590.63
   8   4  -2 1442.92  901.52
   8  -4  -2 1314.77  613.24
   8   4  -1  259.97  673.25
   8  -4  -1  593.12  630.29
   8   4   0 1455.95  895.65
   8  -4   0 1603.73  694.35
   8  -4   1 1049.99  580.00
   8   4   2 1296.96  832.70
   8  -4   2  864.66  444.69
   8  -4   3 1102.03  440.17
   8   4   3 -367.16  501.72
   8   4   4 2306.71 1056.44
   8   4   5  410.16  676.53
   8   4   6 2606.86 1092.75
   8   4   7  424.84  704.74
   8   4   8  906.14  855.78
   8   4   9 1483.40 1006.29
   8   4  10 2876.33 1332.49
   8   4  11 1472.01 1117.93
   8   4  12 1744.60  926.71
   8   4  13  553.60  928.01
   8   5 -18  109.89  700.62
   8  -5 -18 1197.51  718.56
  -8  -5  18 2505.86 1149.45
  -8   5  18  477.16  941.20
   8  -5 -17  344.58  705.82
   8   5 -17 1447.16  751.58
  -8  -5  17  353.77 1136.69
  -8   5  17 1718.27  935.86
   8   5 -16  693.68  788.34
   8  -5 -16  443.57  538.98
  -8  -5  16  266.56  849.87
  -8   5  16 -379.15  691.80
   8   5 -15 1707.35 1284.21
   8  -5 -15 1445.02  913.26
  -8  -5  15 2289.61 1231.91
  -8   5  15 2540.00 1425.93
   8   5 -14 -168.28  692.81
   8  -5 -14  517.07  675.34
  -8  -5  14  298.07  876.80
  -8   5  14 3213.38 1065.82
   8   5 -13 1538.98 1071.71
   8  -5 -13  995.67  813.52
  -8  -5  13 1420.38 1005.09
  -8   5  13 1455.01  883.55
   8   5 -12 1427.60  728.57
   8  -5 -12  -86.96  728.21
  -8  -5  12 1880.51  882.50
  -8   5  12  760.05 1048.36
   8   5 -11 5423.64 1841.73
  -8  -5  11 7505.17 1628.69
  -8   5  11 6933.19 1957.45
   8   5 -10  471.52  632.21
   8  -5 -10 1079.52  661.43
  -8  -5  10  879.25  738.20
  -8   5  10 -457.49  921.15
   8   5  -9  413.54  784.58
   8  -5  -9  914.23  584.72
  -8  -5   9 -477.42  639.34
  -8   5   9  376.48  761.41
   8   5  -8 2746.64  999.60
   8  -5  -8 3408.31 1107.64
  -8  -5   8 3284.90 1088.92
  -8   5   8 3630.24 1286.13
   8   5  -7 1836.73 1190.53
   8  -5  -7 2277.22  908.63
  -8  -5   7 3282.08  901.51
  -8   5   7 2443.28 1187.00
   8   5  -6 4449.57 1418.23
   8  -5  -6 5120.91 1301.36
  -8   5   6 3218.74 1092.71
   8   5  -5 -116.70  649.94
  -8   5   5 -229.42  588.50
   8   5  -4 2328.54  832.73
  -8   5   4 2520.83  993.80
   8   5  -3  -27.25  749.86
  -8   5   3 1068.22  663.69
   8   5  -2 1584.68  990.72
   8  -5  -2 2057.44  963.83
   8   5  -1 1479.03  822.34
   8  -5  -1  715.50  794.84
   8   5   0 1641.05  669.06
   8  -5   0 1357.61  710.38
   8   5   1 3595.80 1161.41
   8  -5   1 2370.85  794.40
   8   5   2 5560.72 1035.08
   8  -5   2 3997.29  931.29
   8   5   3  669.36  745.31
   8  -5   3  547.30  485.39
   8  -5   4  673.49  487.76
   8   5   4 1007.82  603.94
   8   5   5  822.59  796.85
   8   5   6   32.78  569.95
   8   5   7 1271.03  910.21
   8   5   8 1487.38  978.91
   8   5   9 -508.81  801.22
   8   5  10  457.56  617.74
   8   5  11 -193.12  783.90
   8   5  12 1794.43  868.18
   8   5  13 1659.12 1243.36
   8   6 -18  487.89  843.93
   8  -6 -18   93.82  393.06
  -8  -6  18 1659.24 1023.58
  -8   6  18 1572.50 1130.42
   8   6 -17 1299.64  915.01
   8  -6 -17 2483.31  662.28
  -8  -6  17 1983.99 1384.06
  -8   6  17 1790.72 1539.12
   8   6 -16 4860.76 1190.31
   8  -6 -16  145.80  785.18
  -8  -6  16 1561.83 1236.35
  -8   6  16 2681.23 1448.04
   8   6 -15 2236.90 1326.00
   8  -6 -15  836.04  816.25
  -8  -6  15 3047.89 1268.69
  -8   6  15 4782.37 1520.16
   8   6 -14 1107.49  725.52
   8  -6 -14 -172.43  702.67
  -8  -6  14 1534.34  927.07
  -8   6  14 1176.61 1126.29
   8   6 -13  252.12  964.09
   8  -6 -13  397.08  682.73
  -8  -6  13 1704.24  640.77
  -8   6  13  121.72 1068.07
   8   6 -12  555.72  673.79
   8  -6 -12  444.95  680.91
  -8  -6  12 1577.31  819.11
  -8   6  12  429.87  728.48
   8   6 -11  833.62  942.16
   8  -6 -11  742.43  675.96
  -8  -6  11 1387.98  819.43
  -8   6  11  -34.34 1020.88
   8   6 -10 2202.96  941.35
   8  -6 -10 2232.78  923.95
  -8  -6  10 2916.98 1037.77
  -8   6  10 2535.27 1273.13
   8   6  -9  722.66  979.64
   8  -6  -9 1095.61  717.78
  -8  -6   9  899.46  783.57
  -8   6   9 1585.01 1000.79
   8   6  -8  -33.17  508.97
  -8   6   8  297.40  501.19
   8   6  -7 2372.68 1254.52
  -8   6   7 3523.90 1283.90
   8   6  -6 1728.82 1044.01
  -8   6   6 1602.09  756.12
   8   6  -5  321.09  533.49
  -8   6   5  399.60  666.51
   8   6  -4 1349.20 1194.74
  -8   6   4 4131.69 1086.80
   8   6  -3 2750.60 1025.57
  -8   6   3 1219.88  906.65
   8   6  -2  904.68  579.00
   8  -6  -2 -343.48  432.95
   8   6  -1  784.78  623.17
   8  -6  -1 1423.30  697.31
   8   6   0 1189.48  734.09
   8  -6   0   60.72  560.13
   8   6   1 1520.50  698.42
   8  -6   1 1271.22  653.37
   8   6   2 1163.21  852.57
   8  -6   2 1025.69  581.45
   8   6   3  266.25  505.18
   8  -6   3  333.45  455.48
   8   6   4 1344.53  936.16
   8  -6   4 1737.02  608.10
   8   6   5  277.88  712.09
   8  -6   5  418.87  375.65
   8   6   6 1705.72 1030.40
   8   6   7 1036.96  879.46
   8   6   8 2355.77 1172.58
   8   6   9 1220.55 1003.18
   8   6  10 -134.35  531.02
   8   6  11 2193.45 1350.12
   8   6  13 2392.34 1461.03
   8   7 -18 1302.27 1057.71
   8  -7 -18  588.30  641.20
  -8   7  18  617.91 1321.31
  -8  -7  18 1944.74 1206.83
   8   7 -17  285.91  641.77
   8  -7 -17  405.89  377.01
  -8  -7  17  793.47  954.45
  -8   7  17  428.67 1105.64
   8   7 -16 1052.13  768.13
   8  -7 -16  151.70  643.82
  -8   7  16 2006.80 1190.04
  -8  -7  16  569.63  997.85
   8   7 -15 1577.63 1025.89
   8  -7 -15  162.57  620.75
  -8  -7  15  205.38  954.09
  -8   7  15 2379.90 1155.00
   8   7 -14 1251.40  741.09
   8  -7 -14  204.37  584.75
  -8  -7  14  655.84  914.22
  -8   7  14 1151.45  802.48
   8   7 -13 1216.56 1046.09
  -8   7  13 1095.81 1177.80
   8   7 -12  740.04 1025.18
  -8  -7  12 2268.25  913.95
  -8   7  12  461.16  843.22
   8   7 -11 1592.31 1124.63
  -8  -7  11 2182.70  931.20
  -8   7  11  768.08  897.69
   8   7 -10 1082.80  994.30
  -8  -7  10 1042.97  792.03
  -8   7  10  865.11 1024.20
   8   7  -9 1505.77 1144.99
  -8   7   9 2120.24 1165.10
   8   7  -8 -129.58  499.25
  -8   7   8  -68.08  508.39
   8   7  -7 1588.13 1042.83
  -8   7   7 1730.91 1081.44
   8   7  -6   13.21  768.17
  -8   7   6  673.97  544.14
   8   7  -5  163.64  483.10
  -8   7   5  235.42  620.99
   8   7  -4  164.76  699.72
  -8   7   4  525.77  664.59
   8   7  -2  922.75  637.40
   8  -7  -2 2037.91  952.61
   8   7  -1  569.65  698.07
   8  -7  -1  252.11  583.11
   8   7   0 1185.86  724.68
   8  -7   0 2180.28  793.22
   8   7   1 3587.80 1156.33
   8  -7   1 1841.53  803.67
   8   7   2  -98.49  520.39
   8  -7   2  689.42  372.59
   8   7   3 1123.19  875.26
   8  -7   3  860.86  586.40
   8   7   4  988.76  829.80
   8  -7   4  885.60  401.56
   8   7   5 4539.84 1335.94
   8  -7   5 3549.23  739.33
   8   7   6 1117.66  629.35
   8  -7   6  557.55  455.94
   8   7   7 1795.23 1056.30
   8   7   8 1067.02  971.38
   8   7   9  -46.06  661.76
   8   7  10  511.09  655.08
   8   7  11 1402.97 1219.33
   8   7  12 1358.62  964.82
   8   7  13 1080.29 1231.16
   8   8 -18 2289.26 1206.36
  -8  -8  18 1320.36 1350.13
  -8   8  18  723.10 1112.04
   8   8 -17  850.97 1208.97
  -8  -8  17 3288.61 1343.23
  -8   8  17 1005.49 1573.24
   8   8 -16 1524.14  910.11
  -8  -8  16 1045.32 1173.77
  -8   8  16 1435.62 1040.60
   8   8 -15 2276.88 1715.43
  -8  -8  15 4084.93 1566.85
  -8   8  15 5539.09 1418.18
   8   8 -14 2635.39 1369.93
  -8  -8  14 2355.56 1268.86
  -8   8  14 2764.86 1560.29
   8   8 -13 1610.34  976.83
  -8  -8  13 2789.65 1209.18
  -8   8  13 4342.05 1544.40
   8   8 -12 2849.34 1421.84
  -8  -8  12 2915.06 1202.94
  -8   8  12 3683.69 1583.81
   8   8 -11  656.89  660.08
  -8   8  11  460.46  692.85
   8   8 -10 2186.21 1022.48
  -8   8  10  245.70  745.82
   8   8  -9 -408.35  581.00
  -8   8   9 -327.58  612.39
   8   8  -8 1534.47 1285.54
  -8   8   8 4404.04 1398.88
   8   8  -7  334.44  775.69
  -8   8   7  517.07  821.75
   8   8  -6 1452.45  730.07
  -8   8   6 1434.17  703.93
   8   8  -5 1149.34  863.23
  -8   8   5  485.82  800.81
   8   8  -4 1415.25  561.59
  -8   8   4 -873.70  727.14
   8  -8  -3 2256.30  824.03
   8   8  -3 1006.60 1022.82
   8   8  -2 3194.99 1156.15
   8  -8  -2 2595.14 1277.38
   8   8  -1 1155.35  684.55
   8  -8  -1 1671.95  808.28
   8  -8   0 1415.79  777.58
   8  -8   1 1035.45  666.21
   8  -8   2  137.53  456.61
   8  -8   3  225.39  482.52
   8   8   4 -231.05  690.11
   8  -8   4  521.57  465.89
   8  -8   5  670.16  459.00
   8   8   5  653.86  609.89
   8   8   6  187.94  655.97
   8  -8   6 1309.39  491.26
   8   8   7  508.52  614.75
   8  -8   7  697.83  463.66
   8   8   8  799.45  913.07
   8   8   9  869.81  966.82
   8   8  10 1820.78  919.56
   8   8  11 2564.49 1503.99
   8   8  12 1448.87 1393.08
   8   8  13  207.08  698.04
   8   9 -17  393.44  864.50
  -8  -9  17   80.96  931.90
  -8   9  17  430.53  811.13
   8   9 -16 1154.68 1193.05
  -8   9  16 1036.04  993.77
  -8  -9  16 1382.62 1128.95
   8   9 -15  131.27  813.78
  -8  -9  15 2032.67 1042.99
  -8   9  15 1689.23 1267.58
   8   9 -14 1161.76  986.98
  -8   9  14 1386.87 1143.21
  -8  -9  14  -76.44  881.23
   8   9 -13 2058.63  982.19
  -8   9  13 2895.30 1126.90
   8   9 -12  825.89 1065.39
  -8   9  12 1521.93 1167.52
   8   9 -11 1340.03 1155.56
  -8   9  11 2175.72 1271.23
   8   9 -10 1531.51 1041.95
  -8   9  10  542.80 1073.18
   8   9  -9  990.56  852.43
  -8   9   9  -21.11  916.71
   8   9  -8  -45.11  692.82
  -8   9   8  433.71  760.98
   8   9  -7  943.28  632.57
  -8   9   7  159.35  849.24
   8   9  -6   43.56  738.05
  -8   9   6  461.59  537.92
   8   9  -5  -68.20  560.70
  -8   9   5 1463.45  751.57
   8   9  -4 6102.97 1588.79
  -8   9   4 5530.59 1523.14
   8   9  -3 1723.57  821.36
   8  -9  -3   37.10  668.48
   8  -9  -2  499.35  608.00
   8  -9  -1 -259.70  383.50
   8   9  -1  428.54  595.64
   8  -9   0 1571.74  585.78
   8   9   1  798.06  777.09
   8  -9   1 2471.83  785.85
   8  -9   2 -293.96  520.17
   8  -9   3  504.90  558.29
   8   9   4 2711.82  892.03
   8  -9   4 2593.44  825.06
   8   9   5  809.98  753.35
   8  -9   5 1779.88  583.85
   8  -9   6  576.69  465.82
   8  -9   7  606.20  451.41
   8   9   7  177.06  586.99
   8   9   8 1308.27  927.22
   8  -9   8  538.12  472.92
   8   9   9 1483.15 1146.25
   8   9  10 1036.85  834.17
   8   9  11  658.95 1096.08
   8   9  12  445.93 1120.29
   8  10 -17  139.82  717.59
  -8 -10  17 1379.54  971.17
  -8  10  17 -468.00 1121.77
   8  10 -16 3430.52 1770.38
  -8 -10  16 5030.78 1670.34
  -8  10  16 3156.60 2025.66
   8  10 -15 1640.13 1204.57
  -8  10  15  768.90 1360.61
   8  10 -14 2063.01  893.20
  -8  10  14 1038.26 1061.26
   8  10 -13 2173.99 1377.73
  -8  10  13 3257.02 1569.66
   8  10 -12 3071.05 1124.11
  -8  10  12 4104.30 1260.08
   8  10 -11 2879.66 1334.86
  -8  10  11 2251.08 1476.96
   8  10 -10  759.73  678.14
  -8  10  10  365.34  992.02
   8  10  -9 2454.76 1238.81
  -8  10   9 2117.98 1387.47
   8  10  -8 1836.34  770.43
  -8  10   8  622.80 1159.28
   8  10  -7 1723.66 1185.08
  -8  10   7 2919.29 1236.43
   8  10  -6 1185.31  623.72
  -8  10   6   77.52  628.98
   8  10  -5  369.55  608.94
  -8  10   5 -280.55  603.10
   8  10  -4 1440.75  722.66
   8  10  -3 1652.36  941.32
   8 -10  -3  630.13 1093.94
   8 -10  -2 -232.81  772.09
   8 -10  -1  672.69  739.22
   8  10   0  457.77  634.17
   8 -10   0 1141.52  689.26
   8  10   1 -105.00  831.53
   8 -10   1  941.24  638.28
   8 -10   2  432.24  576.31
   8  10   3 1196.59  738.26
   8 -10   3 1314.72  738.28
   8  10   4  -58.72  467.26
   8 -10   4  143.68  320.66
   8  10   5 1242.90  646.61
   8 -10   5  387.60  501.84
   8  10   6   68.46  528.24
   8 -10   6 -302.99  402.62
   8  10   7 1511.47 1006.09
   8 -10   7 1060.15  581.00
   8  10   8 1204.11  966.22
   8 -10   8  669.26  500.59
   8  10   9  441.53  839.62
   8 -10   9  238.25  421.67
   8  10  10 1398.00 1262.09
   8  10  11 1659.01 1051.75
   8  10  12  917.45 1359.20
   8  11 -16 1865.10  971.38
  -8  11  16 1078.73 1545.07
   8  11 -15 1419.99 1149.79
  -8  11  15  944.27  999.22
   8  11 -14 1913.53 1182.04
  -8  11  14  677.61 1354.50
   8  11 -13 1606.18  914.41
  -8  11  13 2154.14 1421.94
   8  11 -12  434.06 1094.40
  -8  11  12 1714.90  910.53
   8  11 -11 1481.23  816.14
  -8  11  11 1296.50  919.37
   8  11 -10 2630.76 1411.25
  -8  11  10 3070.11 1511.89
   8  11  -9   89.66  626.61
  -8  11   9 1599.05  965.02
   8  11  -8  232.48  755.00
  -8  11   8  430.08  826.23
   8  11  -7 2750.45  853.85
  -8  11   7  880.18 1216.87
   8  11  -6 1853.53 1175.58
  -8  11   6 2765.22  891.45
   8  11  -5  546.48  694.47
  -8  11   5 2917.81 1012.64
   8  11  -4 1593.93  799.11
   8 -11  -4  237.61  431.19
   8 -11  -3 1161.83 1137.14
   8  11  -3 1201.76  672.27
   8  11  -2 1186.41  943.93
   8 -11  -2 1435.29  926.97
   8  11  -1 4624.00 1095.29
   8 -11  -1 4244.33 1367.11
   8  11   0 1994.35  801.35
   8 -11   0 1410.97  636.45
   8 -11   1 -123.28  380.56
   8  11   1  103.42  646.18
   8 -11   2  185.26  392.90
   8  11   3 3481.16  981.96
   8 -11   3 2298.34  658.44
   8  11   4  950.45  766.64
   8 -11   4 1742.27  543.68
   8  11   5  385.38  573.93
   8 -11   5  280.19  459.05
   8  11   6 1865.19  887.86
   8 -11   6 2029.43  689.17
   8  11   7 1769.61 1050.10
   8 -11   7 1049.13  605.17
   8  11   8 2958.09 1290.42
   8 -11   8 1796.32  668.45
   8  11   9  442.71  787.61
   8 -11   9 1068.40  543.53
   8  11  10  748.95 1033.05
   8 -11  10  472.30  475.82
   8  11  11  689.36 1221.60
  -8  12  16 -745.09  950.79
   8  12 -15 2532.26 1083.63
  -8  12  15 3431.77 1771.24
   8  12 -14  629.83 1068.54
  -8  12  14 1251.96 1266.40
   8  12 -13 3140.30 1666.57
  -8  12  13 4906.12 1448.82
   8  12 -12 1300.19  818.43
  -8  12  12 1282.38 1286.31
   8  12 -11 2518.67 1374.41
  -8  12  11 2470.01 1110.11
   8  12 -10 1974.70  876.94
  -8  12  10 1308.02  932.24
   8  12  -9  973.23 1074.47
  -8  12   9 2456.04 1255.47
   8  12  -8  433.24  605.81
  -8  12   8  702.07  888.04
   8  12  -7 1589.54 1172.73
  -8  12   7 2962.63  941.23
   8  12  -6 2693.13  823.45
  -8  12   6 1024.62  834.41
  -8  12   5 2534.04 1231.40
   8 -12  -4  728.17  829.95
   8 -12  -3  429.41  953.63
   8 -12  -2 5585.33 1201.57
   8 -12  -1 3184.66 1257.05
   8 -12   0 2667.83 1067.05
   8 -12   1 3499.14 1155.53
   8 -12   2 1647.67  865.03
   8  12   3 1926.10  822.11
   8 -12   3 1132.83  767.41
   8  12   4  674.99  632.59
   8 -12   4  497.62  604.11
   8  12   5  943.42  697.54
   8 -12   5  783.95  556.53
   8  12   6  571.86  874.82
   8 -12   6  395.00  500.11
   8 -12   7 1831.95  666.22
   8  12   7  626.23 1147.68
   8  12   8  251.33  674.49
   8 -12   8  580.48  481.70
   8  12   9  397.06 1250.17
   8 -12   9 1618.97  623.00
   8  12  10  275.33  821.79
   8 -12  10  833.64  519.17
   8  12  11 2108.97 1430.69
   8 -12  11 1007.23  606.86
   8  13 -15 1403.06 1194.82
  -8  13  15 1141.10 1437.01
   8  13 -14  834.13 1122.01
  -8  13  14 1364.26 1004.75
   8  13 -13  706.20  707.54
  -8  13  13  228.96 1152.67
   8  13 -12 3786.56 1529.78
  -8  13  12 2914.71 1771.36
   8  13 -11 1292.79  745.91
  -8  13  11 -325.93 1148.08
   8  13 -10  884.08 1075.33
  -8  13  10 1407.57  898.60
   8  13  -9  892.42  796.52
  -8  13   9   54.08  659.11
  -8  13   8  -50.93  515.59
   8  13  -7 2597.98 1103.23
  -8  13   7 1501.17  898.36
   8  13  -6 2020.60  895.88
  -8  13   6 2952.90  951.15
   8  13  -5 -330.32  744.77
   8  13  -4 2462.93  879.61
   8  13  -3 2447.09 1061.47
   8 -13  -3  882.26 1398.86
   8  13  -2 2970.20  825.21
   8 -13  -2 1070.40  863.88
   8  13  -1 1379.09  750.29
   8 -13  -1 1541.81 1020.09
   8 -13   0 3578.23 1260.80
   8 -13   2 1842.34  934.69
   8  13   3 1857.88  791.50
   8 -13   3  909.50  765.70
   8 -13   4 1133.22  627.62
   8  13   4  -51.84  621.21
   8  13   5 2579.35 1064.36
   8 -13   5  686.77  625.43
   8  13   6   -4.89  775.04
   8 -13   6  199.72  444.80
   8  13   7 1588.08  950.78
   8 -13   7  264.09  560.37
   8 -13   8  818.98  558.47
   8  13   8  720.95  775.02
   8  13   9  385.66 1018.36
   8 -13   9  466.15  370.63
   8  13  10 1029.34  789.84
   8 -13  10  299.17  356.22
   8  14 -14 4681.33 1312.30
  -8  14  14 4068.03 1600.41
   8  14 -13  863.11  984.46
  -8  14  13  251.29 1197.37
   8  14 -12 -531.87  521.60
  -8  14  12  918.82  638.52
   8  14 -11  638.92 1223.08
  -8  14  11 3116.30 1435.16
   8  14 -10  866.26 1114.82
  -8  14  10 1909.93 1225.78
   8  14  -9  932.74  689.31
  -8  14   9  808.58  792.46
   8  14  -8 1369.85  924.35
  -8  14   8  497.13  750.29
   8  14  -7   79.23  588.21
  -8  14   7 1016.52  656.93
   8  14  -6 1282.81  977.34
  -8  14   6 1133.48 1055.52
   8  14  -5 1389.66  750.48
   8 -14  -5 1968.30 1054.12
   8  14  -4 -288.26  510.56
   8 -14  -4 1958.59  967.56
   8  14  -3  954.37  901.91
   8 -14  -3 1028.22 1038.95
   8  14  -2  794.88  645.58
   8 -14  -2  889.07  940.48
   8  14  -1  -80.87  489.47
   8 -14  -1  345.58  626.88
   8 -14   0  487.09  549.90
   8 -14   1 1271.15  875.97
   8 -14   2  530.96  713.51
   8 -14   3   95.38  379.56
   8  14   4  300.05  854.61
   8 -14   4  576.55  640.84
   8  14   5  943.02  838.35
   8 -14   5  113.51  510.48
   8  14   6 -264.56 1009.06
   8 -14   6 1243.19  610.01
   8  14   7 1993.40  954.93
   8 -14   7 2106.93  782.66
   8  14   8 1059.51  859.53
   8 -14   8   64.01  333.62
   8  14   9 1087.03  778.90
   8 -14   9  319.39  383.51
   8  14  10  771.37 1225.53
   8 -14  10  630.73  549.06
  -8  15  14 2254.02 1706.69
   8  15 -13  541.16  807.14
  -8  15  13 1765.52 1002.08
   8  15 -12  167.20  976.90
  -8  15  12 1346.19 1191.17
   8  15 -11 1084.05 1120.58
  -8  15  11 1244.30  968.90
   8  15 -10 2242.43  999.79
  -8  15  10 3067.68 1523.42
   8  15  -9 1694.33 1131.23
  -8  15   9 2097.06 1330.50
   8  15  -8  546.79  928.06
  -8  15   8 1113.36  781.96
   8  15  -7 1181.76  704.89
  -8  15   7  959.67  774.69
   8  15  -6 1361.75 1017.47
   8  15  -5 1206.15  704.93
   8 -15  -4 3450.27 1844.11
   8  15  -3 1352.70  962.16
   8 -15  -3 1070.08  816.47
   8  15  -2  616.93  685.88
   8 -15  -2 2041.97 1085.81
   8  15  -1 1081.01  739.17
   8 -15  -1 1191.80  724.78
   8 -15   0 3588.67 1384.58
   8 -15   1 1634.09  732.53
   8 -15   2 2465.20 1113.48
   8 -15   3 2044.88  955.28
   8  15   4 2625.70 1225.30
   8 -15   4 1855.07  693.70
   8  15   5 -872.27  877.37
   8 -15   5  924.74  548.25
   8  15   6  731.99  709.42
   8 -15   6  481.03  578.39
   8  15   7  467.74  838.76
   8 -15   7  156.75  511.64
   8 -15   8 1000.92  447.53
   8  15   8  345.32 1126.20
   8  15   9 2301.79 1445.07
   8 -15   9 1521.47  732.54
  -8  16  13 2979.52 1383.77
   8  16 -12  886.03 1092.15
  -8  16  12 1170.41 1339.93
   8  16 -11 1610.99  887.10
  -8  16  11 1276.02  992.36
   8  16 -10  688.27  795.70
  -8  16  10 2021.13 1228.86
   8  16  -9  784.03  980.86
  -8  16   9 1495.34 1189.14
   8  16  -8  452.35  640.05
  -8  16   8 1073.65 1015.36
  -8  16   7 6527.51 2039.86
   8 -16  -6 1211.19 1015.60
   8  16  -5  391.53  642.83
   8 -16  -5 2560.65 1277.14
   8 -16  -4  291.08 1056.36
   8  16  -3 1365.08 1177.07
   8 -16  -3 3240.35 1063.33
   8  16  -2 1090.78  684.00
   8 -16  -2  621.60 1143.34
   8 -16  -1  321.01  823.67
   8  16   0 1112.10  773.18
   8 -16   0 1250.55 1022.27
   8  16   1  993.59 1036.10
   8 -16   1  890.34  906.53
   8 -16   2  904.29  873.32
   8 -16   3  699.89  551.08
   8  16   4 -163.81  605.05
   8 -16   4  997.29  661.43
   8  16   5  682.13  819.22
   8 -16   5 1448.56  530.00
   8  16   6 1789.92 1096.40
   8 -16   6  611.21  665.28
   8  16   7 1110.40 1069.59
   8 -16   7  716.51  650.55
   8  16   8 1150.67  863.02
   8 -16   8  923.37  646.42
  -8  17  12 2246.46 1182.84
   8  17 -11  682.08  834.56
  -8  17  11 2497.85 1335.74
   8  17 -10  250.04  982.76
  -8  17  10  941.29  818.18
   8  17  -9 1922.70 1189.08
  -8  17   9 2236.41 1430.49
   8  17  -8   11.54  581.59
  -8  17   8 1161.21  936.99
   8  17  -5 -100.85  447.23
   8 -17  -5  455.20  862.81
   8 -17  -4  744.73 1050.78
   8 -17  -3  167.33  628.14
   8 -17  -2 1707.69  953.29
   8  17  -1 4051.99 1168.09
   8 -17  -1 4307.88 1713.34
   8  17   0 1177.45  648.61
   8 -17   0 -359.39  653.01
   8 -17   1 1352.20  792.35
   8  17   1 -343.21  635.06
   8  17   2 1722.81  839.28
   8 -17   2  767.48 1004.20
   8  17   3  455.23  693.40
   8 -17   3  724.16  763.40
   8  17   4 2150.82  910.24
   8 -17   4 1186.21  677.04
   8  17   5 1573.27 1281.65
   8 -17   5 1903.55  834.52
   8  17   6  763.60 1094.10
   8 -17   6  981.44  506.93
   8  17   7 1043.81  890.42
   8 -17   7 1265.08  732.80
   8  18 -10 1142.56 1285.53
  -8  18  10 2122.39 1048.84
   8  18  -9 1010.16  746.67
  -8  18   9 1200.80  901.92
   8  18  -8 2764.31  988.11
  -8  18   8 2344.63 1542.32
   8 -18  -7 1632.84 1135.66
   8 -18  -6 2730.55 1839.20
   8  18  -5  238.68  510.62
   8 -18  -5 -315.24  990.01
   8 -18  -4 4233.93 1809.03
   8 -18  -3 -607.48 1084.05
   8 -18  -2  613.42  771.94
   8 -18  -1  772.41 1117.26
   8 -18   0  603.46  973.53
   8 -18   1 1086.79  772.43
   8 -18   2 2789.67 1225.25
   8 -18   3  689.83  596.97
   8  18   4  340.45 1073.47
   8 -18   4  933.07  698.41
   8  18   5 1362.84 1214.97
   8 -18   5 1567.62  599.83
   8 -18   6 1324.76  780.04
  -8  19   9   26.45  585.64
   8  19  -8  644.70  679.69
   8 -19  -6 5942.58 2462.64
   8  19  -5  751.13  689.14
   8 -19  -5 1015.43 1121.31
   8  19  -4  867.52  768.88
   8 -19  -4 1841.54 1235.24
   8 -19  -3 1548.41 1391.21
   8 -19  -2 1052.55 1249.33
   8 -19  -1  986.78  940.44
   8 -19   0 2134.19 1451.35
   8 -19   1 2059.46 1333.31
   8 -19   2 3536.30 1062.03
   8 -19   3 1570.33 1042.71
   8  19   4 1482.91  900.02
   8 -19   4  786.26  797.08
   8 -20  -7 3201.80 1969.97
   8 -20  -6 -323.02 1136.62
   8  20  -5 1396.43 1145.72
   8 -20  -5 1835.48 1350.44
   8  20  -4 1430.85  860.79
   8 -20  -4 1618.62 1370.52
   8  20  -3 1164.46  869.44
   8 -20  -3 2899.48 1369.80
   8  20  -2 -159.05  597.52
   8 -20  -2 1177.18  978.55
   8  20  -1  801.37  939.57
   8 -20  -1   88.67  838.74
   8  20   0  858.50  821.63
   8 -20   0  919.42  912.15
   8  20   1  590.30  825.93
   8 -20   1 1202.59 1149.90
   8 -20   2 1433.44 1122.51
   8 -20   3 1135.93  727.05
   8 -21  -4  243.99  976.34
   8 -21  -3 1090.64 1277.00
   8 -21  -2 2237.29 1659.99
   8 -21  -1 3100.26 1965.71
   9   0 -15 1140.24 1100.16
  -9   0  15 1943.23 1430.81
   9   0 -14  372.30 1072.14
  -9   0  14 2342.22 1296.12
   9   0 -13 1358.84  820.59
  -9   0  13 1596.06 1325.19
   9   0 -12 1762.19 1261.24
  -9   0  12 1728.78 1288.58
   9   0 -11  851.51 1129.72
  -9   0  11 1497.54 1133.78
   9   0 -10 1755.08 1257.66
  -9   0  10 2084.31 1241.97
   9   0  -9 -162.21  710.18
  -9   0   9  348.12  685.28
   9   0  -8  855.07 1064.49
  -9   0   8 1752.31 1006.26
   9   0  -7  945.62 1059.34
  -9   0   7 1758.67  977.80
   9   0  -6 5387.67 1705.14
   9   0  -4 1723.25 1081.66
   9   1 -15 1397.37  823.01
   9  -1 -15  400.48 1012.80
  -9  -1  15 1220.93 1308.55
  -9   1  15 1552.98 1337.41
   9  -1 -14 2017.26 1170.82
   9   1 -14 1321.74  887.63
  -9  -1  14 1450.90 1415.93
  -9   1  14 2199.28 1471.11
   9   1 -13  422.55  981.70
   9  -1 -13   59.42  864.88
  -9  -1  13  229.94 1019.54
  -9   1  13 1270.34 1019.35
   9  -1 -12  574.28 1004.30
   9   1 -12 2536.05 1166.13
  -9  -1  12  159.27  871.66
  -9   1  12 2163.68 1194.50
   9   1 -11 3001.07 1099.59
   9  -1 -11 2613.29 1067.01
  -9  -1  11 3783.95 1477.54
  -9   1  11 2210.65 1506.95
   9  -1 -10 2381.91 1154.95
   9   1 -10  -37.64 1147.06
  -9  -1  10  599.38 1124.18
  -9   1  10 2822.88 1133.17
   9   1  -9   49.16  867.05
   9  -1  -9 -252.01  851.95
  -9  -1   9  375.12  800.80
  -9   1   9 1680.32  859.13
   9  -1  -8  403.93  993.03
   9   1  -8 1478.30  765.25
  -9  -1   8 1096.68  934.30
  -9   1   8 1301.23  983.24
   9   1  -7  433.52 1089.14
   9  -1  -7 1734.70 1064.78
  -9   1   7 2100.18 1023.16
   9  -1  -6 2685.86 1193.76
   9   1  -6 2220.98  928.30
  -9   1   6 2059.93 1043.51
   9   1  -5  806.94  699.06
   9  -1  -5 -192.41  663.01
  -9   1   5 -177.83  567.56
   9  -1  -4  512.60  805.62
   9   1   2 3124.90 1212.48
   9   2 -15 2236.75 1132.31
   9  -2 -15  738.77 1006.77
  -9  -2  15   86.48 1293.13
  -9   2  15 1475.19 1383.73
   9   2 -14 1920.76 1165.22
   9  -2 -14  902.50 1026.38
  -9   2  14 2158.09 1425.28
  -9  -2  14  994.00 1319.77
   9   2 -13  216.27 1103.49
   9  -2 -13  853.29  691.24
  -9  -2  13 2054.98 1133.55
  -9   2  13  -12.39 1159.23
   9   2 -12  558.63  963.08
   9  -2 -12  365.94  809.53
  -9  -2  12 -315.37  694.82
  -9   2  12 1724.76  992.81
   9   2 -11 1886.55 1381.84
   9  -2 -11 2787.80 1362.90
  -9  -2  11 2446.17  994.43
  -9   2  11 2541.99 1460.87
   9   2 -10 2172.05 1488.13
   9  -2 -10 2630.30 1429.75
  -9   2  10 4639.18 1487.01
  -9  -2  10 3091.96 1400.11
   9   2  -9  540.15  649.57
   9  -2  -9   90.13  805.03
  -9   2   9  424.19  621.15
   9   2  -8 3097.91 1080.88
   9  -2  -8   60.27  974.56
  -9   2   8  459.53 1009.16
   9   2  -7 3191.36 1500.85
  -9   2   7 3455.76 1346.07
  -9   2   6  461.91  737.92
   9   2  -5 1951.27 1195.45
  -9   2   5 2241.60 1030.87
  -9   2   4 1836.65  948.09
   9   2  -3  551.04  620.90
   9   2  -2  -43.23  631.57
   9   2  -1 3203.67  983.15
   9   2   1 3958.08 1007.01
   9   2   3  980.84  923.33
   9   2   4 1246.34  738.77
   9   3 -15 3064.20 1639.09
   9  -3 -15 4591.83 1465.39
  -9  -3  15 2850.70 1829.07
  -9   3  15 3680.37 2039.32
   9   3 -14 1068.85 1260.74
   9  -3 -14  961.04  991.27
  -9   3  14 2387.66 1356.94
  -9  -3  14  878.61 1259.20
   9   3 -13 1867.98 1332.42
   9  -3 -13 2073.35 1044.06
  -9  -3  13  651.43 1304.88
  -9   3  13 1809.60 1429.44
   9   3 -12  291.29  773.16
   9  -3 -12 1408.10  904.06
  -9   3  12 1400.89 1159.80
  -9  -3  12  375.23 1063.34
   9   3 -11  613.31 1068.43
   9  -3 -11 1273.06  927.34
  -9   3  11  795.96 1095.44
   9   3 -10 1635.43 1139.61
  -9   3  10  924.96 1136.98
   9   3  -9  673.53  913.72
  -9   3   9  356.73  655.93
   9   3  -8 1464.10  807.05
  -9   3   8 -912.69  778.98
   9   3  -7  875.56  608.30
  -9   3   7 -696.73  752.28
   9   3  -6   92.60 1022.76
  -9   3   6 1612.04  879.92
   9   3  -5  546.92  747.43
  -9   3   5 1856.65  876.73
   9   3  -4 1482.67 1047.58
  -9   3   4 1055.30  868.66
   9   3  -3  136.97  517.23
   9   3  -2 3783.76 1419.99
   9   3  -1 1789.55  806.34
   9   3   0 1824.36 1104.97
   9   3   2 1009.77  928.75
   9   3   3 2629.39 1255.72
   9   3   4 1062.90  991.55
   9   3   5 1703.94  797.09
   9   3   6  723.22  671.50
   9   3   7 1073.08  719.27
   9   4 -15 2024.09 1121.88
  -9  -4  15 -182.96 1235.29
  -9   4  15  939.31 1364.16
   9   4 -14 1548.43 1132.15
  -9   4  14 -553.21 1215.54
  -9  -4  14 1109.86 1113.31
   9   4 -13 1227.19  841.44
  -9   4  13   40.62 1231.57
   9   4 -12  882.75 1057.02
  -9   4  12  611.42  843.80
   9   4 -11 1134.32 1285.40
  -9   4  11 2278.73 1332.52
   9   4 -10 2079.03 1331.69
  -9   4  10 1949.31 1343.18
   9   4  -9 1148.52 1055.76
  -9   4   9  680.05 1042.91
   9   4  -8 2835.68 1409.12
  -9   4   8 2353.03 1347.13
   9   4  -7  877.28  770.69
  -9   4   7 1131.37  933.12
   9   4  -6 2006.00 1184.65
  -9   4   6 1449.66 1055.04
   9   4  -5 1094.46  801.52
  -9   4   5 1807.12  965.24
   9   4  -4 6965.85 1925.56
   9   4  -3 4015.69 1149.89
   9   4   3 1233.30 1030.85
   9   4   4 1284.29 1067.25
   9   4   5 1458.93 1064.73
   9   4   6  829.38  971.87
   9   4   7 2004.30 1191.64
   9   4   8 -131.69  748.82
   9   5 -14 2915.52 1743.01
  -9   5  14 4044.62 1943.49
   9   5 -13 1137.57  820.31
  -9   5  13 -150.48 1206.48
   9   5 -12 2681.87 1184.69
  -9   5  12  273.91  918.67
   9   5 -11 1836.27 1297.79
  -9   5  11 1777.46 1368.89
   9   5 -10 2149.79 1350.31
  -9   5  10 2218.97 1394.95
   9   5  -9 2025.14 1221.53
  -9   5   9 1133.01 1219.41
   9   5  -8 1601.01 1296.46
  -9   5   8 2008.76  927.27
   9   5  -7  822.64  790.25
  -9   5   7 1162.57  954.78
   9   5  -6 1970.10 1017.41
  -9   5   6  483.69  670.75
   9   5  -5  681.30  702.63
  -9   5   5  750.17  852.33
   9  -5  -3  237.60  783.12
   9  -5  -2  750.33  762.25
   9   5   0  444.95  592.80
   9   5   2 1552.60 1111.27
   9   5   3  783.93  952.92
   9   5   4 2051.17  863.89
   9   5   5 1005.27  738.18
   9   5   6   37.02  503.64
   9   5   7 1217.56 1065.88
   9   5   8 1438.14 1168.78
   9   5   9 -218.76  858.68
   9   6 -14  617.76 1108.27
  -9   6  14  650.09  912.29
   9   6 -13 -448.84  698.92
  -9   6  13 2228.36 1078.22
   9   6 -12 1530.13 1082.62
  -9   6  12  319.36  858.90
   9   6 -11 2578.47 1507.04
  -9   6  11 2688.29 1576.51
   9   6 -10  953.03  999.27
  -9   6  10  148.75 1042.53
   9   6  -9 2068.28  929.06
  -9   6   9  682.73 1258.62
   9   6  -8  972.27 1311.42
  -9   6   8 2324.93  938.60
   9   6  -7 5315.93 1382.34
  -9   6   7 4873.78 1698.73
  -9   6   6-1292.43 1019.32
  -9   6   5 2697.07 1231.17
   9  -6  -4  508.34  696.65
   9  -6  -3  669.21  963.80
   9   6  -2  534.43  697.88
   9  -6  -2 1188.74  817.07
   9   6  -1  938.87 1002.41
   9  -6  -1 1055.43  827.65
   9   6   1 1565.75  823.83
   9   6   4  849.34  960.57
   9   6   5 1943.95 1225.95
   9   6   6  659.92  976.54
   9   6   7 1167.56 1066.73
   9   6   8 2264.72 1005.14
   9   7 -14 1096.35 1274.36
   9   7 -13  578.45 1244.43
  -9   7  13 2065.28 1387.32
   9   7 -12  153.06  607.35
  -9   7  12  116.39  672.69
   9   7 -11 1376.19 1131.54
  -9   7  11  584.38 1227.51
   9   7 -10  188.66 1098.32
  -9   7  10 1759.44 1182.61
   9   7  -9  997.87  835.25
  -9   7   9 1135.89 1173.04
   9   7  -8 1044.23 1129.90
  -9   7   8 1070.74 1057.58
   9   7  -7 1076.05 1276.37
  -9   7   7 2667.69 1218.72
   9   7  -6 2521.78 1084.19
  -9   7   6 3548.71 1364.55
   9   7  -5 4179.32 1765.10
  -9   7   5 6043.71 1663.28
   9   7  -4  668.89  724.05
   9  -7  -4  820.53  783.11
   9  -7  -3  852.66 1051.90
   9  -7  -2 1644.99  994.80
   9   7  -1  283.88  570.11
   9  -7  -1  106.50  647.53
   9  -7   0  614.81  699.06
   9   7   4 1057.27 1043.08
   9   7   5 2819.25 1441.07
   9   7   6 1125.72 1107.48
   9   7   7 1623.26 1188.59
   9   7   8  623.04  998.18
   9   8 -13  890.64 1360.07
  -9   8  13 2798.01 1547.95
   9   8 -12 1525.28 1211.41
  -9   8  12  804.99 1353.11
   9   8 -11  247.53  765.81
  -9   8  11 1230.80  850.62
   9   8 -10 -556.08  754.44
  -9   8  10  560.63  817.40
   9   8  -9 2041.19 1461.44
  -9   8   9 2783.59 1480.99
   9   8  -8 1023.45  930.48
  -9   8   8 2398.93 1220.31
  -9   8   7 1950.55  927.56
  -9   8   6 4631.23 1666.52
  -9   8   5 1291.79  764.45
   9  -8  -4 1054.60 1199.16
   9   8  -3  883.60  752.91
   9  -8  -3 1295.11 1147.12
   9  -8  -2  426.95  786.37
   9  -8   0  749.62  551.64
   9   8   1  982.47  649.64
   9  -8   1 -109.53  654.99
   9   8   2  -32.80  515.45
   9   8   3  508.13  693.85
   9   8   4  933.54  753.77
   9   8   5  819.80  758.98
   9   8   6 1970.51 1310.44
   9   8   7  529.69  946.82
   9   8   8 1130.20 1181.74
   9   9 -13 -124.21  933.31
  -9   9  13  830.63 1092.38
   9   9 -12 1305.97 1208.80
  -9   9  12  968.88 1376.19
   9   9 -11 2275.66 1169.13
  -9   9  11  214.76  946.46
   9   9 -10  933.80  870.77
  -9   9  10 1511.45 1284.00
   9   9  -9 1364.25 1230.95
  -9   9   9 1306.95 1225.63
   9   9  -8 5612.10 1961.12
  -9   9   8 5019.33 1883.54
   9   9  -7 1144.93  785.01
  -9   9   7  682.80  777.69
   9   9  -6 1039.48 1256.40
  -9   9   6 2157.14 1191.03
   9  -9  -4 -491.47  901.96
   9   9  -4  396.69  577.06
   9  -9  -3  -45.63  801.87
   9  -9  -2 1679.22 1112.56
   9   9  -1  213.52  718.89
   9  -9  -1 1782.58  844.89
   9   9   0 -602.43  520.03
   9  -9   0  925.18  588.23
   9  -9   1  951.99  804.00
   9  -9   2   34.40  526.25
   9   9   4  748.45  996.52
   9   9   5 1723.05 1258.03
   9   9   6 1584.71  924.86
   9   9   7 1304.36 1165.99
   9  10 -12   92.89  661.35
  -9  10  12  545.33 1062.12
   9  10 -11  360.56 1001.94
  -9  10  11  535.13  833.28
   9  10 -10  559.94 1267.54
  -9  10  10 2422.86 1402.09
   9  10  -9 1127.51  896.70
  -9  10   9 1422.17 1239.67
  -9  10   8 5380.33 1956.60
  -9  10   7  346.87  902.12
   9  10  -6 1535.00  795.48
  -9  10   6  307.93  764.50
   9 -10  -5 2093.39 1221.06
   9 -10  -4  559.80  858.28
   9 -10  -3 2175.55 1296.06
   9  10  -2 2238.92  972.94
   9 -10  -2 1791.83 1238.76
   9 -10  -1  896.17  893.28
   9 -10   0 1312.11  960.87
   9 -10   1  720.59  789.25
   9 -10   2 1373.22  900.06
   9 -10   3  526.21  661.38
   9  10   4 2735.13 1177.28
   9 -10   4  716.35  683.97
   9  10   5 2008.12 1347.56
   9  10   6 1381.57  860.44
   9  10   7  748.68 1056.90
   9  11 -12  910.94 1106.21
  -9  11  12  531.70 1309.36
   9  11 -11  453.38  710.38
  -9  11  11  370.99  834.91
   9  11 -10 1448.69  993.09
  -9  11  10 2048.78 1425.16
   9  11  -9 1805.43 1307.31
  -9  11   9 1228.79 1342.89
   9  11  -8 1794.39 1255.34
  -9  11   8 1294.07 1288.95
   9  11  -7  820.93  928.50
  -9  11   7 3224.52 1289.56
  -9  11   6 1207.84  845.67
   9 -11  -5 1469.45 1578.48
   9  11  -4 1787.55  904.73
   9 -11  -4 1008.51 1528.70
   9  11  -3  108.11  617.14
   9 -11  -3 -756.82  836.49
   9  11  -2 1504.86 1272.26
   9 -11  -2 1822.20 1233.72
   9 -11  -1  572.27  857.56
   9 -11   0  286.92  747.38
   9 -11   1 1641.87 1009.85
   9 -11   2  999.07  885.31
   9 -11   3  690.57  733.69
   9  11   4 1520.64 1028.18
   9 -11   4  323.56  611.12
   9 -11   5  746.03  673.59
   9  11   5 1652.87 1153.19
   9  11   6 1160.84  836.17
   9  12 -11  839.22  971.93
  -9  12  11   61.82  797.63
   9  12 -10  915.73 1265.03
  -9  12  10 1504.72  994.81
   9  12  -9 2258.19 1075.86
  -9  12   9 2091.47 1535.89
  -9  12   8 1061.78 1201.29
  -9  12   7 1008.84 1161.17
   9  12  -6 1472.59 1239.38
   9  12  -5 1043.11  940.36
   9 -12  -5 2566.36 1261.32
   9 -12  -4  614.54 1325.43
   9 -12  -3 1556.87 1324.12
   9 -12  -2  124.60  814.11
   9 -12  -1 1667.51 1163.63
   9  12   0  586.29  836.22
   9 -12   0 1960.47 1035.76
   9 -12   1 3093.70 1305.17
   9 -12   2 3911.14 1040.76
   9 -12   3  539.78  734.42
   9  12   4  221.04  938.88
   9 -12   4  384.95  571.65
   9  12   5  271.76 1162.39
   9 -12   5 1208.74  702.82
   9  13 -10 -182.78  680.75
  -9  13  10  786.19  745.49
   9  13  -9 1578.74 1281.84
  -9  13   9 1307.97 1372.87
  -9  13   8 1003.80 1213.91
  -9  13   7  825.70 1138.04
   9 -13  -6 2681.28 1307.46
   9  13  -6 1152.09  928.15
   9 -13  -5 1976.34 1367.45
   9 -13  -4 1340.00 1388.43
   9 -13  -3 1280.19 1322.73
   9 -13  -2  848.67  848.90
   9  13  -1 1194.58  914.49
   9 -13  -1 2217.85 1232.21
   9  13   0  808.63  790.50
   9 -13   1 1246.39 1038.39
   9 -13   2  858.10  854.89
   9 -13   3  602.19  572.49
   9  13   4  972.13 1090.56
   9 -13   4  570.45  680.96
  -9  14   9  863.00 1239.22
   9  14  -8 2677.53 1039.34
  -9  14   8 1003.11 1530.62
   9  14  -7 1332.31  917.62
   9 -14  -6 1493.18 1764.16
   9 -14  -5  193.40 1229.65
   9 -14  -4 2094.16 1227.75
   9 -14  -3  939.67 1322.05
   9  14  -2 6330.80 1618.14
   9 -14  -2 6000.31 2182.96
   9  14  -1  581.15  779.50
   9 -14  -1  858.76  780.10
   9  14   0  958.22  948.92
   9 -14   0 2326.67 1200.80
   9 -14   1 -173.97  570.32
   9 -14   2 1192.34  976.98
   9 -14   3  187.45  680.65
   9 -15  -7  836.64 1136.31
   9 -15  -6 1477.49 1820.03
   9 -15  -5 5735.07 2870.50
   9  15  -4  514.97  726.53
   9 -15  -4  359.94 1224.02
   9  15  -3 1057.24  869.63
   9 -15  -3 1063.24 1076.14
   9  15  -2 1638.31 1007.70
   9 -15  -2 2451.74 1507.20
   9  15  -1 1517.68  980.43
   9 -15  -1 1702.84 1380.96
   9  15   0 1307.75  967.64
   9 -15   0 1670.01  926.50
   9 -15   1  428.66  926.94
   9 -16  -3 2474.19 1993.94
   9 -16  -2-1043.69 1008.05
  10   2  -8 1293.77 1301.68
  10   2  -7  102.81  853.10
  10   2  -6  975.94 1214.95
  10   3  -7 1317.39 1316.09
  10   3  -6  614.54  816.60
  10   3  -5 1184.37 1261.70
  10   4  -7 1384.42 1370.71
  10   4  -6 1887.66 1091.59
  10   4  -2 1490.17  950.36
  10   4  -1  875.22 1140.40
  10   5  -6  653.69  852.60
  10   5  -1  783.33  825.22
  10   5   0  842.39  831.49
  10   6  -5  469.12  778.09
  10   6  -4 1438.75 1361.98
   0   0   0    0.00    0.00
;
_shelx_hkl_checksum              9968
loop_
_space_group_symop_operation_xyz
'x, y, z'
'-x, y+1/2, -z+1/2'
'-x, -y, -z'
'x, -y-1/2, z-1/2'
loop_
_atom_site_label
_atom_site_type_symbol
_atom_site_fract_x
_atom_site_fract_y
_atom_site_fract_z
_atom_site_U_iso_or_equiv
_atom_site_adp_type
_atom_site_occupancy
_atom_site_site_symmetry_order
_atom_site_calc_flag
_atom_site_refinement_flags_posn
_atom_site_refinement_flags_adp
_atom_site_refinement_flags_occupancy
_atom_site_disorder_assembly
_atom_site_disorder_group
C1 C 0.8902(7) 0.5939(2) 0.3626(3) 0.0278(15) Uani 1 1 d . . . . .
C2 C 0.8257(7) 0.6402(2) 0.3611(2) 0.0261(15) Uani 1 1 d . . . . .
C3 C 0.8392(8) 0.6688(2) 0.4118(3) 0.0352(17) Uani 1 1 d . . . . .
H1 H 0.8733 0.6593 0.4511 0.042 Uiso 1 1 calc R U . . .
C4 C 0.7943(8) 0.7124(2) 0.3938(2) 0.0356(17) Uani 1 1 d . . . . .
H2 H 0.7937 0.7394 0.4180 0.043 Uiso 1 1 calc R U . . .
C5 C 0.7482(7) 0.7102(2) 0.3321(2) 0.0255(15) Uani 1 1 d . . . . .
C6 C 0.6905(7) 0.7469(2) 0.2964(2) 0.0261(15) Uani 1 1 d . . . . .
C7 C 0.6199(7) 0.74139(19) 0.2395(2) 0.0218(14) Uani 1 1 d . . . . .
C8 C 0.5215(8) 0.7755(2) 0.2069(2) 0.0301(16) Uani 1 1 d . . . . .
H3 H 0.5142 0.8076 0.2166 0.036 Uiso 1 1 calc R U . . .
C9 C 0.4414(7) 0.75391(19) 0.1603(2) 0.0233(14) Uani 1 1 d . . . . .
H4 H 0.3649 0.7675 0.1316 0.028 Uiso 1 1 calc R U . . .
C10 C 0.4944(7) 0.70631(19) 0.1623(2) 0.0223(14) Uani 1 1 d . . . . .
C11 C 0.4427(7) 0.6726(2) 0.1199(2) 0.0242(14) Uani 1 1 d . . . . .
C12 C 0.5270(8) 0.6306(2) 0.1156(2) 0.0274(15) Uani 1 1 d . . . . .
C13 C 0.5052(8) 0.5997(2) 0.0662(2) 0.0271(15) Uani 1 1 d . . . . .
H5 H 0.4219 0.6008 0.0346 0.033 Uiso 1 1 calc R U . . .
C14 C 0.6246(7) 0.5692(2) 0.0730(2) 0.0288(16) Uani 1 1 d . . . . .
H6 H 0.6452 0.5454 0.0459 0.035 Uiso 1 1 calc R U . . .
C15 C 0.7160(8) 0.5787(2) 0.1284(2) 0.0256(15) Uani 1 1 d . . . . .
C16 C 0.8428(7) 0.5531(2) 0.1535(2) 0.0241(14) Uani 1 1 d . . . . .
C17 C 0.9042(7) 0.5562(2) 0.2134(2) 0.0272(15) Uani 1 1 d . . . . .
C18 C 1.0099(8) 0.5245(2) 0.2433(3) 0.0358(17) Uani 1 1 d . . . . .
H7 H 1.0686 0.5008 0.2263 0.043 Uiso 1 1 calc R U . . .
C19 C 1.0119(8) 0.5343(2) 0.3025(2) 0.0316(16) Uani 1 1 d . . . . .
H8 H 1.0701 0.5180 0.3342 0.038 Uiso 1 1 calc R U . . .
C20 C 0.9145(7) 0.5720(2) 0.3070(2) 0.0254(15) Uani 1 1 d . . . . .
C21 C 0.6847(7) 0.7951(2) 0.3224(2) 0.0250(15) Uani 1 1 d . . . . .
C22 C 0.7818(8) 0.8307(2) 0.3075(2) 0.0302(16) Uani 1 1 d . . . . .
C23 C 0.7681(8) 0.8760(2) 0.3268(2) 0.0284(16) Uani 1 1 d . . . . .
C24 C 0.6524(8) 0.8871(2) 0.3623(2) 0.0318(16) Uani 1 1 d . . . . .
C25 C 0.5558(8) 0.8525(2) 0.3788(3) 0.0302(16) Uani 1 1 d . . . . .
C26 C 0.5716(8) 0.8074(2) 0.3587(2) 0.0319(16) Uani 1 1 d . . . . .
C27 C 0.2998(7) 0.6812(2) 0.0774(2) 0.0254(15) Uani 1 1 d . . . . .
C28 C 0.3071(8) 0.6980(2) 0.0200(2) 0.0282(15) Uani 1 1 d . . . . .
C29 C 0.1754(8) 0.7017(2) -0.0205(2) 0.0299(16) Uani 1 1 d . . . . .
C30 C 0.0316(8) 0.6888(2) -0.0052(3) 0.0304(16) Uani 1 1 d . . . . .
C31 C 0.0159(8) 0.6736(2) 0.0512(2) 0.0256(15) Uani 1 1 d . . . . .
C32 C 0.1509(8) 0.6712(2) 0.0914(2) 0.0277(15) Uani 1 1 d . . . . .
C33 C 0.9112(7) 0.5164(2) 0.1178(2) 0.0239(14) Uani 1 1 d . . . . .
C34 C 1.0497(8) 0.5253(2) 0.0928(2) 0.0269(15) Uani 1 1 d . . . . .
C35 C 1.1211(7) 0.4914(2) 0.0605(2) 0.0281(15) Uani 1 1 d . . . . .
C36 C 1.0515(8) 0.4484(2) 0.0524(2) 0.0292(16) Uani 1 1 d . . . . .
C37 C 0.9135(8) 0.4384(2) 0.0759(3) 0.0328(16) Uani 1 1 d . . . . .
C38 C 0.8473(8) 0.4725(2) 0.1085(2) 0.0310(16) Uani 1 1 d . . . . .
C39 C 0.5489(8) 0.5537(2) 0.3922(2) 0.0322(16) Uani 1 1 d . . . . .
C40 C 0.4972(8) 0.5919(2) 0.4238(3) 0.0371(17) Uani 1 1 d . . . . .
C41 C 0.5499(10) 0.5956(3) 0.4860(3) 0.052(2) Uani 1 1 d . . . . .
C42 C 0.5003(10) 0.6350(2) 0.5154(3) 0.052(2) Uani 1 1 d . . . . .
H9 H 0.5350 0.6392 0.5562 0.062 Uiso 1 1 calc R U . . .
C43 C 0.4019(10) 0.6676(3) 0.4861(3) 0.054(2) Uani 1 1 d . . . . .
H10 H 0.3673 0.6933 0.5076 0.065 Uiso 1 1 calc R U . . .
C44 C 0.3520(9) 0.6646(3) 0.4272(3) 0.050(2) Uani 1 1 d . . . . .
H11 H 0.2842 0.6878 0.4083 0.060 Uiso 1 1 calc R U . . .
C45 C 0.4023(9) 0.6266(2) 0.3949(3) 0.0406(19) Uani 1 1 d . . . . .
C46 C 0.5001(8) 0.5497(2) 0.3312(2) 0.0319(16) Uani 1 1 d . . . . .
C47 C 0.4061(8) 0.5849(2) 0.3015(3) 0.0350(17) Uani 1 1 d . . . . .
C48 C 0.3626(8) 0.5818(2) 0.2405(2) 0.0343(17) Uani 1 1 d . . . . .
H12 H 0.2981 0.6051 0.2201 0.041 Uiso 1 1 calc R U . . .
C49 C 0.4154(8) 0.5441(2) 0.2107(3) 0.0323(16) Uani 1 1 d . . . . .
H13 H 0.3868 0.5421 0.1693 0.039 Uiso 1 1 calc R U . . .
C50 C 0.5082(8) 0.5089(2) 0.2385(3) 0.0324(16) Uani 1 1 d . . . . .
H14 H 0.5403 0.4832 0.2165 0.039 Uiso 1 1 calc R U . . .
C51 C 0.5539(7) 0.5118(2) 0.2989(2) 0.0276(15) Uani 1 1 d . . . . .
C52 C 0.6423(8) 0.5181(2) 0.4216(3) 0.0339(16) Uani 1 1 d . . . . .
C53 C 0.6956(8) 0.4803(2) 0.3896(3) 0.0324(16) Uani 1 1 d . . . . .
C54 C 0.7821(8) 0.4449(2) 0.4195(3) 0.0365(17) Uani 1 1 d . . . . .
H15 H 0.8107 0.4178 0.3990 0.044 Uiso 1 1 calc R U . . .
C55 C 0.8270(8) 0.4492(2) 0.4800(3) 0.0423(19) Uani 1 1 d . . . . .
H16 H 0.8890 0.4252 0.5000 0.051 Uiso 1 1 calc R U . . .
C56 C 0.7842(9) 0.4872(3) 0.5116(3) 0.049(2) Uani 1 1 d . . . . .
H17 H 0.8185 0.4895 0.5526 0.059 Uiso 1 1 calc R U . . .
C57 C 0.6902(9) 0.5222(3) 0.4830(3) 0.049(2) Uani 1 1 d . . . . .
C58A C 0.6512(14) 0.5599(4) 0.5802(5) 0.038(4) Uiso 0.633(19) 1 d . . P A 2
H58A H 0.5573 0.5747 0.5943 0.046 Uiso 0.633(19) 1 calc R U P A 2
H58B H 0.6609 0.5274 0.5951 0.046 Uiso 0.633(19) 1 calc R U P A 2
C59A C 0.7987(15) 0.5873(4) 0.5989(6) 0.048(4) Uiso 0.633(19) 1 d . . P A 2
H59A H 0.7952 0.6174 0.5775 0.057 Uiso 0.633(19) 1 calc R U P A 2
H59B H 0.8928 0.5697 0.5895 0.057 Uiso 0.633(19) 1 calc R U P A 2
C60A C 0.8111(17) 0.5964(5) 0.6666(5) 0.048(4) Uiso 0.633(19) 1 d . . P A 2
H60A H 0.7221 0.6160 0.6753 0.072 Uiso 0.633(19) 1 calc R U P A 2
H60B H 0.9112 0.6124 0.6796 0.072 Uiso 0.633(19) 1 calc R U P A 2
H60C H 0.8079 0.5666 0.6875 0.072 Uiso 0.633(19) 1 calc R U P A 2
C58B C 0.768(3) 0.5778(7) 0.5661(10) 0.045(7) Uiso 0.367(19) 1 d . . P A 3
H58C H 0.8699 0.5613 0.5655 0.054 Uiso 0.367(19) 1 calc R U P A 3
H58D H 0.7858 0.6120 0.5646 0.054 Uiso 0.367(19) 1 calc R U P A 3
C59B C 0.688(2) 0.5644(6) 0.6193(8) 0.030(6) Uiso 0.367(19) 1 d . . P A 3
H59C H 0.5791 0.5770 0.6141 0.036 Uiso 0.367(19) 1 calc R U P A 3
H59D H 0.6804 0.5299 0.6204 0.036 Uiso 0.367(19) 1 calc R U P A 3
C60B C 0.766(2) 0.5803(7) 0.6764(7) 0.025(5) Uiso 0.367(19) 1 d . . P A 3
H60D H 0.8721 0.5664 0.6837 0.038 Uiso 0.367(19) 1 calc R U P A 3
H60E H 0.7030 0.5707 0.7076 0.038 Uiso 0.367(19) 1 calc R U P A 3
H60F H 0.7753 0.6144 0.6763 0.038 Uiso 0.367(19) 1 calc R U P A 3
C61A C 0.2063(12) 0.6500(4) 0.3072(4) 0.026(3) Uiso 0.633(18) 1 d . . P B 4
H61A H 0.1449 0.6319 0.2753 0.031 Uiso 0.633(18) 1 calc R U P B 4
H61B H 0.1359 0.6571 0.3376 0.031 Uiso 0.633(18) 1 calc R U P B 4
C62A C 0.2632(13) 0.6941(4) 0.2831(4) 0.032(3) Uiso 0.633(18) 1 d . . P B 4
H62A H 0.3448 0.7084 0.3122 0.038 Uiso 0.633(18) 1 calc R U P B 4
H62B H 0.3120 0.6875 0.2467 0.038 Uiso 0.633(18) 1 calc R U P B 4
C63A C 0.1300(16) 0.7263(4) 0.2700(6) 0.027(4) Uiso 0.633(18) 1 d . . P B 4
H63A H 0.0405 0.7097 0.2482 0.041 Uiso 0.633(18) 1 calc R U P B 4
H63B H 0.1620 0.7523 0.2461 0.041 Uiso 0.633(18) 1 calc R U P B 4
H63C H 0.0982 0.7385 0.3069 0.041 Uiso 0.633(18) 1 calc R U P B 4
C61B C 0.332(3) 0.6701(7) 0.3011(9) 0.046(7) Uiso 0.367(18) 1 d . . P B 5
H61C H 0.3844 0.6955 0.3256 0.055 Uiso 0.367(18) 1 calc R U P B 5
H61D H 0.3774 0.6689 0.2631 0.055 Uiso 0.367(18) 1 calc R U P B 5
C62B C 0.154(3) 0.6762(8) 0.2919(8) 0.043(6) Uiso 0.367(18) 1 d . . P B 5
H62C H 0.1131 0.6768 0.3307 0.052 Uiso 0.367(18) 1 calc R U P B 5
H62D H 0.1057 0.6492 0.2694 0.052 Uiso 0.367(18) 1 calc R U P B 5
C63B C 0.103(3) 0.7252(8) 0.2556(12) 0.036(7) Uiso 0.367(18) 1 d . . P B 5
H63D H 0.1521 0.7520 0.2776 0.054 Uiso 0.367(18) 1 calc R U P B 5
H63E H -0.0125 0.7286 0.2514 0.054 Uiso 0.367(18) 1 calc R U P B 5
H63F H 0.1395 0.7241 0.2165 0.054 Uiso 0.367(18) 1 calc R U P B 5
C64 C 0.7368(8) 0.4446(2) 0.2939(3) 0.0330(16) Uani 1 1 d . . . . .
H26 H 0.8417 0.4377 0.3159 0.040 Uiso 1 1 calc R U . . .
H27 H 0.7556 0.4592 0.2560 0.040 Uiso 1 1 calc R U . . .
C65 C 0.6515(8) 0.3994(2) 0.2807(3) 0.0352(17) Uani 1 1 d . . . . .
H28 H 0.5462 0.4055 0.2585 0.042 Uiso 1 1 calc R U . . .
H29 H 0.6352 0.3835 0.3180 0.042 Uiso 1 1 calc R U . . .
C66 C 0.7491(9) 0.3680(2) 0.2443(3) 0.0462(19) Uani 1 1 d . . . . .
H48 H 0.7609 0.3833 0.2066 0.069 Uiso 1 1 calc R U . . .
H49 H 0.6947 0.3380 0.2368 0.069 Uiso 1 1 calc R U . . .
H50 H 0.8540 0.3627 0.2660 0.069 Uiso 1 1 calc R U . . .
C67 C -0.1670(11) 0.7699(3) 0.1139(4) 0.083(3) Uani 1 1 d . . . . .
H39 H -0.2358 0.7675 0.0765 0.125 Uiso 1 1 calc R U . . .
H40 H -0.2217 0.7876 0.1422 0.125 Uiso 1 1 calc R U . . .
H41 H -0.1416 0.7386 0.1295 0.125 Uiso 1 1 calc R U . . .
C68 C -0.0216(12) 0.7940(3) 0.1044(4) 0.061(2) Uani 1 1 d . . . . .
N1 N 0.7693(6) 0.66477(16) 0.31164(18) 0.0240(12) Uani 1 1 d . . . . .
N2 N 0.6051(6) 0.69847(16) 0.20982(19) 0.0247(12) Uani 1 1 d . . . . .
N3 N 0.6543(6) 0.61730(16) 0.15528(18) 0.0226(12) Uani 1 1 d . . . . .
N4 N 0.8451(6) 0.58727(16) 0.25267(19) 0.0243(12) Uani 1 1 d . . . . .
N5 N 0.6400(9) 0.5611(2) 0.5131(2) 0.071(2) Uani 1 1 d . . . . .
N6 N 0.3502(8) 0.6210(2) 0.3346(2) 0.0565(19) Uani 1 1 d . . . . .
N7 N 0.6544(6) 0.47921(17) 0.3284(2) 0.0294(13) Uani 1 1 d . . . . .
N8 N 0.0892(10) 0.8116(3) 0.0965(4) 0.097(3) Uani 1 1 d . . . . .
O1 O 0.9385(5) 0.57314(15) 0.41051(17) 0.0401(12) Uani 1 1 d . . . . .
F1 F 0.8955(4) 0.82125(12) 0.27232(14) 0.0368(9) Uani 1 1 d . . . . .
F2 F 0.8655(5) 0.90953(12) 0.31126(15) 0.0405(10) Uani 1 1 d . . . . .
F3 F 0.6325(4) 0.93119(12) 0.37899(14) 0.0384(10) Uani 1 1 d . . . . .
F4 F 0.4421(4) 0.86306(12) 0.41284(15) 0.0401(10) Uani 1 1 d . . . . .
F5 F 0.4702(4) 0.77477(12) 0.37441(15) 0.0404(10) Uani 1 1 d . . . . .
F6 F 0.4496(4) 0.71045(12) 0.00391(13) 0.0365(9) Uani 1 1 d . . . . .
F7 F 0.1862(4) 0.71696(12) -0.07558(13) 0.0408(10) Uani 1 1 d . . . . .
F8 F -0.0986(4) 0.68919(12) -0.04529(14) 0.0385(10) Uani 1 1 d . . . . .
F9 F -0.1260(4) 0.66138(12) 0.06647(14) 0.0376(9) Uani 1 1 d . . . . .
F10 F 0.1327(4) 0.65609(12) 0.14647(13) 0.0342(9) Uani 1 1 d . . . . .
F11 F 1.1201(4) 0.56693(12) 0.09920(13) 0.0320(9) Uani 1 1 d . . . . .
F12 F 1.2541(4) 0.50189(11) 0.03714(14) 0.0349(9) Uani 1 1 d . . . . .
F13 F 1.1178(4) 0.41582(11) 0.02058(14) 0.0340(9) Uani 1 1 d . . . . .
F14 F 0.8477(4) 0.39584(12) 0.06753(16) 0.0427(10) Uani 1 1 d . . . . .
F15 F 0.7125(4) 0.46073(12) 0.13092(15) 0.0396(9) Uani 1 1 d . . . . .
Ni1 Ni 0.71815(9) 0.64179(3) 0.23242(3) 0.0244(3) Uani 1 1 d . . . . .
loop_
_atom_site_aniso_label
_atom_site_aniso_U_11
_atom_site_aniso_U_22
_atom_site_aniso_U_33
_atom_site_aniso_U_23
_atom_site_aniso_U_13
_atom_site_aniso_U_12
C1 0.025(4) 0.032(4) 0.027(3) -0.003(3) 0.006(3) -0.004(3)
C2 0.027(4) 0.033(4) 0.021(3) -0.001(3) 0.011(3) -0.007(3)
C3 0.042(5) 0.039(4) 0.026(3) -0.002(3) 0.008(3) -0.003(4)
C4 0.042(5) 0.038(4) 0.027(3) -0.007(3) 0.007(3) 0.003(4)
C5 0.018(4) 0.037(4) 0.021(3) -0.005(3) 0.003(3) -0.003(3)
C6 0.024(4) 0.028(4) 0.027(3) -0.001(3) 0.007(3) 0.001(3)
C7 0.024(4) 0.019(3) 0.025(3) 0.002(2) 0.012(3) -0.001(3)
C8 0.035(4) 0.031(4) 0.025(3) 0.001(3) 0.010(3) 0.004(3)
C9 0.018(4) 0.026(4) 0.027(3) 0.005(3) 0.008(3) 0.003(3)
C10 0.023(4) 0.020(3) 0.026(3) 0.004(3) 0.012(3) 0.004(3)
C11 0.022(4) 0.032(4) 0.020(3) -0.008(3) 0.008(3) -0.006(3)
C12 0.034(4) 0.027(4) 0.025(3) -0.005(3) 0.017(3) -0.001(3)
C13 0.029(4) 0.022(4) 0.031(3) -0.004(3) 0.006(3) 0.010(3)
C14 0.029(4) 0.031(4) 0.031(3) -0.003(3) 0.018(3) -0.001(3)
C15 0.032(4) 0.026(4) 0.020(3) 0.001(3) 0.009(3) 0.002(3)
C16 0.024(4) 0.028(4) 0.021(3) 0.000(3) 0.008(3) -0.003(3)
C17 0.027(4) 0.024(4) 0.033(3) 0.003(3) 0.014(3) 0.007(3)
C18 0.039(5) 0.037(4) 0.031(3) -0.005(3) 0.003(3) 0.005(4)
C19 0.034(4) 0.033(4) 0.029(3) 0.007(3) 0.008(3) 0.005(3)
C20 0.028(4) 0.022(4) 0.027(3) -0.002(3) 0.007(3) 0.002(3)
C21 0.024(4) 0.028(4) 0.024(3) -0.002(3) 0.007(3) -0.002(3)
C22 0.033(4) 0.031(4) 0.027(3) -0.001(3) 0.004(3) 0.003(3)
C23 0.028(4) 0.033(4) 0.022(3) 0.005(3) -0.007(3) -0.007(3)
C24 0.043(5) 0.026(4) 0.026(3) -0.007(3) 0.005(3) 0.000(4)
C25 0.024(4) 0.034(4) 0.033(3) -0.003(3) 0.007(3) 0.005(3)
C26 0.041(5) 0.028(4) 0.027(3) -0.002(3) 0.008(3) -0.014(3)
C27 0.030(4) 0.026(4) 0.021(3) -0.003(3) 0.006(3) 0.002(3)
C28 0.028(4) 0.032(4) 0.026(3) 0.000(3) 0.013(3) -0.001(3)
C29 0.043(5) 0.028(4) 0.017(3) 0.002(3) 0.001(3) 0.001(3)
C30 0.030(4) 0.030(4) 0.029(3) -0.007(3) -0.004(3) 0.003(3)
C31 0.028(4) 0.021(4) 0.029(3) 0.002(3) 0.007(3) -0.002(3)
C32 0.039(5) 0.022(4) 0.023(3) -0.001(3) 0.007(3) 0.004(3)
C33 0.028(4) 0.025(4) 0.018(3) 0.000(2) 0.003(3) 0.000(3)
C34 0.036(4) 0.025(4) 0.022(3) 0.004(3) 0.007(3) 0.002(3)
C35 0.026(4) 0.035(4) 0.024(3) -0.001(3) 0.009(3) 0.001(3)
C36 0.036(4) 0.029(4) 0.023(3) 0.000(3) 0.007(3) 0.007(3)
C37 0.036(5) 0.032(4) 0.031(3) -0.004(3) 0.007(3) -0.006(4)
C38 0.025(4) 0.039(4) 0.030(3) -0.004(3) 0.007(3) 0.005(3)
C39 0.035(4) 0.035(4) 0.027(3) 0.000(3) 0.008(3) -0.006(3)
C40 0.048(5) 0.038(4) 0.027(3) -0.001(3) 0.013(3) 0.003(4)
C41 0.080(6) 0.041(5) 0.034(4) -0.005(3) 0.000(4) 0.006(4)
C42 0.084(7) 0.038(5) 0.036(4) 0.001(3) 0.014(4) 0.011(4)
C43 0.087(7) 0.046(5) 0.033(4) -0.002(3) 0.022(4) 0.006(5)
C44 0.067(6) 0.044(5) 0.042(4) 0.002(3) 0.014(4) 0.014(4)
C45 0.059(5) 0.037(4) 0.027(3) 0.003(3) 0.008(3) 0.014(4)
C46 0.031(4) 0.038(4) 0.029(3) 0.001(3) 0.011(3) 0.002(3)
C47 0.038(5) 0.039(4) 0.030(3) 0.005(3) 0.013(3) 0.004(4)
C48 0.035(4) 0.043(4) 0.025(3) 0.010(3) 0.003(3) 0.003(3)
C49 0.039(5) 0.036(4) 0.024(3) -0.002(3) 0.014(3) -0.006(4)
C50 0.034(4) 0.037(4) 0.027(3) -0.008(3) 0.005(3) -0.003(3)
C51 0.027(4) 0.025(4) 0.031(3) 0.004(3) 0.007(3) -0.004(3)
C52 0.039(5) 0.036(4) 0.027(3) 0.003(3) 0.008(3) -0.003(4)
C53 0.033(4) 0.036(4) 0.029(3) 0.003(3) 0.004(3) 0.003(3)
C54 0.043(5) 0.040(4) 0.029(3) -0.001(3) 0.010(3) 0.006(4)
C55 0.043(5) 0.046(5) 0.037(4) 0.015(3) 0.006(3) 0.008(4)
C56 0.068(6) 0.056(5) 0.022(3) -0.002(3) -0.002(4) 0.007(5)
C57 0.066(6) 0.056(5) 0.024(3) 0.000(3) -0.003(4) 0.010(4)
C64 0.035(4) 0.032(4) 0.033(3) 0.006(3) 0.008(3) 0.000(3)
C65 0.029(4) 0.037(4) 0.041(4) -0.001(3) 0.014(3) -0.002(3)
C66 0.040(5) 0.051(5) 0.051(4) -0.007(3) 0.018(4) -0.005(4)
C67 0.084(7) 0.051(6) 0.128(8) -0.012(5) 0.069(6) -0.006(5)
C68 0.054(7) 0.058(6) 0.076(6) 0.016(5) 0.025(5) 0.012(5)
N1 0.026(3) 0.028(3) 0.018(2) 0.001(2) 0.005(2) -0.005(2)
N2 0.029(3) 0.023(3) 0.024(3) 0.006(2) 0.009(2) 0.004(2)
N3 0.028(3) 0.030(3) 0.011(2) 0.000(2) 0.007(2) 0.001(3)
N4 0.028(3) 0.022(3) 0.024(2) 0.006(2) 0.006(2) 0.002(2)
N5 0.117(7) 0.066(5) 0.025(3) -0.009(3) -0.019(4) 0.055(5)
N6 0.095(6) 0.047(4) 0.026(3) 0.005(3) 0.001(3) 0.031(4)
N7 0.031(3) 0.034(3) 0.024(3) -0.005(2) 0.006(2) 0.004(3)
N8 0.058(6) 0.118(8) 0.116(7) 0.058(6) 0.016(5) 0.005(5)
O1 0.050(3) 0.046(3) 0.024(2) 0.004(2) 0.001(2) 0.003(2)
F1 0.037(2) 0.042(2) 0.0352(19) -0.0059(16) 0.0172(17) -0.0044(19)
F2 0.053(3) 0.030(2) 0.041(2) -0.0014(16) 0.0154(19) -0.007(2)
F3 0.048(3) 0.029(2) 0.038(2) -0.0082(16) 0.0021(18) 0.0004(19)
F4 0.035(2) 0.045(2) 0.044(2) -0.0128(17) 0.0187(18) 0.0006(19)
F5 0.043(3) 0.039(2) 0.043(2) -0.0087(17) 0.0230(18) -0.004(2)
F6 0.035(2) 0.049(2) 0.0271(18) 0.0014(16) 0.0107(17) -0.0028(19)
F7 0.049(3) 0.053(2) 0.0207(17) 0.0126(16) 0.0047(17) 0.003(2)
F8 0.040(3) 0.042(2) 0.0327(19) 0.0001(16) -0.0021(18) -0.0020(19)
F9 0.028(2) 0.045(2) 0.040(2) 0.0040(17) 0.0085(17) -0.0020(19)
F10 0.041(2) 0.042(2) 0.0217(17) 0.0023(15) 0.0087(16) -0.0004(18)
F11 0.034(2) 0.028(2) 0.0359(19) -0.0030(15) 0.0121(16) -0.0006(18)
F12 0.036(2) 0.038(2) 0.0338(19) -0.0035(16) 0.0183(17) 0.0006(19)
F13 0.036(2) 0.034(2) 0.0359(19) -0.0085(16) 0.0170(17) -0.0010(18)
F14 0.043(3) 0.031(2) 0.057(2) -0.0148(18) 0.0218(19) -0.0070(19)
F15 0.034(2) 0.039(2) 0.050(2) -0.0106(17) 0.0239(19) -0.0048(19)
Ni1 0.0282(5) 0.0269(5) 0.0193(4) -0.0008(3) 0.0084(3) 0.0005(4)
loop_
_atom_type_symbol
_atom_type_description
_atom_type_scat_dispersion_real
_atom_type_scat_dispersion_imag
_atom_type_scat_source
C C 0.0041 0.0020 'International Tables Vol C Tables 4.2.6.8 and 6.1.1.4'
H H 0.0000 0.0000 'International Tables Vol C Tables 4.2.6.8 and 6.1.1.4'
F F 0.0215 0.0127 'International Tables Vol C Tables 4.2.6.8 and 6.1.1.4'
N N 0.0078 0.0041 'International Tables Vol C Tables 4.2.6.8 and 6.1.1.4'
Ni Ni 0.3232 1.3233 'International Tables Vol C Tables 4.2.6.8 and 6.1.1.4'
O O 0.0135 0.0075 'International Tables Vol C Tables 4.2.6.8 and 6.1.1.4'
loop_
_geom_angle_atom_site_label_1
_geom_angle_atom_site_label_2
_geom_angle_atom_site_label_3
_geom_angle
_geom_angle_site_symmetry_1
_geom_angle_site_symmetry_3
_geom_angle_publ_flag
O1 C1 C2 122.5(5) . . ?
O1 C1 C20 119.2(6) . . ?
C2 C1 C20 118.1(5) . . ?
N1 C2 C3 111.5(5) . . ?
N1 C2 C1 126.3(5) . . ?
C3 C2 C1 121.4(5) . . ?
C4 C3 C2 106.9(5) . . ?
C4 C3 H1 126.5 . . ?
C2 C3 H1 126.5 . . ?
C3 C4 C5 107.2(6) . . ?
C3 C4 H2 126.4 . . ?
C5 C4 H2 126.4 . . ?
C6 C5 N1 123.9(5) . . ?
C6 C5 C4 126.1(6) . . ?
N1 C5 C4 110.0(5) . . ?
C7 C6 C5 123.7(5) . . ?
C7 C6 C21 116.6(5) . . ?
C5 C6 C21 119.2(5) . . ?
C6 C7 N2 124.2(5) . . ?
C6 C7 C8 125.1(5) . . ?
N2 C7 C8 109.4(5) . . ?
C9 C8 C7 108.0(5) . . ?
C9 C8 H3 126.0 . . ?
C7 C8 H3 126.0 . . ?
C8 C9 C10 106.4(5) . . ?
C8 C9 H4 126.8 . . ?
C10 C9 H4 126.8 . . ?
N2 C10 C11 124.4(5) . . ?
N2 C10 C9 111.5(5) . . ?
C11 C10 C9 124.1(5) . . ?
C10 C11 C12 121.1(5) . . ?
C10 C11 C27 120.2(5) . . ?
C12 C11 C27 118.7(5) . . ?
N3 C12 C11 123.7(5) . . ?
N3 C12 C13 111.5(5) . . ?
C11 C12 C13 124.3(6) . . ?
C14 C13 C12 106.7(6) . . ?
C14 C13 H5 126.6 . . ?
C12 C13 H5 126.6 . . ?
C13 C14 C15 107.7(5) . . ?
C13 C14 H6 126.1 . . ?
C15 C14 H6 126.1 . . ?
C16 C15 N3 123.8(5) . . ?
C16 C15 C14 125.9(5) . . ?
N3 C15 C14 110.3(5) . . ?
C15 C16 C17 123.7(5) . . ?
C15 C16 C33 119.0(5) . . ?
C17 C16 C33 117.0(5) . . ?
N4 C17 C18 111.0(5) . . ?
N4 C17 C16 123.0(5) . . ?
C18 C17 C16 125.1(6) . . ?
C19 C18 C17 106.2(6) . . ?
C19 C18 H7 126.9 . . ?
C17 C18 H7 126.9 . . ?
C20 C19 C18 107.3(5) . . ?
C20 C19 H8 126.3 . . ?
C18 C19 H8 126.3 . . ?
C19 C20 N4 112.3(5) . . ?
C19 C20 C1 123.7(5) . . ?
N4 C20 C1 124.0(5) . . ?
C22 C21 C26 115.9(6) . . ?
C22 C21 C6 122.1(5) . . ?
C26 C21 C6 121.8(6) . . ?
F1 C22 C23 118.1(6) . . ?
F1 C22 C21 119.1(5) . . ?
C23 C22 C21 122.8(6) . . ?
F2 C23 C22 120.6(6) . . ?
F2 C23 C24 119.6(6) . . ?
C22 C23 C24 119.8(6) . . ?
F3 C24 C25 120.4(6) . . ?
F3 C24 C23 120.5(6) . . ?
C25 C24 C23 119.1(6) . . ?
F4 C25 C24 119.5(6) . . ?
F4 C25 C26 120.4(6) . . ?
C24 C25 C26 120.0(6) . . ?
F5 C26 C25 117.9(6) . . ?
F5 C26 C21 119.6(5) . . ?
C25 C26 C21 122.5(6) . . ?
C32 C27 C28 115.7(5) . . ?
C32 C27 C11 121.1(5) . . ?
C28 C27 C11 123.1(6) . . ?
F6 C28 C29 118.8(5) . . ?
F6 C28 C27 118.9(5) . . ?
C29 C28 C27 122.3(6) . . ?
F7 C29 C30 119.3(5) . . ?
F7 C29 C28 121.1(6) . . ?
C30 C29 C28 119.5(5) . . ?
F8 C30 C29 120.8(5) . . ?
F8 C30 C31 118.3(6) . . ?
C29 C30 C31 120.9(6) . . ?
F9 C31 C30 120.9(5) . . ?
F9 C31 C32 121.0(5) . . ?
C30 C31 C32 118.1(6) . . ?
F10 C32 C27 119.5(5) . . ?
F10 C32 C31 117.1(6) . . ?
C27 C32 C31 123.3(5) . . ?
C38 C33 C34 116.2(5) . . ?
C38 C33 C16 123.7(6) . . ?
C34 C33 C16 120.0(5) . . ?
F11 C34 C33 120.5(5) . . ?
F11 C34 C35 117.5(6) . . ?
C33 C34 C35 122.0(6) . . ?
F12 C35 C36 121.3(5) . . ?
F12 C35 C34 119.5(6) . . ?
C36 C35 C34 119.2(6) . . ?
F13 C36 C35 119.6(6) . . ?
F13 C36 C37 119.7(6) . . ?
C35 C36 C37 120.6(6) . . ?
F14 C37 C36 119.5(6) . . ?
F14 C37 C38 121.8(6) . . ?
C36 C37 C38 118.7(6) . . ?
F15 C38 C33 120.5(5) . . ?
F15 C38 C37 116.3(6) . . ?
C33 C38 C37 123.2(6) . . ?
C40 C39 C46 119.8(6) . . ?
C40 C39 C52 120.5(5) . . ?
C46 C39 C52 119.6(6) . . ?
C45 C40 C39 120.5(6) . . ?
C45 C40 C41 120.5(6) . . ?
C39 C40 C41 118.9(6) . . ?
N5 C41 C42 123.6(6) . . ?
N5 C41 C40 119.3(6) . . ?
C42 C41 C40 117.1(7) . . ?
C43 C42 C41 120.8(7) . . ?
C43 C42 H9 119.6 . . ?
C41 C42 H9 119.6 . . ?
C44 C43 C42 122.6(7) . . ?
C44 C43 H10 118.7 . . ?
C42 C43 H10 118.7 . . ?
C43 C44 C45 119.2(7) . . ?
C43 C44 H11 120.4 . . ?
C45 C44 H11 120.4 . . ?
C40 C45 N6 118.6(6) . . ?
C40 C45 C44 119.7(6) . . ?
N6 C45 C44 121.5(6) . . ?
C39 C46 C47 120.1(6) . . ?
C39 C46 C51 120.1(6) . . ?
C47 C46 C51 119.7(5) . . ?
N6 C47 C48 121.4(6) . . ?
N6 C47 C46 118.5(5) . . ?
C48 C47 C46 120.0(6) . . ?
C49 C48 C47 118.6(6) . . ?
C49 C48 H12 120.7 . . ?
C47 C48 H12 120.7 . . ?
C48 C49 C50 122.9(6) . . ?
C48 C49 H13 118.6 . . ?
C50 C49 H13 118.6 . . ?
C49 C50 C51 119.3(6) . . ?
C49 C50 H14 120.4 . . ?
C51 C50 H14 120.4 . . ?
N7 C51 C50 121.8(6) . . ?
N7 C51 C46 118.7(5) . . ?
C50 C51 C46 119.5(6) . . ?
C53 C52 C39 120.2(5) . . ?
C53 C52 C57 120.4(6) . . ?
C39 C52 C57 119.3(6) . . ?
C54 C53 N7 122.1(6) . . ?
C54 C53 C52 119.3(5) . . ?
N7 C53 C52 118.6(5) . . ?
C53 C54 C55 119.4(6) . . ?
C53 C54 H15 120.3 . . ?
C55 C54 H15 120.3 . . ?
C56 C55 C54 122.1(6) . . ?
C56 C55 H16 118.9 . . ?
C54 C55 H16 118.9 . . ?
C55 C56 C57 119.6(6) . . ?
C55 C56 H17 120.2 . . ?
C57 C56 H17 120.2 . . ?
C56 C57 N5 122.1(6) . . ?
C56 C57 C52 119.0(6) . . ?
N5 C57 C52 119.0(6) . . ?
C59A C58A N5 103.1(9) . . ?
C59A C58A H58A 111.1 . . ?
N5 C58A H58A 111.1 . . ?
C59A C58A H58B 111.1 . . ?
N5 C58A H58B 111.1 . . ?
H58A C58A H58B 109.1 . . ?
C58A C59A C60A 109.1(12) . . ?
C58A C59A H59A 109.9 . . ?
C60A C59A H59A 109.9 . . ?
C58A C59A H59B 109.9 . . ?
C60A C59A H59B 109.9 . . ?
H59A C59A H59B 108.3 . . ?
C59A C60A H60A 109.5 . . ?
C59A C60A H60B 109.5 . . ?
H60A C60A H60B 109.5 . . ?
C59A C60A H60C 109.5 . . ?
H60A C60A H60C 109.5 . . ?
H60B C60A H60C 109.5 . . ?
C59B C58B N5 101.9(15) . . ?
C59B C58B H58C 111.4 . . ?
N5 C58B H58C 111.4 . . ?
C59B C58B H58D 111.4 . . ?
N5 C58B H58D 111.4 . . ?
H58C C58B H58D 109.2 . . ?
C60B C59B C58B 116.4(19) . . ?
C60B C59B H59C 108.2 . . ?
C58B C59B H59C 108.2 . . ?
C60B C59B H59D 108.2 . . ?
C58B C59B H59D 108.2 . . ?
H59C C59B H59D 107.3 . . ?
C59B C60B H60D 109.5 . . ?
C59B C60B H60E 109.5 . . ?
H60D C60B H60E 109.5 . . ?
C59B C60B H60F 109.5 . . ?
H60D C60B H60F 109.5 . . ?
H60E C60B H60F 109.5 . . ?
C62A C61A N6 109.3(9) . . ?
C62A C61A H61A 109.8 . . ?
N6 C61A H61A 109.8 . . ?
C62A C61A H61B 109.8 . . ?
N6 C61A H61B 109.8 . . ?
H61A C61A H61B 108.3 . . ?
C63A C62A C61A 109.5(10) . . ?
C63A C62A H62A 109.8 . . ?
C61A C62A H62A 109.8 . . ?
C63A C62A H62B 109.8 . . ?
C61A C62A H62B 109.8 . . ?
H62A C62A H62B 108.2 . . ?
C62A C63A H63A 109.5 . . ?
C62A C63A H63B 109.5 . . ?
H63A C63A H63B 109.5 . . ?
C62A C63A H63C 109.5 . . ?
H63A C63A H63C 109.5 . . ?
H63B C63A H63C 109.5 . . ?
C62B C61B N6 101.8(15) . . ?
C62B C61B H61C 111.4 . . ?
N6 C61B H61C 111.4 . . ?
C62B C61B H61D 111.4 . . ?
N6 C61B H61D 111.4 . . ?
H61C C61B H61D 109.3 . . ?
C61B C62B C63B 111.4(19) . . ?
C61B C62B H62C 109.3 . . ?
C63B C62B H62C 109.3 . . ?
C61B C62B H62D 109.3 . . ?
C63B C62B H62D 109.3 . . ?
H62C C62B H62D 108.0 . . ?
C62B C63B H63D 109.5 . . ?
C62B C63B H63E 109.5 . . ?
H63D C63B H63E 109.5 . . ?
C62B C63B H63F 109.5 . . ?
H63D C63B H63F 109.5 . . ?
H63E C63B H63F 109.5 . . ?
N7 C64 C65 115.7(5) . . ?
N7 C64 H26 108.3 . . ?
C65 C64 H26 108.3 . . ?
N7 C64 H27 108.3 . . ?
C65 C64 H27 108.3 . . ?
H26 C64 H27 107.4 . . ?
C64 C65 C66 109.6(5) . . ?
C64 C65 H28 109.7 . . ?
C66 C65 H28 109.7 . . ?
C64 C65 H29 109.7 . . ?
C66 C65 H29 109.7 . . ?
H28 C65 H29 108.2 . . ?
C65 C66 H48 109.5 . . ?
C65 C66 H49 109.5 . . ?
H48 C66 H49 109.5 . . ?
C65 C66 H50 109.5 . . ?
H48 C66 H50 109.5 . . ?
H49 C66 H50 109.5 . . ?
C68 C67 H39 109.5 . . ?
C68 C67 H40 109.5 . . ?
H39 C67 H40 109.5 . . ?
C68 C67 H41 109.5 . . ?
H39 C67 H41 109.5 . . ?
H40 C67 H41 109.5 . . ?
N8 C68 C67 178.7(12) . . ?
C2 N1 C5 104.3(4) . . ?
C2 N1 Ni1 128.2(4) . . ?
C5 N1 Ni1 127.4(4) . . ?
C10 N2 C7 104.7(4) . . ?
C10 N2 Ni1 128.7(4) . . ?
C7 N2 Ni1 126.6(4) . . ?
C12 N3 C15 103.6(4) . . ?
C12 N3 Ni1 128.2(4) . . ?
C15 N3 Ni1 127.9(4) . . ?
C20 N4 C17 103.2(5) . . ?
C20 N4 Ni1 129.9(4) . . ?
C17 N4 Ni1 126.6(4) . . ?
C41 N5 C57 122.8(5) . . ?
C41 N5 C58A 116.2(7) . . ?
C57 N5 C58A 119.3(6) . . ?
C41 N5 C58B 115.0(9) . . ?
C57 N5 C58B 113.0(9) . . ?
C47 N6 C45 121.9(6) . . ?
C47 N6 C61A 118.7(6) . . ?
C45 N6 C61A 118.5(6) . . ?
C47 N6 C61B 114.2(8) . . ?
C45 N6 C61B 111.7(9) . . ?
C51 N7 C53 122.5(5) . . ?
C51 N7 C64 119.5(5) . . ?
C53 N7 C64 117.7(5) . . ?
N3 Ni1 N4 90.8(2) . . ?
N3 Ni1 N2 89.1(2) . . ?
N4 Ni1 N2 175.6(2) . . ?
N3 Ni1 N1 176.1(2) . . ?
N4 Ni1 N1 89.6(2) . . ?
N2 Ni1 N1 90.8(2) . . ?
loop_
_geom_bond_atom_site_label_1
_geom_bond_atom_site_label_2
_geom_bond_distance
_geom_bond_site_symmetry_2
_geom_bond_publ_flag
C1 O1 1.269(7) . ?
C1 C2 1.434(8) . ?
C1 C20 1.452(8) . ?
C2 N1 1.367(7) . ?
C2 C3 1.413(8) . ?
C3 C4 1.353(8) . ?
C3 H1 0.9500 . ?
C4 C5 1.419(7) . ?
C4 H2 0.9500 . ?
C5 C6 1.384(8) . ?
C5 N1 1.400(7) . ?
C6 C7 1.374(7) . ?
C6 C21 1.504(8) . ?
C7 N2 1.401(7) . ?
C7 C8 1.433(8) . ?
C8 C9 1.345(8) . ?
C8 H3 0.9500 . ?
C9 C10 1.433(7) . ?
C9 H4 0.9500 . ?
C10 N2 1.368(7) . ?
C10 C11 1.401(7) . ?
C11 C12 1.407(8) . ?
C11 C27 1.484(8) . ?
C12 N3 1.380(7) . ?
C12 C13 1.428(8) . ?
C13 C14 1.333(8) . ?
C13 H5 0.9500 . ?
C14 C15 1.430(8) . ?
C14 H6 0.9500 . ?
C15 C16 1.371(8) . ?
C15 N3 1.396(7) . ?
C16 C17 1.409(8) . ?
C16 C33 1.489(8) . ?
C17 N4 1.397(7) . ?
C17 C18 1.398(8) . ?
C18 C19 1.379(8) . ?
C18 H7 0.9500 . ?
C19 C20 1.370(8) . ?
C19 H8 0.9500 . ?
C20 N4 1.381(7) . ?
C21 C22 1.380(8) . ?
C21 C26 1.386(8) . ?
C22 F1 1.355(7) . ?
C22 C23 1.377(8) . ?
C23 F2 1.341(7) . ?
C23 C24 1.383(9) . ?
C24 F3 1.333(7) . ?
C24 C25 1.367(9) . ?
C25 F4 1.344(7) . ?
C25 C26 1.383(8) . ?
C26 F5 1.347(7) . ?
C27 C32 1.371(8) . ?
C27 C28 1.403(8) . ?
C28 F6 1.354(7) . ?
C28 C29 1.368(8) . ?
C29 F7 1.346(6) . ?
C29 C30 1.360(9) . ?
C30 F8 1.350(7) . ?
C30 C31 1.381(8) . ?
C31 F9 1.340(7) . ?
C31 C32 1.383(8) . ?
C32 F10 1.356(6) . ?
C33 C38 1.374(8) . ?
C33 C34 1.390(8) . ?
C34 F11 1.334(6) . ?
C34 C35 1.399(8) . ?
C35 F12 1.339(7) . ?
C35 C36 1.367(8) . ?
C36 F13 1.346(7) . ?
C36 C37 1.377(9) . ?
C37 F14 1.343(7) . ?
C37 C38 1.387(8) . ?
C38 F15 1.351(7) . ?
C39 C40 1.406(9) . ?
C39 C46 1.410(8) . ?
C39 C52 1.413(8) . ?
C40 C45 1.395(9) . ?
C40 C41 1.443(8) . ?
C41 N5 1.354(9) . ?
C41 C42 1.403(9) . ?
C42 C43 1.373(9) . ?
C42 H9 0.9500 . ?
C43 C44 1.363(9) . ?
C43 H10 0.9500 . ?
C44 C45 1.408(9) . ?
C44 H11 0.9500 . ?
C45 N6 1.405(8) . ?
C46 C47 1.410(8) . ?
C46 C51 1.418(8) . ?
C47 N6 1.394(8) . ?
C47 C48 1.402(8) . ?
C48 C49 1.378(8) . ?
C48 H12 0.9500 . ?
C49 C50 1.384(8) . ?
C49 H13 0.9500 . ?
C50 C51 1.392(8) . ?
C50 H14 0.9500 . ?
C51 N7 1.383(7) . ?
C52 C53 1.409(9) . ?
C52 C57 1.417(8) . ?
C53 C54 1.385(8) . ?
C53 N7 1.401(7) . ?
C54 C55 1.394(8) . ?
C54 H15 0.9500 . ?
C55 C56 1.376(9) . ?
C55 H16 0.9500 . ?
C56 C57 1.395(9) . ?
C56 H17 0.9500 . ?
C57 N5 1.400(9) . ?
C58A C59A 1.50(2) . ?
C58A N5 1.523(13) . ?
C58A H58A 0.9900 . ?
C58A H58B 0.9900 . ?
C59A C60A 1.560(18) . ?
C59A H59A 0.9900 . ?
C59A H59B 0.9900 . ?
C60A H60A 0.9800 . ?
C60A H60B 0.9800 . ?
C60A H60C 0.9800 . ?
C58B C59B 1.51(3) . ?
C58B N5 1.60(2) . ?
C58B H58C 0.9900 . ?
C58B H58D 0.9900 . ?
C59B C60B 1.46(2) . ?
C59B H59C 0.9900 . ?
C59B H59D 0.9900 . ?
C60B H60D 0.9800 . ?
C60B H60E 0.9800 . ?
C60B H60F 0.9800 . ?
C61A C62A 1.479(18) . ?
C61A N6 1.548(12) . ?
C61A H61A 0.9900 . ?
C61A H61B 0.9900 . ?
C62A C63A 1.463(18) . ?
C62A H62A 0.9900 . ?
C62A H62B 0.9900 . ?
C63A H63A 0.9800 . ?
C63A H63B 0.9800 . ?
C63A H63C 0.9800 . ?
C61B C62B 1.51(4) . ?
C61B N6 1.60(2) . ?
C61B H61C 0.9900 . ?
C61B H61D 0.9900 . ?
C62B C63B 1.66(3) . ?
C62B H62C 0.9900 . ?
C62B H62D 0.9900 . ?
C63B H63D 0.9800 . ?
C63B H63E 0.9800 . ?
C63B H63F 0.9800 . ?
C64 N7 1.491(7) . ?
C64 C65 1.495(8) . ?
C64 H26 0.9900 . ?
C64 H27 0.9900 . ?
C65 C66 1.533(9) . ?
C65 H28 0.9900 . ?
C65 H29 0.9900 . ?
C66 H48 0.9800 . ?
C66 H49 0.9800 . ?
C66 H50 0.9800 . ?
C67 C68 1.452(12) . ?
C67 H39 0.9800 . ?
C67 H40 0.9800 . ?
C67 H41 0.9800 . ?
C68 N8 1.101(10) . ?
N1 Ni1 1.926(4) . ?
N2 Ni1 1.923(5) . ?
N3 Ni1 1.914(4) . ?
N4 Ni1 1.921(5) . ?
loop_
_geom_torsion_atom_site_label_1
_geom_torsion_atom_site_label_2
_geom_torsion_atom_site_label_3
_geom_torsion_atom_site_label_4
_geom_torsion
_geom_torsion_site_symmetry_1
_geom_torsion_site_symmetry_2
_geom_torsion_site_symmetry_3
_geom_torsion_site_symmetry_4
_geom_torsion_publ_flag
O1 C1 C2 N1 -179.1(6) . . . . ?
C20 C1 C2 N1 6.8(9) . . . . ?
O1 C1 C2 C3 12.1(10) . . . . ?
C20 C1 C2 C3 -162.0(6) . . . . ?
N1 C2 C3 C4 -1.5(7) . . . . ?
C1 C2 C3 C4 168.8(6) . . . . ?
C2 C3 C4 C5 1.9(7) . . . . ?
C3 C4 C5 C6 178.3(6) . . . . ?
C3 C4 C5 N1 -1.7(7) . . . . ?
N1 C5 C6 C7 12.7(10) . . . . ?
C4 C5 C6 C7 -167.3(6) . . . . ?
N1 C5 C6 C21 -175.3(5) . . . . ?
C4 C5 C6 C21 4.7(9) . . . . ?
C5 C6 C7 N2 -3.4(10) . . . . ?
C21 C6 C7 N2 -175.6(5) . . . . ?
C5 C6 C7 C8 161.9(6) . . . . ?
C21 C6 C7 C8 -10.3(9) . . . . ?
C6 C7 C8 C9 -164.0(6) . . . . ?
N2 C7 C8 C9 3.2(7) . . . . ?
C7 C8 C9 C10 -2.1(6) . . . . ?
C8 C9 C10 N2 0.3(7) . . . . ?
C8 C9 C10 C11 -177.8(6) . . . . ?
N2 C10 C11 C12 -14.6(9) . . . . ?
C9 C10 C11 C12 163.2(6) . . . . ?
N2 C10 C11 C27 167.3(5) . . . . ?
C9 C10 C11 C27 -14.8(9) . . . . ?
C10 C11 C12 N3 6.8(9) . . . . ?
C27 C11 C12 N3 -175.1(5) . . . . ?
C10 C11 C12 C13 -164.8(6) . . . . ?
C27 C11 C12 C13 13.3(9) . . . . ?
N3 C12 C13 C14 -4.1(7) . . . . ?
C11 C12 C13 C14 168.4(6) . . . . ?
C12 C13 C14 C15 3.7(7) . . . . ?
C13 C14 C15 C16 175.4(6) . . . . ?
C13 C14 C15 N3 -2.3(7) . . . . ?
N3 C15 C16 C17 13.9(10) . . . . ?
C14 C15 C16 C17 -163.5(6) . . . . ?
N3 C15 C16 C33 -172.4(5) . . . . ?
C14 C15 C16 C33 10.2(9) . . . . ?
C15 C16 C17 N4 -2.5(10) . . . . ?
C33 C16 C17 N4 -176.4(5) . . . . ?
C15 C16 C17 C18 166.0(6) . . . . ?
C33 C16 C17 C18 -7.9(9) . . . . ?
N4 C17 C18 C19 2.7(7) . . . . ?
C16 C17 C18 C19 -167.0(6) . . . . ?
C17 C18 C19 C20 -2.1(7) . . . . ?
C18 C19 C20 N4 0.9(8) . . . . ?
C18 C19 C20 C1 -177.7(6) . . . . ?
O1 C1 C20 C19 -12.5(10) . . . . ?
C2 C1 C20 C19 161.7(6) . . . . ?
O1 C1 C20 N4 169.0(5) . . . . ?
C2 C1 C20 N4 -16.8(9) . . . . ?
C7 C6 C21 C22 -76.3(8) . . . . ?
C5 C6 C21 C22 111.1(7) . . . . ?
C7 C6 C21 C26 97.9(7) . . . . ?
C5 C6 C21 C26 -74.7(8) . . . . ?
C26 C21 C22 F1 179.7(5) . . . . ?
C6 C21 C22 F1 -5.8(9) . . . . ?
C26 C21 C22 C23 -0.5(9) . . . . ?
C6 C21 C22 C23 173.9(5) . . . . ?
F1 C22 C23 F2 -0.4(8) . . . . ?
C21 C22 C23 F2 179.9(5) . . . . ?
F1 C22 C23 C24 179.4(5) . . . . ?
C21 C22 C23 C24 -0.4(9) . . . . ?
F2 C23 C24 F3 3.0(8) . . . . ?
C22 C23 C24 F3 -176.8(5) . . . . ?
F2 C23 C24 C25 -178.7(5) . . . . ?
C22 C23 C24 C25 1.5(9) . . . . ?
F3 C24 C25 F4 -1.1(9) . . . . ?
C23 C24 C25 F4 -179.4(5) . . . . ?
F3 C24 C25 C26 176.6(5) . . . . ?
C23 C24 C25 C26 -1.7(9) . . . . ?
F4 C25 C26 F5 -0.1(9) . . . . ?
C24 C25 C26 F5 -177.7(5) . . . . ?
F4 C25 C26 C21 178.5(5) . . . . ?
C24 C25 C26 C21 0.8(10) . . . . ?
C22 C21 C26 F5 178.8(5) . . . . ?
C6 C21 C26 F5 4.3(9) . . . . ?
C22 C21 C26 C25 0.3(9) . . . . ?
C6 C21 C26 C25 -174.2(6) . . . . ?
C10 C11 C27 C32 -85.8(7) . . . . ?
C12 C11 C27 C32 96.1(7) . . . . ?
C10 C11 C27 C28 97.1(7) . . . . ?
C12 C11 C27 C28 -81.0(8) . . . . ?
C32 C27 C28 F6 177.4(5) . . . . ?
C11 C27 C28 F6 -5.4(9) . . . . ?
C32 C27 C28 C29 -3.5(9) . . . . ?
C11 C27 C28 C29 173.8(6) . . . . ?
F6 C28 C29 F7 0.6(9) . . . . ?
C27 C28 C29 F7 -178.6(5) . . . . ?
F6 C28 C29 C30 179.3(5) . . . . ?
C27 C28 C29 C30 0.1(9) . . . . ?
F7 C29 C30 F8 3.1(9) . . . . ?
C28 C29 C30 F8 -175.7(5) . . . . ?
F7 C29 C30 C31 -179.0(5) . . . . ?
C28 C29 C30 C31 2.3(9) . . . . ?
F8 C30 C31 F9 -2.6(9) . . . . ?
C29 C30 C31 F9 179.4(5) . . . . ?
F8 C30 C31 C32 176.9(5) . . . . ?
C29 C30 C31 C32 -1.1(9) . . . . ?
C28 C27 C32 F10 -178.1(5) . . . . ?
C11 C27 C32 F10 4.6(8) . . . . ?
C28 C27 C32 C31 4.8(9) . . . . ?
C11 C27 C32 C31 -172.5(5) . . . . ?
F9 C31 C32 F10 -0.3(8) . . . . ?
C30 C31 C32 F10 -179.9(5) . . . . ?
F9 C31 C32 C27 176.9(5) . . . . ?
C30 C31 C32 C27 -2.6(9) . . . . ?
C15 C16 C33 C38 -80.3(7) . . . . ?
C17 C16 C33 C38 93.9(7) . . . . ?
C15 C16 C33 C34 101.3(7) . . . . ?
C17 C16 C33 C34 -84.5(7) . . . . ?
C38 C33 C34 F11 179.8(5) . . . . ?
C16 C33 C34 F11 -1.7(8) . . . . ?
C38 C33 C34 C35 -0.6(8) . . . . ?
C16 C33 C34 C35 177.8(5) . . . . ?
F11 C34 C35 F12 -0.7(8) . . . . ?
C33 C34 C35 F12 179.7(5) . . . . ?
F11 C34 C35 C36 -179.3(5) . . . . ?
C33 C34 C35 C36 1.1(9) . . . . ?
F12 C35 C36 F13 0.3(8) . . . . ?
C34 C35 C36 F13 178.9(5) . . . . ?
F12 C35 C36 C37 -179.0(5) . . . . ?
C34 C35 C36 C37 -0.4(9) . . . . ?
F13 C36 C37 F14 1.0(9) . . . . ?
C35 C36 C37 F14 -179.7(5) . . . . ?
F13 C36 C37 C38 -180.0(5) . . . . ?
C35 C36 C37 C38 -0.7(9) . . . . ?
C34 C33 C38 F15 -179.7(5) . . . . ?
C16 C33 C38 F15 1.8(9) . . . . ?
C34 C33 C38 C37 -0.5(9) . . . . ?
C16 C33 C38 C37 -179.0(6) . . . . ?
F14 C37 C38 F15 -0.6(9) . . . . ?
C36 C37 C38 F15 -179.6(5) . . . . ?
F14 C37 C38 C33 -179.8(5) . . . . ?
C36 C37 C38 C33 1.2(9) . . . . ?
C46 C39 C40 C45 -2.2(10) . . . . ?
C52 C39 C40 C45 -178.7(6) . . . . ?
C46 C39 C40 C41 -179.3(6) . . . . ?
C52 C39 C40 C41 4.2(10) . . . . ?
C45 C40 C41 N5 179.1(7) . . . . ?
C39 C40 C41 N5 -3.8(11) . . . . ?
C45 C40 C41 C42 0.7(11) . . . . ?
C39 C40 C41 C42 177.8(7) . . . . ?
N5 C41 C42 C43 -176.5(8) . . . . ?
C40 C41 C42 C43 1.8(12) . . . . ?
C41 C42 C43 C44 -2.3(13) . . . . ?
C42 C43 C44 C45 0.1(12) . . . . ?
C39 C40 C45 N6 4.6(11) . . . . ?
C41 C40 C45 N6 -178.4(7) . . . . ?
C39 C40 C45 C44 -179.8(7) . . . . ?
C41 C40 C45 C44 -2.8(11) . . . . ?
C43 C44 C45 C40 2.4(12) . . . . ?
C43 C44 C45 N6 177.8(7) . . . . ?
C40 C39 C46 C47 3.1(10) . . . . ?
C52 C39 C46 C47 179.6(6) . . . . ?
C40 C39 C46 C51 178.9(6) . . . . ?
C52 C39 C46 C51 -4.6(10) . . . . ?
C39 C46 C47 N6 -6.3(10) . . . . ?
C51 C46 C47 N6 177.8(6) . . . . ?
C39 C46 C47 C48 177.6(6) . . . . ?
C51 C46 C47 C48 1.7(10) . . . . ?
N6 C47 C48 C49 -176.8(6) . . . . ?
C46 C47 C48 C49 -0.9(10) . . . . ?
C47 C48 C49 C50 0.7(10) . . . . ?
C48 C49 C50 C51 -1.4(10) . . . . ?
C49 C50 C51 N7 -176.0(6) . . . . ?
C49 C50 C51 C46 2.2(9) . . . . ?
C39 C46 C51 N7 0.0(9) . . . . ?
C47 C46 C51 N7 175.9(6) . . . . ?
C39 C46 C51 C50 -178.3(6) . . . . ?
C47 C46 C51 C50 -2.4(9) . . . . ?
C40 C39 C52 C53 -179.1(6) . . . . ?
C46 C39 C52 C53 4.5(10) . . . . ?
C40 C39 C52 C57 -3.2(10) . . . . ?
C46 C39 C52 C57 -179.7(6) . . . . ?
C39 C52 C53 C54 -177.7(6) . . . . ?
C57 C52 C53 C54 6.5(10) . . . . ?
C39 C52 C53 N7 0.2(10) . . . . ?
C57 C52 C53 N7 -175.7(6) . . . . ?
N7 C53 C54 C55 176.5(6) . . . . ?
C52 C53 C54 C55 -5.7(10) . . . . ?
C53 C54 C55 C56 1.9(11) . . . . ?
C54 C55 C56 C57 1.4(12) . . . . ?
C55 C56 C57 N5 178.5(8) . . . . ?
C55 C56 C57 C52 -0.7(12) . . . . ?
C53 C52 C57 C56 -3.2(11) . . . . ?
C39 C52 C57 C56 -179.1(7) . . . . ?
C53 C52 C57 N5 177.6(7) . . . . ?
C39 C52 C57 N5 1.7(11) . . . . ?
N5 C58A C59A C60A 170.5(9) . . . . ?
N5 C58B C59B C60B -172.7(13) . . . . ?
N6 C61A C62A C63A -166.6(9) . . . . ?
N6 C61B C62B C63B -178.6(15) . . . . ?
N7 C64 C65 C66 179.0(5) . . . . ?
C3 C2 N1 C5 0.5(7) . . . . ?
C1 C2 N1 C5 -169.3(6) . . . . ?
C3 C2 N1 Ni1 -176.2(4) . . . . ?
C1 C2 N1 Ni1 14.0(9) . . . . ?
C6 C5 N1 C2 -179.3(6) . . . . ?
C4 C5 N1 C2 0.7(7) . . . . ?
C6 C5 N1 Ni1 -2.6(8) . . . . ?
C4 C5 N1 Ni1 177.4(4) . . . . ?
C11 C10 N2 C7 179.7(5) . . . . ?
C9 C10 N2 C7 1.6(6) . . . . ?
C11 C10 N2 Ni1 -0.3(8) . . . . ?
C9 C10 N2 Ni1 -178.3(4) . . . . ?
C6 C7 N2 C10 164.4(6) . . . . ?
C8 C7 N2 C10 -2.9(6) . . . . ?
C6 C7 N2 Ni1 -15.6(8) . . . . ?
C8 C7 N2 Ni1 177.1(4) . . . . ?
C11 C12 N3 C15 -170.0(5) . . . . ?
C13 C12 N3 C15 2.6(6) . . . . ?
C11 C12 N3 Ni1 15.8(8) . . . . ?
C13 C12 N3 Ni1 -171.7(4) . . . . ?
C16 C15 N3 C12 -178.0(6) . . . . ?
C14 C15 N3 C12 -0.2(6) . . . . ?
C16 C15 N3 Ni1 -3.7(9) . . . . ?
C14 C15 N3 Ni1 174.0(4) . . . . ?
C19 C20 N4 C17 0.7(7) . . . . ?
C1 C20 N4 C17 179.3(6) . . . . ?
C19 C20 N4 Ni1 -172.6(4) . . . . ?
C1 C20 N4 Ni1 6.0(9) . . . . ?
C18 C17 N4 C20 -2.0(7) . . . . ?
C16 C17 N4 C20 167.9(6) . . . . ?
C18 C17 N4 Ni1 171.6(4) . . . . ?
C16 C17 N4 Ni1 -18.5(8) . . . . ?
C42 C41 N5 C57 -179.2(8) . . . . ?
C40 C41 N5 C57 2.5(13) . . . . ?
C42 C41 N5 C58A 15.4(13) . . . . ?
C40 C41 N5 C58A -162.9(8) . . . . ?
C42 C41 N5 C58B -34.6(14) . . . . ?
C40 C41 N5 C58B 147.1(11) . . . . ?
C56 C57 N5 C41 179.4(8) . . . . ?
C52 C57 N5 C41 -1.4(13) . . . . ?
C56 C57 N5 C58A -15.7(13) . . . . ?
C52 C57 N5 C58A 163.5(8) . . . . ?
C56 C57 N5 C58B 34.1(13) . . . . ?
C52 C57 N5 C58B -146.7(10) . . . . ?
C59A C58A N5 C41 -93.7(10) . . . . ?
C59A C58A N5 C57 100.4(10) . . . . ?
C59B C58B N5 C41 102.1(13) . . . . ?
C59B C58B N5 C57 -109.8(13) . . . . ?
C48 C47 N6 C45 -175.0(7) . . . . ?
C46 C47 N6 C45 8.9(11) . . . . ?
C48 C47 N6 C61A 15.9(11) . . . . ?
C46 C47 N6 C61A -160.1(7) . . . . ?
C48 C47 N6 C61B -35.9(13) . . . . ?
C46 C47 N6 C61B 148.0(10) . . . . ?
C40 C45 N6 C47 -8.1(11) . . . . ?
C44 C45 N6 C47 176.4(7) . . . . ?
C40 C45 N6 C61A 161.0(7) . . . . ?
C44 C45 N6 C61A -14.5(11) . . . . ?
C40 C45 N6 C61B -148.1(10) . . . . ?
C44 C45 N6 C61B 36.4(13) . . . . ?
C62A C61A N6 C47 -98.5(9) . . . . ?
C62A C61A N6 C45 92.1(9) . . . . ?
C62B C61B N6 C47 111.3(13) . . . . ?
C62B C61B N6 C45 -105.4(13) . . . . ?
C50 C51 N7 C53 -176.9(6) . . . . ?
C46 C51 N7 C53 4.8(9) . . . . ?
C50 C51 N7 C64 10.0(9) . . . . ?
C46 C51 N7 C64 -168.3(6) . . . . ?
C54 C53 N7 C51 172.9(6) . . . . ?
C52 C53 N7 C51 -4.9(9) . . . . ?
C54 C53 N7 C64 -13.9(9) . . . . ?
C52 C53 N7 C64 168.3(6) . . . . ?
C65 C64 N7 C51 -91.1(7) . . . . ?
C65 C64 N7 C53 95.5(7) . . . . ?
