#------------------------------------------------------------------------------
#$Date: 2021-06-15 04:02:23 +0300 (Tue, 15 Jun 2021) $
#$Revision: 266448 $
#$URL: file:///home/coder/svn-repositories/cod/cif/1/56/34/1563419.cif $
#------------------------------------------------------------------------------
#
# This file is available in the Crystallography Open Database (COD),
# http://www.crystallography.net/
#
# All data on this site have been placed in the public domain by the
# contributors.
#
data_1563419
loop_
_publ_author_name
'Sasano, Yoshifumi'
'Maeda, Hiromitsu'
'Tanaka, Hiroki'
'Haketa, Yohei'
'Kobayashi, Yoichi'
'Ishibashi, Yukihide'
'Asahi, Tsuyoshi'
'Morimoto, Tatsuki'
'Yasuda, Nobuhiro'
'Sato, Ryuma'
'Shigeta, Yasuteru'
_publ_section_title
;
 Ion-pairing&#x00A0;\p-electronic systems: ordered arrangement and
 noncovalent interactions of negatively charged porphyrins
;
_journal_name_full               'Chemical Science'
_journal_paper_doi               10.1039/D1SC02260A
_journal_year                    2021
_chemical_formula_moiety         'C38 H8 F15 N4 O Pd, C28 H30 N3'
_chemical_formula_sum            'C66 H38 F15 N7 O Pd'
_chemical_formula_weight         1336.43
_space_group_crystal_system      monoclinic
_space_group_IT_number           14
_space_group_name_Hall           '-P 2ybc'
_space_group_name_H-M_alt        'P 1 21/c 1'
_atom_sites_solution_hydrogens   geom
_audit_creation_method           SHELXL-2014/7
_audit_update_record
;
2019-03-30 deposited with the CCDC.	2021-06-14 downloaded from the CCDC.
;
_cell_angle_alpha                90
_cell_angle_beta                 90.213(2)
_cell_angle_gamma                90
_cell_formula_units_Z            4
_cell_length_a                   8.8987(2)
_cell_length_b                   18.5720(5)
_cell_length_c                   32.3929(8)
_cell_measurement_reflns_used    22814
_cell_measurement_temperature    90(2)
_cell_measurement_theta_max      28.101
_cell_measurement_theta_min      1.390
_cell_volume                     5353.4(2)
_computing_cell_refinement       'Rapid Auto(Rigaku)'
_computing_data_collection       'Rapid Auto(Rigaku)'
_computing_data_reduction        'Rapid Auto(Rigaku)'
_computing_structure_refinement  'SHELXL-2014/7 (Sheldrick, 2014)'
_computing_structure_solution    'SHELXS-97 (Sheldrick, 1990)'
_diffrn_ambient_temperature      90(2)
_diffrn_detector_area_resol_mean 29
_diffrn_measured_fraction_theta_full 0.986
_diffrn_measured_fraction_theta_max 0.984
_diffrn_measurement_device_type  'Rigaku Saturn 724'
_diffrn_measurement_method       'Oscillation Photograph'
_diffrn_radiation_monochromator  'Si(111) Channel Cut'
_diffrn_radiation_type           Synchrotron
_diffrn_radiation_wavelength     0.78192
_diffrn_reflns_av_R_equivalents  0.1270
_diffrn_reflns_av_unetI/netI     0.1690
_diffrn_reflns_Laue_measured_fraction_full 0.986
_diffrn_reflns_Laue_measured_fraction_max 0.984
_diffrn_reflns_limit_h_max       10
_diffrn_reflns_limit_h_min       -9
_diffrn_reflns_limit_k_max       22
_diffrn_reflns_limit_k_min       -22
_diffrn_reflns_limit_l_max       38
_diffrn_reflns_limit_l_min       -37
_diffrn_reflns_number            22814
_diffrn_reflns_point_group_measured_fraction_full 0.986
_diffrn_reflns_point_group_measured_fraction_max 0.984
_diffrn_reflns_theta_full        27.979
_diffrn_reflns_theta_max         28.101
_diffrn_reflns_theta_min         1.390
_diffrn_source                   'synchrotron radiation SPring-8 BL40XU'
_exptl_absorpt_coefficient_mu    0.576
_exptl_absorpt_correction_T_max  1.000
_exptl_absorpt_correction_T_min  0.388
_exptl_absorpt_correction_type   multi-scan
_exptl_absorpt_process_details   'ABSCOR (T.Higashi, 2001)'
_exptl_crystal_colour            yellow
_exptl_crystal_density_diffrn    1.658
_exptl_crystal_density_meas      ?
_exptl_crystal_description       needle
_exptl_crystal_F_000             2688
_exptl_crystal_size_max          0.120
_exptl_crystal_size_mid          0.005
_exptl_crystal_size_min          0.005
_refine_diff_density_max         1.356
_refine_diff_density_min         -1.748
_refine_diff_density_rms         0.143
_refine_ls_extinction_method     none
_refine_ls_goodness_of_fit_ref   0.966
_refine_ls_hydrogen_treatment    constr
_refine_ls_matrix_type           full
_refine_ls_number_parameters     814
_refine_ls_number_reflns         9642
_refine_ls_number_restraints     0
_refine_ls_restrained_S_all      0.966
_refine_ls_R_factor_all          0.1528
_refine_ls_R_factor_gt           0.0878
_refine_ls_shift/su_max          0.001
_refine_ls_shift/su_mean         0.000
_refine_ls_structure_factor_coef Fsqd
_refine_ls_weighting_details
'w=1/[\s^2^(Fo^2^)+(0.1339P)^2^] where P=(Fo^2^+2Fc^2^)/3'
_refine_ls_weighting_scheme      calc
_refine_ls_wR_factor_gt          0.2039
_refine_ls_wR_factor_ref         0.2495
_reflns_Friedel_coverage         0.000
_reflns_number_gt                5342
_reflns_number_total             9642
_reflns_threshold_expression     'I > 2\s(I)'
_cod_data_source_file            d1sc02260a2.cif
_cod_data_source_block           180131_ys-4-1_rev
_cod_depositor_comments
;
The following automatic conversions were performed:

data item '_exptl_crystal_density_meas' value 'not measured' was
changed to '?' -- the value is perceived as not measured.

Automatic conversion script
Id: cif_fix_values 7556 2019-12-06 15:28:31Z antanas 
;
_cod_original_sg_symbol_H-M      'P 21/c'
_cod_database_code               1563419
_shelx_shelxl_version_number     2014/7
_shelx_space_group_comment
;
The symmetry employed for this shelxl refinement is uniquely defined
by the following loop, which should always be used as a source of
symmetry information in preference to the above space-group names.
They are only intended as comments.
;
_shelx_res_file
;

    ydkr.res created by SHELXL-2014/7

TITL ydkr_a.res in P2(1)/c
REM  Yadorkari-X generated
CELL 0.78192 8.8987 18.5720 32.3929 90.0000 90.2130 90.0000
ZERR 4.0 0.0002 0.0005 0.0008 0.0000 0.0020 0.0000
LATT 1
SYMM -X, 1/2+Y, 1/2-Z
REM  SPGR P21/c monoclinic
SFAC C H F N O Pd
DISP    C     0.00409    0.00201        13.88
DISP    H     0.00000    0.00000         0.67
DISP    F     0.02148    0.01270        66.00
DISP    N     0.00779    0.00411        24.46
DISP    O     0.01350    0.00752        41.15
DISP    Pd   -0.77341    1.20091      5570.26
UNIT 264 152 60 28 4 4
TEMP -183.0
L.S. 20
FMAP 2
PLAN -20
ACTA
CONF
LIST 4
BOND $H
OMIT   -2    1    8
OMIT    0    0    2

WGHT    0.133900
FVAR       1.82730
C3    1    0.419233    0.710511    0.264018    11.00000    0.03322    0.03041 =
         0.04207    0.00791    0.00822    0.00531
C5    1    0.451618    0.579983    0.280318    11.00000    0.02333    0.02680 =
         0.04006    0.00127   -0.00710    0.00074
F10   3    0.397936    0.444089    0.439352    11.00000    0.03463    0.02997 =
         0.05381   -0.00260    0.00922    0.00148
F12   3    1.178532    0.708528    0.532724    11.00000    0.03778    0.05012 =
         0.06016    0.00630   -0.00784   -0.00480
PD1   6    0.576345    0.681723    0.346233    11.00000    0.03127    0.02624 =
         0.03842    0.00038    0.00122    0.00009
C16   1    0.800453    0.852685    0.407578    11.00000    0.03044    0.03624 =
         0.04106   -0.00517   -0.01036   -0.00472
AFIX  43
H16   2    0.867884    0.871203    0.427752    11.00000   -1.20000
AFIX   0
F1    3    0.110446    0.629814    0.226098    11.00000    0.03250    0.05168 =
         0.04538   -0.00004    0.00417    0.00069
C15   1    0.743075    0.781119    0.405819    11.00000    0.02896    0.02668 =
         0.04538    0.00013    0.00109   -0.00201
C23   1    0.175412    0.596404    0.159317    11.00000    0.03632    0.02769 =
         0.05146    0.00852   -0.00795   -0.00726
C27   1    0.581790    0.427669    0.387391    11.00000    0.03252    0.02698 =
         0.03705   -0.00081   -0.00730   -0.00161
C31   1    0.488590    0.328031    0.429092    11.00000    0.03299    0.03414 =
         0.04181    0.00309   -0.00338   -0.00334
C34   1    0.974643    0.718597    0.486420    11.00000    0.03601    0.03731 =
         0.03518   -0.00057   -0.00137   -0.00395
F4    3    0.536214    0.564408    0.113481    11.00000    0.06207    0.04934 =
         0.04731   -0.00346    0.00631    0.01003
F6    3    0.766004    0.397587    0.337775    11.00000    0.03716    0.03322 =
         0.04394   -0.00066    0.00822    0.00161
C21   1    0.367298    0.616226    0.211405    11.00000    0.03032    0.02596 =
         0.04768    0.00158   -0.00479   -0.00057
C28   1    0.671509    0.376251    0.367929    11.00000    0.03156    0.03031 =
         0.03485    0.00406    0.00077    0.00299
F7    3    0.763768    0.258875    0.358753    11.00000    0.05423    0.03236 =
         0.04588   -0.00459   -0.00146    0.01115
C14   1    0.764436    0.726376    0.434749    11.00000    0.02189    0.03459 =
         0.03474    0.00364    0.00303    0.01043
F5    3    0.618451    0.598383    0.190452    11.00000    0.03776    0.04952 =
         0.05107   -0.00711    0.00120    0.00655
C10   1    0.633797    0.554342    0.403467    11.00000    0.03047    0.03327 =
         0.03931   -0.00120    0.00440    0.00069
F8    3    0.578076    0.210612    0.419451    11.00000    0.06626    0.02490 =
         0.04996    0.00197   -0.00161   -0.00291
F9    3    0.398618    0.304831    0.459623    11.00000    0.04707    0.03676 =
         0.05298    0.00909    0.01259   -0.00357
C9    1    0.578523    0.503866    0.375043    11.00000    0.03139    0.01854 =
         0.03428   -0.00253    0.00173    0.00701
F3    3    0.241383    0.563441    0.091374    11.00000    0.06904    0.03756 =
         0.04229   -0.00114   -0.01607   -0.00115
C33   1    0.839648    0.748363    0.473755    11.00000    0.02644    0.03435 =
         0.04200    0.00294    0.00192   -0.00754
F2    3    0.027986    0.595635    0.148948    11.00000    0.04388    0.05672 =
         0.05277    0.00476   -0.01011   -0.01014
F11   3    1.035776    0.666177    0.464146    11.00000    0.03596    0.04438 =
         0.05047   -0.00744    0.00249    0.00461
C32   1    0.490012    0.399623    0.418814    11.00000    0.03144    0.02786 =
         0.04537   -0.00436    0.00154    0.00213
F13   3    1.052159    0.809030    0.582148    11.00000    0.06560    0.05367 =
         0.04621   -0.00347   -0.01594   -0.00102
C4    1    0.413777    0.635928    0.253937    11.00000    0.02476    0.03743 =
         0.03582    0.00174   -0.00396    0.00448
C13   1    0.719044    0.655909    0.430555    11.00000    0.02620    0.02935 =
         0.03385    0.00006    0.00053    0.00195
C17   1    0.741212    0.889685    0.375146    11.00000    0.04043    0.02368 =
         0.05220   -0.00650   -0.00050   -0.00641
AFIX  43
H17   2    0.760137    0.938591    0.368320    11.00000   -1.20000
AFIX   0
F14   3    0.785605    0.870513    0.560916    11.00000    0.07067    0.04300 =
         0.05730   -0.01464   -0.00493    0.00853
F15   3    0.645098    0.830573    0.491013    11.00000    0.04065    0.03658 =
         0.05341   -0.00382    0.00156    0.00661
N1    4    0.655881    0.626916    0.395263    11.00000    0.02172    0.02760 =
         0.03771   -0.01003    0.00176   -0.00029
N2    4    0.505908    0.587818    0.319993    11.00000    0.02735    0.03968 =
         0.03143   -0.00040   -0.00221    0.00003
N3    4    0.488326    0.737369    0.298686    11.00000    0.02550    0.02703 =
         0.04269   -0.00569   -0.00101   -0.00442
N4    4    0.655299    0.774451    0.371044    11.00000    0.03158    0.04178 =
         0.04600    0.00321    0.00002   -0.00299
O1    5    0.528106    0.930418    0.314613    11.00000    0.05441    0.02692 =
         0.04682   -0.00298   -0.00324    0.00025
C22   1    0.217805    0.612997    0.198618    11.00000    0.03116    0.03506 =
         0.04559   -0.00506    0.00278   -0.00041
C44   1    0.833938    0.580707    0.279795    11.00000    0.02924    0.03277 =
         0.05296   -0.00467    0.00218   -0.00652
AFIX  43
H44   2    0.771218    0.545624    0.267135    11.00000   -1.20000
AFIX   0
C55   1    1.007319    0.681958    0.318728    11.00000    0.02235    0.03488 =
         0.04165   -0.00330    0.00344   -0.00516
C57   1    1.091676    0.734934    0.339938    11.00000    0.03441    0.02693 =
         0.04764   -0.00740    0.00416    0.00012
N5    4    1.123257    0.590460    0.360125    11.00000    0.03151    0.03436 =
         0.04610    0.00474    0.00930    0.00081
N6    4    0.898125    0.775375    0.275010    11.00000    0.03610    0.03322 =
         0.04356   -0.00094   -0.00108    0.00320
N7    4    1.250712    0.840466    0.382750    11.00000    0.03934    0.03545 =
         0.04627   -0.00169   -0.00233   -0.00191
C2    1    0.358350    0.766228    0.239880    11.00000    0.03594    0.02305 =
         0.04005    0.00054   -0.00620   -0.00336
AFIX  43
H2    2    0.305362    0.760898    0.214550    11.00000   -1.20000
AFIX   0
C1    1    0.389604    0.829642    0.259659    11.00000    0.03563    0.02509 =
         0.04612    0.00064   -0.00012    0.00102
AFIX  43
H1    2    0.361354    0.876638    0.251037    11.00000   -1.20000
AFIX   0
C6    1    0.434474    0.505645    0.270854    11.00000    0.04085    0.03151 =
         0.03787   -0.00372   -0.00218   -0.00693
AFIX  43
H6    2    0.401152    0.485635    0.245429    11.00000   -1.20000
AFIX   0
C7    1    0.475372    0.468815    0.305527    11.00000    0.03384    0.02208 =
         0.04690   -0.00055   -0.00061   -0.00798
AFIX  43
H7    2    0.472975    0.418037    0.309006    11.00000   -1.20000
AFIX   0
C8    1    0.523006    0.520858    0.336028    11.00000    0.02529    0.02420 =
         0.04115    0.00092   -0.00031   -0.00092
C11   1    0.682842    0.538693    0.445214    11.00000    0.03699    0.03568 =
         0.03579   -0.00069    0.00246    0.00290
AFIX  43
H11   2    0.680536    0.493058    0.458446    11.00000   -1.20000
AFIX   0
C12   1    0.732541    0.601187    0.461845    11.00000    0.03052    0.02853 =
         0.04138   -0.00654    0.00114    0.00270
AFIX  43
H12   2    0.769524    0.607751    0.489136    11.00000   -1.20000
AFIX   0
C18   1    0.645853    0.841485    0.353439    11.00000    0.03655    0.02812 =
         0.04225    0.00288    0.00485    0.00197
C19   1    0.546219    0.863103    0.320781    11.00000    0.04480    0.03371 =
         0.04080    0.00587   -0.00384   -0.00041
C20   1    0.472375    0.811229    0.295508    11.00000    0.03680    0.03115 =
         0.03013   -0.00052    0.00447    0.00371
C24   1    0.283113    0.580519    0.129758    11.00000    0.04214    0.02431 =
         0.04214    0.00457   -0.00445   -0.00037
C25   1    0.431810    0.581152    0.141302    11.00000    0.05204    0.02405 =
         0.04295   -0.00370    0.00760    0.00825
C26   1    0.470521    0.599622    0.181209    11.00000    0.03229    0.03470 =
         0.04258    0.00364    0.00080   -0.00161
C29   1    0.669374    0.304681    0.377622    11.00000    0.03092    0.04071 =
         0.03072   -0.00259   -0.00230    0.00124
C30   1    0.578977    0.280277    0.409316    11.00000    0.03695    0.02827 =
         0.04399    0.00696    0.00208    0.00008
C35   1    1.045858    0.739652    0.521844    11.00000    0.03920    0.03709 =
         0.04276    0.00161   -0.00652    0.00373
C36   1    0.982713    0.791476    0.547017    11.00000    0.04507    0.04133 =
         0.03547    0.00347   -0.00940   -0.00644
C37   1    0.849322    0.820612    0.535990    11.00000    0.05365    0.03734 =
         0.03768   -0.00515   -0.00134    0.00765
C38   1    0.779264    0.800164    0.500101    11.00000    0.03354    0.02682 =
         0.04888   -0.00515   -0.00306    0.00095
C39   1    1.064864    0.949944    0.302912    11.00000    0.05306    0.02866 =
         0.05550   -0.00224    0.01144   -0.00230
AFIX  43
H39   2    1.062395    0.998459    0.293639    11.00000   -1.20000
AFIX   0
C40   1    0.980619    0.898625    0.281462    11.00000    0.04252    0.03449 =
         0.05417   -0.00126    0.00266    0.00135
AFIX  43
H40   2    0.921722    0.912410    0.258253    11.00000   -1.20000
AFIX   0
C41   1    0.983507    0.827666    0.294223    11.00000    0.04184    0.03226 =
         0.04431   -0.00357    0.00120    0.00058
C42   1    0.906121    0.703060    0.286288    11.00000    0.02978    0.03167 =
         0.04502    0.00076    0.00899    0.00081
C43   1    0.819077    0.650299    0.266576    11.00000    0.02766    0.05277 =
         0.04403   -0.00315    0.00343   -0.00985
AFIX  43
H43   2    0.752033    0.662457    0.244775    11.00000   -1.20000
AFIX   0
C45   1    0.930786    0.557413    0.309505    11.00000    0.03329    0.03141 =
         0.05322   -0.00168    0.00803   -0.00265
AFIX  43
H45   2    0.937125    0.507874    0.316609    11.00000   -1.20000
AFIX   0
C46   1    1.021746    0.609351    0.329476    11.00000    0.03018    0.04021 =
         0.04872   -0.00043    0.00561   -0.00184
C47   1    1.197989    0.640730    0.383535    11.00000    0.03099    0.04012 =
         0.04261   -0.00170    0.00218   -0.00212
C48   1    1.288033    0.622694    0.416984    11.00000    0.03706    0.03083 =
         0.05121    0.00083    0.00593    0.00293
AFIX  43
H48   2    1.303643    0.573649    0.424142    11.00000   -1.20000
AFIX   0
C49   1    1.355508    0.677481    0.440028    11.00000    0.03328    0.05754 =
         0.03996    0.00301   -0.00134    0.00259
AFIX  43
H49   2    1.412619    0.664482    0.463717    11.00000   -1.20000
AFIX   0
C50   1    1.343573    0.749082    0.430223    11.00000    0.03392    0.04231 =
         0.05817   -0.00785    0.00381   -0.00456
AFIX  43
H50   2    1.391740    0.784473    0.446804    11.00000   -1.20000
AFIX   0
C51   1    1.260346    0.769270    0.395806    11.00000    0.03678    0.03798 =
         0.04015   -0.00707    0.00189   -0.00707
C52   1    1.161593    0.861967    0.350033    11.00000    0.03519    0.03491 =
         0.04900   -0.00668    0.01046   -0.00386
C53   1    1.153116    0.932944    0.337611    11.00000    0.04645    0.03468 =
         0.05712   -0.01051    0.01075   -0.00234
AFIX  43
H53   2    1.205806    0.969495    0.352205    11.00000   -1.20000
AFIX   0
C54   1    1.076885    0.808214    0.327552    11.00000    0.03420    0.03568 =
         0.04238   -0.00185    0.00519   -0.00414
C56   1    1.183550    0.715541    0.372797    11.00000    0.03207    0.03526 =
         0.04156   -0.00085    0.00123    0.00644
C58   1    0.796102    0.794294    0.240759    11.00000    0.04081    0.03790 =
         0.05456    0.00609    0.00158    0.00297
AFIX  23
H58   2    0.767144    0.845595    0.243109    11.00000   -1.20000
H58A  2    0.703566    0.764913    0.242684    11.00000   -1.20000
AFIX   0
C59   1    0.869562    0.781569    0.199237    11.00000    0.04350    0.04952 =
         0.04199   -0.00250    0.00187   -0.00549
AFIX  23
H59   2    0.914780    0.732870    0.198856    11.00000   -1.20000
H59A  2    0.951255    0.817064    0.195288    11.00000   -1.20000
AFIX   0
C60   1    0.755999    0.788228    0.163537    11.00000    0.04560    0.06613 =
         0.06112    0.00281    0.00318    0.00634
AFIX 137
H60   2    0.670993    0.755844    0.168476    11.00000   -1.50000
H60A  2    0.804914    0.775115    0.137545    11.00000   -1.50000
H60B  2    0.719723    0.837966    0.161841    11.00000   -1.50000
AFIX   0
C61   1    1.142227    0.513308    0.370661    11.00000    0.03229    0.02574 =
         0.06896    0.01317    0.00323    0.00355
AFIX  23
H61   2    1.245160    0.504975    0.381333    11.00000   -1.20000
H61A  2    1.128436    0.483599    0.345555    11.00000   -1.20000
AFIX   0
C62   1    1.029523    0.491451    0.402694    11.00000    0.03497    0.03633 =
         0.06351    0.00726    0.00645    0.00408
AFIX  23
H62   2    0.927475    0.504581    0.393023    11.00000   -1.20000
H62A  2    1.049732    0.518243    0.428546    11.00000   -1.20000
AFIX   0
C63   1    1.034836    0.410524    0.411581    11.00000    0.04447    0.04584 =
         0.08087    0.02156   -0.00398   -0.00861
AFIX 137
H63   2    1.018022    0.383783    0.385895    11.00000   -1.50000
H63A  2    0.956420    0.398108    0.431515    11.00000   -1.50000
H63B  2    1.133466    0.397880    0.423022    11.00000   -1.50000
AFIX   0
C64   1    1.333478    0.895189    0.406462    11.00000    0.05272    0.03556 =
         0.04654   -0.00047   -0.00597   -0.01548
AFIX  23
H64   2    1.359275    0.935914    0.388085    11.00000   -1.20000
H64A  2    1.428437    0.874109    0.416927    11.00000   -1.20000
AFIX   0
C65   1    1.241208    0.923045    0.442776    11.00000    0.06007    0.04995 =
         0.07323   -0.02169   -0.00094   -0.00552
AFIX  23
H65   2    1.158829    0.953931    0.432284    11.00000   -1.20000
H65A  2    1.195549    0.881805    0.457484    11.00000   -1.20000
AFIX   0
C66   1    1.338082    0.966106    0.472781    11.00000    0.07631    0.05701 =
         0.07368   -0.00490   -0.00547   -0.00645
AFIX 137
H66   2    1.426390    0.937625    0.480625    11.00000   -1.50000
H66A  2    1.279521    0.977524    0.497493    11.00000   -1.50000
H66B  2    1.370649    1.010870    0.459526    11.00000   -1.50000

AFIX   0
HKLF 4

REM  ydkr_a.res in P2(1)/c
REM R1 =  0.0878 for    5342 Fo > 4sig(Fo)  and  0.1528 for all    9642 data
REM    814 parameters refined using      0 restraints

END

WGHT      0.1345      0.0000

REM Highest difference peak  1.356,  deepest hole -1.748,  1-sigma level  0.143
Q1    1   0.5277  0.6803  0.3220  11.00000  0.05    1.27
Q2    1   0.6274  0.6820  0.3701  11.00000  0.05    0.95
Q3    1   0.5750  0.9584  0.3475  11.00000  0.05    0.92
Q4    1   1.2693  0.8175  0.4605  11.00000  0.05    0.88
Q5    1   0.5020  0.6372  0.3791  11.00000  0.05    0.83
Q6    1   0.5150  0.7445  0.3165  11.00000  0.05    0.77
Q7    1   0.6885  0.6262  0.3581  11.00000  0.05    0.73
Q8    1   0.6188  0.6798  0.2997  11.00000  0.05    0.63
Q9    1   0.5314  0.6825  0.3901  11.00000  0.05    0.61
Q10   1   0.5203  0.7343  0.3806  11.00000  0.05    0.58
Q11   1   0.5797  0.8782  0.2394  11.00000  0.05    0.57
Q12   1   0.4534  0.6264  0.3381  11.00000  0.05    0.55
Q13   1   0.7316  0.5185  0.3617  11.00000  0.05    0.54
Q14   1   0.6704  0.7990  0.3556  11.00000  0.05    0.53
Q15   1   0.6863  0.7731  0.3810  11.00000  0.05    0.51
Q16   1   0.4665  0.8022  0.3339  11.00000  0.05    0.49
Q17   1   0.7223  0.7236  0.3585  11.00000  0.05    0.49
Q18   1   0.7500  0.6787  0.3607  11.00000  0.05    0.49
Q19   1   0.7760  0.6842  0.3000  11.00000  0.05    0.49
Q20   1   0.6657  0.7659  0.3404  11.00000  0.05    0.49
;
_shelx_res_checksum              81189
_shelx_hkl_file
;
   0   0   1  131.31   40.22
   0   0  -231637.76 1474.80
   0   0   3  -59.01  300.48
   0   0   3 -157.19  229.90
   0   0  -3  178.33  145.32
   0   0  -3   -1.90  195.55
   0   0   5  894.52  469.92
   0   0   5 1105.18  667.21
   0   0  -5  705.56  322.82
   0   0  -5  966.78  409.15
   0   0   6 4080.23  679.02
   0   0   6 4881.77  940.22
   0   0  -6 3488.72  557.02
   0   0  -6 3274.34  453.34
   0   0   7  118.87  562.67
   0   0   7  116.89  510.65
   0   0  -7 -337.34  448.70
   0   0  -7   66.70  352.63
   0   0   811718.30 1306.63
   0   0   813601.35 1450.52
   0   0  -8 9442.76  733.28
   0   0   9 -354.38  587.85
   0   0   9  206.60  575.69
   0   0  -9 -173.88  312.17
   0   0  -9  153.87  333.99
   0   0  1058782.60 5910.08
   0   0  1059383.42 6592.73
   0   0  11  -58.10  596.11
   0   0  11  -43.13  580.59
   0   0  12 6938.19 1082.34
   0   0  1210108.39 1429.99
   0   0  13 1135.32  852.16
   0   0  13  450.00  581.55
   0   0  1413554.64 2422.09
   0   0  1413972.41 1637.33
   0   0  15  321.46  672.99
   0   0  15 1470.02  843.00
   0   0  1645384.72 5563.39
   0   0  1636778.98 3750.13
   0   0  17 -310.30  588.09
   0   0  17  460.12  857.03
   0   0  18 2161.05  710.44
   0   0  18 4308.15  944.83
   0   0  19 -122.63  763.96
   0   0  19  366.12  692.39
   0   0  20 9747.81 1469.21
   0   0  2011762.59 1641.43
   0   0  21  110.80  594.22
   0   0  21   24.33  725.28
   0   0  22 3287.06 1008.24
   0   0  22 4171.48  797.63
   0   0  23 -510.44  790.31
   0   0  23 -401.53  611.45
   0   0  24  797.22  820.87
   0   0  24  896.22  650.01
   0   0  25 -684.26 1061.86
   0   0  25-1227.91  691.36
   0   0  2633045.88 4026.86
   0   0  2625260.70 3182.81
   0   0  27 -859.96  630.60
   0   0  27  501.29 1020.35
   0   0  28 7881.50 1491.06
   0   0  28 4292.58  953.31
   0   0  29  743.26  720.09
   0   0  29  746.44 1119.99
   0   0  30 2851.41 2036.33
   0   0  30 1775.50  814.16
   0   0  31  459.70  640.89
   0   0  31  299.97 1881.30
   0   0  3227291.09 4296.39
   0   0  3212139.46 1876.00
   0   0  33  489.92  964.51
   0   0  33 -549.07 1950.60
   0   0  34 2475.19 2303.51
   0   0  35 4412.16 4745.43
   0   0  36 6190.04 5288.96
   0  -1   0  330.12  141.60
   0   1   0   42.72  186.74
   0  -1   125227.23 1253.41
   0   1   129405.80 1553.78
   0  -1  -124078.52  981.25
   0   1  -127559.73 1752.73
   0  -1   3 1724.19  359.95
   0   1   3 1777.28  273.63
   0  -1   3 2112.87  504.87
   0   1   3 1482.38 1268.16
   0   1  -3 2404.43  426.61
   0  -1  -3 1525.04  290.50
   0   1  -3 1398.36  442.43
   0  -1  -3 1773.46  365.95
   0   1   4113518.310886.86
   0  -1   4159236.416316.01
   0   1  -4129000.913720.38
   0  -1   522590.40 1421.12
   0   1   525870.12 2626.91
   0   1   521313.10 1270.29
   0  -1   521504.83 1324.58
   0  -1  -524657.63 1634.22
   0  -1  -521754.52 1206.02
   0   1  -526113.21 1623.65
   0   1  -524518.61 2000.45
   0  -1   6 1584.61  550.37
   0  -1   6 3932.55  586.74
   0  -1   6 1441.73  512.96
   0   1   6 3718.98 1043.66
   0   1   6 2400.67  756.03
   0  -1  -6 3198.58  594.27
   0   1  -6 2747.76  518.97
   0  -1  -6 3996.38  703.75
   0  -1   7  279.46  466.05
   0  -1   7  195.23  490.74
   0   1   7  611.37  700.78
   0  -1   7  241.01  496.77
   0   1   7 -323.24  926.66
   0   1  -7 -609.59  390.20
   0  -1  -7 -233.75  580.25
   0  -1  -7  -63.71  418.88
   0  -1   810250.95 1109.65
   0  -1   810609.32 1569.40
   0   1   8 9143.27  882.89
   0  -1   8 8113.93  833.38
   0   1   810444.92 1507.73
   0   1  -8 8694.94 1035.19
   0  -1  -8 8293.27  745.75
   0  -1  -8 7054.25  840.26
   0  -1   917600.55 2229.89
   0   1   918670.16 2358.30
   0  -1   915696.80 1573.15
   0   1   914279.20 1189.34
   0  -1   917055.19 1745.81
   0   1  -914449.81 1548.94
   0  -1  -916820.50 1618.10
   0  -1  -915808.19 1503.67
   0  -1  10 4630.26  743.54
   0   1  10 6333.95 1073.01
   0  -1  10 5002.88  970.07
   0  -1  10 5499.75  830.97
   0   1  10 5700.69 1033.10
   0  -1 -10 4522.95  772.32
   0  -1  1116017.65 1700.37
   0   1  1114998.52 1943.10
   0   1  1118646.50 2343.12
   0  -1  1117454.50 1996.61
   0  -1 -1114622.70 1732.03
   0   1  12 7287.24 1117.45
   0  -1  12 4893.34  767.17
   0  -1  12 4646.58  884.81
   0   1  12 6038.24 1090.91
   0   1  13 6209.74 1163.88
   0  -1  13 6217.34  920.26
   0  -1  13 7894.85 1220.48
   0   1  13 9513.07 1520.96
   0  -1  1426912.68 2687.37
   0   1  1424330.33 2804.10
   0   1  1427887.09 3016.21
   0  -1  1425694.94 3004.98
   0   1  1515993.25 1918.30
   0   1  1515117.44 1941.76
   0  -1  1516625.67 2104.42
   0  -1  1512579.55 1395.06
   0  -1  16  350.86  934.17
   0  -1  16 1240.09  669.78
   0   1  16 2312.82  855.15
   0   1  16 1011.73  746.00
   0  -1  17 2396.10  869.29
   0   1  17 2180.09  615.51
   0   1  17  943.23  919.99
   0  -1  17 2663.31  904.65
   0  -1  18 4100.21  793.48
   0   1  18 3008.12 1071.93
   0   1  18 3205.38  991.75
   0  -1  18 5437.27  895.80
   0  -1  19 1109.06  648.56
   0   1  19 1158.56  569.72
   0  -1  19 1157.77  573.40
   0   1  19 2555.41 1025.89
   0   1  2051326.01 5421.18
   0  -1  2053415.20 5520.61
   0  -1  2040197.61 4761.89
   0   1  2051011.96 6307.43
   0  -1  21 6757.12 1158.01
   0  -1  21 2768.49 1059.44
   0   1  21 2678.52  988.01
   0   1  21 5505.17 1231.51
   0   1  2217306.42 2108.55
   0  -1  2215846.18 2275.87
   0   1  2216328.35 2269.23
   0  -1  2218559.31 2024.52
   0   1  23  288.73  563.23
   0  -1  23 1319.38  704.38
   0   1  23 1626.29  995.33
   0  -1  23 1532.38  696.25
   0   1  24 4492.98 1110.67
   0  -1  24 2071.12  925.37
   0   1  24 1619.55  624.75
   0  -1  24  607.64  693.98
   0  -1  25  232.78  692.53
   0  -1  25 2094.95  902.03
   0   1  25 1187.92 1279.52
   0   1  25 1556.23  900.40
   0   1  26 2147.04  892.86
   0  -1  26 1201.45  969.52
   0   1  26 1291.60 1310.04
   0  -1  26 2297.82  809.41
   0  -1  27  246.02  927.55
   0   1  27  717.19  583.34
   0   1  27  665.82 1185.46
   0  -1  27   16.81 1178.22
   0   1  28 2237.27 1362.44
   0  -1  28 2097.60 1095.40
   0   1  28 1557.64  663.43
   0  -1  28 2077.26  973.54
   0  -1  29  495.44  716.68
   0   1  29-1184.36 1324.12
   0  -1  29   27.89 1063.07
   0   1  29 -531.28  579.26
   0  -1  30  508.30  790.80
   0   1  30  395.95  649.84
   0  -1  30 2797.53 1299.69
   0   1  30 1630.73 1464.10
   0  -1  31 1233.84  780.09
   0   1  31 1076.39  692.66
   0  -1  31 1056.92 1297.98
   0   1  31 4841.22 2759.31
   0  -1  32 1407.84  807.29
   0   1  32 1935.09 2891.16
   0   1  32  647.71  855.93
   0  -1  32  261.30 1203.30
   0   1  33  826.11 2733.12
   0  -1  33 -207.51 1061.97
   0  -1  33 1466.36 1445.74
   0   1  3417327.43 4605.20
   0  -1  34 7140.55 1793.36
   0  -1  3424396.25 3308.68
   0  -1  35 -110.61 1515.72
   0   1  35 -295.36 2875.23
   0   1  36 -525.94 2902.54
   0  -1  36  571.59 2127.46
   0  -2   211270.68 1052.67
   0   2   212129.53  795.52
   0  -2  -211538.51  675.63
   0   2  -212174.13 1332.24
   0  -2   3  -17.25  645.66
   0   2   3  -47.08  402.12
   0   2  -3  268.09  499.76
   0  -2  -3  -68.60  287.18
   0   2  -3-1039.18 1040.13
   0  -2   436159.90 4242.37
   0  -2   436488.51 4550.40
   0   2   435539.60 2623.69
   0  -2  -437023.16 2755.78
   0   2  -427084.10 1929.52
   0   2  -427772.90 2498.50
   0  -2   5 3750.85 1022.81
   0  -2   5 1937.54  645.00
   0  -2  -5 4027.99 1889.55
   0  -2  -5 2269.08  370.54
   0   2  -5 2091.45  987.48
   0  -2  -5 2842.08  576.90
   0   2  -5 2171.23  820.36
   0  -2   6 3548.35 1089.44
   0  -2   6 3564.88  867.45
   0   2  -6 4089.68  651.80
   0  -2  -6 4730.00  715.12
   0  -2  -6 2890.35 1071.49
   0   2  -6 3492.84  781.21
   0  -2   718943.86 2159.18
   0   2   719647.79 2184.21
   0   2   718236.60 4813.18
   0  -2   719821.00 2404.51
   0   2  -716401.20 1839.44
   0  -2  -718631.80 1748.18
   0   2  -716740.09 1798.49
   0  -2  -716233.97 1676.10
   0   2   815520.23 4066.68
   0  -2   811006.42 1514.50
   0   2   811630.16 1276.08
   0  -2   811045.91 1418.42
   0  -2  -8 9680.94 1038.27
   0   2  -8 9307.61 1184.76
   0  -2  -8 8696.07  952.80
   0   2  -813875.94 1675.80
   0   2   912058.68 3071.23
   0  -2   9 7312.78 1169.13
   0  -2   9 4966.38  553.15
   0   2   9 5655.92  857.50
   0  -2   9 6145.59 1030.59
   0  -2  -9 4128.68  537.44
   0  -2  1065737.01 6838.73
   0   2  1064820.57 7190.54
   0  -2  1057808.61 5919.68
   0   2  1057751.72 8088.99
   0  -2 -1060667.18 6583.74
   0   2  1126752.55 3621.00
   0   2  1130068.46 2956.50
   0  -2  1131591.51 3204.59
   0  -2  1128361.81 2675.13
   0  -2 -1129810.19 2853.34
   0  -2  1213766.12 1470.59
   0   2  1213831.99 1510.92
   0  -2  1212122.72 1455.79
   0   2  1211333.68 2011.10
   0  -2  13 4470.91  859.93
   0   2  13 4946.74 1414.65
   0   2  13 6199.46 1109.20
   0  -2  13 4429.41  787.93
   0   2  1420740.15 2957.53
   0  -2  1417548.21 1829.10
   0  -2  1418685.33 2336.33
   0   2  1423257.02 2621.84
   0   2  1517775.52 2644.71
   0  -2  1516478.76 2184.10
   0  -2  1515694.30 1677.50
   0   2  1517571.03 2099.56
   0   2  1634920.41 3663.64
   0  -2  1631808.27 3112.30
   0  -2  1633503.00 3557.38
   0   2  1633738.81 4247.24
   0   2  1716009.42 2294.16
   0  -2  1712565.92 1406.13
   0   2  1712620.99 1794.43
   0  -2  1715623.61 2024.18
   0   2  1811392.44 1968.35
   0   2  1811321.61 1591.83
   0  -2  18 9369.12 1493.44
   0  -2  18 9235.15 1208.59
   0  -2  19 4316.30  809.59
   0   2  19 3737.37  969.83
   0  -2  19 5398.84  859.52
   0   2  19 7845.67 1552.14
   0  -2  20 2987.75  730.25
   0   2  20 3953.62 1425.86
   0  -2  20 3740.00  958.83
   0   2  20 3123.67  686.93
   0  -2  21 3315.84  994.46
   0   2  21 2660.72 1303.21
   0  -2  21 1868.96  678.90
   0   2  21 2484.71  818.32
   0   2  2213724.40 1809.82
   0  -2  2211605.04 1796.61
   0   2  2214295.20 2394.87
   0  -2  2211959.03 1825.77
   0   2  23  593.22 1216.72
   0  -2  23 1770.28  691.27
   0  -2  23  826.31  674.80
   0   2  23 1333.41  776.22
   0   2  24 1677.92  596.92
   0  -2  24 3720.78  802.98
   0   2  24 1374.64 1293.43
   0  -2  24  893.63  761.20
   0  -2  2524652.82 2702.68
   0   2  2524491.67 3473.17
   0   2  2525439.64 2946.55
   0  -2  2519086.88 3274.72
   0   2  26 9899.71 1231.82
   0  -2  26 8762.20 1290.50
   0  -2  26 6242.52 1362.68
   0   2  2620060.06 4090.73
   0   2  27 3128.95 2538.98
   0  -2  27 1897.05  823.64
   0   2  27  820.79  825.72
   0  -2  27 2445.22  922.86
   0   2  28  214.31  742.71
   0  -2  28 -846.14 1025.68
   0  -2  28 1285.59 1296.24
   0   2  28-2730.27 2343.57
   0  -2  29 3685.90 1393.57
   0  -2  29 6996.37 1297.22
   0   2  29 3348.25  828.65
   0   2  29 4258.21 2960.25
   0   2  30 1203.31  590.07
   0  -2  30  500.57  912.92
   0  -2  30 -950.32  770.12
   0   2  30  735.66 2429.11
   0   2  31 4006.78 2951.93
   0   2  31 4246.44 1060.33
   0  -2  31 4387.52 1215.02
   0  -2  31 1424.97  953.97
   0   2  32 2577.76 2668.05
   0  -2  32 -385.97 1605.69
   0  -2  32 -381.12 1091.68
   0  -2  33  627.92 1127.58
   0  -2  33  945.33 1264.85
   0  -2  34 1771.10  917.20
   0  -2  34 1237.27 1405.69
   0  -2  35 -219.65 1271.18
   0  -2  35-1053.94  827.02
   0  -2  3610699.42 3572.15
   0  -3   0  -71.38  536.23
   0   3   0  153.65  372.37
   0  -3   1 5010.95  811.69
   0   3   1 4302.44  772.05
   0   3  -1 3676.77  638.16
   0  -3  -1 3998.72  661.15
   0  -3   215691.31 2358.22
   0   3   219827.77 1557.53
   0   3  -220643.99 2000.94
   0  -3  -220931.44 1381.13
   0   3   3 2797.72  654.43
   0  -3   3 2536.33 1266.06
   0  -3  -3 2987.90  568.17
   0   3  -3 2098.12  865.93
   0  -3   410578.69 1742.19
   0   3   411385.12  968.02
   0   3  -412858.50 2413.28
   0  -3  -410300.80  793.03
   0   3  -4 9502.52 1370.12
   0  -3   5  373.40  833.63
   0   3   5  341.67  467.13
   0   3  -5 1132.26 1266.90
   0   3  -5 -428.70  573.93
   0  -3  -5  318.49  596.82
   0   3   632189.38 2260.43
   0  -3   632669.88 3495.53
   0  -3  -631544.14 2057.12
   0   3  -627276.52 3020.79
   0   3  -625732.51 2044.67
   0  -3   782916.8710034.23
   0  -3   776848.0411761.81
   0   3  -788169.5611725.73
   0  -3  -783008.23 7645.62
   0  -3  -770242.89 6387.18
   0  -3   8 2921.14  928.85
   0  -3   8 -377.98  963.80
   0  -3  -8 2011.51  685.45
   0   3  -8 2327.91  877.63
   0  -3  -8 1076.99  505.00
   0  -3   9111332.414786.05
   0  -3  -9108444.012610.42
   0   3  -9109558.513389.33
   0  -3  -9107235.611827.12
   0  -3  10 3752.22  875.61
   0  -3 -10 2477.48  471.03
   0  -3 -10 4183.48  641.50
   0   3 -10 1888.99  667.99
   0   3  1129664.58 2665.30
   0  -3  1130157.12 3347.80
   0  -3 -1132263.00 3116.25
   0   3 -1138733.95 3716.85
   0   3  1212581.70 1373.99
   0  -3  1212164.85 1341.81
   0  -3  1214217.57 1729.15
   0   3  13 6523.51 1064.51
   0   3  13 1913.34 2678.56
   0  -3  13 6256.35  919.76
   0  -3  13 6843.75 1435.92
   0   3  14 1109.39  693.12
   0  -3  14  -49.81  550.46
   0   3  14 2331.88 2265.89
   0  -3  14   19.75  824.54
   0  -3  1532176.39 3580.66
   0  -3  1534988.84 3790.94
   0   3  1536223.12 3837.00
   0   3  1533402.69 6354.86
   0   3  16 6882.02 1040.81
   0  -3  16 7119.16  892.39
   0   3  16 7066.09 2907.38
   0  -3  16 4966.32 1000.07
   0   3  1723711.45 4835.54
   0  -3  1721973.57 2610.46
   0   3  1724139.86 2342.41
   0  -3  1720875.96 2124.84
   0   3  18 1375.09  628.33
   0   3  18   51.86 1966.33
   0  -3  18 -286.51  953.77
   0  -3  18  397.36  479.45
   0  -3  19 2774.01  576.68
   0  -3  19 4009.30  790.19
   0   3  19 3095.77  728.13
   0   3  19 2371.91 2149.19
   0   3  2033832.26 6464.48
   0  -3  2033475.93 3521.36
   0  -3  2043486.59 5516.68
   0   3  2038199.26 3877.52
   0   3  21 1435.46  704.12
   0  -3  21 3751.95  665.82
   0   3  21 3000.07 2414.59
   0  -3  22 8711.83 1565.87
   0  -3  22 8146.69 1269.02
   0   3  22 7657.62 3003.92
   0   3  22 8402.02 1276.41
   0  -3  2345047.12 4806.92
   0   3  2341175.57 4078.31
   0  -3  2338520.89 4886.64
   0   3  2344862.34 8588.49
   0  -3  24 4294.93  949.27
   0   3  24 7134.01 2920.15
   0  -3  24 7179.83 1328.49
   0   3  24 5422.03  809.96
   0   3  2511743.84 1611.45
   0   3  25 7598.12 3387.39
   0  -3  2511726.39 2309.92
   0  -3  25 9231.57 1363.14
   0   3  26 2146.76 2356.31
   0  -3  26  189.86  686.29
   0   3  26 -261.32  473.27
   0  -3  26  379.13  749.95
   0   3  27 5875.91 1206.55
   0  -3  27 6504.53 1050.83
   0   3  27 5987.47 3334.71
   0  -3  27 6080.56 1066.90
   0   3  28-1044.78  568.12
   0  -3  28 1139.36 1124.77
   0  -3  28-1907.44 1166.94
   0  -3  29 1220.69  835.45
   0  -3  29 1200.85  869.32
   0   3  29 2493.64  891.16
   0  -3  30 6225.64 1120.76
   0  -3  30 2910.47 1028.70
   0   3  30 3317.86  781.47
   0  -3  31  497.87 1115.09
   0  -3  31  174.78  935.53
   0  -3  32 -152.58  833.80
   0  -3  32 1245.75  996.84
   0  -3  33 6460.44 1803.81
   0  -3  33 3000.09 1118.11
   0  -3  34 2153.25 1155.07
   0  -3  34 2012.64 1322.90
   0  -3  3510136.63 2035.70
   0  -3  35 4392.10 1702.35
   0   4   062497.47 4601.00
   0  -4   058056.01 4374.12
   0   4   1 6870.22 1050.82
   0  -4   1 6501.86 1200.77
   0   4  -1 5714.63  681.13
   0  -4  -1 6112.08  838.91
   0   4   237030.35 3141.40
   0  -4   236193.09 4090.36
   0   4  -236294.89 3485.19
   0  -4  -235163.49 3121.34
   0   4   321159.04 1708.23
   0  -4   320626.62 2712.20
   0   4  -321365.71 2276.51
   0  -4  -320155.29 1818.88
   0   4   428296.58 2554.47
   0  -4   430617.50 4000.55
   0   4  -424182.21 2763.85
   0  -4  -429390.36 2546.77
   0  -4   5 2074.17 1103.14
   0   4   5 1882.87  577.39
   0   4  -5 -104.62 1770.07
   0  -4  -5 1535.20  685.90
   0  -4   6 1752.46  919.68
   0   4   6 1505.78  547.85
   0   4  -6 1758.77 1552.73
   0  -4  -6 1691.06  714.66
   0  -4   749694.25 6029.38
   0   4   749048.38 4234.57
   0  -4  -749956.64 4531.36
   0   4  -753174.16 6951.14
   0  -4   8 9531.93 1526.00
   0   4  -810050.22 1993.50
   0  -4  -8 7505.25  881.17
   0  -4  -8 9222.42 1278.92
   0  -4   9 -110.34  739.68
   0   4  -9  130.81  847.71
   0  -4  -9 -113.38  515.80
   0  -4  -9  122.71  426.86
   0  -4  10 3986.40  907.06
   0  -4 -10 3202.16  553.65
   0   4 -10 3615.67 1043.65
   0  -4 -10 3175.37  509.58
   0  -4  11155002.421905.01
   0  -4 -11142161.515916.37
   0   4 -11162295.321396.01
   0  -4  12 9793.34 1565.04
   0   4 -12 9500.59 1665.53
   0  -4 -12 9717.15 1096.59
   0  -4  13 1611.31  705.82
   0   4 -13 1928.61  796.59
   0  -4 -13 1602.74  596.75
   0  -4  14 -933.73  631.87
   0   4 -14  288.44  615.98
   0  -4 -14 -345.51  489.17
   0  -4  1525224.55 2475.19
   0  -4  1524387.60 2755.51
   0  -4 -1522439.55 1842.60
   0  -4  16  568.85  638.43
   0  -4  16  185.67  474.53
   0  -4 -16   13.72  322.13
   0  -4  17 3972.57  646.15
   0  -4  17 3462.22 1112.90
   0  -4  18 5680.07  999.56
   0  -4  18 4690.55  775.90
   0  -4  19  573.88  617.81
   0  -4  19 -452.05  462.49
   0   4  19  247.40  491.37
   0   4  20 -530.82  522.70
   0  -4  20  197.36  772.43
   0  -4  20  700.35  672.30
   0   4  2124916.09 2430.21
   0  -4  2131149.25 3431.47
   0  -4  2124713.34 3331.48
   0  -4  22  830.93  729.22
   0   4  22  663.93  589.69
   0  -4  22   65.08  706.83
   0   4  23 6323.94 1012.65
   0  -4  23 6886.27 1015.81
   0  -4  23 8568.32 1135.92
   0  -4  24  479.92 1053.25
   0   4  24  271.63  591.56
   0  -4  24  627.86  629.95
   0  -4  2522847.11 3049.95
   0  -4  2524188.10 2583.88
   0   4  2518038.09 1879.35
   0  -4  26 2461.65 1143.68
   0  -4  26 2945.55  828.35
   0   4  26 1807.65  565.31
   0  -4  2710316.89 1957.35
   0  -4  2712201.79 1518.85
   0   4  2711327.77 1570.38
   0   4  28 2891.08  825.51
   0  -4  28 3589.95 1088.39
   0  -4  28 3726.88  905.89
   0   4  29  477.47  484.58
   0  -4  29   35.47 1180.27
   0  -4  29 1262.15  708.03
   0  -4  30 4356.48 1130.55
   0  -4  30 4285.50 1042.19
   0  -4  3114664.94 1816.43
   0  -4  31 6453.52 1477.52
   0  -4  32 -173.25 1150.38
   0  -4  32   88.40  784.89
   0  -4  33 1398.66 1116.16
   0  -4  33 1189.36  944.33
   0  -4  34 1368.16 1074.79
   0  -4  34 -216.63  902.17
   0  -4  35 1464.51 1334.70
   0  -4  35 1093.81 1153.89
   0  -4  36 -293.41  935.58
   0  -5   0 -150.96 1112.19
   0   5   0  426.09  464.98
   0   5   197396.4410755.48
   0  -5   1104815.512357.53
   0  -5  -1105645.913077.81
   0   5   259540.93 4616.16
   0  -5   272637.83 8104.87
   0  -5  -282668.34 8614.95
   0   5   3232766.331257.60
   0  -5   3239546.140661.44
   0  -5   4 1348.54 1028.74
   0   5   4  978.13  536.77
   0  -5  -4 1175.02  572.85
   0   5   535417.73 2902.25
   0  -5   546402.14 5376.23
   0  -5  -543763.13 3715.51
   0  -5   699589.4213883.67
   0   5   696807.49 9080.10
   0  -5  -694817.65 9374.51
   0   5  -6113224.218739.87
   0   5   733567.80 2859.77
   0  -5   736266.08 4544.93
   0   5  -735059.49 6214.86
   0  -5  -736383.70 3220.97
   0  -5   815713.24 2138.03
   0   5   811022.76  879.82
   0  -5  -817178.55 1380.19
   0   5  -818595.07 3332.34
   0  -5   936526.26 5435.77
   0  -5  -940300.63 3471.33
   0   5  -941731.49 5904.51
   0  -5  10 1318.24  776.47
   0  -5 -10  755.27  657.51
   0   5 -10  420.16 1136.65
   0  -5  1194881.5311653.17
   0  -5 -11100720.310460.15
   0   5 -1192440.7412201.93
   0  -5  12  706.64  771.17
   0  -5 -12  853.90  509.29
   0   5 -12 -112.30  607.67
   0  -5  13  781.82  742.09
   0   5 -13 2014.71  713.81
   0  -5 -13 1026.97  527.32
   0  -5  1418412.31 2276.46
   0  -5 -1422951.80 1833.18
   0   5 -1416635.14 1979.45
   0  -5  15 1020.80  634.69
   0  -5 -15  696.80  465.62
   0   5 -15  216.36  706.98
   0  -5  16 -282.18  607.49
   0   5 -16   89.60  855.80
   0  -5 -16 -369.66  445.45
   0  -5  17 3746.01  702.52
   0  -5  17 5046.11  871.61
   0  -5 -17 3716.28  617.50
   0  -5  1816195.76 2029.40
   0  -5  1814918.69 1540.08
   0  -5 -1815042.29 1500.34
   0  -5  19 8723.47 1383.84
   0  -5  19 7525.98 1121.97
   0  -5 -19 7053.33  895.84
   0  -5  20 1137.45  756.99
   0  -5  20 -503.07  604.42
   0  -5 -20  246.92  326.51
   0  -5  21 3021.22  623.18
   0  -5  21 2727.56  776.29
   0  -5 -21 2022.87  538.68
   0  -5  2211181.91 1663.73
   0  -5  2210186.20 1172.43
   0  -5 -2211004.89 1056.19
   0  -5  2354315.76 6721.56
   0  -5  2352109.22 5489.83
   0  -5 -2347768.00 4629.24
   0  -5  24 8641.05 1155.51
   0  -5  2411783.55 2144.07
   0  -5 -24 8181.39 1067.07
   0  -5  25 1689.02  669.48
   0  -5  25 2853.93  841.61
   0  -5 -25 1873.05  538.58
   0  -5  26  813.51  697.69
   0  -5  26 1397.07  802.61
   0  -5 -26 1987.15  523.78
   0  -5  27 2051.14  777.66
   0  -5  27   20.19  823.30
   0  -5 -27    6.50  495.20
   0  -5  28 1650.84 1032.73
   0  -5  28 5206.58  973.43
   0  -5 -28 4153.34  743.97
   0  -5  29 8827.13 2098.96
   0  -5  2920097.73 2455.95
   0  -5 -2913491.67 1347.78
   0  -5  30  613.74  981.08
   0  -5  30 1602.68  825.62
   0  -5 -30 2013.73  621.56
   0  -5  31 4821.52 1002.17
   0  -5  31 2954.04 1164.98
   0  -5  32 4374.47 1377.39
   0  -5  3214664.07 2216.52
   0  -5  3318380.36 2132.25
   0  -5  33 6514.64 1608.27
   0  -5  34  698.16 1397.01
   0  -5  34 2192.10 1333.32
   0  -5  35 2231.58 1159.59
   0  -5  36  357.31 1019.64
   0  -5  37 1844.09 1536.60
   0  -6   025737.17 2778.13
   0  -6   112148.18 1546.26
   0  -6  -111450.74 1426.54
   0  -6   211827.44 2246.31
   0  -6  -212366.77 1752.20
   0  -6   338436.57 4916.99
   0  -6  -346975.25 4158.56
   0  -6   412012.72 1832.42
   0  -6  -411430.53 1198.49
   0  -6   573303.70 9676.97
   0  -6  -576662.58 7609.23
   0  -6   6 3811.52 1143.17
   0   6  -6 4328.68 2120.10
   0  -6  -6 4000.31  880.26
   0  -6   7 7209.48 1532.52
   0  -6  -710751.02 1349.16
   0   6  -713641.32 2924.02
   0  -6   815905.13 2179.83
   0   6  -814021.09 3481.27
   0  -6  -814834.84 1355.42
   0  -6   9  968.88  877.74
   0  -6  -9 1022.31  670.76
   0   6  -9  530.77 1366.45
   0  -6  1051120.01 6148.68
   0  -6 -1054251.01 4756.37
   0   6 -1056293.70 8094.75
   0  -6  1141866.07 5014.25
   0  -6 -1145565.19 3829.12
   0   6 -1148723.01 6336.20
   0  -6  12 5980.70 1194.84
   0  -6 -12 6003.35  878.96
   0   6 -12 7978.54 1328.03
   0  -6  13 -550.86  742.84
   0   6 -13-1687.47  843.35
   0  -6 -13 -900.41  408.01
   0  -6  14 1113.69  822.70
   0   6 -14  972.75  635.23
   0  -6 -14 1042.14  544.41
   0  -6  1542063.71 4892.56
   0  -6 -1542599.37 3699.19
   0   6 -1538494.09 4178.67
   0  -6  16 7511.75 1432.65
   0   6 -16 6898.84  957.05
   0  -6 -16 7306.53  753.88
   0  -6  17 2001.92  745.76
   0   6 -17 2955.74  831.62
   0  -6 -17 1369.02  477.10
   0  -6  18 4848.14  888.14
   0  -6 -18 3249.31  605.15
   0   6 -18 3999.84  881.40
   0  -6  19 -292.24  722.18
   0  -6  19    1.33  638.02
   0  -6 -19  242.44  447.65
   0  -6  20 8536.94 1089.54
   0  -6  20 8183.50 1454.96
   0  -6 -20 8650.78 1019.79
   0  -6  21 2397.47  701.01
   0  -6  21  -63.93  565.46
   0  -6 -21  536.61  474.09
   0  -6  2214995.53 2511.83
   0  -6  2215997.61 1821.61
   0  -6 -2213411.99 1301.57
   0  -6  23 -441.98  509.09
   0  -6  23  118.13  713.11
   0  -6 -23  765.48  475.48
   0  -6  24 2213.01  652.69
   0  -6  24 1542.69  796.56
   0  -6 -24 1204.30  427.87
   0  -6  25 1967.23  707.21
   0  -6  25 1002.61  797.88
   0  -6 -25  620.41  410.55
   0  -6  2616286.72 2438.14
   0  -6  2621210.95 2169.64
   0  -6 -2622013.28 2125.12
   0  -6  27 4235.39 1219.79
   0  -6  27 6674.51 1303.96
   0  -6 -27 7366.71  995.33
   0  -6  28 -243.53  718.48
   0  -6  28-1351.10 1063.61
   0  -6 -28  299.41  528.43
   0  -6  29 1103.11  906.25
   0  -6  29 2566.94  815.09
   0  -6 -29 1513.51  598.15
   0  -6  30 2055.78  790.47
   0  -6  30  612.77 1290.54
   0  -6  31 1756.95 1042.21
   0  -6  31 6402.92 1081.96
   0  -6  32 1658.24 1073.26
   0  -6  32 1425.23  856.51
   0  -6  33 -633.07 1348.65
   0  -6  33 -362.33  791.93
   0  -6  34 1243.38  970.25
   0  -6  34 -177.80  983.65
   0  -6  35 -215.07  997.15
   0  -6  36 3380.28 1329.82
   0  -6  37 1120.18 1164.42
   0  -7   0  128.55  765.05
   0  -7   1  811.49 1227.08
   0  -7  -1  -49.91  691.32
   0  -7   2116819.315249.19
   0  -7  -2136776.615751.36
   0  -7   3 3383.58 1048.82
   0  -7  -3 3816.07  784.44
   0  -7   4245464.043659.35
   0  -7  -4262634.539624.62
   0  -7   582528.5610943.35
   0  -7  -574300.94 7698.17
   0  -7   6 2095.03 1314.52
   0  -7  -6 2222.35  639.51
   0  -7   7 2645.57 1006.44
   0   7  -7 1043.40 2014.75
   0  -7  -7  754.39  731.77
   0  -7   8117805.216809.45
   0  -7  -8122113.313912.56
   0   7  -8123160.422470.18
   0  -7   9 4647.29 1237.04
   0   7  -9 2755.81 1679.46
   0  -7  -9 5275.91  724.53
   0  -7  10 1473.53  804.53
   0  -7 -10 1577.84  440.58
   0   7 -10  357.44 1523.23
   0  -7  1114939.09 2243.71
   0   7 -1115930.49 2751.97
   0  -7 -1118276.54 1696.41
   0  -7  1254087.78 6919.96
   0   7 -1263571.67 8628.64
   0  -7 -1253844.70 4758.15
   0  -7  13 4304.08  982.48
   0  -7 -13 3603.52  763.81
   0   7 -13 4824.94 1318.17
   0  -7  1424173.14 3127.67
   0   7 -1423856.29 2946.05
   0  -7 -1424682.08 2240.49
   0  -7  15 -621.97  716.74
   0  -7 -15  222.57  498.10
   0   7 -15  500.64  628.06
   0  -7  16 9810.40 1690.67
   0   7 -16 9897.27 1430.58
   0  -7 -1610076.19 1061.03
   0  -7  17  -13.19  648.16
   0   7 -17  586.73  590.60
   0  -7 -17  773.00  416.54
   0  -7  1821726.08 3050.61
   0  -7 -1820193.18 1848.14
   0   7 -1817267.95 2416.34
   0  -7  19 4021.63  923.92
   0  -7 -19 3681.98  690.50
   0   7 -19 5547.52 1045.63
   0  -7  20 6388.75 1042.63
   0  -7 -20 5483.94  825.73
   0  -7  21  -19.64  952.97
   0  -7  21 -346.06  562.87
   0  -7 -21  -65.73  502.76
   0  -7  2245656.52 5258.60
   0  -7  2243457.48 5414.97
   0  -7 -2241426.39 3944.82
   0  -7  23 3562.51  757.18
   0  -7  23 5588.97 1103.12
   0  -7 -23 3181.88  529.28
   0  -7  2413433.70 2081.65
   0  -7  2412033.06 1578.10
   0  -7 -2412472.32 1345.43
   0  -7  25 2153.46  797.15
   0  -7  25  -70.62  651.06
   0  -7 -25 1194.76  408.22
   0  -7  26 3187.62  937.61
   0  -7  26  816.46  658.89
   0  -7 -26  827.92  409.76
   0  -7  27 -101.05  655.56
   0  -7  27  638.22  854.78
   0  -7 -27  382.15  503.10
   0  -7  28 2712.55  906.39
   0  -7  28 2888.79 1087.07
   0  -7 -28 4617.86  743.88
   0  -7  29  319.12  904.68
   0  -7  29  603.66  658.99
   0  -7  30 3365.23  898.90
   0  -7  30  953.53 1096.41
   0  -7  31  618.42 1312.51
   0  -7  31  469.11 1056.93
   0  -7  32 4227.49 1038.83
   0  -7  32 2508.08 1106.12
   0  -7  33 1478.93 1108.97
   0  -7  33 2614.51  952.79
   0  -7  34  216.76 1078.41
   0  -7  35  323.58 1040.36
   0  -7  36  684.79 1498.97
   0  -7  37  372.84 1101.67
   0  -8   088727.3010917.31
   0  -8   1 1118.01  822.44
   0  -8  -1  850.86 1044.63
   0  -8   2 5416.76 1328.88
   0  -8  -2 8066.86 1337.86
   0  -8   311013.02 1810.51
   0  -8  -311344.31 1679.61
   0  -8   4 7313.59 1435.94
   0  -8  -4 6830.02 1156.00
   0  -8   513324.09 2077.24
   0  -8  -511133.56 1522.43
   0  -8   637885.41 4406.78
   0  -8  -637964.67 3641.18
   0  -8   716488.05 2474.03
   0  -8  -716007.60 1837.82
   0   8  -716533.61 3857.76
   0  -8   815270.83 2455.68
   0   8  -821261.89 4265.90
   0  -8  -820221.41 2041.79
   0  -8   9 8190.38 1667.84
   0   8  -910495.96 2834.21
   0  -8  -910308.57 1020.12
   0  -8  1010656.61 1811.96
   0   8 -1011741.87 2556.34
   0  -8 -1011816.56 1099.65
   0  -8  11 6925.96 1255.92
   0   8 -11 5028.87 1764.50
   0  -8 -11 5242.51  939.40
   0  -8  12 8308.99 1526.31
   0  -8 -12 7195.13  974.20
   0   8 -12 7464.47 1718.33
   0  -8  13 5642.05  989.14
   0  -8 -13 6191.34  756.26
   0   8 -13 2847.25 1359.74
   0  -8  14  526.13  686.68
   0   8 -14 1378.27 1051.04
   0  -8 -14  558.08  388.72
   0  -8  15 1068.13  807.47
   0   8 -15 1119.86  800.01
   0  -8 -15  366.76  342.99
   0  -8  16 8417.87 1665.74
   0   8 -1611157.69 1523.20
   0  -8 -1611637.51 1210.39
   0  -8  1725577.73 3348.68
   0   8 -1726094.12 2823.65
   0  -8 -1724759.23 2259.68
   0  -8  18  503.66  964.05
   0  -8 -18  558.51  489.41
   0   8 -18 -479.19  595.16
   0  -8  19 -583.30  629.67
   0   8 -19  895.42  874.22
   0  -8 -19   39.47  333.91
   0  -8  2029544.79 3627.62
   0   8 -2029301.09 3295.54
   0  -8 -2024372.89 2198.26
   0  -8  21 1811.95 1025.38
   0   8 -21 1124.30 1043.48
   0  -8 -21  934.23  386.60
   0  -8  22 4108.05  985.20
   0  -8  22 3859.66  760.34
   0  -8 -22 4449.38  616.26
   0  -8  23 3770.94  794.18
   0  -8  23 2821.88  932.69
   0  -8 -23 4811.98  682.56
   0  -8  24 -177.34  863.07
   0  -8  24  789.20  757.05
   0  -8 -24 -767.43  518.10
   0  -8  25 -151.78  764.61
   0  -8  25  999.09  730.60
   0  -8 -25  -60.93  546.41
   0  -8  2617743.07 2025.75
   0  -8  2622146.94 3109.61
   0  -8 -2619983.98 2077.36
   0  -8  27 -631.43  662.44
   0  -8  27 -389.48  800.14
   0  -8  28 -376.47  844.84
   0  -8  28 -870.54  654.61
   0  -8  29 3383.25  984.17
   0  -8  29 4642.07 1322.53
   0  -8  30 8451.44 1180.55
   0  -8  30 3353.32 1391.99
   0  -8  31  531.28  752.66
   0  -8  31   32.50 1320.33
   0  -8  32 4036.77 1215.17
   0  -8  32 3088.23 1044.94
   0  -8  33  210.05  924.90
   0  -8  34  995.30 1008.72
   0  -8  35  -44.05 1084.89
   0  -8  36 1625.57 1624.51
   0  -9   0  527.22  736.53
   0  -9   1 3284.64  943.62
   0  -9  -1 4360.99  925.40
   0  -9   217220.39 2418.46
   0  -9  -217488.27 1967.92
   0  -9   3  172.51  839.52
   0  -9  -3  361.64  655.00
   0  -9   4134787.319197.50
   0  -9  -4139967.116307.43
   0  -9   5 1394.88  963.82
   0  -9  -5-1443.78  579.88
   0  -9   6 9700.34 1433.18
   0  -9  -6 5687.29  820.80
   0  -9   7 8471.04 1651.90
   0  -9  -710663.53 1405.63
   0  -9   8 8118.70 1470.26
   0   9  -8 5401.36 2388.37
   0  -9  -8 7784.41  923.86
   0  -9   938841.89 5014.37
   0  -9  -940829.28 3711.41
   0   9  -939487.23 7149.69
   0  -9  10 -188.99  799.83
   0  -9 -10  331.08  443.68
   0   9 -10-1221.28 1578.31
   0  -9  11 8270.36 1489.63
   0   9 -11 3567.38 2014.29
   0  -9 -11 8340.02  873.29
   0  -9  1229336.27 3966.96
   0   9 -1229608.19 4704.25
   0  -9 -1233885.41 2946.69
   0  -9  13 8218.56 1469.68
   0  -9 -13 8003.93 1097.67
   0   9 -13 8573.85 1709.88
   0  -9  14 1075.67  788.82
   0  -9 -14 2268.38  643.28
   0   9 -14  597.32 1149.10
   0  -9  15 2715.92  770.03
   0  -9 -15  794.54  395.24
   0   9 -15  922.37 1126.18
   0  -9  16  677.96  729.09
   0  -9 -16 1203.83  504.24
   0   9 -16  602.38  880.24
   0  -9  17 2235.13  856.93
   0   9 -17  890.11 1025.96
   0  -9 -17 1393.34  545.48
   0  -9  18 3481.45  954.41
   0  -9 -18 4082.71  707.59
   0   9 -18 3699.33  950.48
   0  -9  1913265.16 2400.71
   0  -9 -1912844.68 1193.42
   0   9 -1911243.45 1608.63
   0  -9  20 7166.29 1430.48
   0  -9 -20 5824.79  660.25
   0   9 -20 7591.03 1183.68
   0  -9  21-1099.50  846.83
   0  -9 -21  422.36  371.94
   0   9 -21  938.28  688.24
   0  -9  22 9453.06 1544.63
   0   9 -2211558.20 1738.85
   0  -9 -2210240.24  953.54
   0  -9  23 3947.92  961.22
   0  -9  23 2957.69  502.19
   0  -9 -23 3867.11  705.05
   0  -9  24 2439.55 1238.34
   0  -9  24 2361.03  978.29
   0  -9 -24 2562.97  614.74
   0  -9  25 2679.83  832.03
   0  -9  25 2315.19  725.54
   0  -9 -25 1413.91  434.03
   0  -9  26 3684.35 1351.42
   0  -9  26 2353.59  767.15
   0  -9  2710164.54 1812.41
   0  -9  2711629.38 1556.99
   0  -9  28  938.42  700.94
   0  -9  28  503.77 1174.09
   0  -9  29 4830.03 1484.13
   0  -9  29 8906.52 1335.00
   0  -9  30-1413.81  976.77
   0  -9  31 1206.39  997.09
   0  -9  31  946.31  770.59
   0  -9  32  363.76  764.08
   0  -9  32 -456.47  923.10
   0  -9  33  931.02 1442.86
   0  -9  34 1781.58 1126.74
   0  -9  35 -357.79 1043.39
   0 -10   0101378.711793.35
   0 -10   123165.12 3342.94
   0 -10  -129738.13 3227.71
   0 -10   2 9580.82 1611.36
   0 -10  -212888.51 1943.88
   0 -10   3 9622.28 1674.87
   0 -10  -3 6843.87 1163.93
   0 -10   4 7656.99 1501.04
   0 -10  -4 8446.17 1107.07
   0 -10   584561.7511352.17
   0 -10  -587676.63 9654.61
   0 -10   627058.63 3402.26
   0 -10  -628881.37 2669.22
   0 -10   7  119.70  924.48
   0 -10  -7 1171.93  558.39
   0 -10   8  983.35 1332.21
   0 -10  -8 1397.24  608.56
   0  10  -8 1426.11 1900.93
   0 -10   939285.76 5409.67
   0 -10  -942963.17 3998.23
   0  10  -947567.73 8714.17
   0 -10  10 5459.17 1012.19
   0  10 -10 3655.18 2172.72
   0 -10 -10 5048.83  937.06
   0 -10  11 5340.74 1082.71
   0  10 -11 5591.27 1934.50
   0 -10 -11 5374.65  966.04
   0 -10  12 2107.35  862.65
   0  10 -12 -111.02 1619.61
   0 -10 -12 3172.24  731.95
   0 -10  13 1926.76  829.14
   0  10 -13 3061.20 1280.73
   0 -10 -13 2087.15  690.65
   0 -10  14 2547.30  765.43
   0 -10 -14 1150.44  475.13
   0  10 -14  441.86 1293.70
   0 -10  1532534.25 4491.12
   0  10 -1539720.09 5587.55
   0 -10 -1530945.74 2862.44
   0 -10  1620789.69 2766.36
   0 -10 -1620200.40 1938.75
   0  10 -1615852.01 3039.23
   0 -10  1711209.57 2041.72
   0 -10 -1710925.05 1179.53
   0  10 -17 9756.85 1718.93
   0 -10  18  -60.61  811.47
   0 -10 -18 -276.04  355.77
   0  10 -18 1764.88  977.68
   0 -10  1936481.71 4785.43
   0 -10 -1934561.28 3121.70
   0  10 -1933449.99 3836.67
   0 -10  20  292.00  766.80
   0  10 -20  838.47  666.25
   0 -10 -20  150.08  491.60
   0 -10  21  709.00  836.44
   0  10 -21  791.57  759.83
   0 -10 -21  186.32  502.69
   0 -10  22 4242.53 1078.80
   0  10 -22 3289.29  905.98
   0 -10 -22 4231.12  704.67
   0 -10  23  711.14 1122.72
   0  10 -23  536.80  884.72
   0 -10 -23  836.79  420.65
   0 -10  2416646.98 2445.81
   0 -10 -2412283.25 1411.10
   0 -10  2511427.67 2336.34
   0 -10  2510685.26 1439.55
   0 -10  26 3912.11  893.77
   0 -10  27  725.45 1288.36
   0 -10  27  509.23  737.77
   0 -10  28  663.89  737.34
   0 -10  28 1999.79  974.25
   0 -10  29 1733.48  887.40
   0 -10  29-1294.75  949.91
   0 -10  30 -958.70  919.25
   0 -10  30  683.93 1058.22
   0 -10  31 8907.80 1669.12
   0 -10  31 4649.12 1355.94
   0 -10  32 -355.91  940.97
   0 -10  34-2125.01 1117.89
   0 -11   0  853.83 1060.95
   0 -11   1 7566.09 1545.88
   0 -11  -1 9137.61 1739.19
   0 -11   213404.47 1961.23
   0 -11  -215196.44 2148.02
   0 -11   336167.52 4466.97
   0 -11  -335025.60 3465.87
   0 -11   4 2758.01 1113.15
   0 -11  -4 3143.67  834.33
   0 -11   5 3940.40 1119.50
   0 -11  -5 4795.49  835.41
   0 -11   665499.44 7848.64
   0 -11  -664229.70 6254.85
   0 -11   7 9647.73 2176.26
   0 -11  -711845.31 1301.17
   0 -11   8 1255.37  977.05
   0 -11  -8 2271.81  582.33
   0  11  -8  364.09 1829.20
   0 -11   917510.02 2647.96
   0 -11  -918980.90 1689.12
   0  11  -916578.49 4064.19
   0 -11  10 2361.87  986.07
   0  11 -10 2337.94 2077.09
   0 -11 -10 5764.01  904.60
   0 -11  1110182.67 1389.82
   0 -11 -11 8066.78 1119.42
   0  11 -11 9818.22 2907.14
   0 -11  12 -232.36  757.25
   0 -11 -12  575.03  429.00
   0  11 -12 1141.26 1481.65
   0 -11  1323374.81 3008.76
   0 -11 -1320743.98 1917.58
   0  11 -1323225.09 4521.63
   0 -11  14  375.95  767.22
   0  11 -14  375.87 1207.46
   0 -11 -14  811.45  598.03
   0 -11  1518606.22 2543.32
   0 -11 -1519050.27 1769.93
   0  11 -1516355.63 3153.78
   0 -11  16 2513.63  946.60
   0 -11 -16  403.90  593.88
   0  11 -16 2092.83 1325.96
   0  11 -17 6831.55 1522.88
   0 -11 -17 5678.39  855.97
   0 -11  18  822.76  830.77
   0  11 -18 2026.85  998.54
   0 -11 -18  657.68  401.71
   0 -11  19 7096.77 1457.91
   0 -11 -19 6510.46  944.26
   0  11 -19 7197.51 1301.12
   0 -11  20  905.15  879.62
   0 -11 -20  449.55  532.08
   0  11 -20 -265.03  839.47
   0 -11  21 1169.48  829.88
   0 -11 -21 1607.96  596.85
   0  11 -21  700.13  810.78
   0 -11  22 -845.51  790.60
   0 -11 -22 -108.70  390.76
   0  11 -22 -223.43  737.20
   0 -11  23   32.93  828.37
   0  11 -23  221.44  740.17
   0 -11 -23  616.29  407.80
   0 -11  24 2677.68 1049.90
   0  11 -24 4215.08 1094.71
   0 -11  25  -18.67  861.94
   0 -11  26  234.52  693.84
   0 -11  26  707.47  827.27
   0 -11  2715039.23 2302.05
   0 -11  2710657.99 1573.64
   0 -11  28  433.51  889.68
   0 -11  28 1928.87  838.28
   0 -11  29 7083.86 1435.05
   0 -11  2911346.95 1567.12
   0 -11  30  818.74 1272.15
   0 -11  30  695.33  773.87
   0 -11  31  633.79 1026.64
   0 -11  32  495.93 1036.62
   0 -11  33 1740.64 1133.27
   0 -12   010730.65 1550.81
   0 -12   142653.36 5398.98
   0 -12  -147041.70 5166.20
   0 -12   2 4053.36 1090.57
   0 -12  -2 2664.65  881.07
   0 -12   3 1144.31 1394.75
   0 -12  -3 2214.96  851.05
   0 -12   412188.54 1994.59
   0 -12  -411002.01 1856.48
   0 -12   579395.6210074.87
   0 -12  -576115.47 8877.25
   0 -12   638213.67 4785.89
   0 -12  -634677.18 3284.36
   0 -12   735049.16 4498.04
   0 -12  -735785.66 3370.85
   0 -12   8 4272.36 1554.96
   0 -12  -8 4643.25  808.22
   0 -12   911201.38 2105.75
   0 -12  -912581.78 1530.74
   0  12  -917801.12 4048.32
   0 -12  1010309.65 1917.47
   0 -12 -1011456.83 1195.02
   0  12 -1016072.30 3375.77
   0 -12  1141417.42 5476.92
   0 -12 -1136154.54 3356.94
   0  12 -1137505.65 7235.08
   0 -12  12  108.92  752.42
   0 -12 -12 1196.78  657.53
   0  12 -12 -697.65 1590.10
   0 -12  13   40.43  820.33
   0 -12 -13  229.76  430.30
   0  12 -13  712.86 1567.26
   0 -12  14 5261.35 1103.59
   0 -12 -14 4177.19  866.39
   0  12 -14 5567.20 1906.51
   0 -12  15 7320.54 1473.28
   0  12 -15 9989.93 2052.42
   0 -12 -15 8125.92  868.07
   0 -12  16 5355.32 1099.06
   0  12 -16 4737.04 1557.51
   0 -12 -16 2835.30  538.81
   0 -12  17 3405.24  977.41
   0  12 -17 5519.71 1589.58
   0 -12 -17 3479.28  747.23
   0 -12  18 1336.90  846.22
   0 -12 -18 1133.40  606.82
   0  12 -18  426.32 1075.63
   0 -12  19 7999.53 1421.61
   0  12 -19 7073.59 1699.22
   0 -12 -19 5204.97  900.87
   0 -12  20   43.23  831.89
   0  12 -20  395.48  783.49
   0 -12 -20 -159.68  522.62
   0 -12  21 3039.49 1076.16
   0  12 -21 4054.41 1239.99
   0 -12 -21 4493.84  744.37
   0 -12  22  630.18  927.55
   0  12 -22  803.19  799.59
   0 -12 -22  955.02  570.09
   0 -12  23 2937.80  969.46
   0  12 -23  103.68  834.94
   0 -12  24 4903.36 1188.53
   0  12 -24 2717.15  960.63
   0 -12  25 5940.69 1258.80
   0  12 -25 5694.41 1700.30
   0 -12  26  -48.66  409.18
   0 -12  26  439.93  860.13
   0 -12  27 2084.56  955.92
   0 -12  27 3513.35  911.04
   0 -12  28 1037.85  760.44
   0 -12  28  386.35 1268.76
   0 -12  29  235.68  949.41
   0 -12  29 1135.85  856.28
   0 -12  30 1636.39 1003.69
   0 -12  30  625.55  880.81
   0 -12  31 1522.99 1051.98
   0 -12  32  538.69 1046.79
   0 -13   0 -558.13  922.07
   0 -13   1 1829.07 1047.92
   0 -13  -1 3050.32  939.95
   0 -13   214014.97 2234.82
   0 -13  -215670.50 1923.76
   0 -13   311825.19 2136.97
   0 -13  -312565.46 1637.83
   0 -13   4 2793.36 1087.46
   0 -13  -4 5384.24 1349.98
   0 -13   5 8609.44 1717.45
   0 -13  -5 7842.39 1394.78
   0 -13   6 3402.57 1029.16
   0 -13  -6 3150.80  843.96
   0 -13   731667.47 4439.16
   0 -13  -731345.98 3525.83
   0 -13   812250.42 2166.54
   0 -13  -812648.32 1432.35
   0 -13   915343.27 2460.26
   0 -13  -917890.22 2100.91
   0  13  -918335.30 4424.27
   0 -13  10 4714.79  992.06
   0 -13 -10 1633.92  612.46
   0  13 -10 5500.07 2212.53
   0 -13  11 2163.36 1005.51
   0  13 -11   63.73 1847.31
   0 -13 -11 1018.40  780.89
   0 -13  1218034.53 2738.97
   0 -13 -1218813.69 1788.81
   0  13 -1216740.99 4471.94
   0 -13  13 2895.84 1020.04
   0  13 -13 1620.72 1821.07
   0 -13 -13 1421.95  726.19
   0 -13  14 2721.76 1003.83
   0 -13 -14 3774.76  774.67
   0  13 -14 2678.06 2010.28
   0 -13  15 3512.98  924.05
   0 -13 -15 3027.62  569.35
   0  13 -15 6061.22 1599.61
   0 -13  16 1891.89  765.06
   0  13 -16-1503.81 1323.17
   0 -13 -16  833.27  458.73
   0 -13  17 1197.18  852.55
   0  13 -17 -359.19 1378.40
   0 -13 -17 1131.90  643.78
   0 -13  18 7246.34 1402.91
   0 -13 -18 5658.24  960.68
   0  13 -18 4463.64 1764.95
   0 -13  19 5685.67 1300.34
   0  13 -19 3190.57 1466.06
   0 -13 -19 7100.98 1053.81
   0 -13  20 5932.39 1408.15
   0 -13 -20 4504.24  810.32
   0  13 -20 3125.48 1333.86
   0 -13  21 1920.72 1118.84
   0  13 -21 2796.14 1305.88
   0 -13 -21 1499.03  501.08
   0 -13  22   31.96  857.35
   0  13 -22 1496.12  976.97
   0 -13  23 2530.37 1001.94
   0  13 -23  436.87  818.35
   0 -13  24 2415.01  985.27
   0  13 -24 1902.94  906.23
   0 -13  25 1596.01 1139.09
   0  13 -25 -378.24  783.49
   0 -13  26 -426.90  809.17
   0  13 -26 -141.66  966.06
   0 -13  27  749.87  502.82
   0 -13  27  304.56  903.15
   0 -13  28  342.51  883.19
   0 -13  28 1038.43  799.53
   0 -13  29  973.08 1034.70
   0 -13  29 3125.51  937.28
   0 -13  30  572.11 1295.19
   0 -13  31  -27.05  900.43
   0 -14   0 7894.09 1654.71
   0 -14   1 2402.55 1075.75
   0 -14  -1 2505.00 1082.88
   0 -14   2  237.15 1128.37
   0 -14  -2 1364.88 1131.05
   0 -14   3 3472.71 1192.81
   0 -14  -3 2080.12  879.78
   0 -14   4 2826.09 1138.59
   0 -14  -4 1829.20 1088.21
   0 -14   5 -366.31 1352.90
   0 -14  -5 1685.88  814.80
   0 -14   692491.3613012.12
   0 -14  -686129.8910277.63
   0 -14   728972.03 4222.94
   0 -14  -731110.54 3349.47
   0 -14   8 7699.83 1655.61
   0 -14  -8 9137.22 1664.35
   0 -14   9 3671.62 1216.98
   0  14  -9 6540.01 2418.42
   0 -14  -9 3431.90  740.50
   0 -14  1028563.55 4022.19
   0 -14 -1025394.65 2489.71
   0  14 -1035990.52 6896.95
   0 -14  11-1839.65  875.57
   0  14 -11  507.74 1979.22
   0 -14 -11  321.30  811.44
   0 -14  12 3125.88 1160.69
   0  14 -12 2892.98 2315.81
   0 -14 -12 5088.83  759.99
   0 -14  13 6006.05 1230.18
   0 -14 -13 4854.47  801.72
   0  14 -13 6437.05 2298.00
   0 -14  14 6264.16 1370.68
   0 -14 -14 6095.45  813.81
   0  14 -14 3216.09 2242.84
   0 -14  15 6892.21 1381.05
   0  14 -15 3365.00 1919.29
   0 -14 -15 9960.14 1226.74
   0 -14  16 9592.35 1728.50
   0 -14 -1615379.98 1567.70
   0  14 -16 7541.29 2198.31
   0 -14  17 2176.30  986.12
   0  14 -17  233.25 1454.03
   0 -14 -17 1716.89  670.70
   0 -14  18 -960.36  903.26
   0  14 -18 -674.86 1338.68
   0 -14 -18  998.40  597.07
   0 -14  19 2182.07  950.26
   0 -14 -19 2022.68  690.00
   0  14 -19  148.81 1162.81
   0 -14  20 8598.71 1706.88
   0 -14 -2010280.04 1061.38
   0  14 -20 4521.72 1651.14
   0 -14  21 2366.92 1127.12
   0  14 -21 1728.85 1059.86
   0 -14  22 5410.36 1237.07
   0  14 -2212343.48 1794.58
   0 -14  23 1636.95  914.35
   0  14 -23  898.14  980.56
   0 -14  24 -396.43 1146.39
   0  14 -24  144.71  786.57
   0 -14  25-1245.20  836.74
   0  14 -25  271.43  823.00
   0 -14  26 3843.38 1040.91
   0  14 -26 2782.63 1045.91
   0 -14  27 1432.16  926.46
   0  14 -27  588.80 1069.08
   0 -14  28  453.87  873.54
   0 -14  28  571.18  906.28
   0 -14  29  129.58  899.00
   0 -14  30  419.28  944.16
   0 -15   0  121.27 1003.04
   0 -15   1 2862.55 1617.23
   0 -15  -1 4545.06 1228.72
   0 -15   2 9419.50 1660.50
   0 -15  -2 8028.60 1646.85
   0 -15   3  636.70 1475.18
   0 -15  -3 1270.14  846.52
   0 -15   4 5589.67 1567.63
   0 -15  -4 7538.85 1521.25
   0 -15   5 -584.29 1005.42
   0 -15  -5   30.53  812.36
   0 -15   6 5461.59 1352.97
   0 -15  -6 4363.45 1001.41
   0 -15   7 -781.93  996.86
   0 -15  -7 1241.41 1120.10
   0 -15   815386.10 2495.23
   0 -15  -816631.61 1906.39
   0 -15   932193.07 4561.87
   0  15  -926375.40 6602.36
   0 -15  -931009.42 3402.31
   0 -15  1015812.00 2599.18
   0 -15 -1013826.74 1978.46
   0  15 -1012127.88 3849.71
   0 -15  11 1098.92 1015.60
   0 -15 -11 3643.90  986.60
   0  15 -11 2555.39 2215.29
   0 -15  12 -142.29 1167.69
   0 -15 -12 -127.96  540.27
   0  15 -12  210.45 1958.63
   0 -15  13 5110.96 1303.16
   0  15 -13 4874.61 2433.97
   0 -15 -13 7924.99  962.36
   0 -15  14 8101.95 1666.20
   0  15 -14 6417.57 2609.22
   0 -15 -14 8864.54 1105.09
   0 -15  15 -313.19  791.52
   0  15 -15 1236.58 1529.79
   0 -15 -15  457.28  501.69
   0 -15  16 1626.94  876.21
   0  15 -16 1901.24 1551.25
   0 -15 -16 1176.28  551.27
   0 -15  17 1093.04 1105.62
   0 -15 -17 1025.69  511.14
   0  15 -17 2400.23 1495.67
   0 -15  1824294.74 3364.57
   0 -15 -1823317.96 2177.37
   0  15 -1813429.75 3053.71
   0 -15  19 1417.43  924.65
   0  15 -19  156.39 1511.45
   0 -15  20  -38.57  832.26
   0  15 -20 -840.43 1169.56
   0 -15  21 -916.47  876.81
   0  15 -21 -724.17 1174.69
   0 -15  22 2763.28  997.19
   0  15 -22 5523.29 1485.24
   0 -15  23-1045.16  870.08
   0  15 -23 -831.10  927.28
   0 -15  24 5411.57 1279.53
   0  15 -24 4900.85 1287.44
   0 -15  25  302.86  866.78
   0  15 -25 -262.98  793.80
   0 -15  26-1410.96  814.48
   0  15 -26  -89.50  908.04
   0 -15  27 1266.30  888.23
   0 -15  28 1676.19 1364.86
   0 -16   010775.57 2409.70
   0 -16   1 -233.39  979.99
   0 -16  -1  451.07 1000.41
   0 -16   2 1039.18 1097.48
   0 -16  -2 1505.91 1033.85
   0 -16   3 1600.15 1584.91
   0 -16  -3 2010.72 1391.34
   0 -16   4 8786.62 1764.57
   0 -16  -4 8834.70 1688.56
   0 -16   5 6579.25 1401.07
   0 -16  -5 4788.55 1124.95
   0 -16   6 3311.03 1303.66
   0 -16  -6 4022.49  949.58
   0 -16   735464.60 5439.48
   0 -16  -740012.73 4676.42
   0 -16  -8 -418.83  973.28
   0  16  -8 1180.52 2028.54
   0 -16   9  671.46 1051.29
   0 -16  -9  480.35  761.06
   0  16  -9 1056.73 2101.81
   0 -16  10 4179.59 1160.08
   0 -16 -10 3958.34  953.31
   0  16 -10  885.45 2498.03
   0 -16  11 3672.85 1515.50
   0  16 -11-1220.37 2240.90
   0 -16 -11 2638.53  816.60
   0 -16  12 -156.64  928.97
   0  16 -12 1540.95 1948.92
   0 -16 -12 -141.76  649.58
   0 -16  13 1577.18 1077.99
   0 -16 -13 3173.02  729.11
   0  16 -13 3856.79 2169.36
   0 -16  14 3581.84 1253.08
   0  16 -14 1543.20 1903.44
   0 -16 -14 -647.51  561.04
   0 -16  15  177.38  782.09
   0 -16 -15 -178.29  547.29
   0  16 -15 1017.45 1542.12
   0 -16  16 2688.32 1007.98
   0  16 -16 2143.81 1750.69
   0 -16 -16 2791.14  654.89
   0 -16  17 5003.03 1494.66
   0  16 -17 6559.90 2906.20
   0 -16 -17 8143.64 1227.07
   0 -16  18 -507.54  789.74
   0  16 -18  660.63 1477.14
   0 -16  19 2511.32  985.37
   0  16 -19 2140.11 1665.11
   0 -16  20 1652.95 1252.61
   0  16 -20  -58.06 1285.43
   0 -16  21 2257.97 1018.77
   0  16 -21  841.44 1370.15
   0 -16  22 1398.17  970.99
   0  16 -22 3864.66 1240.33
   0 -16  23   95.35 1142.12
   0  16 -23  333.65 1025.79
   0 -16  24  554.92  861.29
   0  16 -24  934.65 1449.66
   0 -16  25 -287.28  894.05
   0  16 -25 2218.85  954.50
   0 -16  26 1067.13  930.15
   0 -17   0 -888.70 1019.03
   0 -17   1 8752.28 1750.35
   0 -17  -112273.19 2197.19
   0 -17   2 1479.31 1594.89
   0 -17  -2 2477.85 1675.05
   0 -17   310427.99 1947.64
   0 -17  -310668.17 1995.92
   0 -17   427684.95 3980.29
   0 -17  -427480.45 3717.73
   0 -17   5 2429.81 1096.43
   0 -17  -5  274.99  994.01
   0 -17   6   59.84 1529.98
   0 -17  -6 1987.39  937.22
   0 -17   714330.84 2622.36
   0 -17  -716708.13 2063.82
   0 -17   8 6709.65 1526.86
   0 -17  -8 6756.84 1141.81
   0  17  -8 6069.91 3007.04
   0 -17   922837.31 3537.76
   0  17  -912700.94 5054.16
   0 -17  -925167.04 3046.60
   0 -17  1022431.94 3520.68
   0  17 -1021419.78 5974.14
   0 -17 -1026024.29 3261.18
   0 -17  11 1220.22  931.56
   0  17 -11 4527.55 2250.13
   0 -17 -11-1109.08  964.30
   0 -17  12  955.04 1007.87
   0 -17 -12  239.46  967.44
   0  17 -12-1258.36 2166.07
   0 -17  1320782.11 3149.39
   0 -17 -1319087.28 2178.74
   0  17 -1311477.67 3704.52
   0 -17  14  305.83 1075.72
   0 -17 -14 4272.15  820.95
   0  17 -14 2107.74 2205.24
   0 -17  15  725.62  797.43
   0 -17 -15 -116.65  625.98
   0  17 -15 -682.74 1914.62
   0 -17  16  447.20  780.45
   0  17 -16-1014.47 1617.40
   0 -17 -16 -244.67  591.88
   0 -17  17 3094.00 1022.17
   0  17 -17 4108.17 1922.81
   0 -17  18  502.45  836.47
   0  17 -18 4300.90 1761.77
   0 -17  19  468.16  864.36
   0  17 -19 1280.23 1665.09
   0 -17  20 2119.48 1251.56
   0  17 -20  211.04 1352.89
   0 -17  21  106.94  907.56
   0  17 -21 1409.74 1278.39
   0 -17  22    3.25  820.18
   0  17 -22-1496.37 1698.74
   0 -17  23 2918.71 1034.72
   0  17 -23 2441.84 1277.53
   0 -17  24 2222.44 1001.28
   0  17 -24  782.17 1134.18
   0 -18   0 1229.43 1636.56
   0 -18   112273.69 2588.29
   0 -18  -110520.58 2219.11
   0 -18   2 1121.38 1127.74
   0 -18  -2   88.52 1076.97
   0 -18   3 4146.80 1275.33
   0 -18  -3  928.20 1106.76
   0 -18   4  697.24 1120.11
   0 -18  -4  440.89 1027.52
   0 -18   5 6338.73 2042.09
   0 -18  -5 7220.13 1560.03
   0 -18   6 2587.54 1640.14
   0 -18  -6 2679.96 1151.48
   0 -18   7 -305.58 1074.59
   0 -18  -7   48.21  930.33
   0 -18   8 1634.13 1058.32
   0 -18  -8 -398.24  813.34
   0  18  -8 -606.89 2305.42
   0 -18   9 2557.33 1237.90
   0 -18  -9 1574.54  850.29
   0  18  -9 6505.71 2556.64
   0 -18  10 2924.66 1145.46
   0  18 -10 3677.17 2488.70
   0 -18 -10 2435.46  926.18
   0 -18  11  849.30 1066.48
   0 -18 -11 2250.29  885.78
   0  18 -11 5776.50 2515.76
   0 -18  12  -17.32  955.60
   0 -18 -12  905.87  692.20
   0  18 -12-1418.33 2308.02
   0 -18  13  108.72  927.00
   0 -18 -13  696.97  941.59
   0  18 -13 2519.03 2062.77
   0 -18  14 -331.30  815.02
   0  18 -14-1367.26 2094.75
   0 -18 -14 -799.26  928.23
   0 -18  15 5555.64 1556.27
   0  18 -1510093.48 3010.04
   0 -18  16  622.67  826.94
   0  18 -16-3718.92 1567.41
   0 -18  17 5992.48 1194.98
   0  18 -17 2119.99 2070.86
   0 -18  18 1340.95  986.64
   0  18 -18 1073.71 1735.19
   0 -18  19 1122.52 1226.82
   0  18 -19  118.90 1656.80
   0 -18  20-1015.14  881.00
   0  18 -20 -404.70 1660.83
   0 -18  21 2756.57 1076.91
   0  18 -21 4176.80 1663.94
   0 -18  22 -866.76  788.49
   0  18 -22  -72.62 1336.70
   0  18 -23 1462.29 1172.99
   0 -19   0 1525.99 1213.56
   0 -19   1 4264.39 1453.65
   0 -19  -1 2299.61 1329.03
   0 -19   2 3427.23 1400.32
   0 -19  -2 6091.99 1454.17
   0 -19   319859.55 3365.28
   0 -19  -321167.99 3297.32
   0 -19   4 2336.27 1303.26
   0 -19  -4  868.45 1080.27
   0 -19   5 1877.01 1504.37
   0 -19  -5  364.46 1030.89
   0 -19   6  479.47 1451.47
   0 -19  -6  482.22 1022.49
   0 -19   7 2485.00 1330.75
   0 -19  -7 7773.40 1450.39
   0  19  -7 3573.31 2852.15
   0 -19   8 2866.55 1268.12
   0  19  -8 2031.62 2556.88
   0 -19  -8 2751.55 1197.56
   0 -19   9  206.74  955.95
   0  19  -9 -885.39 2291.91
   0 -19  -9 1074.52  943.21
   0 -19  10  976.87  964.22
   0  19 -10 1697.14 2225.86
   0 -19 -10  -69.16  894.18
   0 -19  11-1258.03  958.54
   0 -19 -11 -141.05 1008.50
   0  19 -11 4350.65 2400.35
   0 -19  12 -631.09 1275.66
   0  19 -12 1089.31 2296.20
   0 -19 -12 -150.01  965.31
   0 -19  13  679.56 1146.06
   0 -19 -13 4484.25  978.85
   0  19 -13 1903.20 2398.39
   0 -19  14 2302.95  981.98
   0  19 -14 4189.89 2349.71
   0 -19  15  575.18  835.82
   0  19 -15-1003.70 2183.04
   0 -19  16 -891.32  882.21
   0  19 -16-2886.06 1643.10
   0 -19  17 4323.74 1116.57
   0  19 -17  797.73 2104.65
   0 -19  18  666.20  942.36
   0  19 -18-1254.80 1700.54
   0 -19  19 2735.18 1226.73
   0  19 -19 2026.44 1970.30
   0  19 -20 1422.86 1881.61
   0 -20   0 3728.27 1361.45
   0 -20   1 1813.86 1309.47
   0 -20  -1 5400.63 1872.01
   0 -20   2  974.80 1138.35
   0 -20  -2 1162.08 1618.21
   0 -20   3 -317.76 1568.56
   0 -20  -3 -816.75 1567.37
   0 -20   4 1794.91 1509.87
   0 -20  -4 1093.60 1521.73
   0 -20   5 3605.12 1419.52
   0 -20  -5 7959.74 1525.51
   0 -20   6 1407.19 1225.95
   0 -20  -6 1135.00 1085.51
   0 -20   7 -242.38 1057.08
   0  20  -7-1243.18 2293.49
   0 -20  -7  547.44  949.85
   0 -20   8 1438.40 1141.50
   0  20  -8-1034.39 2373.82
   0 -20  -8  676.10  976.68
   0 -20   9  555.61 1096.01
   0 -20  -9 2470.36 1081.56
   0  20  -9 5512.14 2745.99
   0 -20  10 1614.49 1086.69
   0 -20 -10 1739.95 1450.27
   0  20 -10 2943.10 2550.15
   0 -20  11 3021.71 1269.37
   0  20 -11 4628.88 2873.18
   0 -20 -11 5229.31 1284.71
   0 -20  12  248.08  992.26
   0  20 -12-1310.57 2373.49
   0 -20  13 1218.65  906.03
   0  20 -13 1852.52 2298.82
   0 -20  14  891.51 1208.53
   0  20 -14  574.54 2328.59
   0 -20  15  866.23  901.94
   0  20 -15 1083.42 1853.20
   0 -20  16 -218.50  851.68
   0  20 -16  655.38 1806.46
   0  20 -17-3059.34 2003.63
   0 -21   0  127.82 1095.18
   0 -21   1 1433.26 1285.10
   0 -21  -1 2148.50 1218.03
   0 -21   2 3051.44 1463.14
   0 -21  -2 4985.72 1377.45
   0 -21   3 2365.82 1203.08
   0 -21  -3  724.23 1150.04
   0 -21   4 1788.88 1182.77
   0 -21  -4 1353.62 1168.32
   0 -21   5 1330.48 1110.28
   0 -21  -5-1978.12 1363.28
   0 -21   6 1691.14 1159.45
   0  21  -6 -134.23 2368.98
   0 -21  -6  656.98 1099.10
   0 -21   7 1289.31 1115.70
   0  21  -7-1547.46 2373.21
   0 -21  -7 -233.71 1031.12
   0 -21   8 3193.36 1318.44
   0 -21  -8 3195.36 1223.89
   0  21  -8 2292.39 2853.96
   0 -21   9 1134.34 1153.35
   0  21  -9 -459.51 2345.32
   0 -21  -9  496.54 1362.12
   0 -21  10  429.05 1171.03
   0  21 -10 3368.29 2568.54
   0 -21 -10 1233.55 1395.90
   0 -21  11 1519.41 1090.57
   0  21 -11 2899.97 2810.89
   0 -21  12 1005.92  960.35
   0  21 -12  192.78 2297.81
   0  21 -13 2367.92 2545.61
   0 -22   0 2487.66 1846.91
   0 -22   1  485.27 1081.28
   0 -22  -1-1164.08 1495.20
   0 -22   2 -684.12 1121.65
   0 -22  -2 2288.62 1195.06
   0 -22   3 -595.72 1105.39
   0 -22  -3  657.62 1090.09
   0 -22   4 3357.70 1375.05
   0 -22  -4 3181.94 1288.97
   0 -22   5  103.30 1141.68
   0 -22  -5  316.58 1052.37
   0 -22   6 1852.51 1300.72
   0  22  -6 2761.10 2825.46
   0 -22  -6 2478.66 1732.88
   0 -22   7  316.77 1064.10
   0 -22  -7  466.98 1077.92
   0  22  -7   97.52 2568.05
  -1   0  36 4139.67 1040.34
  -1   0  35 -383.84  753.72
  -1   0  34 1386.50  808.27
  -1   0  33 1762.56 2277.54
  -1   0  33  352.40  786.23
  -1   0  32 2097.40 1152.72
  -1   0  32 3317.84 2518.09
  -1   0  31 2233.55 2246.15
  -1   0  31  636.46 1057.08
  -1   0  30 -351.28  973.99
  -1   0  30  373.46 2084.20
  -1   0  29  -54.96 2107.59
  -1   0  29-1330.04  692.70
  -1   0  28 2731.08  928.19
  -1   0  28 4512.30 1895.87
  -1   0  27 -371.36 1133.58
  -1   0  27  588.78  740.36
  -1   0  2615642.00 2227.08
  -1   0  2615101.87 2589.52
  -1   0  25  784.85  954.88
  -1   0  25-1459.49 1026.38
  -1   0  2415203.84 2207.83
  -1   0  2413958.64 2094.71
  -1   0  23 -910.30  636.26
  -1   0  23  480.15 1293.38
  -1   0  22 9549.86 1412.25
  -1   0  2211988.79 2054.91
  -1   0  21  457.78  739.26
  -1   0  21 -225.22  599.03
  -1   0  2034001.26 4136.33
  -1   0  2034496.67 4184.68
  -1   0  19 -388.96  654.08
  -1   0  19 1186.98  886.54
  -1   0  1816963.53 2308.28
  -1   0  1817705.76 1936.89
  -1   0  17  161.62  909.81
  -1   0  17 1442.06  983.58
  -1   0  16   -6.83  656.02
  -1   0  16  281.32  666.63
  -1   0  15  544.48  971.53
  -1   0  15 -737.00  906.27
  -1   0  1472091.51 8714.11
  -1   0  1465620.37 7700.28
  -1   0  13 1018.81  754.34
  -1   0  13 -421.59  654.37
   1   0 -1245334.79 4021.06
  -1   0  1254653.39 5472.73
  -1   0  1256334.28 6274.76
   1   0 -11 -332.53  293.14
  -1   0  11 -726.73 1024.67
  -1   0  11  129.73  574.38
   1   0 -1055248.12 4841.11
  -1   0  1078880.76 9393.71
  -1   0  1076135.35 7888.46
   1   0  -9   24.30  342.32
  -1   0   9 -188.31  744.27
  -1   0   9  -94.80  776.56
   1   0  -8  223.11  225.17
  -1   0   8  -12.59  750.05
  -1   0   8  -58.76  708.60
   1   0  -7  203.14  386.90
   1   0  -7  643.41  503.11
  -1   0   7  469.07  866.56
  -1   0   7 -168.88  746.25
   1   0  -6 8519.93  766.71
   1   0  -6 8780.52 1210.41
  -1   0   6 8238.80 1024.30
  -1   0   611605.18 1669.27
   1   0  -5 -268.56  479.81
   1   0  -5  115.62  205.65
  -1   0   5   88.79  628.13
   1   0  -429562.27 2702.82
   1   0  -420461.90  984.56
  -1   0   424128.38 1769.22
   1   0  -3 -141.25  422.09
  -1   0   3 -436.75  535.28
   1   0  -1  202.21  363.21
   1   0  -1   27.53  312.83
  -1   0   1    4.56  209.31
  -1   0   1  270.39  366.70
   1   0   1  -58.78  305.98
   1   0   1   63.02  343.52
  -1   0  -1   51.80  294.15
   1   0   223810.46 1412.01
   1   0   229157.36 1918.34
  -1   0  -221595.63 1180.92
  -1   0  -227364.46 1616.28
   1   0   3  412.93  464.22
   1   0   3  471.85  301.48
  -1   0  -3  766.55  249.55
  -1   0  -3  578.98  360.56
   1   0   5   84.36  385.68
   1   0   5  106.15  562.52
  -1   0  -5  -49.01  336.12
  -1   0  -5 -318.88  440.56
   1   0   639758.17 4017.52
   1   0   643122.73 3743.86
  -1   0  -638846.93 3507.49
  -1   0  -630737.76 2091.82
   1   0   7  684.86  691.28
   1   0   7  466.25  474.22
  -1   0  -7  478.16  462.78
  -1   0  -7  535.99  479.71
   1   0   8   92.44  424.49
   1   0   8  551.53  747.52
  -1   0  -8 -186.13  448.96
   1   0   9 -188.66  753.89
   1   0   9 -331.00  423.14
  -1   0  -9  163.72  439.04
   1   0  10 4556.16  553.73
   1   0  10 3728.71  850.77
  -1   0 -10 2550.77  568.69
   1   0  11  226.43  468.91
   1   0  11 -321.42  662.62
  -1   0 -11  -21.57  312.70
   1   0  12 4321.75  580.08
   1   0  12 5626.07  978.72
  -1   0 -12 3227.28  570.44
   1   0  13 -302.75  639.96
   1   0  13   57.21  618.86
   1   0  1474407.95 8237.49
   1   0  1478920.55 8991.56
   1   0  15 -398.37  615.93
   1   0  15  303.95  704.48
   1   0  1691227.9310815.37
   1   0  1693451.4410172.49
   1   0  17  -11.53  649.71
   1   0  17  199.78  624.24
   1   0  1812408.00 1516.38
   1   0  1812030.64 1471.71
   1   0  19  391.39  772.17
   1   0  19  670.42  670.36
   1   0  2010295.32 1454.05
   1   0  2011303.29 1374.97
   1   0  21-1264.91  681.11
   1   0  21 -134.88  697.07
   1   0  2215984.81 2038.52
   1   0  2215314.58 1881.83
   1   0  23  223.76  507.14
   1   0  23 -468.29  722.67
   1   0  24 -595.72  930.79
   1   0  24 -195.52  705.16
   1   0  25  861.15  927.70
   1   0  25 -224.05  702.46
   1   0  26 6257.42  884.50
   1   0  2612043.24 1768.35
   1   0  27 -330.22  767.72
   1   0  27-1915.38 1029.42
   1   0  28 -286.67 1054.11
   1   0  28  577.77  783.44
   1   0  29-1383.35 1259.69
   1   0  29 -155.45  609.55
   1   0  3011694.04 1729.73
   1   0  3026584.49 3585.20
   1   0  31-2891.28 1444.03
   1   0  32 6766.11 1918.84
   1   0  33   81.09 1302.10
   1   0  3414089.65 3172.42
   1   0  35  990.42 1786.42
   1   0  3614460.95 3381.80
   1   0  37 -962.16 1832.10
   1   0  38-3796.82 2112.26
  -1  -1  36 2416.58 1324.71
  -1   1  35  -94.09  703.52
  -1  -1  35  428.18 1083.52
  -1  -1  34 1423.07 1256.99
  -1   1  34 1759.53  797.37
  -1   1  33 1012.36  722.17
  -1  -1  33 1058.34 1114.50
  -1  -1  32 2979.38 1682.83
  -1   1  32 -357.94  967.30
  -1  -1  32 1006.95  848.51
  -1  -1  31 1591.47  922.14
  -1  -1  31 1837.40 1329.48
  -1   1  31 2785.16 1046.61
  -1  -1  30 3411.49 1356.94
  -1   1  30 1783.29  785.30
  -1  -1  30 2464.44  915.58
  -1   1  29 2075.77  830.72
  -1   1  29 1507.85 3132.80
  -1  -1  29 2211.40 1256.27
  -1  -1  29 2537.81 1002.49
  -1  -1  28 2980.96 1223.07
  -1   1  28 1729.13 1052.15
  -1  -1  28 1351.81  843.27
  -1   1  28 6072.47 2318.99
  -1   1  27-1802.17 1909.61
  -1  -1  27 1738.56  799.76
  -1  -1  27 -183.98  870.63
  -1   1  27 -378.06  957.66
  -1  -1  26 4057.10 1095.29
  -1   1  26 3157.72 3160.73
  -1   1  26 4813.62  981.33
  -1  -1  26 4480.97 1094.69
  -1   1  2520349.24 3920.97
  -1  -1  2519599.67 2296.97
  -1   1  2515662.45 2422.12
  -1  -1  2516213.69 2417.11
  -1  -1  2436794.77 4003.15
  -1  -1  2434407.95 4444.54
  -1   1  2438879.98 6744.18
  -1   1  2430776.05 3836.57
  -1   1  23 1125.99 1870.44
  -1   1  23 -463.39  649.00
  -1  -1  23 1283.22  700.14
  -1  -1  23 2807.60 1064.36
  -1   1  2248543.24 6349.11
  -1   1  2229408.50 3663.65
  -1  -1  2232413.00 4507.80
  -1  -1  2229907.14 3431.64
  -1  -1  2116535.80 1747.20
  -1  -1  2117425.84 2519.07
  -1   1  2116967.76 2184.40
  -1   1  2112742.08 1938.40
  -1  -1  2020308.35 2138.93
  -1   1  2019595.37 3090.86
  -1   1  2019301.69 2347.57
  -1  -1  2020243.24 2663.73
  -1   1  1912874.15 1947.82
  -1  -1  1912146.05 1382.34
  -1  -1  1912294.36 1956.31
  -1   1  1914297.09 2103.74
  -1  -1  18 4033.95  666.58
  -1   1  18 6364.75  956.99
  -1   1  18 4748.36 1104.10
  -1  -1  18 7654.56 1233.51
  -1  -1  17 5405.58  831.28
  -1  -1  17 3914.15 1332.85
  -1   1  17 5042.57 1076.97
  -1   1  17 3814.46 1195.62
  -1  -1  16  724.67  776.44
  -1   1  16 2268.46  755.60
  -1   1  16 1868.34  978.85
  -1  -1  16 3627.57  746.79
  -1   1  15 1746.14 1047.40
  -1  -1  15 2117.66  683.88
  -1   1  15 1213.19  947.62
  -1  -1  15  805.18  781.36
  -1  -1  1438424.40 3412.72
  -1  -1  1437001.71 4557.68
  -1   1  1439930.23 4554.34
  -1   1  1438152.68 5313.22
  -1   1  1348597.25 5463.07
  -1  -1  1340211.68 3987.05
  -1  -1  1346523.39 6797.34
  -1  -1  1340004.94 3887.58
  -1   1  1357017.99 5999.91
  -1  -1  1210117.08 1178.78
  -1   1  1212763.48 2563.37
  -1  -1  12 9776.79 1847.00
  -1  -1  12 8195.71 1055.58
  -1   1  12 8900.33 1409.98
  -1  -1  1126071.94 3196.36
  -1   1  1128257.26 4534.65
  -1  -1  1123913.41 2316.94
  -1   1  1124027.75 3360.91
  -1  -1  1124526.99 2408.79
   1  -1 -10 2519.89  392.15
  -1   1  10 2493.35 1846.55
  -1  -1  10 3443.57  680.84
  -1  -1  10 3048.20  458.92
  -1  -1  10 2768.55  953.54
  -1   1  10 3267.39  926.77
  -1  -1   928464.79 2282.19
  -1  -1   929544.64 2344.12
  -1   1   932110.07 3402.75
  -1  -1   933196.17 4021.84
  -1  -1   928490.90 2241.73
   1  -1  -8 6497.14  842.18
  -1  -1   8 6487.01  786.29
  -1  -1   8 7327.93  889.47
  -1   1   8 6645.31 1172.66
  -1  -1   8 7154.15 1376.49
   1  -1  -754569.98 4187.15
   1  -1  -767440.86 5174.67
  -1   1   783888.13 8630.35
  -1  -1   777394.37 6288.01
  -1  -1   787215.86 9627.20
   1  -1  -6 4586.03 1343.49
   1   1  -6 2514.48  661.49
   1  -1  -6 3765.57  704.05
  -1  -1   6 1952.12  327.88
  -1  -1   6 5644.29  975.88
  -1  -1   6 1987.95  320.33
  -1   1   6 4038.47  894.71
   1   1  -5 2489.71  642.29
   1  -1  -5 2117.33  615.80
  -1  -1   5 1821.36  210.14
  -1   1   5 2025.05  713.76
  -1  -1   5 2648.86  404.31
   1   1  -416280.35 1185.92
   1  -1  -416937.40 1758.34
   1   1  -415013.32 1499.71
  -1   1   416868.43 1879.46
  -1  -1   413870.67 1248.76
   1   1  -328144.15 2384.91
   1  -1  -322515.41 1398.03
  -1   1   323901.54 1578.92
  -1  -1   331890.80 2665.30
   1   1  -240831.84 3225.40
   1  -1  -234026.31 2017.55
   1  -1  -245649.27 3501.46
  -1  -1   246548.00 4055.51
   1   1  -1 3913.99  384.80
   1  -1  -1 4783.17  597.02
   1   1  -1 5451.00 1299.52
  -1  -1   1 4884.38  818.17
  -1   1   1 4093.73 1074.89
  -1  -1   1 4943.45  494.69
  -1   1   1 4072.18  520.28
   1   1   0  175.25  299.55
   1   1   0  473.08  608.15
   1  -1   0  165.67  399.81
   1  -1   0  322.45  720.76
  -1   1   0  338.22  759.73
  -1  -1   0  132.47  393.68
  -1   1   0  120.58  407.44
  -1  -1   0   80.34  300.84
   1  -1   114275.13 1222.39
   1   1   113174.60  999.07
   1  -1   113882.16 1646.20
   1   1   111408.13  612.10
  -1   1  -114346.31 1071.31
  -1  -1  -112000.40  917.00
  -1  -1  -112588.43  690.36
  -1   1  -113560.22 1279.48
   1   1   2 1891.86  222.50
   1  -1   2 2017.47  749.16
   1  -1   2 2959.81  444.26
   1   1   2 1895.66  575.99
  -1   1  -2 2476.76  413.27
  -1  -1  -2 2135.81  292.64
  -1  -1  -2 1931.33  220.91
  -1   1  -2 2264.04  600.78
   1   1   3  167.02  125.17
   1   1   3   59.13  587.08
   1  -1   3  713.96  578.31
   1  -1   3 1434.56  623.67
   1   1   3  232.20  137.86
  -1  -1  -3  483.12  228.59
  -1   1  -3  618.75  441.53
  -1   1  -3  646.63  608.14
   1  -1   499130.96 9089.89
   1   1   4107776.710799.93
  -1  -1  -498869.78 9086.55
  -1   1  -484302.32 6247.74
   1   1   5 1578.84  765.82
   1   1   5 1009.01  192.83
   1  -1   5  802.84  513.37
   1  -1   5  709.81  849.05
  -1  -1  -5 1039.60  516.04
  -1   1  -5 1546.50  716.20
  -1   1  -5 1210.30  413.05
   1  -1   637267.82 3544.07
   1  -1   636329.12 3460.43
   1  -1   632418.79 2216.59
   1   1   633996.29 3447.27
  -1   1  -633197.35 2248.72
  -1  -1  -627871.16 1845.46
   1   1   7 8902.39 1352.72
   1  -1   712396.72 1596.16
   1  -1   7 8976.24  911.46
   1   1   7 9734.82  972.82
   1  -1   7 9387.57 1302.94
  -1  -1  -710408.46  982.17
  -1  -1  -7 6849.93  743.77
  -1   1  -710618.71 1490.96
   1   1   885359.48 8504.80
   1  -1   883704.38 9436.47
   1   1   882360.8410483.93
   1  -1   892497.4311207.13
  -1  -1  -880655.84 7621.14
   1  -1   9 3357.26  872.12
   1  -1   9 2985.82  756.21
   1   1   9 4606.60 1038.62
   1   1   9 3282.53  614.61
  -1  -1  -9 3857.63  501.94
  -1   1  -9 3857.07  776.19
   1   1  10  549.68  794.65
   1  -1  10  713.42  686.90
   1   1  10  892.40  383.70
   1  -1  10 1163.22  642.42
  -1   1 -10  821.75  416.83
  -1  -1 -10  919.98  362.23
   1  -1  1142467.63 4400.87
   1  -1  1147171.36 4820.56
   1   1  1148505.20 5345.42
  -1  -1 -1146881.18 4141.43
   1   1  1260674.08 6747.41
   1  -1  1260863.09 6352.80
   1  -1  1258403.46 6140.42
  -1  -1 -1255303.49 5258.68
   1   1  1388127.3110016.55
   1  -1  1382642.14 9786.09
   1   1  1380561.08 9480.28
   1  -1  1382408.62 8370.14
  -1  -1 -1376111.65 7743.95
   1   1  14 6198.74 1092.50
   1   1  14 6521.17 1131.52
   1  -1  14 5940.18 1086.61
   1  -1  14 7738.01 1238.93
  -1  -1 -14 5829.15  751.80
   1  -1  1511520.96 1391.21
   1   1  1511840.19 1515.60
   1   1  1511545.95 1601.93
   1   1  16 6570.72 1148.62
   1  -1  16 5585.99 1078.41
   1   1  16 6090.68 1103.59
   1  -1  16 5372.90  887.00
   1  -1  1722737.13 2327.01
   1   1  1725592.53 2691.37
   1  -1  1724720.37 2623.21
   1   1  1721834.66 2495.04
   1   1  1870294.13 7652.91
   1  -1  1865536.42 7439.06
   1   1  1869079.29 7320.24
   1  -1  1865492.19 7080.71
   1  -1  1928594.86 3141.30
   1   1  1932612.97 3597.68
   1   1  1935544.15 4212.85
   1  -1  1932088.15 3557.83
   1  -1  20 3512.37  823.54
   1  -1  20 3492.76  894.96
   1   1  20 2650.25 1110.28
   1   1  20 4602.66  825.07
   1   1  21 5710.72  923.96
   1  -1  21 5484.43  829.15
   1   1  21 4312.60 1106.46
   1  -1  21 4755.18  881.07
   1   1  2238372.01 3778.79
   1   1  2237880.41 3891.25
   1  -1  2239524.67 4502.49
   1  -1  2235971.11 4608.14
   1  -1  23 7198.44 1194.96
   1   1  23 8178.85 1472.87
   1  -1  23 9120.52 1375.59
   1   1  23 8680.98 1140.41
   1   1  24 2524.65 1234.85
   1   1  24 1547.17  536.34
   1  -1  24 1672.54  836.08
   1  -1  24 3597.33  875.52
   1  -1  25 1885.73  816.58
   1   1  25  959.86  524.04
   1  -1  25 -997.07  608.90
   1   1  25  509.97 1167.72
   1  -1  26 1611.34  865.64
   1   1  26 1044.83  556.50
   1  -1  26 1572.36  862.11
   1   1  26  618.81 1270.55
   1   1  27  279.52 1323.19
   1  -1  27 -384.08  639.46
   1   1  27 -131.39  732.76
   1  -1  27  -56.60  842.02
   1   1  28 1855.25  815.85
   1  -1  28 2338.39 1082.84
   1   1  28 4764.56 1446.74
   1  -1  28 2621.75 1271.79
   1   1  29 6327.96 1509.75
   1   1  29 3063.59  845.00
   1  -1  29 1239.45 1241.18
   1  -1  29 1366.01  748.19
   1   1  30 1127.99 1717.94
   1  -1  30 1152.70  736.59
   1  -1  30 6762.90 1286.26
   1   1  31  166.28 1668.69
   1  -1  31 2631.86 1201.77
   1  -1  31  132.88  930.26
   1  -1  3219737.53 3293.53
   1   1  3212374.06 2975.33
   1  -1  33 -546.41 1424.19
   1   1  33 1803.81 1753.62
   1   1  34 3044.97 2127.87
   1  -1  34 5982.50 1837.72
   1  -1  35  184.35 1471.97
   1   1  35-2395.96 1734.43
   1   1  36   66.52 3419.59
   1  -1  36 1639.76 1647.93
   1  -1  37 2260.80 2063.84
   1   1  37 2570.57 3760.65
   1  -1  38 6866.76 2567.10
   1   1  38 3970.81 4501.67
  -1  -2  37 1860.83 1374.96
  -1  -2  36 4114.27 1481.44
  -1  -2  35  286.69  841.01
  -1  -2  34 -216.25  856.08
  -1   2  34 -225.54  671.87
  -1  -2  33  783.31  877.57
  -1   2  33  -77.16  937.78
  -1   2  32 1777.56 1080.83
  -1  -2  32 3901.90 1462.74
  -1  -2  32 3256.85 1048.37
  -1  -2  31 5012.86 1167.48
  -1   2  31 5263.93  959.11
  -1  -2  31 8047.07 1835.84
  -1  -2  30  618.87  841.23
  -1   2  30  -99.22  628.05
  -1  -2  30  792.49  984.16
  -1  -2  29 -315.06  853.94
  -1   2  29 1474.18  955.50
  -1  -2  29 -232.36  853.54
  -1  -2  28 1241.85  862.18
  -1   2  28 1854.10  726.28
  -1  -2  28 1564.17  944.76
  -1  -2  27 1470.66  990.75
  -1  -2  27 3461.03 1167.57
  -1   2  27 2116.13 1010.42
  -1  -2  2615099.27 1832.09
  -1  -2  2613607.71 2288.69
  -1   2  2615316.02 1991.41
  -1  -2  25 1581.44  772.18
  -1   2  25  869.34  904.61
  -1  -2  25  256.16  787.41
  -1  -2  24 1910.63  746.51
  -1   2  24 -667.06  600.95
  -1  -2  24  349.44  676.80
  -1  -2  2310130.01 1783.80
  -1  -2  2313482.42 1673.31
  -1   2  2314058.93 1984.61
  -1  -2  22 8341.14 1299.82
  -1  -2  22 7624.16 1000.14
  -1   2  22 6925.00 1002.09
  -1   2  2138484.82 4030.45
  -1  -2  2137342.41 4883.47
  -1  -2  2139954.25 4157.08
  -1   2  2034483.73 3505.65
  -1  -2  2029787.26 4001.57
  -1  -2  2037606.39 3589.28
  -1  -2  19 2792.61  810.70
  -1   2  19 4440.40  947.26
  -1  -2  19 3036.45  766.56
  -1  -2  18 4428.78  694.75
  -1  -2  18 3676.09  974.50
  -1   2  18 5803.50 1126.98
  -1   2  1759410.64 7059.60
  -1  -2  1755979.62 5597.05
  -1  -2  1758956.21 7427.54
  -1   2  1670819.76 7914.65
  -1  -2  1678169.15 9976.57
  -1  -2  1670421.42 7369.08
  -1  -2  15  948.51  451.38
  -1   2  15 2142.04  646.08
  -1  -2  15 1611.77  730.77
  -1  -2  14 8720.21 1491.38
  -1  -2  14 6623.01  708.52
  -1   2  14 6971.06 1306.19
  -1  -2  1323268.33 2206.91
  -1  -2  1323665.79 3148.60
  -1   2  1320617.72 2342.40
  -1  -2  1258864.30 5247.09
  -1   2  1268571.45 7227.52
  -1  -2  1268899.04 7649.64
  -1  -2  1274536.59 9018.32
  -1  -2  1116235.32 1741.51
  -1  -2  1116663.83 1442.52
  -1   2  1119469.51 2094.91
   1  -2 -1037706.76 2561.95
  -1  -2  1049659.00 5055.86
  -1  -2  1027994.19 2414.68
  -1   2  1045401.28 4089.68
  -1  -2  1031641.73 1988.26
   1  -2  -9 5339.60  961.63
  -1   2   9 5134.99  916.34
  -1  -2   9 5955.85  857.92
  -1  -2   9 6671.92 1178.59
  -1  -2   9 3969.18  531.96
   1  -2  -8   20.91 1358.10
   1   2  -8  636.68  548.72
  -1  -2   8  475.08  657.90
  -1   2   8 1139.67  685.27
  -1  -2   8 1998.52  757.15
   1  -2  -747297.15 4445.88
   1   2  -746911.00 4095.31
  -1   2   745859.26 5127.93
  -1  -2   750720.27 6231.80
  -1  -2   747840.38 5059.70
   1  -2  -6 1916.82  527.80
   1  -2  -6  632.88  400.54
   1   2  -6 2260.94  551.21
   1   2  -6 1069.40  578.42
  -1  -2   6 1646.60  832.76
  -1  -2   6 3331.46 1069.28
   1  -2  -522094.76 2079.65
   1   2  -521954.17 1985.33
   1  -2  -523801.80 2217.69
   1   2  -520132.81 1767.86
  -1  -2   522117.26 2313.98
   1   2  -466741.88 7052.84
   1  -2  -474555.44 7519.92
   1  -2  -460966.23 6059.37
  -1  -2   474385.01 7927.12
   1  -2  -383284.42 7502.63
   1   2  -376134.64 6908.08
  -1   2   367326.70 4700.47
  -1  -2   388062.25 8992.17
   1  -2  -243068.32 3772.19
   1   2  -238421.64 3230.20
  -1   2   232104.85 2037.65
  -1  -2   240244.01 3707.69
   1   2  -123008.39 1335.71
   1  -2  -129524.28 1873.03
  -1  -2   132217.05 2555.66
  -1   2   127584.43 1629.29
   1  -2   0 8319.04  988.42
   1   2   0 7088.51  781.40
  -1  -2   0 6920.58  536.17
  -1   2   0 6811.91  764.83
   1  -2   1 1188.05  564.79
   1   2   1 1102.13  362.30
  -1   2  -1  990.31 1418.34
  -1   2  -1 1578.87  471.84
  -1  -2  -1  804.80  350.72
  -1  -2  -1 1503.73 1523.86
   1  -2   2  452.39  545.21
   1  -2   2  288.89 1049.68
   1   2   2-2365.93 1902.04
   1   2   2  -60.16  248.17
  -1  -2  -2 -149.81  670.88
  -1   2  -2  -29.84  401.97
  -1   2  -2  324.47 1237.67
  -1  -2  -2  283.55  211.39
   1  -2   3 3651.95 1163.37
   1   2   3 2584.31  265.41
   1  -2   3 2771.54  644.33
   1   2   3 3732.16 1353.85
  -1   2  -3 2880.89 1254.81
  -1  -2  -3 3171.38  832.79
  -1   2  -3 2146.21  489.90
  -1  -2  -3 2700.06  327.35
   1   2   431277.28 4147.83
   1  -2   420475.84 1770.99
   1  -2   425054.18 2562.08
   1   2   427368.19 1633.52
  -1  -2  -426191.11 2359.86
  -1   2  -423572.38 1530.04
  -1  -2  -426651.99 1850.63
  -1   2  -420787.03 2320.58
   1  -2   565286.17 5325.05
   1  -2   589309.2510519.45
   1   2   580849.2910635.87
  -1   2  -578273.74 6932.73
  -1  -2  -573438.13 7403.57
  -1   2  -585073.71 9658.99
   1   2   6 3418.18 1288.46
   1  -2   6 1622.53  875.56
   1  -2   6 3630.81 1097.43
  -1  -2  -6 2330.51  282.81
  -1   2  -6 1958.90  804.09
  -1  -2  -6 2175.57  237.03
  -1   2  -6 2623.52  860.41
  -1  -2  -6 2021.98  593.80
   1  -2   718152.85 2315.03
   1   2   715185.84 1194.07
   1   2   713563.61 1626.29
  -1   2  -713036.67 1318.86
  -1  -2  -714061.62  984.41
  -1   2  -718222.85 2327.88
   1   2   811849.19  734.09
   1  -2   816827.58 1863.45
   1   2   814454.85 1955.04
  -1  -2  -814496.48 1130.16
  -1   2  -819196.23 2208.68
  -1   2  -815765.86 1695.24
   1   2   9-1060.54 1088.15
   1  -2   9 1943.99  421.38
   1  -2   9 1353.63  717.90
   1   2   9 1142.84  297.28
  -1  -2  -9 1306.54  247.42
  -1   2  -9  484.89  615.26
   1  -2  10 6308.69 1042.06
   1   2  10 4485.98 1316.86
   1  -2  10 4910.91  814.37
   1   2  10 4677.91  629.45
  -1  -2 -10 4482.93  557.90
   1  -2  11 2806.16  828.09
   1   2  11 2868.47  543.28
   1  -2  11 3928.76  773.33
   1   2  11 3187.47 1121.40
  -1  -2 -11 1273.13  401.19
   1  -2  12 2745.00  613.36
   1   2  12 4853.94 1114.14
   1  -2  12 3356.97  542.62
   1   2  12 3542.49  536.31
  -1  -2 -12 2817.45  508.74
   1  -2  1310637.64 1479.22
   1  -2  13 9622.89 1329.93
   1   2  1310055.82 1740.38
   1   2  1311494.98 1278.79
   1   2  1489887.28 9249.34
   1  -2  1490871.7810274.03
   1   2  1476458.83 9936.04
   1  -2  1478946.64 8582.45
   1   2  1563079.70 6016.76
   1   2  1547004.19 4878.88
   1  -2  1561808.96 6516.58
   1  -2  1559605.09 6045.23
   1  -2  16 7515.52 1324.15
   1   2  16 9017.70 1835.20
   1  -2  16 8265.70 1162.69
   1   2  16 7340.35 1039.08
   1  -2  17 -704.77  616.65
   1  -2  17   75.21  487.15
   1   2  17-1281.81  509.09
   1   2  17   11.92 1037.91
   1  -2  18 3566.90  722.18
   1   2  18 4110.92 1287.37
   1  -2  18 4935.03  825.09
   1   2  18 5511.12  782.53
   1   2  1926691.29 3238.98
   1   2  1921145.85 2065.12
   1  -2  1919434.16 2245.87
   1  -2  1923695.59 2562.53
   1  -2  2031616.02 3507.77
   1   2  2025117.53 2819.09
   1  -2  2025978.32 2979.67
   1   2  2030744.72 3658.68
   1  -2  2115172.37 2275.85
   1  -2  2119280.51 2265.50
   1   2  2117392.07 2431.91
   1   2  2114692.07 1599.86
   1   2  22 2947.07  638.24
   1   2  22  747.52 1170.03
   1  -2  22 2876.62  923.46
   1  -2  22 2028.80  783.19
   1  -2  23 2252.07  836.16
   1   2  23 1479.40  620.43
   1   2  23 2449.85 1243.51
   1  -2  23 1677.06  672.97
   1   2  24  368.60  636.85
   1  -2  24   26.80  693.59
   1   2  24 1355.79 1153.19
   1  -2  24    3.60  808.98
   1   2  25 2572.00  537.27
   1   2  25 4465.05 1622.79
   1  -2  25 4481.58  934.52
   1  -2  25 2121.74  788.65
   1   2  26  808.32  638.53
   1  -2  26  107.45  791.19
   1   2  26  522.46 1470.46
   1  -2  26  810.07  674.88
   1  -2  27  570.80  845.30
   1  -2  27  679.02  846.34
   1   2  27   -6.10  626.48
   1   2  27  125.73 1380.50
   1  -2  28 -334.66  841.33
   1  -2  28 -281.65  623.70
   1   2  28  336.33  651.38
   1   2  28 1093.17 1473.87
   1  -2  29  659.64  876.42
   1   2  29 1251.71 1556.82
   1  -2  29 1493.51 1002.46
   1  -2  30 1672.39  843.53
   1   2  30  328.35 1686.87
   1  -2  30 3760.17 1106.83
   1  -2  31 4222.59 1427.47
   1   2  31 2830.00 1828.57
   1  -2  31 2435.01  891.76
   1  -2  32  733.35  970.96
   1  -2  32 -106.79 1142.93
   1   2  32-4267.05 2781.55
   1  -2  33 1488.86 1227.89
   1   2  33 -503.38 3079.62
   1   2  34 1859.97 3596.04
   1  -2  34 2428.57 1836.02
   1  -2  35 -190.97 1485.14
   1   2  35  293.59 3191.98
   1   2  36 5102.10 3738.66
   1  -2  36 1508.97 1727.55
   1  -2  37 3544.58 1765.81
   1   2  37 4551.67 3903.48
   1  -2  38-1340.24 1556.90
  -1  -3  38 -380.92 1004.63
  -1  -3  37 -545.15 1379.05
  -1  -3  36-1241.33 1396.34
  -1  -3  35 4310.02 1235.10
  -1  -3  34 -899.40  942.33
  -1  -3  33  712.49  957.07
  -1   3  33  507.97  934.46
  -1  -3  32 -110.63  855.71
  -1   3  32   50.55  623.97
  -1  -3  31 1403.50 1343.73
  -1   3  31 -189.00  863.86
  -1  -3  31  411.59  887.87
  -1  -3  30-1433.69  888.15
  -1  -3  30 -308.37  848.20
  -1   3  30 -763.55  646.52
  -1   3  29 6542.63 1175.19
  -1  -3  29 7894.13 1335.07
  -1  -3  29 6825.33 1323.94
  -1  -3  28 3226.69 1196.89
  -1   3  28 1602.59  714.77
  -1  -3  28 3527.43 1428.18
  -1  -3  27 7218.07 1773.39
  -1  -3  27 5431.60  972.65
  -1   3  27 6793.29 1294.05
  -1  -3  26 -591.22  742.90
  -1  -3  26   66.91  872.66
  -1   3  26  120.39  577.78
  -1  -3  2530628.31 4282.43
  -1  -3  2526498.57 2671.07
  -1   3  2526897.73 3341.80
  -1  -3  24 1846.57  862.00
  -1  -3  24 1349.91  840.62
  -1   3  24 1732.84  870.38
  -1  -3  23 5494.77  782.12
  -1  -3  23 6340.89 1296.29
  -1   3  23 7166.95 1025.08
  -1   3  22  913.84  592.02
  -1  -3  22  759.89  810.46
  -1  -3  22  690.38  492.67
  -1  -3  21 1263.55  821.26
  -1  -3  21 3791.68  774.47
  -1   3  21 2084.17  613.26
  -1   3  20 3822.12  808.53
  -1  -3  20 5012.79  897.07
  -1  -3  20 3076.49  781.48
  -1  -3  1923537.47 2403.91
  -1   3  1922843.49 2367.37
  -1  -3  1916879.62 2367.25
  -1  -3  18  345.89  514.43
  -1   3  18  180.07  759.53
  -1  -3  18 -514.70  905.67
  -1  -3  17 4788.46 1063.46
  -1  -3  17 4923.02  828.67
  -1   3  17 4897.60  817.03
  -1  -3  16 1859.32  838.49
  -1  -3  16 1402.09  423.20
  -1   3  16 1758.48  676.86
  -1  -3  1514496.77 1544.24
  -1   3  1513662.19 1640.84
  -1  -3  1514482.35 2067.94
  -1   3  1417637.72 2218.17
  -1  -3  1418246.48 2312.47
  -1  -3  1416160.70 1722.85
  -1  -3  1382178.30 8217.49
  -1   3  1381133.76 9757.53
  -1  -3  1384954.9010736.96
  -1  -3  12 4807.46  988.59
  -1  -3  12 4124.90  606.83
  -1   3  12 4480.46  880.35
  -1  -3  12 1712.06  799.97
   1   3 -11 -190.88  636.98
  -1   3  11  372.03  547.36
  -1  -3  11 1037.02  629.79
  -1  -3  11   20.35  618.82
   1   3 -10  731.55  471.80
   1  -3 -10  471.55  286.10
  -1  -3  10  277.22  598.96
  -1  -3  10  977.58  780.14
   1  -3  -970523.87 6249.02
   1   3  -946969.20 3449.51
  -1  -3   972271.15 7258.20
   1  -3  -812233.56 1424.68
   1   3  -8 9736.66 1243.76
  -1  -3   811464.78 1489.53
   1   3  -7 3322.88 1043.83
   1  -3  -7 4257.20  804.77
  -1  -3   7 5637.65  846.09
   1  -3  -640176.09 3538.99
   1   3  -624657.21 2547.30
   1  -3  -631295.51 2680.09
  -1  -3   636085.84 3836.57
   1  -3  -5 9636.51 1352.80
   1   3  -5 7255.22 1000.58
  -1   3   5 6940.61  850.78
  -1  -3   5 7597.06 1178.06
   1   3  -427435.40 2317.66
   1  -3  -435142.78 3257.92
  -1  -3   432380.84 3347.77
  -1   3   425121.71 1685.95
   1  -3  -348224.17 4159.36
   1   3  -333679.11 2354.93
  -1  -3   353366.42 5075.47
  -1   3   349502.46 3946.08
   1   3  -2 1480.91  664.76
   1  -3  -2  905.43  652.31
  -1  -3   2 1328.81  578.05
  -1   3   2  957.59  522.09
   1   3  -1 9960.05  865.43
   1  -3  -111826.61 1374.58
  -1  -3   112423.60  967.53
  -1   3   112863.85 1220.65
   1   3   036012.63 2706.20
   1  -3   037800.98 2823.68
  -1  -3   042103.50 3208.93
  -1   3   045141.51 4042.10
   1   3   132091.17 2382.74
   1  -3   136186.64 2640.32
  -1   3  -141189.26 3486.52
  -1  -3  -141896.59 3623.98
   1   3   271466.74 6233.80
   1  -3   256437.47 4149.05
  -1   3  -262825.66 5406.63
  -1   3  -271802.8311225.22
  -1  -3  -253674.13 3751.73
   1  -3   3 2334.83 1649.68
   1   3   3 4915.16  420.55
   1  -3   3 5713.95 1068.00
  -1  -3  -3 5057.05  611.85
  -1  -3  -3 5268.88 2386.70
  -1   3  -3 4488.20  657.27
  -1   3  -3 5927.24 2131.49
   1  -3   4 1859.32 1216.54
   1  -3   4 -180.20 1342.52
   1   3   4 1051.68  254.09
  -1  -3  -4  851.22  306.55
  -1   3  -4 1015.32  476.04
  -1  -3  -4 1045.81 1133.85
  -1   3  -4  400.67 1439.14
   1  -3   5110149.817207.24
   1  -3   5110222.613298.00
   1   3   578001.43 5140.36
  -1  -3  -5114645.013599.63
  -1   3  -5103630.710416.45
  -1   3  -5123132.216961.85
   1   3   623990.03 1725.17
   1  -3   624172.23 3104.92
   1   3   621686.19 5434.70
  -1   3  -622413.37 2349.84
  -1  -3  -627239.12 1868.77
  -1   3  -621860.19 3089.77
   1  -3   711048.41 1784.06
   1   3   712664.66 3627.87
  -1  -3  -710639.31  799.49
  -1   3  -713180.73 1880.92
  -1  -3  -7 9113.13  483.02
   1  -3   8  561.90  952.01
   1   3   8  859.15 1271.84
  -1  -3  -8  921.69  216.89
  -1  -3  -8 1649.84  257.93
  -1   3  -8 1682.24  878.23
   1  -3   9 2233.71  798.14
   1   3   9  690.13 1374.68
  -1   3  -9 2490.42  895.23
  -1  -3  -9 1950.03  288.11
  -1  -3  -9 1262.57  267.51
   1  -3  10 8739.05 1324.80
   1   3  10 9022.01 2026.68
  -1  -3 -10 6591.95  416.86
  -1   3 -10 8625.35 1371.15
  -1  -3 -1010283.86  953.25
   1  -3  1154190.72 5950.59
   1   3  1149393.08 6997.43
  -1   3 -1153036.20 5624.70
   1  -3  1211251.73 1766.51
   1   3  12 9456.11  895.82
   1  -3  12 9068.24  880.89
   1   3  1210080.80 2105.59
  -1  -3 -12 8349.70  982.99
   1  -3  1339386.31 3954.37
   1  -3  1342630.91 5064.12
   1   3  1340894.66 4444.61
   1   3  1334346.86 2873.93
  -1  -3 -1331844.46 2888.94
   1  -3  14101973.812999.09
   1   3  14104566.113180.16
   1   3  1495915.13 9441.22
  -1  -3 -1470175.88 7559.06
   1  -3  15 4735.66  876.81
   1  -3  15 4413.30  800.16
   1   3  15 3601.70  556.72
   1   3  15 5265.61 1666.69
  -1  -3 -15 1781.39  518.34
   1  -3  1654581.38 5806.93
   1  -3  1657006.68 6862.23
   1   3  1654929.98 7511.33
   1   3  1651028.42 4716.50
   1   3  1745103.26 4200.40
   1  -3  1746138.96 4798.14
   1   3  1750027.46 6701.68
   1  -3  1743646.97 4802.98
   1  -3  18 2139.92  660.17
   1   3  18 1242.41 1300.44
   1   3  18 2499.26  497.76
   1  -3  18  489.74  539.25
   1   3  19 9596.22  904.51
   1   3  1915934.29 2497.82
   1  -3  1914644.12 1557.48
   1  -3  1915215.06 1656.58
   1   3  20 1278.70 1214.94
   1  -3  20 -273.53  567.33
   1   3  20 -622.73  440.16
   1  -3  20 -294.69  528.47
   1   3  2112348.56 2216.04
   1  -3  2110234.46 1380.12
   1   3  21 7908.36  858.55
   1  -3  2110896.58 1364.26
   1  -3  22 6594.86  946.22
   1  -3  22 6261.40  909.69
   1   3  22 5908.29 1828.38
   1   3  22 5928.88  919.16
   1  -3  2319309.93 2277.85
   1   3  2315036.45 1733.30
   1   3  2314139.46 2640.03
   1  -3  2318265.95 2510.03
   1  -3  2430944.85 3901.66
   1  -3  2429595.99 3471.70
   1   3  2427544.10 4276.70
   1   3  2427610.37 2930.64
   1  -3  25  675.00  701.20
   1   3  25 1005.19 1422.03
   1  -3  25 1053.76  804.63
   1   3  25 1076.60  578.85
   1  -3  26 -618.19  742.39
   1   3  26  -56.71 1340.15
   1  -3  26 -619.30  859.55
   1   3  26  603.23  586.57
   1   3  27 3356.99  794.95
   1  -3  27 4910.42 1042.42
   1  -3  27 3934.25  847.83
   1   3  27 7743.65 3243.20
   1   3  28 5781.16 3151.22
   1  -3  28 4082.24 1064.64
   1  -3  28 1968.43  877.01
   1  -3  29 6702.67 1253.66
   1   3  2910075.44 3744.86
   1  -3  29 4824.45 1525.93
   1  -3  30-1643.46  869.36
   1   3  30 1477.80 2875.47
   1  -3  30  187.75  707.40
   1   3  31 -827.82 2925.15
   1  -3  31  984.83  935.28
   1  -3  31 -182.89 1030.21
   1  -3  32  782.90  779.40
   1  -3  32  440.79  985.80
   1   3  32-1192.58 3017.38
   1   3  33 4042.88 3608.76
   1  -3  33 6969.86 1581.81
   1  -3  33 3218.10 1386.35
   1   3  34-3516.15 3098.80
   1  -3  34 1515.84 1699.96
   1  -3  35 1798.12 1307.12
   1  -3  36  275.18 1255.54
   1  -3  37 3915.01 1943.40
   1  -3  38 -179.31 1459.84
  -1  -4  38 3032.70 1309.16
  -1  -4  37  738.06 1069.77
  -1  -4  36  857.95 1401.26
  -1  -4  35 1922.34 1514.02
   1  -4 -34 2048.14  762.97
  -1  -4  34 1039.43 1054.31
   1  -4 -33  194.64  477.84
  -1  -4  33-1062.13  929.17
   1  -4 -32 2816.48  664.87
  -1  -4  32 3846.00 1204.46
  -1  -4  3129278.88 3285.84
  -1  -4  3119859.42 3263.80
  -1  -4  30 5214.16 1080.58
  -1  -4  30 4315.47 1260.39
  -1  -4  29 3522.77  900.77
  -1   4  29 1702.26  684.67
  -1  -4  29 2155.07 1469.70
  -1  -4  28 1187.83  679.10
  -1  -4  28  255.32  958.10
  -1   4  28 2634.32  698.78
  -1   4  2717480.94 2366.48
  -1  -4  2719277.35 2263.41
  -1  -4  2712886.62 2357.24
  -1  -4  26 2447.35  658.12
  -1   4  26 3193.04  682.22
  -1  -4  26 1468.16  984.63
  -1  -4  25 3586.34 1157.79
  -1  -4  25 3425.13  746.17
  -1   4  25 3244.39  735.90
  -1  -4  24  790.17  533.96
  -1  -4  24-1682.69  800.84
  -1   4  24 -807.93  558.01
  -1   4  2314665.70 1700.92
  -1  -4  2314040.42 1516.63
  -1  -4  2315309.59 2659.32
  -1  -4  22 -257.12  473.49
  -1  -4  22 -136.40  719.61
  -1   4  22 -222.23  526.56
  -1  -4  2114381.96 2329.15
  -1   4  2114472.22 1778.65
  -1  -4  2115445.16 1843.36
  -1  -4  20 1967.00  819.98
  -1   4  20 1964.64  740.13
  -1  -4  20 1267.60  444.43
  -1  -4  19  183.18  650.55
  -1   4  19 -380.73  474.89
  -1  -4  18-1501.68  945.84
  -1   4  18    6.12  475.76
  -1  -4  18 -504.51  486.96
   1  -4 -17  277.48  270.43
  -1  -4  17 1931.64  749.13
  -1  -4  17 1588.49  408.92
   1  -4 -16 7385.02  878.02
  -1  -4  16 8462.97 1221.58
  -1  -4  16 7376.77  880.22
   1  -4 -1516335.06 1703.58
  -1  -4  1515804.93 1505.04
  -1  -4  1513994.65 2211.88
   1  -4 -1415576.94 1660.24
  -1  -4  1416095.38 1413.72
  -1  -4  1416789.09 2163.79
   1   4 -13 3051.22  645.49
   1  -4 -13 3119.86  588.28
  -1  -4  13 3377.96  882.85
   1  -4 -12 3827.74  841.83
   1   4 -12 3977.05  885.86
  -1  -4  12 3625.77  836.30
   1   4 -1198519.3310824.50
   1  -4 -1191835.08 9756.75
  -1  -4  1197839.5811934.28
   1  -4 -10 5638.60  913.61
   1   4 -10 4851.58  820.38
  -1  -4  10 5224.71  884.62
   1   4  -9 1497.08  787.29
   1  -4  -9 1406.42  586.17
  -1  -4   9 1591.41  706.60
   1   4  -8 2205.84 1136.06
   1  -4  -8   97.01  859.88
  -1  -4   8  847.36  680.63
   1   4  -716397.92 2411.61
   1  -4  -725348.76 2184.06
  -1  -4   722433.99 2437.19
   1  -4  -617144.50 1790.46
  -1  -4   618057.71 2371.07
   1  -4  -573216.36 7463.59
  -1  -4   572011.40 8139.38
   1  -4  -461213.90 7067.42
  -1  -4   462022.57 6957.90
   1   4  -364293.24 5387.85
   1  -4  -3111942.810559.81
  -1   4   383416.98 6185.97
  -1  -4   3112848.910747.85
   1   4  -2  667.75  785.79
   1  -4  -2 1215.18  711.56
  -1  -4   2 -337.70 1029.92
  -1   4   2 -316.01  459.45
   1   4  -127456.45 2522.60
   1  -4  -140582.49 3641.67
  -1  -4   134190.26 3163.18
  -1   4   128852.51 2268.62
   1   4   0 1702.91  880.61
   1  -4   0 3040.94  920.28
  -1   4   0 2521.51  611.72
  -1  -4   0 1691.79  651.04
   1  -4   1101513.511217.90
   1   4   1114074.510748.78
  -1  -4  -185074.94 7847.50
  -1   4  -1107996.610546.94
   1  -4   214164.27 1704.13
   1   4   211779.63 1037.09
  -1  -4  -212168.69 1311.80
   1  -4   334723.80 3900.18
   1   4   327328.45 1654.17
  -1   4  -340504.47 7335.78
  -1  -4  -331440.73 3014.23
   1  -4   464060.19 6981.56
   1   4   468016.35 5475.73
  -1   4  -471195.8811767.14
  -1  -4  -458596.34 4081.69
   1   4   5115330.711270.65
   1  -4   5126636.216098.68
  -1   4  -5146644.424350.83
   1   4   6 8263.78  535.88
   1  -4   6 8449.98 1605.06
  -1   4  -612110.00 2111.65
  -1  -4  -6 9763.10  817.80
   1   4   7  662.74  218.80
   1  -4   7 1277.05 1083.51
  -1   4  -7  886.60 1297.55
  -1  -4  -7 1094.65  287.77
   1  -4   8 -641.72  904.80
  -1   4  -8-1202.49  880.62
  -1  -4  -8   52.53  180.19
  -1  -4  -8  135.11  248.19
   1  -4   946720.93 6251.50
  -1  -4  -941902.72 3091.70
  -1   4  -951787.43 5624.25
  -1  -4  -933529.96 1754.79
   1  -4  1014536.16 1990.40
  -1  -4 -1012704.25  767.34
  -1  -4 -1017158.17 1415.44
  -1   4 -1015967.44 1983.98
   1  -4  1181521.06 9053.65
   1   4  1154927.6211784.20
  -1  -4 -1150892.97 3043.05
  -1   4 -1168084.34 7488.06
  -1  -4 -1179058.03 6348.53
   1  -4  12 2291.79 1121.12
   1   4  12 3452.14 2654.63
  -1   4 -12 3578.01  925.14
  -1  -4 -12 2631.51  362.33
  -1  -4 -12 1359.38  302.01
   1  -4  1319166.15 2490.45
   1   4  1319518.57 4915.34
  -1  -4 -1318222.95 1312.36
  -1   4 -1319140.11 2494.49
  -1  -4 -1317394.95 1723.79
   1   4  14 -830.93 1276.68
   1  -4  14  208.62  602.95
  -1  -4 -14  722.45  283.57
  -1   4 -14  483.37  736.86
  -1  -4 -14  430.25  295.31
   1  -4  1542344.58 4708.03
   1  -4  1544278.14 4048.19
   1   4  1544838.31 8243.98
  -1  -4 -1531479.76 3030.11
  -1  -4 -1541444.29 3021.44
   1  -4  16  819.47  594.18
   1   4  16-2091.70 2193.74
   1  -4  16 1648.32  603.84
  -1  -4 -16  846.62  263.37
   1  -4  17 1217.08  561.31
   1   4  17 -346.03 2190.50
   1  -4  17 1808.56  687.83
  -1  -4 -17  644.13  314.24
   1  -4  18 6981.73 1076.31
   1   4  18 7499.45 2786.83
   1  -4  18 5683.98  940.04
  -1  -4 -18 5040.44  612.02
   1  -4  1913327.98 1609.67
   1   4  1913472.76 3706.73
   1  -4  19 9909.16 1315.76
  -1  -4 -19 9229.53  748.28
   1   4  20 5828.54 2830.38
   1  -4  20 4991.53  798.39
   1  -4  20 4786.01  905.31
   1  -4  2184676.15 9609.17
   1   4  2186034.4215995.06
   1  -4  2172601.99 8226.21
   1   4  22 2256.99 2503.25
   1  -4  22 1319.49  573.00
   1  -4  22  635.69  654.17
   1   4  2312394.10 3766.24
   1   4  23 9376.31 1094.44
   1  -4  2310339.79 1432.53
   1  -4  23 8174.68 1323.26
   1  -4  24 2603.89 1068.01
   1  -4  24 4358.34  804.94
   1   4  24 2743.56 2812.90
   1   4  24 2165.19  519.00
   1   4  2551867.9711989.45
   1  -4  2555639.64 6870.92
   1  -4  2567794.53 7804.28
   1   4  26 -565.35 2449.72
   1  -4  26 -315.50  632.15
   1  -4  26 -291.53  767.85
   1  -4  27   -4.20  728.96
   1  -4  27 -119.25  944.28
   1   4  27  916.13 2553.69
   1  -4  28 1617.87  831.97
   1   4  28 3014.00 2910.01
   1  -4  28  729.70  819.62
   1  -4  29  118.59  860.61
   1  -4  29 -798.15  685.11
   1  -4  30 2033.41  956.95
   1  -4  30 1155.22 1145.31
   1  -4  31 2497.72 1007.67
   1  -4  31  729.64  865.72
   1  -4  32 3669.35 1585.09
   1  -4  3211469.60 1636.00
   1  -4  33  601.73  787.06
   1  -4  33 -564.72  975.62
   1  -4  34 -274.96  983.67
   1  -4  34  873.17 1162.75
   1  -4  35 2434.63 1240.39
   1  -4  36 1555.28 1391.95
   1  -4  37 2472.73 1467.97
   1  -4  38 1233.24 1389.12
  -1  -5  37 -510.93 1059.99
  -1  -5  36 2524.79 1191.10
  -1  -5  35  505.35 1051.39
  -1  -5  34  923.30 1399.20
   1  -5 -33 2247.00  759.20
  -1  -5  33 2028.10 1502.64
   1  -5 -32   15.66  476.48
  -1  -5  32 1174.25  959.50
   1  -5 -31 2899.29  655.04
  -1  -5  31 4161.96 1295.33
   1  -5 -30  900.26  654.71
  -1  -5  30   66.31  956.73
  -1  -5  30 1209.39  967.73
   1  -5 -29 9974.97 1111.02
  -1  -5  2911493.72 1686.52
  -1  -5  29 6191.75 1498.13
   1  -5 -28 9492.22 1137.49
  -1  -5  28 9934.18 1248.37
  -1  -5  28 5286.26 1919.72
   1  -5 -27 1984.27  475.59
  -1  -5  27  961.45  993.26
  -1  -5  27  937.37  631.93
   1  -5 -26  601.34  636.24
  -1  -5  26  373.99  575.47
  -1  -5  26  528.34  873.04
   1  -5 -2517411.10 1862.97
  -1  -5  2511254.38 2054.08
  -1  -5  2515450.55 1625.37
   1  -5 -24 9442.97 1253.97
  -1  -5  24 9711.28 1907.69
  -1  -5  24 9054.68 1145.43
   1  -5 -23  875.35  443.11
  -1  -5  23 1582.04  873.16
  -1  -5  23   27.40  460.31
   1  -5 -2211262.85 1197.55
  -1  -5  2211840.42 1217.62
  -1  -5  22 9436.69 1720.73
   1  -5 -21  672.30  573.05
  -1  -5  21  223.37  736.88
  -1  -5  21 1276.26  462.77
   1  -5 -2019410.22 1775.96
  -1  -5  2022409.26 2884.55
  -1  -5  2022285.99 2133.78
   1  -5 -1910610.99 1122.65
  -1  -5  1910279.35 1310.16
  -1  -5  1911634.46 1850.79
   1  -5 -18 3852.07  556.60
  -1  -5  18 3247.07  903.21
  -1  -5  18 2196.06  579.13
   1  -5 -17  301.33  449.71
  -1  -5  17  454.37  921.75
  -1  -5  17  965.66  445.35
   1  -5 -16 8469.47 1148.18
  -1  -5  16 7248.73 1160.97
   1   5 -1530087.30 3198.11
   1  -5 -1521948.48 1997.85
  -1  -5  1527684.20 3440.63
   1  -5 -1430043.26 2665.57
   1   5 -1431330.88 3282.61
  -1  -5  1431880.64 3574.92
   1  -5 -1315203.40 1744.01
   1   5 -1315802.40 1795.32
  -1  -5  1315531.57 2067.49
   1  -5 -12   71.58  652.36
   1   5 -12 -832.70  798.02
  -1  -5  12  945.20  663.15
   1  -5 -11 1058.71  592.94
   1   5 -11 1651.04  815.09
  -1  -5  11 1576.25 1045.15
   1  -5 -10 7811.92 1239.98
   1   5 -1011362.57 2166.92
  -1  -5  10 7344.02 1301.55
   1   5  -9120797.217387.07
   1  -5  -9109617.812278.86
  -1  -5   9100046.512817.50
   1  -5  -8 5369.58  962.47
   1   5  -8 7745.35 1611.85
  -1  -5   8 6070.28 1138.10
   1  -5  -7 5189.77  823.08
   1   5  -7 8754.56 2512.81
  -1  -5   7 5023.77 1126.26
   1  -5  -6 1997.23  750.74
  -1  -5   6 1654.58  769.92
   1  -5  -517535.48 1872.83
  -1  -5   518464.17 2519.10
   1  -5  -444971.72 4432.79
  -1  -5   440357.94 4516.72
   1  -5  -373473.93 7646.61
  -1  -5   371387.42 8995.24
   1  -5  -288508.00 9920.99
  -1  -5   299762.1212757.59
   1  -5  -1 6450.39 1088.61
   1   5  -1 5232.42 1241.54
  -1  -5   1 8661.68 1642.15
   1   5   033694.61 3160.01
   1  -5   030984.89 3357.22
  -1  -5   032824.54 3638.46
   1   5   124062.42 2681.86
   1  -5   126792.71 2874.71
  -1  -5  -127419.50 2930.76
   1   5   2 6090.97  706.70
   1  -5   2 7062.56 1068.48
  -1  -5  -2 6296.60 1290.24
   1  -5   374262.51 7298.58
   1   5   361415.51 4984.11
  -1  -5  -350553.86 3883.93
   1   5   4 1548.93  483.81
   1  -5   4 2378.27 1005.38
  -1  -5  -4 2071.24  706.01
  -1   5  -4 2333.22 2256.18
   1  -5   5 9427.05 1521.18
   1   5   5 7957.49  669.99
  -1  -5  -5 8804.71  838.42
  -1   5  -512542.82 2843.74
   1  -5   633674.64 4926.68
   1   5   635359.32 2593.46
  -1   5  -636612.63 5118.18
  -1  -5  -630143.49 1869.13
   1  -5   7 7934.68 1467.31
   1   5   7 6564.56  677.88
  -1   5  -7 6874.84 1111.32
  -1  -5  -7 5981.99  527.85
   1  -5   8-1625.28  914.73
   1   5   8    0.82  254.56
  -1   5  -8-1433.63 1219.05
  -1  -5  -8  234.71  351.74
   1  -5   916984.11 2393.85
   1   5   913785.60  988.44
  -1   5  -915602.34 2825.67
  -1  -5  -913829.76  911.39
   1  -5  10 4243.54 1254.55
  -1   5 -10 5733.53 1301.08
  -1  -5 -10 4228.80  457.37
   1  -5  11  577.63  854.37
  -1  -5 -11  477.44  264.60
  -1   5 -11  825.69  815.77
  -1  -5 -11  627.07  308.92
   1  -5  1272793.83 9629.21
  -1  -5 -1277051.53 6673.95
  -1   5 -1276004.63 8977.70
  -1  -5 -1271744.40 6779.21
   1  -5  13 -139.42 1057.24
  -1  -5 -13  190.83  361.59
  -1  -5 -13  480.35  331.87
  -1   5 -13  -44.37  729.24
   1  -5  14    3.08  603.95
  -1   5 -14 -741.10  659.01
  -1  -5 -14  538.62  300.79
  -1  -5 -14  325.75  288.93
   1  -5  15  474.55  665.41
  -1   5 -15 1272.81  708.07
  -1  -5 -15  827.77  361.74
  -1  -5 -15 1441.51  287.70
   1  -5  16 7364.52 1182.93
  -1  -5 -16 6405.78  639.51
  -1   5 -16 8345.89 1406.46
   1  -5  17 2500.29  648.17
   1  -5  17 1365.29  641.38
  -1  -5 -17  367.67  343.33
   1  -5  18  739.53  607.37
   1  -5  18 -223.11  748.30
  -1  -5 -18  -84.63  259.10
   1  -5  19 -327.39  560.47
   1  -5  19  990.23  567.14
  -1  -5 -19  477.41  316.28
   1  -5  20 -261.06  636.39
   1  -5  20  306.85  590.89
  -1  -5 -20  -72.90  317.84
   1  -5  21 7324.37 1066.50
   1  -5  21 6788.45 1201.68
  -1  -5 -21 5444.93  665.96
   1  -5  2210959.04 1551.33
   1  -5  2211446.39 1528.51
  -1  -5 -2210088.45  971.27
   1  -5  2310784.31 1380.13
   1  -5  2313158.39 1912.20
  -1  -5 -23 9681.51  969.34
   1  -5  24 1893.64  773.81
   1  -5  24 2059.83  723.82
  -1  -5 -24 2268.14  414.73
   1  -5  25 2571.63  860.33
   1  -5  25 1951.50  722.75
  -1  -5 -25 1072.08  395.33
   1  -5  26  258.69  710.04
   1  -5  26 -409.42  746.05
  -1  -5 -26  -22.22  376.30
   1  -5  27 1142.89 1031.82
   1  -5  28 2123.55  844.75
   1  -5  28 3607.10 1310.42
   1  -5  29 1638.69  810.44
   1  -5  29  892.62  896.12
   1  -5  30 -505.54 1101.65
   1  -5  30 3457.40 1050.33
   1  -5  31 2697.03  984.14
   1  -5  31 1031.35  855.64
   1  -5  32  895.92  924.06
   1  -5  32 1585.66 1214.63
   1  -5  33 -510.10  830.04
   1  -5  33  398.22  881.58
   1  -5  34  963.39 1245.28
   1  -5  34  447.44 1073.19
   1  -5  35   65.91 1015.03
   1  -5  36 1851.70 1164.41
   1  -5  37 2505.63 1532.80
  -1  -6  37 -931.58 1116.97
  -1  -6  36 1075.67 1161.77
  -1  -6  35  156.19 1429.30
  -1  -6  34  867.70 1049.07
  -1  -6  33-1020.28 1050.43
   1  -6 -32 2635.56  648.93
  -1  -6  32 1589.64 1197.10
   1  -6 -31 -442.79  672.33
  -1  -6  31  630.70 1295.53
   1  -6 -30 1442.00  722.96
  -1  -6  30 1004.05  940.72
  -1  -6  30 -360.99 1017.86
   1  -6 -29 4747.69  772.21
  -1  -6  29 2649.38  805.98
  -1  -6  29 2603.47 1276.77
   1  -6 -2817222.17 1838.48
  -1  -6  2816135.18 1863.10
  -1  -6  2815187.36 2614.96
   1  -6 -27  -93.78  446.40
  -1  -6  27 1059.58  848.42
  -1  -6  27  119.27  532.80
   1  -6 -26 6649.85  921.03
  -1  -6  26 6073.71  870.80
  -1  -6  26 4987.63 1555.59
   1  -6 -25 3920.34  675.00
  -1  -6  25 4207.49  740.21
  -1  -6  25 3477.03 1081.12
   1  -6 -24  325.80  444.88
  -1  -6  24-1031.86  794.49
  -1  -6  24  223.87  591.44
   1  -6 -23 5206.50  975.43
  -1  -6  23 8628.60 1153.76
  -1  -6  23 6410.21 1057.03
   1  -6 -2252293.38 4981.21
  -1  -6  2257444.53 7109.18
  -1  -6  2253804.39 5540.75
   1  -6 -21  196.43  575.79
  -1  -6  21 -268.89  599.72
  -1  -6  21 1008.53  786.84
   1  -6 -20 1567.37  524.68
  -1  -6  20 1538.98  708.81
  -1  -6  20  797.82  480.39
   1  -6 -19 5407.37  934.03
  -1  -6  19 5214.34 1076.14
  -1  -6  19 4086.18  685.33
   1  -6 -18 7125.34 1123.51
  -1  -6  18 5480.86  539.48
  -1  -6  18 5372.62 1026.08
   1  -6 -1711698.94 1434.21
   1   6 -1711902.96 1419.88
  -1  -6  17 9645.90 1602.62
   1   6 -1681478.48 9025.58
   1  -6 -1669871.16 7076.42
  -1  -6  1665636.97 8503.00
   1   6 -1535671.44 3306.20
   1  -6 -1533109.45 2869.08
  -1  -6  1536879.00 4198.76
   1   6 -1428780.89 2881.70
   1  -6 -1428495.98 2596.09
  -1  -6  1425500.35 3121.82
   1   6 -1310370.44 1550.15
   1  -6 -1311733.30 1179.69
  -1  -6  1314301.44 1916.41
   1  -6 -1244979.02 4478.54
   1   6 -1245210.80 5616.16
  -1  -6  1243910.21 5417.00
   1  -6 -11 9835.10 1485.37
   1   6 -1110962.56 2328.32
  -1  -6  11 7995.95 1414.15
   1  -6 -1025134.79 2330.40
   1   6 -1029805.01 4945.29
  -1  -6  1024476.41 3134.80
   1  -6  -920848.97 1851.36
   1   6  -921813.92 4770.11
  -1  -6   917421.44 2324.67
   1   6  -828814.33 4920.33
   1  -6  -824426.59 2384.70
  -1  -6   826315.96 3560.38
   1  -6  -7 8101.75  972.63
  -1  -6   7 6711.13 1275.34
   1  -6  -675484.24 7753.12
  -1  -6   672698.55 8095.45
   1  -6  -569093.00 6888.05
  -1  -6   575661.76 9294.06
   1  -6  -4  -44.89  686.35
  -1  -6   4 1352.33  772.99
   1  -6  -317022.40 2193.00
  -1  -6   318203.70 2399.75
   1  -6  -2 1587.92  804.04
  -1  -6   2  494.52 1133.20
   1  -6  -157118.55 5809.16
  -1  -6   160547.76 7657.60
   1  -6   013799.22 1666.03
  -1  -6   012586.71 2140.58
   1  -6   1 1963.08  820.38
  -1  -6  -1 1141.23  727.38
   1  -6   212996.96 1685.44
   1   6   210335.59  983.50
  -1  -6  -2 9810.09 1784.14
   1  -6   3 3606.39 1254.38
   1   6   3 3388.80  496.26
  -1  -6  -3 3487.96  996.57
   1   6   4 3306.09  604.84
   1  -6   4 4682.10  997.02
  -1  -6  -4 3345.25  869.60
  -1   6  -4 4741.27 2416.48
   1  -6   516760.29 2097.65
   1   6   513009.58  963.11
  -1   6  -516268.29 4277.80
  -1  -6  -514944.32 1605.57
   1  -6   662767.01 8018.00
   1   6   657218.94 4810.01
  -1  -6  -665762.44 5828.93
  -1   6  -652820.65 8045.38
   1  -6   7 1894.85 1092.74
   1   6   7 2932.11  477.32
  -1   6  -7 3703.75 1794.02
  -1  -6  -7 3811.22  687.33
   1  -6   825690.86 3721.55
   1   6   826720.42 1960.50
  -1  -6  -828372.75 2145.22
  -1   6  -824535.33 4111.29
   1  -6   9165383.923772.31
   1   6   9120075.712312.12
  -1   6  -9153418.024564.34
  -1  -6  -9145931.414969.34
   1   6  10275570.941752.64
   1  -6  10342137.965099.83
  -1  -6 -10344747.952557.88
  -1   6 -10310067.058169.92
   1  -6  1167075.85 9022.30
  -1  -6 -1177315.37 6471.76
  -1   6 -1168224.73 8929.34
   1  -6  1212678.49 2383.29
  -1   6 -12 9112.67 1605.83
  -1  -6 -1210120.66  880.65
  -1  -6 -12 8241.67  831.51
   1  -6  13 2360.49  848.49
  -1  -6 -13 1446.46  386.75
  -1  -6 -13 3205.55  417.94
  -1   6 -13 3452.12  854.30
   1  -6  1474686.4210075.40
  -1  -6 -1474503.62 6329.56
  -1   6 -1479754.58 9520.20
   1  -6  1512598.93 1765.38
  -1   6 -1511259.26 1544.53
  -1  -6 -1514889.74 1183.64
   1  -6  1618395.63 2500.89
  -1  -6 -1616312.01 1301.08
  -1   6 -1617270.61 2101.62
   1  -6  17 8278.56 1372.05
  -1   6 -17 8281.07 1294.69
  -1  -6 -17 8466.91  793.69
   1  -6  18 1617.85  633.41
  -1   6 -18 -624.22  724.06
  -1  -6 -18  313.97  288.67
   1  -6  19 1324.56  714.70
   1  -6  19 1985.14  728.55
  -1  -6 -19  889.74  373.00
   1  -6  2049102.38 5341.17
   1  -6  2047869.22 5699.13
  -1  -6 -2044673.87 3694.86
   1  -6  21 3379.88  841.73
   1  -6  21 4264.57  896.37
  -1  -6 -21 2870.26  513.26
   1  -6  22 3091.03  789.11
   1  -6  22 2561.91  743.99
  -1  -6 -22 1966.35  411.05
   1  -6  23 2266.57  773.46
   1  -6  23  971.08  770.66
  -1  -6 -23  994.10  337.08
   1  -6  24 6963.72 1217.02
   1  -6  24 4146.59  915.99
  -1  -6 -24 3582.75  616.76
   1  -6  25 5692.96 1115.82
   1  -6  25 7946.81 1241.35
   1  -6  26 6716.16 1215.40
   1  -6  26 2016.08  948.78
   1  -6  27 4708.43 1054.83
   1  -6  27 6491.73 1100.43
   1  -6  28  888.06  726.76
   1  -6  28  875.98 1052.73
   1  -6  29  487.60  786.10
   1  -6  30 2638.14  950.94
   1  -6  30  857.64  843.03
   1  -6  31 2098.45  929.51
   1  -6  31 -184.16  828.30
   1  -6  32 3008.96  975.73
   1  -6  32  555.31  932.07
   1  -6  33 2977.61 1362.30
   1  -6  33 3576.71 1128.22
   1  -6  34 1391.55  965.85
   1  -6  34 -603.67  908.26
   1  -6  35 -703.58 1271.94
   1  -6  35 1648.76 1315.50
   1  -6  36 3471.65 1292.23
   1  -6  37 1587.68 1171.10
  -1  -7  36 3097.73 1758.89
  -1  -7  35 1439.15 1179.01
  -1  -7  34 2016.95 1221.07
  -1  -7  33  -54.64  999.55
  -1  -7  32 1662.61 1619.37
   1  -7 -31  440.38  650.37
  -1  -7  31  522.70 1079.76
   1  -7 -30 3363.54  716.19
  -1  -7  30 3029.47 1290.79
   1  -7 -29  -78.38  519.91
  -1  -7  29  793.29  646.09
  -1  -7  29  560.47  914.31
   1  -7 -28 3034.15  672.16
  -1  -7  28 3685.67 1590.93
   1  -7 -27  -53.88  451.68
  -1  -7  27  262.05  520.83
  -1  -7  27  129.49  831.28
   1  -7 -26 3194.12  607.40
  -1  -7  26 3931.35  700.56
  -1  -7  26 2960.80 1189.39
   1  -7 -25 1657.36  697.29
  -1  -7  25 1696.45  813.60
  -1  -7  25  340.23 1000.34
   1  -7 -24 5248.66  963.92
  -1  -7  24 4164.38 1642.87
  -1  -7  24 4380.51  779.95
   1  -7 -23  373.39  447.02
  -1  -7  23  273.13  507.82
  -1  -7  23  776.19  819.77
   1  -7 -22 2195.18  688.98
  -1  -7  22 3037.53  623.22
  -1  -7  22 3924.33 1032.03
   1  -7 -21 -429.97  426.91
  -1  -7  21 -143.27  443.21
  -1  -7  21  565.59  956.25
   1  -7 -2047597.49 4559.98
  -1  -7  2048450.23 4430.10
  -1  -7  2047735.17 5953.37
   1  -7 -19 5023.40  797.55
   1   7 -19 2930.29  728.52
  -1  -7  19 5157.75  919.74
   1   7 -18 9297.57 1339.70
   1  -7 -18 8540.90 1133.61
  -1  -7  18 7281.51 1283.67
   1  -7 -17 4591.69  811.56
   1   7 -17 4343.25  689.71
  -1  -7  17 6348.39 1007.94
   1  -7 -16 9310.03 1086.39
   1   7 -16 7076.41 1324.83
  -1  -7  16 6766.14 1126.37
   1   7 -1514141.25 1723.18
   1  -7 -1512041.35 1281.39
  -1  -7  1511468.84 1770.04
   1   7 -14191537.029515.37
   1  -7 -14193330.726640.32
  -1  -7  14210791.731400.78
   1  -7 -13 1818.99  754.54
   1   7 -13  992.36  902.07
  -1  -7  13 1436.60  685.31
   1   7 -12 1187.21  932.27
   1  -7 -12 1626.57  554.76
  -1  -7  12 3034.55  702.66
   1   7 -1115852.40 2737.65
   1  -7 -1114279.37 1451.75
  -1  -7  1111935.05 1911.51
   1  -7 -1037093.68 3216.60
   1   7 -1038362.95 5879.11
  -1  -7  1033487.69 3971.93
   1   7  -9 8222.82 1991.38
   1  -7  -9 5663.36  830.76
  -1  -7   9 5868.01 1152.07
   1   7  -843399.17 7173.17
   1  -7  -848274.12 4536.64
  -1  -7   848088.36 5875.88
   1  -7  -711097.48 1237.09
  -1  -7   711284.41 1692.32
   1  -7  -6  531.80  639.63
  -1  -7   6 1106.40  758.98
   1  -7  -5 1941.74  799.35
  -1  -7   5 1599.81  853.33
   1  -7  -462052.96 6322.20
  -1  -7   471870.80 8825.71
   1  -7  -314725.33 1677.17
  -1  -7   316451.05 2133.99
   1  -7  -2 1095.36  727.38
  -1  -7   2  839.88 1179.47
   1  -7  -1 1585.01  827.16
  -1  -7   1 1381.09  843.07
   1  -7   0104330.811975.17
  -1  -7   099786.6512490.69
   1  -7   1 1041.43  694.98
  -1  -7  -1   71.22  768.64
   1  -7   256513.98 6152.08
  -1  -7  -253866.96 5841.41
   1  -7   3   45.41  828.67
  -1  -7  -3 1005.61  804.88
   1  -7   4  771.95  882.29
  -1  -7  -4 1361.42  781.49
   1  -7   5 2111.45  832.43
  -1  -7  -5  983.27  791.39
  -1   7  -5 2861.18 2170.02
   1  -7   6109775.714648.08
  -1   7  -6105180.315446.25
  -1  -7  -699056.0410069.90
   1  -7   7 2176.46 1047.07
  -1   7  -7 4532.63 2538.26
  -1  -7  -7 3485.73  796.62
   1  -7   822543.68 3149.48
  -1   7  -823548.82 4971.09
  -1  -7  -825785.42 2079.62
   1  -7   9 8373.99 1635.39
  -1  -7  -9 8709.65  918.63
  -1   7  -9 8192.98 2082.18
   1  -7  1025811.36 3532.98
  -1  -7 -1022863.78 1850.52
  -1   7 -1024963.25 3994.70
   1  -7  11 8771.16 1695.25
  -1   7 -11 5788.03 1591.56
  -1  -7 -11 5817.30  722.52
   1  -7  12134169.419829.69
  -1  -7 -12126713.313013.69
  -1   7 -12135861.420531.76
   1  -7  13 8989.40 1943.26
  -1   7 -13 9130.46 1747.60
  -1  -7 -13 9147.35  864.93
   1  -7  14 6845.74 1059.60
  -1   7 -14 5356.94 1093.38
  -1  -7 -14 4760.92  615.92
   1  -7  15 8206.49 1447.69
  -1   7 -15 9731.14 1519.24
  -1  -7 -15 8345.97  795.92
   1  -7  1630963.21 3756.89
  -1  -7 -1629247.79 2300.46
  -1   7 -1629953.14 3420.72
   1  -7  17 2633.34  818.35
  -1   7 -17 3296.45  826.33
  -1  -7 -17 2651.63  435.83
   1  -7  1818131.90 2344.59
  -1   7 -1818379.75 2288.71
  -1  -7 -1818709.01 1505.81
   1  -7  19 7775.36 1233.10
  -1   7 -19 7456.19 1139.37
  -1  -7 -19 6170.63  679.90
   1  -7  20 8676.75 1267.43
  -1  -7 -20 8683.23  869.01
   1  -7  21 6749.54 1137.99
   1  -7  21 5194.53  936.03
  -1  -7 -21 4235.35  565.11
   1  -7  2212914.46 2162.41
   1  -7  2211441.97 1495.56
  -1  -7 -2210276.88 1023.28
   1  -7  23 1489.35  709.86
   1  -7  23 -691.74  932.53
  -1  -7 -23  499.26  342.66
   1  -7  24 2708.03  838.05
   1  -7  24 2296.05  749.94
  -1  -7 -24 1386.35  486.28
   1  -7  25  249.01  732.10
   1  -7  25  120.72  739.25
   1  -7  26  420.01  674.52
   1  -7  26 -215.80  720.98
   1  -7  27  289.63  710.41
   1  -7  27  665.49  974.09
   1  -7  28 5308.48 1036.75
   1  -7  28 6083.22 1150.43
   1  -7  29 1016.04  893.41
   1  -7  29 1799.41  847.18
   1  -7  30  302.89  822.48
   1  -7  30  842.08  844.86
   1  -7  31 -104.12  806.02
   1  -7  31 -390.41  862.82
   1  -7  32 4084.93 1083.90
   1  -7  32  649.46 1353.31
   1  -7  33  863.27  917.00
   1  -7  33  390.27  914.38
   1  -7  34 5944.50 1273.52
   1  -7  34 3529.26 1614.04
   1  -7  35 1098.35 1022.09
   1  -7  35  425.88 1043.91
   1  -7  36  -10.36  998.51
   1  -7  36  469.42 1401.04
  -1  -8  36-2310.58 1702.55
  -1  -8  35 -885.76 1143.61
  -1  -8  34 1136.09 1148.32
  -1  -8  33 3017.46 1256.56
  -1  -8  32 2899.78 1769.65
  -1  -8  31  986.98  993.57
   1  -8 -30   92.34  469.74
  -1  -8  30 -470.18  904.30
   1  -8 -29  440.63  514.41
  -1  -8  29 1659.02  972.29
  -1  -8  29 1965.45  891.79
   1  -8 -2813567.33 1484.88
  -1  -8  2811871.51 1687.97
  -1  -8  2815188.16 2899.36
   1  -8 -27 2121.16  559.86
  -1  -8  27 2332.24  857.49
  -1  -8  27 1227.84  950.05
   1  -8 -26 4987.81  966.95
  -1  -8  26 6728.77 1404.41
  -1  -8  26 6415.37  886.99
   1  -8 -25 2779.45  821.05
  -1  -8  25 3602.70 1094.38
  -1  -8  25 4488.60  751.19
   1  -8 -24 5890.19  908.63
  -1  -8  24 7432.94 1418.87
  -1  -8  24 6117.11  936.89
   1  -8 -23 4003.60  800.24
  -1  -8  23 2580.21  919.49
  -1  -8  23 1890.89  562.41
   1  -8 -2224165.93 2416.59
  -1  -8  2221202.44 2059.18
  -1  -8  2224350.95 3543.62
   1  -8 -2112810.19 1392.61
  -1  -8  2113462.35 2211.72
   1   8 -20 3193.16  800.74
   1  -8 -20 6828.07 1098.37
  -1  -8  20 5751.89 1088.64
   1   8 -19 5558.65 1050.10
   1  -8 -19 5054.36  889.01
  -1  -8  19 4636.09 1406.83
   1   8 -1834848.80 3637.27
   1  -8 -1834536.56 3573.12
  -1  -8  1838540.79 4382.85
   1  -8 -17 4347.45  796.56
   1   8 -17 2943.58  983.32
  -1  -8  17 3528.51  905.95
   1   8 -1661078.32 6893.16
   1  -8 -1649803.44 4730.27
  -1  -8  1654319.47 6446.62
   1  -8 -15 1554.72  549.64
   1   8 -15 1481.17  800.54
  -1  -8  15 3159.62  834.91
   1  -8 -14 -680.85  609.72
   1   8 -14 -632.93  869.99
  -1  -8  14 -280.34  699.18
   1   8 -13 1519.26 1269.57
   1  -8 -13 -328.21  462.02
  -1  -8  13 2376.92  916.12
   1   8 -12 3891.63 1840.34
   1  -8 -12 3890.87  691.14
  -1  -8  12 2961.34  798.41
   1   8 -1136600.40 6293.16
   1  -8 -1133077.70 3068.29
  -1  -8  1133842.01 4131.23
   1  -8 -10 4433.29  723.68
   1   8 -10 5723.46 1827.14
  -1  -8  10 5265.79 1320.91
   1   8  -913507.63 2817.90
   1  -8  -912575.29 1305.93
  -1  -8   911101.25 1699.85
   1  -8  -815630.05 1862.86
  -1  -8   815682.25 2142.20
   1  -8  -7  400.44  666.23
  -1  -8   7  415.33  803.15
   1  -8  -672757.46 7641.72
  -1  -8   668715.96 8596.73
   1  -8  -538078.06 3911.83
  -1  -8   540964.27 5020.73
   1  -8  -446065.19 4481.02
  -1  -8   442235.49 5136.39
   1  -8  -3 1407.89  811.51
  -1  -8   3  567.24  862.88
   1  -8  -2  876.30  700.48
  -1  -8   2  430.42  862.30
   1  -8  -1  546.22  685.02
  -1  -8   1  177.49  779.19
   1  -8   060863.87 7043.91
  -1  -8   064269.67 7689.55
   1  -8   1 5189.26 1216.89
  -1  -8  -1 3462.50  990.28
   1  -8   211855.35 1516.62
  -1  -8  -212056.40 1559.84
   1  -8   365819.15 7437.97
  -1  -8  -368060.80 7575.66
   1  -8   416707.61 2081.04
  -1  -8  -422798.08 2263.28
   1  -8   533422.33 3996.78
  -1   8  -529872.52 6362.41
  -1  -8  -534309.29 3503.57
   1  -8   6 -442.83  834.42
  -1   8  -6  900.71 1752.99
  -1  -8  -6  -35.94  651.02
   1  -8   717911.93 3238.88
  -1  -8  -718866.01 1803.79
  -1   8  -719383.57 3092.72
   1  -8   8 3237.87 1132.44
  -1   8  -8 6356.57 2153.23
  -1  -8  -8 4199.76  789.74
   1  -8   9 5801.95 1404.37
  -1  -8  -9 4378.88  526.10
  -1   8  -9 5760.72 2013.89
   1  -8  10123437.317341.70
  -1  -8 -10122385.912641.25
  -1   8 -10120376.419820.08
   1  -8  11 1858.75  945.19
  -1   8 -11 3855.72 1469.33
  -1  -8 -11 2164.95  511.58
   1  -8  12 3854.54  931.47
  -1   8 -12 1361.58  712.07
  -1  -8 -12 2255.15  497.32
   1  -8  13 2566.81  947.32
  -1  -8 -13 1571.05  452.67
  -1   8 -13 -244.04 1125.67
   1  -8  1441909.19 4932.22
  -1   8 -1443288.77 5550.86
  -1  -8 -1442243.10 3312.63
   1  -8  15 6914.69 1405.47
  -1   8 -15 9051.24 1755.74
  -1  -8 -15 8304.78  897.96
   1  -8  16 3027.20  920.56
  -1   8 -16 4130.26  957.85
  -1  -8 -16 3107.34  483.52
   1  -8  1714302.46 2255.60
  -1   8 -1715655.69 2143.50
  -1  -8 -1714992.91 1284.57
   1  -8  18 1100.50  812.33
  -1   8 -18 1861.61  770.77
  -1  -8 -18 1219.92  363.99
   1  -8  19 -834.39  701.38
  -1  -8 -19   97.81  344.39
  -1   8 -19-1481.57  668.34
   1  -8  2016191.72 2327.88
  -1   8 -2012320.69 1758.18
  -1  -8 -2016040.50 1332.11
   1  -8  2111870.01 1952.00
  -1  -8 -2110616.44 1026.25
  -1   8 -2113616.51 1988.22
   1  -8  22 5573.65 1034.17
   1  -8  22 3255.38  897.66
  -1  -8 -22 4154.97  606.29
   1  -8  23  104.33  999.14
   1  -8  23  735.57  667.98
  -1  -8 -23 -131.99  332.81
   1  -8  2418335.93 2414.87
   1  -8  2417172.65 1994.88
   1  -8  25 1273.49  789.16
   1  -8  25  138.55  742.80
   1  -8  26 9923.19 1431.22
   1  -8  26 8557.64 1541.00
   1  -8  27 1311.60  843.20
   1  -8  27 1284.55  749.40
   1  -8  28 2410.27  916.79
   1  -8  28 1305.73  856.99
   1  -8  29  587.15  792.33
   1  -8  29   91.52  856.96
   1  -8  30 6745.27 1324.89
   1  -8  30 8634.46 1355.77
   1  -8  31  342.30  945.47
   1  -8  31 2272.12  925.06
   1  -8  32 1866.41  928.55
   1  -8  32  612.87 1315.41
   1  -8  33 1410.71 1000.69
   1  -8  34  803.26 1439.57
   1  -8  34 3527.52 1168.76
   1  -8  35-1047.74  926.37
   1  -8  35 1177.62  969.52
   1  -8  36 2095.40 1514.27
   1  -8  36 1460.40 1136.53
  -1  -9  35 -771.30 1616.91
  -1  -9  34 1359.86 1218.86
  -1  -9  33 -166.64 1073.99
  -1  -9  32-1028.97  957.66
  -1  -9  31 -441.04 1345.04
  -1  -9  30 4157.60 1226.48
   1  -9 -29  271.29  519.75
   1  -9 -28 9182.13 1246.96
  -1  -9  28 9027.49 1161.55
  -1  -9  28 8398.18 1895.67
   1  -9 -27 5826.58  896.02
  -1  -9  27 6575.82 1792.90
  -1  -9  27 6148.43 1005.36
   1  -9 -2613329.89 1707.93
  -1  -9  2612749.98 1679.39
  -1  -9  2610534.42 2216.33
   1  -9 -25 2073.90  577.20
  -1  -9  25 2849.88  909.24
  -1  -9  25 1943.22  654.21
   1  -9 -24 5640.72  971.66
  -1  -9  24 7186.12 1518.08
  -1  -9  24 5881.19  903.59
   1  -9 -23 -314.25  449.48
  -1  -9  23-1112.34  799.53
  -1  -9  23  387.65  539.14
   1  -9 -22 3925.85  834.00
   1   9 -22 2108.23 1102.42
  -1  -9  22 4114.71 1091.46
   1   9 -21 2909.37  773.81
   1  -9 -21 1153.18  540.98
  -1  -9  21  997.61 1146.68
   1   9 -20 3958.26  783.44
   1  -9 -20 3208.68  627.38
  -1  -9  20 3213.33  961.74
   1   9 -19 4781.87  883.07
   1  -9 -19 6708.26  881.60
  -1  -9  19 5219.50 1112.73
   1  -9 -1818838.81 1850.91
   1   9 -1821408.59 2425.98
  -1  -9  1819909.66 2684.58
   1  -9 -17 8789.48 1024.87
   1   9 -1710860.63 1671.49
  -1  -9  17 9991.08 1669.97
   1  -9 -16 -747.96  411.42
   1   9 -16  194.18  697.29
  -1  -9  16  534.65  707.39
   1  -9 -15  921.55  653.00
   1   9 -15 -321.58 1319.99
  -1  -9  15 1437.57  690.66
   1  -9 -1420938.42 2032.90
   1   9 -1425266.42 3764.66
  -1  -9  1425256.77 3366.22
   1  -9 -1320424.43 2115.18
   1   9 -1316814.12 3377.39
  -1  -9  1317481.02 2526.79
   1   9 -1218186.36 3284.77
   1  -9 -1217549.49 1681.13
  -1  -9  1217102.64 2274.00
   1   9 -11 8178.35 2051.73
   1  -9 -11 6023.87  853.43
  -1  -9  11 8202.62 1148.35
   1   9 -10 8666.50 2245.15
   1  -9 -10 5920.79  855.70
  -1  -9  10 7027.10 1200.16
   1  -9  -949906.40 4629.85
   1   9  -954402.44 9890.61
  -1  -9   948920.22 5771.19
   1  -9  -854581.87 5164.81
  -1  -9   856959.67 6833.39
   1  -9  -723777.13 2552.13
  -1  -9   721835.19 2752.17
   1  -9  -6 3614.07  768.38
  -1  -9   6 3698.47  904.96
   1  -9  -5 2426.50  697.03
  -1  -9   5 2494.56  930.33
   1  -9  -4  992.60  687.67
  -1  -9   4  565.80  904.01
   1  -9  -3 -200.23  628.90
  -1  -9   3 1016.63  812.09
   1  -9  -2 4292.52  821.44
  -1  -9   2 2173.99  875.81
   1  -9  -1 1490.11  712.72
  -1  -9   1  365.55 1129.01
   1  -9   0 1917.71  814.58
  -1  -9   0 2334.23 1096.20
   1  -9   187180.2310623.50
  -1  -9  -188192.5310485.20
   1  -9   218450.41 2234.23
  -1  -9  -216969.20 2459.90
   1  -9   346034.33 5373.90
  -1  -9  -344453.13 4630.69
   1  -9   422706.69 2666.66
  -1  -9  -420726.78 2421.50
   1  -9   527062.75 3278.28
  -1  -9  -532393.77 2809.61
   1  -9   624414.42 3490.11
  -1  -9  -630011.65 3100.25
  -1   9  -630696.28 6222.66
   1  -9   7  183.07  861.54
  -1   9  -7 -259.53 1734.69
  -1  -9  -7  474.54  502.34
   1  -9   8 1059.14  962.15
  -1  -9  -8 3041.44  683.37
  -1   9  -8 1417.99 2120.27
   1  -9   923552.34 3383.77
  -1  -9  -929097.56 2534.05
  -1   9  -918445.13 3442.27
   1  -9  10 1926.38 1008.69
  -1  -9 -10 1236.83  378.11
  -1   9 -10  805.70 1538.99
   1  -9  11  512.57  896.99
  -1   9 -11  221.87 1271.30
  -1  -9 -11 1181.32  460.91
   1  -9  12 7929.98 1589.98
  -1   9 -1210588.07 2281.52
  -1  -9 -1210073.33  865.39
   1  -9  13 1248.11  867.17
  -1  -9 -13 2034.95  475.14
  -1   9 -13 2663.39 1230.64
   1  -9  14 4649.12 1156.78
  -1  -9 -14 4168.73  587.71
  -1   9 -14 5976.39 1547.33
   1  -9  15 7727.29 1247.10
  -1   9 -15 2981.02 1320.80
  -1  -9 -15 4549.98  616.21
   1  -9  1611517.59 1972.35
  -1  -9 -1613462.26 1164.55
  -1   9 -1614329.02 2357.92
   1  -9  1715401.18 2176.44
  -1   9 -1714790.40 2031.78
  -1  -9 -1713533.82 1181.02
   1  -9  1816692.73 2208.01
  -1  -9 -1810655.89 1030.78
  -1   9 -1813666.33 1870.12
   1  -9  1911335.16 1773.70
  -1  -9 -1910446.28  949.58
  -1   9 -1911761.69 1675.85
   1  -9  20 2426.17 1261.99
  -1   9 -20 2830.64  851.52
  -1  -9 -20 1807.74  393.71
   1  -9  21 1947.08  967.97
  -1   9 -21 2682.17  827.36
  -1  -9 -21 1563.95  441.28
   1  -9  22 7189.29 1363.98
  -1   9 -2210409.69 1681.69
  -1  -9 -22 7441.82  762.83
   1  -9  2316984.40 2487.94
   1  -9  2316371.94 1522.36
   1  -9  24 8681.28 1627.89
   1  -9  24 9128.11 1338.48
   1  -9  25  312.22  711.34
   1  -9  25  869.98  769.48
   1  -9  26 3438.35  954.81
   1  -9  26 3750.88  944.52
   1  -9  27  905.74  808.28
   1  -9  27 1527.80  839.80
   1  -9  28 -448.24  795.11
   1  -9  28  585.88  838.21
   1  -9  29 2238.69  888.23
   1  -9  29 1382.58  888.56
   1  -9  30 1100.14  843.91
   1  -9  30 -773.60 1217.39
   1  -9  31  201.92  957.39
   1  -9  31  982.56  854.03
   1  -9  32 1507.83 1028.19
   1  -9  32 1831.01  974.35
   1  -9  33  909.35  921.54
   1  -9  33  952.26 1013.58
   1  -9  34 6416.28 1316.19
   1  -9  34 2947.61 1240.66
   1  -9  35  257.35 1031.65
   1  -9  35 1028.22 1057.48
  -1 -10  34  823.30 1064.55
  -1 -10  33 2918.21 1658.59
  -1 -10  32  862.44 1024.33
  -1 -10  31  938.77 1079.11
  -1 -10  30 1394.17  982.80
  -1 -10  29 1761.24 1410.82
  -1 -10  28 3175.57 1228.93
   1 -10 -27 -227.34  544.53
  -1 -10  27 1282.36  962.96
  -1 -10  27 1001.42  610.64
   1 -10 -26 4361.79 1031.38
  -1 -10  26 5088.73 1159.50
  -1 -10  26 6420.47 1325.25
   1 -10 -25  513.54  644.34
  -1 -10  25  366.80  556.16
  -1 -10  25-1242.22  776.53
   1 -10 -24 5217.12  814.85
  -1 -10  24 7904.43 1537.26
  -1 -10  24 8570.76 1093.99
   1 -10 -23  713.77  468.25
   1  10 -23  -67.44  696.55
  -1 -10  23 -500.10  771.46
   1  10 -22 3405.13 1120.18
   1 -10 -22 2648.20  772.08
  -1 -10  22 1724.05  887.41
   1 -10 -21 9394.72 1046.92
   1  10 -21 8431.96 1257.11
  -1 -10  21 4763.73 1304.93
   1 -10 -2015550.42 1690.17
   1  10 -2016248.25 2166.52
  -1 -10  2018444.27 2375.53
   1 -10 -19 1230.66  473.90
   1  10 -19  297.13  700.65
  -1 -10  19  890.36  691.49
   1 -10 -18  679.27  508.30
   1  10 -18 -431.12  755.16
  -1 -10  18 1195.70  855.27
   1 -10 -1714549.26 1427.62
   1  10 -17 9638.42 1760.63
  -1 -10  1711366.07 1831.69
   1  10 -16 2527.36 1212.17
   1 -10 -16 2741.83  573.05
  -1 -10  16 5022.66  964.37
   1  10 -15 7624.12 1455.89
   1 -10 -15 6300.04 1046.93
  -1 -10  15 7053.81 1404.15
   1 -10 -14  390.17  498.75
   1  10 -14 1440.10 1447.26
  -1 -10  14  618.35  711.19
   1 -10 -13 6319.17 1030.21
   1  10 -13 3151.65 1724.55
  -1 -10  13 5375.72 1084.05
   1 -10 -12 1026.22  537.75
   1  10 -12  311.16 1592.18
  -1 -10  12  925.13  684.36
   1  10 -1153771.87 9384.49
   1 -10 -1153626.26 5067.39
  -1 -10  1157946.32 6874.96
   1  10 -10  693.97 1527.21
   1 -10 -10 -296.58  740.58
  -1 -10  10 -278.78  657.60
   1 -10  -9  624.51  799.75
  -1 -10   9 1110.78  688.56
   1 -10  -810130.91 1154.72
  -1 -10   8 6894.84 1396.97
   1 -10  -712422.79 1741.40
  -1 -10   713349.33 1826.14
   1 -10  -612719.27 1759.40
  -1 -10   613196.33 1991.13
   1 -10  -5140565.817224.77
  -1 -10   5144057.020149.43
   1 -10  -4 1651.46  767.15
  -1 -10   4 1665.06  803.20
   1 -10  -321683.05 2393.76
  -1 -10   318032.81 2468.58
   1 -10  -211599.11 1692.83
  -1 -10   2 9770.70 1924.49
   1 -10  -147931.53 5085.71
  -1 -10   153959.63 6374.65
   1 -10   0 -106.75  699.59
  -1 -10   0  564.51 1070.19
   1 -10   1  415.47  818.95
  -1 -10  -1 1717.16 1054.10
   1 -10   2  873.09  821.52
  -1 -10  -2 -339.34  711.14
   1 -10   341650.35 4779.58
  -1 -10  -340645.03 4264.20
   1 -10   4  253.42  786.67
  -1 -10  -4  495.94  614.93
   1 -10   514713.09 2093.05
  -1 -10  -518971.39 1834.77
   1 -10   6  933.65 1046.18
  -1  10  -6 1918.73 1869.87
  -1 -10  -6 1169.25  774.16
   1 -10   7 2836.24 1001.54
  -1  10  -7  224.79 1321.61
  -1 -10  -7 1607.14  782.60
   1 -10   8 7972.34 1729.16
  -1  10  -8 3183.74 2117.81
  -1 -10  -8 4703.25  738.79
   1 -10   927744.21 3685.77
  -1  10  -931832.23 6022.87
  -1 -10  -928504.85 2596.56
   1 -10  10 2936.07 1041.12
  -1 -10 -10 1583.03  637.95
  -1  10 -10 4321.73 1078.02
   1 -10  11 2294.86  943.61
  -1 -10 -11  792.83  541.58
  -1  10 -11 -155.45 1458.82
   1 -10  12 -761.85  867.55
  -1 -10 -12 1014.24  535.98
  -1  10 -12 3182.55 1321.03
   1 -10  1316322.55 2534.42
  -1 -10 -1317557.58 1518.32
  -1  10 -1315789.96 3186.23
   1 -10  14 2423.73  988.94
  -1 -10 -14 1657.46  509.74
  -1  10 -14 -647.55 1258.91
   1 -10  15 9570.48 1690.23
  -1 -10 -1510823.62 1044.38
  -1  10 -1511571.51 2426.35
   1 -10  16 4721.40 1032.61
  -1  10 -16 1951.54 1230.62
  -1 -10 -16 2878.54  560.03
   1 -10  17 3173.93 1053.12
  -1  10 -17 6256.84 1333.76
  -1 -10 -17 3625.76  599.58
   1 -10  18 5626.71 1129.08
  -1 -10 -18 4033.36  620.92
  -1  10 -18 5623.32 1148.05
   1 -10  19   26.82 1103.40
  -1  10 -19  -42.18  767.61
  -1 -10 -19  764.87  388.16
   1 -10  2010939.93 1944.30
  -1  10 -2011185.98 1648.35
  -1 -10 -2011201.19 1035.15
   1 -10  21 7002.91 1184.56
  -1 -10 -21 3357.72  549.20
  -1  10 -21 5249.15  975.33
   1 -10  22 3246.88 1054.33
  -1  10 -22 3117.14  931.62
   1 -10  23 -708.07 1053.42
  -1  10 -23  884.20  799.55
   1 -10  24 2108.56  570.03
   1 -10  24 7981.78 1380.10
   1 -10  25 2329.35  921.53
   1 -10  25 3822.35  917.17
   1 -10  26 7542.80 1277.12
   1 -10  26 7529.49 1525.45
   1 -10  27 8286.62 1536.51
   1 -10  27 9129.15 1634.68
   1 -10  28 -545.19  803.78
   1 -10  28  413.89  810.26
   1 -10  29 1921.55 1380.12
   1 -10  29 3633.33 1392.76
   1 -10  30 -314.28  866.87
   1 -10  30 2944.98  963.98
   1 -10  3110747.24 1664.67
   1 -10  31 6813.88 1830.08
   1 -10  32 -146.55  928.96
   1 -10  33 1143.75 1009.85
   1 -10  33 1199.92  945.26
   1 -10  34  709.86  937.71
   1 -10  34 1040.99 1040.31
  -1 -11  33 -118.97 1016.49
  -1 -11  32  262.19 1032.79
  -1 -11  31 1849.92 1117.72
  -1 -11  30  571.27  968.19
  -1 -11  29 4182.43 1230.89
  -1 -11  28  847.87  973.08
  -1 -11  27 -217.95  616.30
  -1 -11  27 -685.42  832.00
   1 -11 -26    9.27  473.82
  -1 -11  26 -278.69  582.92
  -1 -11  26 1075.90  843.34
   1 -11 -25 7253.36 1195.53
  -1 -11  25 7778.74 1061.87
  -1 -11  25 6333.80 1294.65
   1  11 -24 2626.90  936.22
   1 -11 -24 3430.53  654.62
  -1 -11  24 4597.82 1128.25
   1  11 -23  167.52 1083.52
   1 -11 -23  211.16  692.79
  -1 -11  23-1211.38  754.95
   1  11 -22 2412.55  777.66
   1 -11 -22 1712.96  523.31
  -1 -11  22 1192.63  829.86
   1  11 -21 7739.24 1257.81
   1 -11 -21 8354.47 1125.30
  -1 -11  21 7034.23 1550.43
   1 -11 -20 6824.89 1007.10
   1  11 -20 5572.42 1187.62
  -1 -11  20 5306.27 1299.19
   1 -11 -19 9713.39 1296.83
   1  11 -1911184.66 2379.91
  -1 -11  1910406.04 1933.78
   1 -11 -18 -146.49  632.75
   1  11 -18 -615.82 1228.52
  -1 -11  18 -721.34  746.15
   1  11 -17-2272.71 1001.94
   1 -11 -17  455.72  707.65
  -1 -11  17  788.75  764.20
   1  11 -16 1171.33 1162.64
   1 -11 -16 2672.31  581.14
  -1 -11  16 2651.38  871.89
   1 -11 -15 6990.32 1013.64
   1  11 -15 8512.36 1743.30
  -1 -11  15 8450.75 1505.86
   1  11 -14-1872.40 1831.93
   1 -11 -14  478.29  755.85
  -1 -11  14  408.75  708.20
   1 -11 -1310948.49 1160.24
   1  11 -13 8509.11 2338.05
  -1 -11  13 8782.99 1711.64
   1  11 -12 6038.36 2066.32
   1 -11 -12 4336.03  956.80
  -1 -11  12 5326.38 1068.43
   1 -11 -11  350.18  547.36
   1  11 -11 1883.68 1582.83
  -1 -11  11  265.25  744.98
   1  11 -10-1638.59 1549.02
   1 -11 -10 1134.39  820.31
  -1 -11  10  595.76  725.10
   1 -11  -924770.45 2561.68
  -1 -11   927133.95 3469.04
   1 -11  -8 2976.45  730.12
  -1 -11   8 2393.15  799.53
   1 -11  -737919.26 3544.98
  -1 -11   739356.50 4683.21
   1 -11  -6 4154.18  870.13
  -1 -11   6 7639.02 1325.81
   1 -11  -512316.59 1612.92
  -1 -11   5 8397.09 1679.00
   1 -11  -4  940.53  664.55
  -1 -11   4  558.46  776.88
   1 -11  -3 4716.50  907.61
  -1 -11   3 6695.67 1226.15
   1 -11  -2  508.21  752.40
  -1 -11   2 2546.94 1261.07
   1 -11  -1   69.67  711.38
  -1 -11   1 1636.70  801.59
   1 -11   0 -654.77  819.45
  -1 -11   0 -682.22  754.29
   1 -11   144850.10 5106.47
  -1 -11  -149880.14 5714.84
   1 -11   2  710.61  802.73
  -1 -11  -2 -278.53  722.79
   1 -11   344448.47 5254.65
  -1 -11  -334325.72 3678.07
   1 -11   411668.79 1824.56
  -1 -11  -413168.23 1592.93
   1 -11   5 9492.79 1565.10
  -1 -11  -5 8015.54 1386.35
   1 -11   6 -333.68  969.01
  -1 -11  -6 1536.88  793.94
   1 -11   755864.45 7720.01
  -1 -11  -761865.74 6110.66
  -1  11  -757669.5011135.79
   1 -11   8  522.84  919.62
  -1 -11  -8  757.21  715.66
  -1  11  -8 1773.04 1901.10
   1 -11   921160.46 3196.73
  -1  11  -917513.15 4805.57
  -1 -11  -924207.08 2373.76
   1 -11  10 8691.19 1318.65
  -1  11 -10 3228.54 2007.72
  -1 -11 -10 6247.18 1024.28
   1 -11  11 9125.52 1642.51
  -1 -11 -11 9303.81 1169.43
  -1  11 -11 7380.10 2657.65
  -1  11 -12 1584.90 1298.76
  -1 -11 -12   37.52  526.82
   1 -11  1341593.07 5274.07
  -1  11 -1340731.20 6488.29
  -1 -11 -1337141.18 3014.31
   1 -11  14 1164.49 1027.03
  -1  11 -14 4319.63 1539.82
  -1 -11 -14 2180.38  528.05
   1 -11  15 -905.73  778.94
  -1  11 -15 2835.32 1406.04
  -1 -11 -15  875.64  454.88
   1 -11  1613923.99 2244.33
  -1  11 -1615073.37 3214.84
  -1 -11 -1612816.90 1064.79
   1 -11  1734042.17 4488.44
  -1 -11 -1728326.86 2357.75
  -1  11 -1732545.12 4752.59
   1 -11  18 4126.38 1094.28
  -1 -11 -18 4895.42  541.42
  -1  11 -18 9639.67 1563.67
   1 -11  19 3498.11  982.85
  -1  11 -19 1438.60  928.32
  -1 -11 -19 3266.23  541.16
   1 -11  20 1517.69 1184.04
  -1  11 -20   95.94  838.57
  -1 -11 -20  899.37  408.95
   1 -11  21 5803.97 1158.76
  -1  11 -21 4860.53 1103.30
   1 -11  22  776.24  892.35
  -1  11 -22  658.42  784.16
   1 -11  2313751.69 2623.46
  -1  11 -2315461.38 2044.67
   1 -11  24 2971.39 1056.29
  -1  11 -24 2308.62 1001.30
   1 -11  25 4354.31  887.74
   1 -11  25 -910.20  441.29
   1 -11  26-1129.43 1259.49
   1 -11  26-1266.36  825.37
   1 -11  2730786.53 3299.33
   1 -11  2730773.49 4103.03
   1 -11  28  988.25  938.67
   1 -11  28 1239.14  904.75
   1 -11  29 7527.08 1383.00
   1 -11  29 6697.14 1243.60
   1 -11  30 -360.70  867.28
   1 -11  30  -99.98  911.36
   1 -11  31 2018.91 1087.01
   1 -11  31 3683.21 1089.99
   1 -11  32 -563.42  901.01
   1 -11  32-1610.05  918.93
   1 -11  33 2557.21 1294.74
   1 -11  33 5341.92 1232.24
  -1 -12  32  207.36 1000.03
  -1 -12  31 5325.96 1833.24
  -1 -12  30  906.35 1023.69
  -1 -12  29  534.28  983.24
  -1 -12  28  335.68  876.44
  -1 -12  27 2322.31 1342.07
  -1 -12  26 2241.94  758.12
  -1 -12  26  283.25  933.58
   1 -12 -25  311.56  518.26
  -1 -12  25  707.50  988.39
   1 -12 -24 -900.75  652.58
   1  12 -24  717.84  805.05
  -1 -12  24  582.12  800.78
   1  12 -23  379.99  665.85
   1 -12 -23  591.45  548.34
  -1 -12  23 -676.59  853.61
   1 -12 -22 2951.97  938.88
   1  12 -22 2724.29 1178.89
  -1 -12  22 2321.10  972.68
   1 -12 -21 9932.79 1461.10
   1  12 -21 9914.12 1700.87
  -1 -12  2111358.43 1774.16
   1  12 -20 -651.86  751.54
   1 -12 -20   82.68  542.04
  -1 -12  20  143.99  811.77
   1  12 -19 2282.48  991.40
   1 -12 -19 1405.16  544.63
  -1 -12  19  858.36  852.31
   1 -12 -18 1506.74  629.44
   1  12 -18 2437.99 1230.71
  -1 -12  18 2345.76  859.90
   1  12 -1733312.92 5365.39
   1 -12 -1731292.42 2992.53
  -1 -12  1735509.11 4538.06
   1  12 -16  270.89 1210.76
   1 -12 -16 1313.17  530.14
  -1 -12  16  -91.05  890.14
   1 -12 -15 -395.05  716.18
   1  12 -15 1089.29 1145.15
  -1 -12  15  -82.46 1109.88
   1 -12 -14 1280.62  730.43
   1  12 -14   83.87 1576.63
  -1 -12  14  -11.49  880.34
   1  12 -13-2741.38 1732.17
   1 -12 -13 3303.95  675.82
  -1 -12  13 3755.00  988.58
   1  12 -12 5675.30 2333.43
   1 -12 -12 7362.02  969.18
  -1 -12  12 6373.82 1125.16
   1 -12 -1135773.51 3239.37
   1  12 -1141422.25 7147.34
  -1 -12  1138524.71 4779.76
   1  12 -10  -99.39 1695.67
   1 -12 -10  855.26  565.97
  -1 -12  10 -447.50  722.18
   1 -12  -9 1610.55  602.02
  -1 -12   9 1162.02  859.85
   1 -12  -814588.28 1840.15
  -1 -12   810853.51 1799.44
   1 -12  -731216.34 2810.88
  -1 -12   726478.31 3440.76
   1 -12  -620568.32 2078.33
  -1 -12   619367.32 2738.43
   1 -12  -522165.77 2204.58
  -1 -12   522789.47 2928.92
   1 -12  -4 3383.52 1109.57
  -1 -12   4 4851.56 1054.42
   1 -12  -3 7639.71 1237.61
  -1 -12   3 6634.36 1405.18
   1 -12  -216969.84 1884.41
  -1 -12   211318.06 1881.04
   1 -12  -114730.81 2097.45
  -1 -12   115171.97 2049.13
   1 -12   0 6619.89 1277.82
  -1 -12   0 9560.66 1997.08
   1 -12   1 6122.96 1311.51
  -1 -12  -1 8757.36 1341.38
   1 -12   2 7310.64 1325.20
  -1 -12  -2 7864.51 1258.18
   1 -12   3 1663.62  961.17
  -1 -12  -3 2950.07  857.18
   1 -12   4 4715.70 1130.25
  -1 -12  -4 3822.96 1257.61
   1 -12   536369.32 4455.30
  -1 -12  -536127.26 3893.31
   1 -12   6 7235.78 1272.06
  -1 -12  -6 5788.38  967.07
   1 -12   7 1465.91  937.55
  -1  12  -7  500.56 2010.72
  -1 -12  -7  802.27  812.72
   1 -12   814388.70 2802.55
  -1  12  -818218.91 3894.72
  -1 -12  -816356.87 1873.69
   1 -12   910085.38 2012.25
  -1  12  -9 6847.01 2969.99
  -1 -12  -9 7785.36 1047.94
   1 -12  10 5054.90 1054.48
  -1  12 -10 2549.51 2104.13
  -1 -12 -10 2258.15  894.61
   1 -12  11 5245.65 1320.47
  -1 -12 -11 6601.31 1138.71
  -1  12 -11 5084.79 2130.54
   1 -12  12 2104.39 1008.06
  -1 -12 -12 2930.07  531.67
  -1  12 -12 2593.48 2040.33
   1 -12  13 -444.07  910.13
  -1 -12 -13 -160.37  527.06
  -1  12 -13 1524.44 1319.51
   1 -12  14 9918.49 1986.77
  -1  12 -1412118.09 2759.61
  -1 -12 -1411834.29 1160.44
   1 -12  15 8817.14 1698.75
  -1  12 -15 3155.60 2333.75
  -1 -12 -15 7516.97  924.17
   1 -12  16 2887.05 1026.35
  -1 -12 -16 4093.42  706.29
  -1  12 -16 4627.85 1673.89
   1 -12  17 -115.60  940.14
  -1  12 -17 1549.12 1120.41
  -1 -12 -17  529.49  450.20
   1 -12  18 4079.80 1353.13
  -1  12 -18 4229.97 1344.48
  -1 -12 -18 2789.23  575.39
   1 -12  19  187.47  797.20
  -1 -12 -19  207.29  396.33
   1 -12  20  256.19  896.56
  -1  12 -20 1717.19  932.92
   1 -12  21 2839.31 1515.41
  -1  12 -21 2565.50  976.44
   1 -12  22 -308.13  929.48
  -1  12 -22 1284.33  801.17
   1 -12  23 3963.55 1425.07
  -1  12 -23 5095.95 1073.66
   1 -12  24 3921.72 1028.86
  -1  12 -24 1917.29  985.34
   1 -12  25 6177.69 1388.24
  -1  12 -25 4806.80 1177.55
   1 -12  26   38.08  524.62
   1 -12  26 4588.11 1331.21
   1 -12  27 -258.89  805.99
   1 -12  27  250.05  891.42
   1 -12  28 -188.30  826.55
   1 -12  28 -251.87  818.20
   1 -12  29 1000.25 1350.93
   1 -12  29 1052.86  897.34
   1 -12  30 1446.87  999.07
   1 -12  30  145.78  934.14
   1 -12  31 2455.22 1104.75
   1 -12  31 2912.37 1105.66
   1 -12  32  680.80  934.55
   1 -12  32  117.25  950.70
  -1 -13  31 1407.81 1499.20
  -1 -13  30 4812.25 1340.95
  -1 -13  29  613.59 1008.86
  -1 -13  28 1821.94 1017.25
  -1 -13  27  478.33 1192.26
  -1 -13  26 5782.21 1242.51
  -1 -13  25   72.18  773.23
   1  13 -24 1481.16 1121.84
   1 -13 -24 1498.01  652.71
  -1 -13  24 1870.08  911.30
   1  13 -23 2662.17  989.50
   1 -13 -23 6092.82 1132.15
  -1 -13  23 4102.58  987.21
   1  13 -22 2158.00 1170.94
   1 -13 -22 2388.65  631.30
  -1 -13  22  564.48  819.89
   1 -13 -21 1146.97  779.50
   1  13 -21 1067.41  821.93
  -1 -13  21 2176.18  897.75
   1  13 -20 8555.07 1944.62
   1 -13 -20 8552.69 1296.42
  -1 -13  20 8672.91 1660.53
   1  13 -19 5793.21 1317.06
   1 -13 -19 6008.06  946.25
  -1 -13  19 4017.31 1287.58
   1 -13 -1822878.61 2203.86
   1  13 -1824514.04 4024.17
  -1 -13  1819238.01 3140.30
   1  13 -17 3339.73 1341.33
   1 -13 -17 1263.43  580.87
  -1 -13  17 2560.63  939.42
   1 -13 -16 -234.99  528.71
   1  13 -16 -335.25 1168.05
  -1 -13  16  965.87  835.62
   1 -13 -15 4211.79  719.74
   1  13 -15 3439.78 2108.35
  -1 -13  15 3664.77 1052.09
   1 -13 -1411149.72 1510.26
   1  13 -14 5092.15 2619.95
  -1 -13  1410880.14 2226.06
   1 -13 -13 1838.27  935.33
   1  13 -13 -462.54 1959.02
  -1 -13  13 2436.95  877.08
   1  13 -12 8657.50 2534.17
   1 -13 -12 6918.84 1053.21
  -1 -13  12 7856.48 1273.74
   1  13 -11 -382.71 1790.21
   1 -13 -11  -11.62  542.04
  -1 -13  11  217.56  752.24
   1 -13 -10 1263.26  608.04
   1  13 -10 2181.53 1871.19
  -1 -13  10 -915.05  893.89
   1 -13  -932436.41 3165.56
  -1 -13   929415.64 4372.06
   1 -13  -820703.49 2072.79
  -1 -13   818173.27 2813.81
   1 -13  -7 7735.80 1149.49
  -1 -13   710252.49 1615.71
   1 -13  -6 2910.93  781.62
  -1 -13   6 4801.91 1017.25
   1 -13  -5 7319.51 1332.94
  -1 -13   5 5660.41 1214.86
   1 -13  -4  -62.59  707.92
  -1 -13   4  934.38  802.96
   1 -13  -310624.78 1476.90
  -1 -13   310784.10 1795.43
   1 -13  -232987.43 4032.88
  -1 -13   227549.99 3587.22
   1 -13  -111786.92 1749.25
  -1 -13   112408.41 1775.09
   1 -13   0 -443.53  761.61
  -1 -13   0  302.82  769.15
   1 -13   146959.14 5579.14
  -1 -13  -150619.38 6364.23
   1 -13   221835.34 3150.28
  -1 -13  -220797.18 2666.69
   1 -13   3 -391.58  868.63
  -1 -13  -3  929.80 1072.60
   1 -13   4 3767.55 1297.55
  -1 -13  -4 1891.83  882.56
   1 -13   519604.96 3006.63
  -1 -13  -521729.32 2846.40
   1 -13   628962.01 4055.30
  -1 -13  -631537.45 3513.69
   1 -13   731067.57 4202.52
  -1 -13  -730527.08 3366.83
  -1  13  -731663.04 6364.41
   1 -13   8 2889.52 1304.24
  -1 -13  -8 4884.43  862.38
  -1  13  -8 5873.20 2639.34
   1 -13   9 1170.45 1283.48
  -1 -13  -9 1928.61  898.96
  -1  13  -9 2373.41 2008.76
   1 -13  10 2605.32 1085.51
  -1 -13 -10 1546.13  599.38
  -1  13 -10 -603.46 1210.64
   1 -13  11 3518.58 1170.72
  -1  13 -11  -33.45 1893.49
  -1 -13 -11 2669.43  829.68
   1 -13  12 8780.20 1769.73
  -1  13 -12 6711.54 2816.19
  -1 -13 -12 8753.82 1062.74
   1 -13  13 5582.57 1280.13
  -1 -13 -13 5463.08 1001.51
  -1  13 -13 4744.00 1778.10
   1 -13  1415441.10 2435.58
  -1  13 -14 5890.88 2134.62
  -1 -13 -1413954.50 1455.21
   1 -13  15 -671.76  776.29
  -1  13 -15  413.30 1418.39
  -1 -13 -15 1011.34  438.84
   1 -13  1615956.69 2528.24
  -1  13 -16 7540.03 2513.51
  -1 -13 -1615810.77 1521.31
   1 -13  17 9403.21 1651.93
  -1 -13 -17 9769.99 1156.65
  -1  13 -17 5015.44 2044.27
   1 -13  18 1128.32  823.16
  -1  13 -18 1381.10 1151.45
   1 -13  19-1282.54  817.67
  -1  13 -19 2077.08 1121.84
   1 -13  2012899.74 2330.16
  -1  13 -20 5015.19 1264.18
   1 -13  21 2421.60  989.59
  -1  13 -21 -108.53  897.93
   1 -13  22 6596.63 1359.09
  -1  13 -22 3520.80 1185.87
   1 -13  23 1814.45 1069.66
  -1  13 -23 1860.34  964.12
   1 -13  24 7623.71 1456.36
  -1  13 -24  951.34 1098.98
   1 -13  25 1351.15  966.43
  -1  13 -25 1936.27  959.60
   1 -13  26    6.73  911.15
  -1  13 -26 1539.15  925.33
   1 -13  27 1716.65  621.99
   1 -13  27 1502.97  996.97
   1 -13  28 4678.69 1138.09
   1 -13  28 1443.05 1033.81
   1 -13  29 5002.19 1207.34
   1 -13  29 2531.57 1091.78
   1 -13  30  -90.39  905.41
   1 -13  30 2011.27 1078.21
   1 -13  31  418.85  964.13
   1 -13  31 1097.72 1065.42
  -1 -14  30-1384.66 1428.85
  -1 -14  29  937.92  989.48
  -1 -14  28 2402.52 1057.85
  -1 -14  27 -677.79  907.56
  -1 -14  26 1114.31 1233.50
  -1 -14  25  634.66  815.34
  -1 -14  24 1681.93  860.80
   1 -14 -23 1891.86  769.33
   1  14 -23 1318.27  882.16
  -1 -14  23  -73.85  798.34
   1  14 -2213799.91 2013.23
   1 -14 -2214248.37 1520.81
  -1 -14  22 4942.58 1611.19
   1 -14 -2111125.52 1483.80
   1  14 -21 7883.62 1679.69
  -1 -14  2110147.81 1784.02
   1 -14 -20  803.49  768.28
   1  14 -20  269.59 1054.23
  -1 -14  20  759.04  862.62
   1 -14 -19  180.04  561.16
   1  14 -19 2053.94 1240.89
  -1 -14  19 -468.61  839.32
   1 -14 -18 1099.71  615.27
   1  14 -18 -142.54 1400.70
  -1 -14  18 2715.28  900.70
   1 -14 -17 4918.93  828.64
   1  14 -17 5167.96 1701.58
  -1 -14  17 3478.18 1172.01
   1 -14 -16 5983.15  932.68
   1  14 -16 4822.50 1772.64
  -1 -14  16 7836.26 1545.77
   1  14 -15-1287.78 1668.84
   1 -14 -15  247.53  567.90
  -1 -14  15 -447.48 1182.57
   1 -14 -14 7314.94  999.58
   1  14 -14 5562.70 2468.97
  -1 -14  14 4722.03 1261.86
   1 -14 -13 5068.41  882.78
   1  14 -13 7335.01 2497.83
  -1 -14  13 5387.71 1080.33
   1 -14 -1220847.40 2134.02
   1  14 -1222115.80 5075.49
  -1 -14  1222576.81 3473.21
   1 -14 -11 4214.03  977.30
   1  14 -11 2602.97 2308.66
  -1 -14  11 2298.72  941.66
   1  14 -10 7062.36 3293.16
   1 -14 -1014197.92 1538.72
  -1 -14  1012600.40 2081.71
   1 -14  -912209.62 1392.69
  -1 -14   910830.69 2479.00
   1 -14  -825236.59 3020.07
  -1 -14   827988.45 3999.36
   1 -14  -7 2236.76  730.59
  -1 -14   7 1975.17  890.24
   1 -14  -629794.37 3641.16
  -1 -14   633280.16 4304.50
   1 -14  -5  998.26  772.91
  -1 -14   5  537.24  939.34
   1 -14  -4 7302.88 1527.35
  -1 -14   4 8420.13 1477.19
   1 -14  -3 2276.14  934.00
  -1 -14   3 -450.19  787.98
   1 -14  -2 9236.75 1536.04
  -1 -14   2 6782.23 1358.09
   1 -14  -1 2626.49  980.38
  -1 -14   1 1274.54  972.84
   1 -14   011295.70 1712.55
  -1 -14   0 9092.67 1725.18
   1 -14   1 1478.72 1262.35
  -1 -14  -1 1531.69 1275.27
   1 -14   2 1603.22  933.76
  -1 -14  -2 1440.74  917.62
   1 -14   318125.35 2601.00
  -1 -14  -314148.24 2076.65
   1 -14   425277.11 3656.44
  -1 -14  -426486.68 3466.53
   1 -14   511540.40 2240.45
  -1 -14  -511537.63 1682.08
   1 -14   6 3110.63 1321.40
  -1 -14  -6 2756.60 1311.25
   1 -14   7  481.86 1126.61
  -1  14  -7 2328.44 2077.49
  -1 -14  -7 3215.77  865.68
   1 -14   816173.64 2729.17
  -1  14  -8-4037.19 3464.51
  -1 -14  -818492.72 1833.14
   1 -14   913037.71 2233.16
  -1 -14  -911109.02 1645.80
  -1  14  -9 5357.68 2732.03
   1 -14  10 5027.85 1395.80
  -1  14 -10 5717.12 2638.96
  -1 -14 -10 8385.69 1123.29
   1 -14  11 4932.85 1212.77
  -1 -14 -11 3747.63  750.16
  -1  14 -11  222.59 2025.50
   1 -14  12  635.90  946.31
  -1  14 -12 3362.78 1907.56
  -1 -14 -12 1615.74  782.35
   1 -14  13 -744.60  919.36
  -1  14 -13  895.09 1788.67
  -1 -14 -13  903.35  716.63
   1 -14  1413040.98 2246.94
  -1  14 -14 7628.32 2321.89
  -1 -14 -1413392.45 1545.83
   1 -14  15 8235.54 1563.46
  -1  14 -15 3716.51 1860.01
  -1 -14 -15 5456.79 1043.72
   1 -14  16 5284.07 1506.62
  -1  14 -16 5102.37 2132.83
  -1 -14 -16 6319.92  809.44
   1 -14  17 4477.65 1548.31
  -1  14 -17 2143.89 1833.10
   1 -14  18 1707.61  812.93
  -1  14 -18 -739.88 1303.63
   1 -14  19 3767.25 1101.92
  -1  14 -19 5654.36 1549.01
   1 -14  2062010.79 9110.10
  -1  14 -2057813.51 9169.36
   1 -14  21-2233.63  889.73
  -1  14 -21 -184.85  982.71
   1 -14  22 -761.49  900.30
  -1  14 -22 -942.43  908.02
   1 -14  23   83.75  896.33
  -1  14 -23  127.27  848.45
   1 -14  24 2349.92 1215.23
  -1  14 -24 8684.81 1381.94
   1 -14  25  886.46  895.28
  -1  14 -25  185.35  863.89
   1 -14  26 4967.99 1260.80
  -1  14 -26 5684.09 1270.12
   1 -14  27 1034.70  917.84
  -1  14 -27 -615.28  895.26
   1 -14  28  230.07  864.23
   1 -14  28   -2.78  552.30
   1 -14  29  912.20 1062.74
   1 -14  29  687.84  886.96
   1 -14  30 1140.35  977.10
   1 -14  30 2000.41 1140.20
  -1 -15  28 1556.25 1051.28
  -1 -15  27  140.08  874.32
  -1 -15  26 1466.90  939.53
  -1 -15  25 -584.93  821.81
  -1 -15  24 1886.23 1257.82
  -1 -15  23 2089.99  897.59
   1 -15 -22 1619.59  640.92
   1  15 -22  483.25  930.64
  -1 -15  22 1535.95  813.94
   1  15 -21 -828.30 1065.30
   1 -15 -21 -469.20  796.19
  -1 -15  21-1024.09  800.76
   1  15 -20 2312.45 1346.77
   1 -15 -20 4410.65  783.14
  -1 -15  20 2332.12 1348.24
   1  15 -19 2840.43 1457.06
   1 -15 -19 3268.12  801.08
  -1 -15  19 2805.49 1099.76
   1  15 -18 3112.68 1714.53
   1 -15 -18 6118.52 1080.14
  -1 -15  18 5248.27 1217.50
   1 -15 -17 1128.88  824.50
   1  15 -17 2454.90 1528.20
  -1 -15  17 1852.43  969.17
   1 -15 -16 2435.31  899.50
   1  15 -16 2407.69 1522.85
  -1 -15  16 1312.86 1380.98
   1 -15 -15 3107.70  701.78
   1  15 -15 1232.25 1991.39
  -1 -15  15 2163.61 1112.68
   1  15 -14 6020.60 2396.03
   1 -15 -14 8471.02 1080.46
   1 -15 -13 2187.61 1006.03
   1  15 -13 1075.27 2986.81
  -1 -15  13 2271.44  915.43
   1  15 -1210612.58 3291.13
   1 -15 -1217080.28 1979.20
  -1 -15  1211795.49 2315.99
   1  15 -11 7059.96 2785.74
   1 -15 -11 6548.31 1173.91
  -1 -15  11 5551.05 1185.67
   1 -15 -10 5370.36  960.31
   1  15 -10 8096.59 3151.19
  -1 -15  10 6866.95 1534.43
   1 -15  -9  717.52  736.94
  -1 -15   9  518.88  957.84
   1 -15  -814677.40 1869.90
  -1 -15   814163.85 2382.69
   1 -15  -7 1486.15 1064.94
  -1 -15   7 1506.22  939.65
   1 -15  -6 1516.40  759.39
  -1 -15   6  711.80  964.82
   1 -15  -5  591.65  875.46
  -1 -15   5 2283.59 1326.66
   1 -15  -4 6976.81 1173.65
  -1 -15   4 4345.65 1251.89
   1 -15  -3 7281.24 1447.08
  -1 -15   3 8815.55 1521.23
   1 -15  -228631.63 3420.32
  -1 -15   224564.43 4114.12
   1 -15  -1 4993.00 1302.23
  -1 -15   1 5593.36 1247.76
   1 -15   0 3062.26 1077.56
  -1 -15   0 1257.62  992.78
   1 -15   1 -285.21  906.83
  -1 -15  -1-1327.89 1158.60
   1 -15   2 1473.49 1116.29
  -1 -15  -2 2561.22 1069.31
   1 -15   3 3858.15 1259.87
  -1 -15  -3 5192.27 1193.08
   1 -15   4 2897.05 1335.10
  -1 -15  -4 3238.70 1175.20
   1 -15   5 8087.14 1583.29
  -1 -15  -5 9263.18 1773.64
   1 -15   639534.74 5269.34
  -1 -15  -633481.89 4049.91
   1 -15   7 6642.39 1360.80
  -1  15  -7-1544.89 2267.55
  -1 -15  -7 2123.70  962.13
   1 -15   8  866.11 1102.99
  -1  15  -8-1765.87 2048.29
  -1 -15  -8  411.78  768.12
   1 -15   9  754.71 1015.04
  -1  15  -9  460.21 2065.18
  -1 -15  -9  564.29 1049.05
   1 -15  10 9459.68 1534.29
  -1 -15 -10 7832.03 1423.51
  -1  15 -10 2851.85 2726.80
   1 -15  11 -525.67 1321.17
  -1 -15 -11  365.12  818.00
  -1  15 -11 1144.66 2061.96
   1 -15  12 4624.11 1193.80
  -1  15 -12 3193.40 2271.08
  -1 -15 -12 5005.06  846.47
   1 -15  13 4836.08 1137.80
  -1  15 -13 1320.24 2165.85
  -1 -15 -13 2625.51  657.85
   1 -15  1414495.51 2507.90
  -1 -15 -1416804.84 1583.15
  -1  15 -14 8700.10 2501.28
   1 -15  15 2259.74  984.25
  -1 -15 -15 1699.93  558.35
  -1  15 -15 1042.80 1612.80
   1 -15  16 8320.81 1513.33
  -1  15 -16 6858.52 2362.17
   1 -15  17 2926.60 1073.58
  -1  15 -17  936.45 1705.40
   1 -15  1811181.42 1966.25
  -1  15 -1812073.32 2883.18
   1 -15  19   58.44  880.13
  -1  15 -19-1079.95 1206.54
   1 -15  20  322.76  847.53
  -1  15 -20-1595.35 1219.30
   1 -15  21  741.89  909.83
  -1  15 -21 1049.76 1035.50
   1 -15  22 3160.60 1139.04
  -1  15 -22 7604.36 1585.51
   1 -15  23 -294.09 1279.45
  -1  15 -23 -523.98  996.00
   1 -15  24  311.33 1019.56
  -1  15 -24 1799.11  961.99
   1 -15  25  633.88 1246.48
  -1  15 -25  603.02  896.54
   1 -15  26 1778.28  964.86
  -1  15 -26  241.26  937.23
   1 -15  27  258.73  985.27
  -1  15 -27  589.43  960.43
   1 -15  28 1734.76 1121.20
  -1  15 -28 3607.48 1102.55
  -1 -16  26  821.91 1154.10
  -1 -16  25  541.36  813.26
  -1 -16  24  164.02  791.53
  -1 -16  23  589.63  768.64
  -1 -16  22 6015.92 1223.25
   1  16 -21 2146.88 1187.85
  -1 -16  21 1502.73 1215.18
   1  16 -20 3611.30 2059.83
   1 -16 -20 9985.06 1533.89
  -1 -16  20 9017.22 1542.04
   1 -16 -19  651.26  791.85
   1  16 -19 -654.44 1402.40
  -1 -16  19  756.70  877.15
   1  16 -18 4578.08 1936.23
   1 -16 -18 8120.47 1200.89
  -1 -16  18 6032.76 1463.33
   1 -16 -17 2991.53  728.43
   1  16 -17 2571.06 1689.17
  -1 -16  17 1799.77 1080.82
   1  16 -16 6047.86 2952.99
   1 -16 -1613169.77 1752.78
  -1 -16  16 7992.43 1860.45
   1  16 -15 1387.29 1936.77
   1 -16 -15  275.95  857.37
  -1 -16  15 1031.33  941.60
   1  16 -14 3339.14 2125.55
   1 -16 -14 5149.46 1041.78
  -1 -16  14 1952.02 1058.13
   1  16 -13 5817.26 2862.15
   1 -16 -13 8525.57 1336.05
  -1 -16  13 7492.42 1391.59
   1 -16 -12 2368.07 1030.07
   1  16 -12 4309.25 2396.70
  -1 -16  12 4591.63 1432.76
   1 -16 -11 4827.76 1283.64
   1  16 -11 8930.52 2917.75
  -1 -16  11 4685.63 1161.90
   1 -16 -1035775.91 3977.32
   1  16 -1028215.33 6072.56
  -1 -16  1027968.43 4126.48
   1 -16  -9  445.55  690.30
  -1 -16   9 -294.28  896.46
   1 -16  -8 2915.25  847.63
  -1 -16   8 3752.74 1241.67
   1 -16  -7 1769.40  924.27
  -1 -16   7 1785.19 1339.86
   1 -16  -622536.94 2731.60
  -1 -16   617274.62 2615.36
   1 -16  -5 7614.32 1372.99
  -1 -16   5 5648.90 1384.90
   1 -16  -4  102.37  885.28
  -1 -16   4 1607.79  979.33
   1 -16  -3-1797.82  907.37
  -1 -16   3 -147.38 1270.40
   1 -16  -2 5808.22 1578.64
  -1 -16   2 5234.86 1315.36
   1 -16  -1 3510.52 1128.42
  -1 -16   1 3037.39 1066.54
   1 -16   012658.40 2138.80
  -1 -16   015241.17 2403.49
   1 -16   1 1145.89 1112.02
  -1 -16  -1  505.53  917.97
   1 -16   2  799.43 1141.35
  -1 -16  -2 1403.45 1356.66
   1 -16   3-1095.48 1624.55
  -1 -16  -3 3501.89 1096.46
   1 -16   425364.45 4145.62
  -1 -16  -430025.88 3905.78
   1 -16   5 2477.61 1213.80
  -1 -16  -5 3061.89  983.95
   1 -16   6 -116.09 1028.69
  -1  16  -6  405.47 2053.50
  -1 -16  -6 -333.25  760.95
   1 -16   7 5674.60 1448.93
  -1  16  -7 -601.34 2395.39
  -1 -16  -7 4937.48 1114.62
   1 -16   8 6472.15 1472.47
  -1 -16  -8 6867.86 1620.67
  -1  16  -8-2030.04 2724.44
   1 -16   9 -410.81 1012.24
  -1 -16  -9  279.64 1021.49
  -1  16  -9-1396.95 2028.41
   1 -16  10 -709.75 1072.63
  -1 -16 -10 4581.06 1143.18
  -1  16 -10 2782.89 2235.73
   1 -16  11-1158.61  951.59
  -1 -16 -11  -50.62 1003.06
  -1  16 -11-2437.93 2141.01
   1 -16  12 -715.96  895.07
  -1 -16 -12  -50.65  787.05
  -1  16 -12 2468.02 1855.00
   1 -16  13  528.57 1036.03
  -1  16 -13  519.28 1960.50
  -1 -16 -13  597.18  781.09
   1 -16  14 5808.96 1832.59
  -1 -16 -14 4757.16 1026.72
  -1  16 -14 3856.48 1867.03
   1 -16  15 1986.66  897.68
  -1  16 -15-3608.78 1465.71
   1 -16  16 2832.27 1023.82
  -1  16 -16 2954.23 1793.45
   1 -16  17  370.05  912.55
  -1  16 -17 2200.53 1578.71
   1 -16  18 -336.95  795.64
  -1  16 -18  242.68 1515.50
   1 -16  19 1467.87  907.05
  -1  16 -19 2898.34 1501.71
   1 -16  20 2511.05 1043.06
  -1  16 -20 7038.93 1670.62
   1 -16  21  378.56  869.08
  -1  16 -21 1945.59 1365.05
   1 -16  22 1281.58  991.84
  -1  16 -22 1605.61 1092.90
   1 -16  23   -3.32  892.43
  -1  16 -23  605.70 1010.13
   1 -16  24  861.85  987.75
  -1  16 -24 -196.46  889.13
   1 -16  25  671.42  928.47
  -1  16 -25 -213.88  918.09
   1 -16  26  800.57 1007.83
  -1  16 -26 2067.28 1038.56
   1 -16  27  846.41  989.99
  -1 -17  24  466.46  813.49
  -1 -17  23 1752.85  877.09
  -1 -17  22 1090.70 1225.51
  -1 -17  21  860.56  890.15
   1  17 -20  860.49 1623.90
  -1 -17  20 2274.51 1003.28
   1  17 -19 4944.67 2040.66
   1 -17 -19 7053.39 1314.76
  -1 -17  19 5500.89 1469.77
   1  17 -18  320.18 1532.43
   1 -17 -18 -494.43  822.45
  -1 -17  18  177.24  924.59
   1  17 -17 3096.02 2321.07
   1 -17 -17  980.92  721.33
  -1 -17  17 1750.96  956.87
   1  17 -16-1075.33 1505.07
   1 -17 -16  844.83  666.37
  -1 -17  16 1264.34 1277.37
   1  17 -15 1701.67 1947.76
   1 -17 -15    8.50  906.85
  -1 -17  15 1147.97  939.85
   1  17 -14  824.39 1963.51
   1 -17 -14 2358.61 1006.12
  -1 -17  14  468.59  970.67
   1 -17 -13 7066.25 1372.99
   1  17 -13 4721.25 2789.76
  -1 -17  13 4494.07 1207.86
   1  17 -12 2566.39 2139.53
   1 -17 -12  833.68  723.15
  -1 -17  12 -218.54  929.07
   1  17 -11  493.27 2219.93
   1 -17 -11 -167.04  712.12
  -1 -17  11-1253.33  839.04
   1 -17 -10 5777.09 1024.15
   1  17 -10 2519.69 2833.90
  -1 -17  10 4820.09 1122.34
   1 -17  -910379.79 1525.27
  -1 -17   9 7854.68 1696.87
   1 -17  -8 1770.34 1143.12
  -1 -17   8-1079.47  914.66
   1 -17  -7 1476.17 1353.31
  -1 -17   7 4073.24 1202.66
   1 -17  -6 8509.86 1509.96
  -1 -17   6 9787.62 1797.07
   1 -17  -5 5442.47 1219.21
  -1 -17   5 5393.30 1230.50
   1 -17  -4 1722.91  964.22
  -1 -17   4 2290.87 1504.62
   1 -17  -312552.29 2006.47
  -1 -17   312185.29 2053.75
   1 -17  -2 8760.64 2036.86
  -1 -17   2 7382.21 1530.62
   1 -17  -1  897.57  997.07
  -1 -17   1  548.74  944.57
   1 -17   0 2706.97 1258.22
  -1 -17   0  958.39 1051.86
   1 -17   115451.82 2615.43
  -1 -17  -115298.74 2475.46
   1 -17   2 5264.01 1685.06
  -1 -17  -211357.79 1888.83
   1 -17   3 2322.79 1249.86
  -1 -17  -3 3125.25 1506.40
   1 -17   4 2048.20 1351.66
  -1 -17  -4 5646.50 1511.93
   1 -17   515495.62 2443.43
  -1 -17  -510152.09 2232.01
   1 -17   6  -58.52 1162.66
  -1 -17  -6  127.35 1171.60
  -1  17  -6-2802.39 1222.91
   1 -17   7 1588.69 1180.92
  -1  17  -7 2803.61 2344.36
  -1 -17  -7 2642.28 1253.25
   1 -17   8 1235.85 1098.19
  -1  17  -8-1394.68 2201.35
  -1 -17  -8  -16.29 1074.48
   1 -17   9  281.49  994.24
  -1 -17  -9 -179.09 1010.90
  -1  17  -9-1025.23 2084.69
   1 -17  10 5105.35 1805.64
  -1  17 -10 2827.92 2462.41
  -1 -17 -10 1371.53 1246.43
   1 -17  1110223.94 2049.59
  -1 -17 -1111657.24 1973.19
  -1  17 -11 6602.14 3334.41
   1 -17  12 3785.18 1231.89
  -1 -17 -12 2546.06  851.26
  -1  17 -12 4000.37 2276.63
   1 -17  1315527.02 2494.04
  -1  17 -13 7845.07 3269.57
   1 -17  14 3905.08 1171.18
  -1  17 -14 3549.26 1908.79
   1 -17  15 -666.74 1129.97
  -1  17 -15 1167.25 1541.16
   1 -17  16 4024.02 1138.67
  -1  17 -16 6105.73 2039.34
   1 -17  17 3529.03 1152.59
  -1  17 -17 5099.10 2217.69
   1 -17  18  502.68  835.29
  -1  17 -18 1701.49 1692.91
   1 -17  19 -693.64  818.64
   1 -17  20  116.23  840.75
  -1  17 -20  840.09 1375.94
   1 -17  21 1199.33  875.54
  -1  17 -21 1272.66 1415.00
   1 -17  22  234.97  961.43
  -1  17 -22 1802.33 1133.06
   1 -17  23  981.23 1347.91
  -1  17 -23  891.44 1155.50
   1 -17  24  263.91  982.23
  -1  17 -24 1200.53 1102.19
  -1  17 -25   60.75  928.43
  -1 -18  22  610.16 1203.51
  -1 -18  2115574.79 2766.90
   1  18 -20 -326.50 1630.11
  -1 -18  20 1618.24  975.69
   1  18 -19 1888.76 1554.46
  -1 -18  19 -408.91  894.43
   1  18 -18-1050.81 2170.84
   1 -18 -18  -23.96  951.51
  -1 -18  18 -215.62  921.19
   1  18 -1711695.09 3010.93
   1 -18 -1720522.15 2257.81
  -1 -18  1714615.20 2328.60
   1 -18 -16  711.27  639.95
   1  18 -16-2890.05 1471.73
  -1 -18  16 -377.83  887.39
   1  18 -15 3169.83 2462.91
   1 -18 -15 5142.01 1325.57
  -1 -18  15 4830.37 1531.82
   1  18 -14  342.82 2000.26
   1 -18 -14  254.41  720.41
  -1 -18  14 1424.90 1008.99
   1 -18 -13  943.59  726.03
   1  18 -13   56.42 2222.13
  -1 -18  13   27.47  870.53
   1  18 -12 3005.82 2323.65
   1 -18 -12  754.06  800.21
  -1 -18  12  225.40  846.44
   1 -18 -11 1919.93  891.98
   1  18 -11 4209.80 2887.95
  -1 -18  11 1065.66  906.42
   1  18 -10 -741.28 2145.79
   1 -18 -10   92.47  789.24
  -1 -18  10   92.55  883.40
   1 -18  -9 8585.86 1465.13
   1  18  -9 9150.44 3338.66
  -1 -18   9 5617.26 1498.51
   1 -18  -8 2407.57  990.53
  -1 -18   8   78.56 1031.59
   1 -18  -7 7619.68 1430.54
  -1 -18   7 5004.86 1528.12
   1 -18  -610595.44 1802.05
  -1 -18   6 7717.66 2140.01
   1 -18  -515001.12 2127.33
  -1 -18   513245.72 2445.35
   1 -18  -4  323.80  948.34
  -1 -18   4 1811.24 1062.07
   1 -18  -3  657.39  984.46
  -1 -18   3  571.71  954.32
   1 -18  -2 1469.99 1118.21
  -1 -18   2 -466.57  917.05
   1 -18  -1 3942.36 1946.11
  -1 -18   1 4650.56 1423.39
   1 -18   0  893.45 1092.96
  -1 -18   0 -105.68  932.12
   1 -18   1 1472.36 1272.51
  -1 -18  -1 1026.86 1104.65
   1 -18   2 2623.44 1301.38
  -1 -18  -2 2570.23 1155.03
   1 -18   315655.38 3223.67
  -1 -18  -311538.06 1858.68
   1 -18   4 -609.09 1146.85
  -1 -18  -4 1008.15  936.60
   1 -18   516749.27 2988.23
  -1 -18  -519022.05 2734.15
   1 -18   6 3253.31 1339.05
  -1  18  -6  117.68 2546.01
  -1 -18  -6 4516.72 1152.13
   1 -18   7 4113.39 1775.04
  -1  18  -7  337.14 2265.60
  -1 -18  -7  802.78  956.54
   1 -18   8 1668.97 1338.38
  -1 -18  -8 2330.91 1263.93
  -1  18  -8 3363.77 2656.38
   1 -18   9 4912.79 1662.30
  -1  18  -9 9085.98 3169.13
  -1 -18  -912698.34 2098.79
   1 -18  10  779.20 1458.50
  -1  18 -10 1709.70 2386.26
  -1 -18 -10  830.33 1093.79
   1 -18  11 3033.66 1319.96
  -1  18 -11 6585.11 3039.55
  -1 -18 -11 8137.25 1313.71
   1 -18  12  445.40 1006.15
  -1  18 -12 3478.84 2145.23
   1 -18  13 2655.45 1152.41
  -1  18 -13 1560.17 2377.94
   1 -18  14  -20.52  873.28
  -1  18 -14  911.13 1660.03
   1 -18  15 9942.58 1623.44
  -1  18 -1514477.03 2896.83
   1 -18  16 -359.24  886.29
  -1  18 -16-2271.00 1691.87
   1 -18  17-1605.55  883.17
  -1  18 -17 2284.78 1776.76
   1 -18  18 -466.34  770.28
  -1  18 -18 1009.45 1640.59
   1 -18  19 2688.78 1053.55
  -1  18 -19 8382.08 2179.28
   1 -18  20 1382.97  941.54
  -1  18 -20  771.74 1428.39
   1 -18  21 3147.89 1111.36
  -1  18 -21 3879.94 1698.39
   1 -18  22 -244.78  955.43
  -1  18 -22 1825.48 1193.97
   1  19 -19 3912.97 2936.91
  -1 -19  19 5732.71 1301.59
   1  19 -18 1166.60 1749.19
  -1 -19  18  362.29  953.07
   1  19 -17  580.79 1740.66
  -1 -19  17  702.13  946.08
   1 -19 -16 1259.28 1044.23
   1  19 -16-1283.28 1726.90
  -1 -19  16  503.60 1036.72
   1 -19 -15 5347.09 1564.50
   1  19 -15 7931.27 2749.54
  -1 -19  15 4633.41 1391.19
   1 -19 -14  897.49  858.87
   1  19 -14 5919.53 2318.90
  -1 -19  14 1008.86  979.42
   1  19 -13 5190.74 2897.60
   1 -19 -13 6086.31 1229.24
  -1 -19  13 3285.66 1153.78
   1  19 -12 2894.88 2333.90
   1 -19 -12  549.12 1088.72
  -1 -19  12 -586.05  845.59
   1 -19 -11 3065.54 1282.51
   1  19 -11 -225.56 2417.30
  -1 -19  11 2101.79 1386.84
   1 -19 -10  534.24  866.62
   1  19 -10-1459.63 2425.84
  -1 -19  10 1713.68 1215.19
   1  19  -910524.29 3487.93
   1 -19  -9 9319.63 1462.72
  -1 -19   9 3456.03 1147.86
   1 -19  -8 2443.49  993.96
  -1 -19   8  581.28 1102.04
   1 -19  -7  806.00  967.44
  -1 -19   7 1578.49 1011.83
   1 -19  -6 1151.49  917.17
  -1 -19   6   39.74  934.76
   1 -19  -5 2324.90 1145.33
  -1 -19   5 3202.06 1127.87
   1 -19  -4 6632.98 1751.91
  -1 -19   4 6657.51 1627.20
   1 -19  -316608.60 2662.50
  -1 -19   315422.00 2610.16
   1 -19  -2  453.24 1036.28
  -1 -19   2 -621.57  996.37
   1 -19  -1 -663.05 1129.18
  -1 -19   1 -757.07  993.05
   1 -19   0-1251.57 1627.08
  -1 -19   0 1505.14 1045.11
   1 -19   116890.75 2891.77
  -1 -19  -112209.51 2194.85
   1 -19   2 2132.78 1244.99
  -1 -19  -2 -252.89  976.34
   1 -19   3 5676.97 1646.87
  -1 -19  -3 4996.52 1876.32
   1 -19   4 -627.60 1247.02
  -1 -19  -4-1305.46 1308.39
   1 -19   5  422.85 1134.58
  -1  19  -5 -191.03 2189.00
  -1 -19  -5 1671.83 1282.29
   1 -19   6  569.43 1660.51
  -1 -19  -6 2828.55 1138.13
  -1  19  -6 2418.31 2434.29
   1 -19   7 1249.54 1287.80
  -1  19  -7 2555.52 2498.93
  -1 -19  -7 3206.91 1178.24
   1 -19   8  358.44 1157.12
  -1 -19  -8-1618.29  862.34
  -1  19  -8-3379.77 2159.04
   1 -19   9-1042.75 1011.76
  -1  19  -9 -189.20 2239.77
  -1 -19  -9 -738.38 1106.90
   1 -19  10 1118.71 1074.92
  -1 -19 -10 1034.99 1131.52
  -1  19 -10-1646.63 2330.14
   1 -19  11 1140.99 1133.05
  -1  19 -11  680.26 2177.49
   1 -19  12 -740.97 1042.28
  -1  19 -12-1504.07 2038.74
   1 -19  13 1065.53  987.76
  -1  19 -13-1041.22 2151.81
   1 -19  14  901.63 1327.72
  -1  19 -14  471.47 1745.76
   1 -19  15   10.21  895.52
  -1  19 -15 -345.03 1712.87
   1 -19  16   18.15  941.69
  -1  19 -16  758.40 1728.69
   1 -19  17 2785.63 1011.32
  -1  19 -17 5599.57 2180.57
   1 -19  18  614.29 1069.16
  -1  19 -18-1473.16 1704.98
   1 -19  19 -626.14  835.35
  -1  19 -19  727.91 1819.06
  -1  19 -20 -310.17 1378.97
   1  20 -16  174.11 2667.83
  -1 -20  16 2352.83 1139.72
   1  20 -15 2258.54 2270.29
   1 -20 -15  476.55  854.63
  -1 -20  15   92.25  992.53
   1  20 -14-4067.34 2128.91
   1 -20 -14  177.83  838.95
  -1 -20  14 -421.55  960.06
   1 -20 -13  224.54 1145.45
   1  20 -13 -438.41 2451.44
  -1 -20  13  567.18  972.08
   1 -20 -12 2279.32  949.97
   1  20 -12-1325.82 2679.48
  -1 -20  12 2319.72 1056.43
   1  20 -11 3991.88 3050.50
   1 -20 -11 5449.88 1183.68
  -1 -20  11 3739.87 1223.07
   1 -20 -10 2132.31  925.89
   1  20 -10-1275.94 2627.41
  -1 -20  10  882.41  950.16
   1  20  -9    4.11 2406.14
   1 -20  -9  709.36 1189.60
  -1 -20   9  515.58  900.48
   1  20  -8 2174.50 2532.61
   1 -20  -8  901.17 1276.21
  -1 -20   8  794.93  911.62
   1 -20  -7 9276.53 1533.38
  -1 -20   711331.62 2042.92
   1 -20  -6 6556.73 1457.71
  -1 -20   6 4644.15 1359.83
   1 -20  -5 1610.65 1179.95
  -1 -20   5 1226.79 1036.72
   1 -20  -4  361.33 1090.83
  -1 -20   4 1287.57 1028.17
   1 -20  -3   88.06 1094.65
  -1 -20   3   13.19  934.39
   1 -20  -2 3348.42 1416.45
  -1 -20   2 3944.27 1312.04
   1 -20  -1 2882.72 1406.60
  -1 -20   1 5508.78 1709.05
   1 -20   0 5309.00 1506.84
  -1 -20   0 4213.29 1699.64
   1 -20   1  620.23 1222.92
  -1 -20  -1  732.42  994.98
   1 -20   2  339.41 1230.99
  -1 -20  -2 1445.67 1016.79
   1 -20   3 2566.06 1282.25
  -1 -20  -3  410.02 1071.03
   1 -20   4 4433.54 1949.55
  -1 -20  -4 2537.60 1398.94
   1 -20   5 1745.00 1345.28
  -1  20  -5 1852.94 2471.98
  -1 -20  -5 4278.89 1213.15
   1 -20   6  514.01 1228.88
  -1  20  -6 2881.55 1461.39
  -1 -20  -6 1612.59 1395.10
   1 -20   7-1461.85 1129.30
  -1 -20  -7 -252.09 1240.00
  -1  20  -7 -304.99 2335.43
   1 -20   8  562.54 1035.74
  -1  20  -8 1603.43 2268.86
  -1 -20  -8 -202.46  837.12
   1 -20   9 2922.43 1322.26
  -1  20  -9 4843.02 2715.33
   1 -20  10  -38.01 1474.08
  -1  20 -10  143.87 2312.52
   1 -20  11  507.08 1056.91
  -1  20 -11   79.92 2164.46
   1 -20  12  838.94 1119.17
  -1  20 -12 2074.48 2291.64
   1 -20  13  831.31 1003.03
  -1  20 -13 1760.20 2316.53
   1 -20  14  -31.59  934.70
  -1  20 -14 -437.53 1715.16
   1 -20  15 1190.23 1405.20
  -1  20 -15  276.70 1787.45
   1 -20  16  363.61  971.38
  -1  20 -16  833.77 1911.74
  -1  20 -17  248.85 1808.23
   1 -21 -12  817.71 1268.41
   1  21 -12-1048.60 2627.90
  -1 -21  12 2252.18 1030.67
   1  21 -11-2372.68 2468.94
   1 -21 -11  579.50  862.33
  -1 -21  11 -868.12  898.48
   1  21 -10 -702.75 2528.32
   1 -21 -10 1027.72  931.91
  -1 -21  10 -197.63  908.94
   1  21  -9 1839.53 2557.05
   1 -21  -9 -603.74  904.89
  -1 -21   9   38.22  911.08
   1  21  -8 1060.06 2807.05
   1 -21  -8 1942.61 1588.55
  -1 -21   8 1206.20  990.29
   1 -21  -7 2904.26 1669.25
   1 -21  -6  385.18 1115.55
  -1 -21   6  767.85 1120.34
   1 -21  -5 1294.33 1138.73
  -1 -21   5   82.14 1042.25
   1 -21  -4 6051.95 1495.00
  -1 -21   4 3429.19 1484.45
   1 -21  -3  604.76 1221.13
  -1 -21   3 1319.10 1417.86
   1 -21  -2 1521.39 1267.24
  -1 -21   2  920.39 1502.36
   1 -21  -1 1345.66 1218.45
  -1 -21   1 -351.45 1011.97
   1 -21   0  557.01 1216.25
  -1 -21   0  204.79 1023.22
   1 -21   1 5814.71 1635.99
  -1 -21  -1 3247.77 1318.22
   1 -21   2 5311.41 1654.54
  -1 -21  -2 4772.19 1356.86
   1 -21   3  -86.48 1153.65
  -1 -21  -3  639.11 1321.42
   1 -21   4 -439.54 1159.13
  -1  21  -4 2725.90 2261.47
  -1 -21  -4  422.52 1288.43
   1 -21   5 1212.13 1146.98
  -1 -21  -5 -621.70  963.26
  -1  21  -5-1149.87 2179.44
   1 -21   6  722.27 1278.43
  -1 -21  -6 2214.53 1061.36
  -1  21  -6 2363.26 2498.52
   1 -21   7 -405.14 1108.20
  -1  21  -7-3894.41 2384.60
   1 -21   8 2489.34 1336.68
  -1  21  -8 5958.62 2820.42
   1 -21   9 1189.19 1156.08
  -1  21  -9 1362.20 2550.10
   1 -21  10 -481.08 1589.34
  -1  21 -10-2105.30 1494.98
   1 -21  11 -837.06 1097.25
  -1  21 -11-1719.75 2212.59
  -1  21 -12   51.38 2196.56
   1 -22  -6 3524.59 1382.15
  -1 -22   6 2847.63 1163.30
   1 -22  -5 1033.96 1138.43
  -1 -22   5  478.47 1082.63
   1 -22  -4  663.71 1158.75
  -1 -22   4 -431.01 1409.15
   1 -22  -3  617.80 1208.48
  -1 -22   3  418.16 1425.23
   1 -22  -2  384.76 1230.16
  -1 -22   2  586.10 1039.59
   1 -22  -1 1127.40 1183.13
  -1 -22   1 -381.69  964.66
   1 -22   0 2263.18 1844.86
  -1 -22   0 1665.01 1062.71
   1 -22   1 -290.98 1584.87
  -1 -22  -1  638.05 1495.45
   1 -22   2 -897.13 1583.47
  -1 -22  -2  345.21 1394.21
   1 -22   3  -19.90 1249.43
  -1 -22  -3 1366.40 1022.92
  -1  22  -3 -347.39 2308.86
   1 -22   4  169.06 1232.51
  -1  22  -4 2245.12 2384.81
  -1 -22  -4 1186.42 1054.03
   1 -22   5  439.99 1240.02
  -1  22  -5 -510.84 2275.60
  -1 -22  -5-1399.38 1293.91
   1 -22   6-1712.60 1600.19
  -1  22  -6-2442.28 2524.21
  -2   0  38 4050.82 1131.91
  -2   0  37  323.41  823.92
  -2   0  36  163.31  816.70
  -2   0  35  437.98  826.87
  -2   0  34 4752.35 1102.23
  -2   0  33  726.59 1113.17
  -2   0  32-1082.62  800.04
  -2   0  31  592.17  830.56
  -2   0  3019366.69 2705.70
  -2   0  29-1237.01  876.06
  -2   0  28 2312.75  895.97
  -2   0  27 -374.50  788.93
  -2   0  26 1347.93  855.78
  -2   0  25-1404.64  789.32
  -2   0  24 2304.76 1122.66
  -2   0  22 7119.95 1558.85
  -2   0  21 1565.81 1325.00
  -2   0  21 1108.56  773.25
  -2   0  20 1803.07 1309.75
  -2   0  20 2775.09  867.11
  -2   0  19  164.48 1127.58
  -2   0  19 -405.25  742.20
  -2   0  18 6134.87 1196.10
  -2   0  17  554.50  731.27
  -2   0  1670051.99 8470.61
   2   0 -15 -176.28  255.20
  -2   0  15 -976.17  945.81
   2   0 -14  119.54  253.05
  -2   0  14  350.98 1164.09
  -2   0  13  605.32 1109.55
   2   0 -1218060.35 1268.81
  -2   0  1224126.93 2881.43
   2   0 -11  200.42  223.30
  -2   0  11 -446.41  726.77
   2   0 -1020973.77  965.60
  -2   0  1044193.62 3843.80
   2   0  -9 -309.24  155.74
  -2   0   9  612.13  753.45
  -2   0   8664924.6178847.7
   2   0  -7 2714.40  420.53
  -2   0   7 1135.24 1185.49
  -2   0   5  444.62  759.83
  -2   0   5  314.08  335.28
   2   0  -490398.53 7530.01
  -2   0   4100787.6 6950.66
  -2   0   4127823.013677.06
   2   0  -3   -2.55  644.47
   2   0  -3  441.50  507.03
  -2   0   3 -109.27  631.25
  -2   0   3  118.31  246.91
   2   0  -1  822.98  423.91
   2   0  -1  486.82  480.41
   2   0  -1  109.60  300.82
  -2   0   1  383.29  521.28
   2   0   061039.53 6130.13
   2   0   063477.86 5556.53
   2   0   058815.90 5886.77
   2   0   1  323.78  443.49
   2   0   1  262.26  395.71
   2   0   1   57.05  461.46
   2   0   1 -387.05  598.95
   2   0   2 1693.79  585.14
   2   0   2 2168.25  590.27
   2   0   2 2214.25  616.73
  -2   0  -2 2369.59  343.70
   2   0   3   18.29  434.43
   2   0   3  -10.42  539.98
   2   0   3  -31.78  726.12
  -2   0  -3  278.35  412.07
   2   0   4 7132.51  886.13
   2   0   4 8598.20 1219.14
   2   0   4 8286.98  712.87
  -2   0  -4 8320.98  590.27
   2   0   5   18.77  653.08
   2   0   5  -98.90  365.96
  -2   0  -5 -109.28  321.58
   2   0   6124675.614243.87
   2   0   6100219.7 7231.36
  -2   0  -696372.34 6920.37
   2   0   7  -10.75  366.30
   2   0   7  263.95  312.94
  -2   0  -7 -394.87  287.05
   2   0   8 3212.31  595.84
   2   0   8 2769.94  733.54
  -2   0  -8 2332.40  347.20
   2   0   9  349.10  352.28
   2   0   9 -296.62  612.71
  -2   0  -9  416.75  302.53
   2   0  10 1110.02  359.50
   2   0  10  514.49  620.56
  -2   0 -10 1446.95  345.58
   2   0  11   25.39  285.45
   2   0  11 -251.71  669.61
  -2   0 -11 -177.94  248.33
   2   0  12  327.38  311.94
   2   0  12 1387.94  728.38
  -2   0 -12 1542.17  390.61
   2   0  13   25.99  661.33
   2   0  13   -5.99  385.92
  -2   0 -13 -137.51  361.15
   2   0  14 1114.69  746.02
   2   0  14  791.93  405.69
  -2   0 -14 1216.25  363.46
   2   0  15  -84.63  377.06
   2   0  15  516.77  717.84
   2   0  16 1048.39  710.12
   2   0  16  700.54  404.53
   2   0  17  608.89  443.00
   2   0  17 -409.31  710.70
   2   0  1845239.52 4534.47
   2   0  1846922.23 5087.70
   2   0  19 -599.04  668.94
   2   0  19 -403.93  439.04
   2   0  2010086.27 1372.31
   2   0  20 7812.41 1111.01
   2   0  21 -832.46  788.44
   2   0  21  285.26  543.44
   2   0  22  401.95  746.49
   2   0  22 -231.35  581.66
   2   0  23 -343.02  578.52
   2   0  23 -984.69  812.75
   2   0  24 5094.60  737.75
   2   0  24 6798.35 1274.79
   2   0  25 -275.71  599.98
   2   0  25 -443.76  860.66
   2   0  2635238.31 4398.24
   2   0  2658138.79 7059.56
   2   0  27  480.62  681.47
   2   0  27 1183.19 1191.58
   2   0  2810864.84 1929.25
   2   0  29 -227.77 1262.30
   2   0  3024186.33 3670.09
   2   0  31 2132.34 1687.84
   2   0  32 1731.81 1700.04
   2   0  33-1038.80 1596.59
   2   0  3414458.89 3141.56
   2   0  35 -474.46 1569.19
   2   0  36 5241.78 2503.41
   2   0  37  835.58 2091.68
   2   0  38 1474.70 2133.55
  -2  -1  38  124.69  853.48
  -2  -1  37  140.98  866.48
  -2   1  37  990.79  866.16
  -2   1  36 1619.07 1183.88
  -2  -1  36 1172.31  904.92
  -2   1  35-1381.04 1090.72
  -2  -1  35 -245.92  906.99
  -2  -1  34 1585.19  937.22
  -2   1  34 1681.07  850.76
  -2   1  33  511.29  749.81
  -2  -1  33 -881.65  813.86
  -2   1  32  975.07 1164.38
  -2  -1  32 3076.38 1287.85
  -2   1  31 3178.27  977.20
  -2  -1  31 5411.55 1573.21
  -2   1  30 5045.59 1071.69
  -2  -1  30 3447.40 1161.41
  -2  -1  29 -479.30  893.56
  -2   1  29  -75.70 1017.62
  -2  -1  28 -155.09  881.95
  -2  -1  28 2327.72 2171.86
  -2   1  28  450.61  794.03
  -2  -1  27 6193.22 2782.31
  -2   1  27 7474.88 1446.61
  -2  -1  27 7459.12 1874.34
  -2  -1  2625190.95 3568.56
  -2   1  2624730.16 3151.10
  -2  -1  2624552.16 3469.76
  -2  -1  25 1898.02 1495.79
  -2   1  25 1317.15  763.94
  -2  -1  25 1071.65  921.52
  -2   1  24 9407.20 1597.20
  -2  -1  2412124.00 2836.13
  -2  -1  2410768.23 2062.43
  -2   1  23-1615.52  991.87
  -2  -1  23  192.31  799.06
  -2  -1  23 -792.76  929.27
  -2  -1  22  -98.59  636.31
  -2  -1  22  432.68  798.62
  -2   1  22  152.80  717.00
  -2  -1  21  298.02  734.35
  -2   1  21 -673.35  664.00
  -2  -1  21  291.69  862.70
  -2   1  2022130.29 2684.60
  -2  -1  2022783.49 2896.57
  -2  -1  2025345.73 3298.33
  -2  -1  19 6881.57 1168.39
  -2   1  1910106.09 1546.40
  -2  -1  19 9868.92 1635.82
  -2   1  18 4620.60  979.78
  -2  -1  18 6695.55 1163.94
  -2  -1  18 6175.77 1167.22
  -2  -1  17  906.80  753.07
  -2  -1  17 1296.51  742.15
  -2   1  17  546.92  724.09
  -2  -1  1637644.73 3674.47
  -2  -1  1638755.28 5093.66
  -2   1  1633151.90 4077.70
  -2  -1  15 3460.80  974.10
  -2  -1  15 3251.67  827.29
  -2   1  15 2686.79 1228.55
  -2  -1  14 7543.90 1882.98
  -2  -1  14 7606.33  945.29
  -2   1  14 6685.50 1269.92
   2  -1 -13  275.97  300.40
  -2   1  13  151.99  725.43
  -2  -1  13  309.77  545.06
  -2  -1  13   55.43  254.86
  -2  -1  13 1366.20  783.19
   2  -1 -12  263.49  230.80
  -2  -1  12  314.37  207.49
  -2  -1  12  814.95  415.41
  -2  -1  12  609.22  838.39
  -2   1  12  331.11  726.91
   2  -1 -11  449.34  312.33
  -2  -1  11  349.12  769.17
  -2  -1  11   70.68  710.51
  -2  -1  11  288.03  210.24
  -2   1  11 1124.94  707.94
   2  -1 -1043752.97 3459.64
  -2  -1  1036813.89 2960.46
  -2   1  1052418.54 5311.41
  -2  -1  1058322.80 6142.04
   2  -1  -910923.14 1113.45
  -2  -1   9 8928.90  774.96
  -2   1   9 9797.60 1546.22
  -2  -1   9 8787.94 1612.06
  -2  -1   8  -20.35   71.33
  -2  -1   8  217.33   70.28
  -2   1   731538.17 3462.70
  -2  -1   730684.86 3603.60
  -2   1   523957.58 3068.08
  -2  -1   527030.76 3667.08
   2   1  -386435.02 7151.31
   2  -1  -386209.82 9117.95
   2  -1  -377586.01 8236.95
  -2  -1   392953.4210672.73
  -2   1   371782.57 7125.41
   2  -1  -212432.26 1402.68
   2   1  -210609.88  987.70
   2   1  -210841.91 1250.71
   2  -1  -2 8225.92  832.74
  -2  -1   2 7969.27  475.37
  -2  -1   211279.72 1813.10
  -2   1   2 9222.26 1065.40
   2   1  -1 7412.89  692.03
   2  -1  -1 6171.83  687.95
   2   1  -1 8818.75 1144.66
   2  -1  -1 5601.17 1070.34
   2  -1  -1 7974.74 1114.87
  -2   1   1 7370.10 1417.50
  -2  -1   1 6870.10  846.60
  -2  -1   1 6149.35  541.94
   2  -1   022408.76 2457.42
   2   1   021059.59 1660.26
   2  -1   021206.80 2309.66
   2   1   017731.77 1316.43
  -2  -1   022976.41 1967.85
  -2   1   021645.81 1703.86
  -2  -1   017595.79 1017.14
   2   1   183156.92 6267.29
   2   1   1100917.2 9903.86
   2  -1   183940.79 7231.09
   2  -1   195674.58 7278.98
  -2   1  -190291.34 7290.07
  -2   1  -1102837.4 9421.17
  -2  -1  -181011.62 5854.47
  -2  -1  -195086.91 8043.78
   2   1   2 5861.66  806.78
   2  -1   2 8010.82  869.05
   2   1   2 8385.96  886.30
   2   1   2 6509.38  672.46
   2  -1   2 4916.05  912.76
  -2   1  -2 7004.44 1053.11
  -2   1  -2 6335.04  564.64
  -2  -1  -2 7482.50  845.10
   2  -1   344206.03 3688.26
   2   1   339879.07 3693.82
   2   1   343850.51 3254.08
   2  -1   334631.28 2876.20
   2   1   337820.27 2096.61
  -2   1  -341361.40 3137.54
  -2   1  -344338.54 4479.30
  -2  -1  -339096.16 3129.02
   2   1   475709.50 7451.67
   2  -1   473789.16 6845.09
   2   1   479596.55 6568.24
   2   1   481735.44 6700.32
   2  -1   468720.17 5165.58
  -2  -1  -470185.43 6412.81
  -2   1  -486141.47 9449.98
  -2   1  -471848.13 6385.90
   2   1   591602.41 9917.92
   2  -1   596975.73 9973.59
   2   1   596213.54 7946.36
   2  -1   577624.09 6164.65
  -2   1  -593738.30 8650.27
  -2  -1  -592026.11 7174.39
   2  -1   6162793.821204.81
   2   1   6154905.121810.23
   2  -1   6140012.913422.53
  -2   1  -6168314.018996.96
   2   1   737874.60 4310.06
   2   1   740703.12 3291.68
   2  -1   743616.15 4372.91
   2  -1   741237.75 4507.18
  -2   1  -739041.69 3207.50
  -2  -1  -737809.26 2538.29
   2   1   8106108.811087.45
   2  -1   878014.91 6212.98
   2  -1   8104531.110179.68
  -2  -1  -873006.76 4395.61
  -2   1  -868908.64 4868.16
   2  -1   9 4089.37  575.43
   2   1   9 4116.19  878.57
   2  -1   9 3129.71  844.83
  -2   1  -9 4287.36  587.16
  -2  -1  -9 2375.10  276.29
   2   1  1075168.96 8622.11
   2  -1  1078400.77 9218.07
   2  -1  1079051.19 9166.30
  -2  -1 -1075787.20 6091.16
  -2   1 -1072533.64 6563.52
   2  -1  1117123.61 1615.83
   2   1  1118435.47 1503.59
   2  -1  1119919.36 2159.16
   2   1  1115039.01 1518.07
  -2   1 -1113725.43 1001.25
  -2  -1 -1118137.14 1343.14
   2   1  1217575.64 2250.54
   2   1  1217412.54 1464.25
   2  -1  1220386.33 2365.23
   2  -1  1220506.63 2159.35
  -2  -1 -1219606.17 1439.14
  -2   1 -1216339.17 1541.37
   2   1  1312187.30 1608.96
   2  -1  1313449.04 1646.86
   2  -1  1314850.52 1585.75
  -2  -1 -13 9641.72  932.08
   2   1  14 1790.21  346.78
   2  -1  14 2314.74  786.07
   2  -1  14 2204.27  587.13
   2   1  14 2174.39  465.86
  -2  -1 -14 1334.25  385.26
   2  -1  15 1032.85  685.89
   2   1  15 -294.43  741.91
   2  -1  15  253.36  505.60
   2   1  15  124.43  333.65
  -2  -1 -15  121.96  333.07
   2   1  1626888.46 2910.86
   2   1  1629416.81 2569.33
   2  -1  1623952.02 2163.18
   2  -1  1624948.15 2484.31
  -2  -1 -1618435.23 1749.24
   2   1  17 7120.32 1197.04
   2  -1  17 7528.49 1046.44
   2   1  17 6249.51  928.52
   2  -1  17 7915.33 1265.28
   2  -1  1824848.40 2936.29
   2   1  1826752.10 2955.08
   2   1  1820550.35 2237.94
   2  -1  1826053.44 2530.82
   2  -1  19 3787.61  811.53
   2   1  19 1158.48  827.11
   2  -1  19 1108.99  396.67
   2   1  19  194.51  361.40
   2  -1  20 4557.37  655.11
   2   1  20 4711.94  819.88
   2  -1  20 6597.71  927.85
   2   1  20 5982.07 1169.44
   2   1  21 3781.71  932.13
   2  -1  21 3252.83  666.10
   2   1  21 2290.68  586.28
   2  -1  21 2723.59  845.28
   2  -1  22 8888.99 1423.67
   2   1  2211066.75 1802.26
   2  -1  22 8533.92 1381.43
   2   1  22 8569.54 1203.93
   2   1  23 -128.51 1050.18
   2  -1  23   95.03  621.06
   2  -1  23  759.49  791.14
   2   1  23  394.68  536.26
   2  -1  24  558.12  788.93
   2  -1  24 -143.05  600.23
   2   1  24  176.26  502.10
   2   1  24   16.93  977.15
   2   1  25  724.09 1036.79
   2  -1  25  594.64  934.71
   2  -1  25  174.74  733.22
   2   1  25  600.67  395.65
   2  -1  2611502.83 1812.89
   2   1  2610268.33 1879.76
   2  -1  26 8364.30 1238.95
   2  -1  27 1473.76  909.36
   2  -1  27 -364.23  502.78
   2   1  27 -302.55 1035.45
   2   1  28-1593.69 1350.85
   2  -1  28  265.41  752.88
   2  -1  28 2314.73 1030.47
   2   1  29 4334.36 1601.81
   2  -1  29 3313.11 1147.98
   2  -1  30 3673.48 1484.48
   2   1  30 1958.78 1637.00
   2  -1  31 1553.58 1330.88
   2   1  31 1295.98 1572.79
   2  -1  32 3312.32 1625.04
   2   1  32 7082.93 2006.30
   2  -1  33 1196.05 1457.95
   2   1  33 1254.84 1948.92
   2  -1  34 6789.90 2475.50
   2   1  34 4542.65 2370.06
   2  -1  35  464.57 1569.65
   2   1  35  257.68 1831.42
   2  -1  36 3011.58 1908.61
   2   1  36 2516.22 2168.00
   2  -1  37 3184.12 1978.88
   2   1  37 3887.15 2400.79
   2  -1  38  152.92 2362.22
   2   1  38 2018.37 2167.07
  -2  -2  38 1203.50 1038.89
  -2  -2  37 2407.21 1079.81
  -2   2  36  866.44  794.31
  -2  -2  36 1989.97 1011.41
  -2  -2  35 -606.86  877.08
  -2   2  35   35.06  695.96
  -2   2  34  100.77 1128.28
  -2  -2  34 2052.46  946.19
  -2   2  33 3754.54  944.58
  -2  -2  33 4038.00 1192.09
  -2  -2  32  561.91  969.24
  -2   2  32  -74.46  713.06
  -2   2  31 1000.78 1160.95
  -2  -2  31 3169.64 1040.27
  -2   2  30 -696.24  716.73
  -2  -2  30-1178.98 1306.26
  -2  -2  29 2699.15 1082.03
  -2   2  29 4647.81 1359.95
  -2  -2  2820059.76 2501.80
  -2   2  2819844.56 2747.44
  -2  -2  2821487.83 3096.08
  -2  -2  27 5010.98 1148.26
  -2  -2  27 2901.14 1078.94
  -2   2  27 4602.80 1224.71
  -2  -2  26  614.82  827.51
  -2  -2  26 -732.62 1011.43
  -2   2  26   55.65  675.97
  -2  -2  25  710.57 1075.68
  -2  -2  25 -761.37  876.21
  -2   2  25  874.95  694.17
  -2  -2  2421802.49 3216.38
  -2  -2  2421060.02 2608.90
  -2   2  2422288.66 2996.61
  -2  -2  23 3952.01  938.74
  -2  -2  23 3866.51 1005.06
  -2   2  23 2450.89  907.58
  -2  -2  2210543.21 1507.58
  -2  -2  2211324.74 2006.72
  -2   2  2210840.19 1444.71
  -2  -2  21 1158.39  935.44
  -2   2  21 2090.79  774.74
  -2  -2  21 1417.65  852.86
  -2  -2  20  483.29  649.56
  -2   2  20 -122.02  637.13
  -2  -2  20 -184.58  756.41
  -2  -2  19 8633.51  895.47
  -2   2  19 8330.94 1270.15
  -2  -2  19 7683.44 1454.05
  -2  -2  18  522.68  854.51
  -2   2  18 1280.68  680.23
  -2  -2  18  755.70  368.15
  -2  -2  1791083.45 9431.14
  -2  -2  1788744.6911990.57
  -2   2  1784604.3710251.02
  -2  -2  1639747.06 5057.08
  -2  -2  1644266.36 3972.29
  -2   2  1640184.55 4417.05
  -2  -2  15  576.58  348.40
  -2  -2  15  492.17  457.04
  -2  -2  15 1533.03  854.85
  -2   2  15  383.22  675.22
  -2  -2  14   -0.77  356.04
  -2  -2  14  407.12  791.21
  -2   2  14 -254.07  716.79
  -2  -2  14 -173.57  431.71
  -2  -2  1312920.02  815.10
  -2   2  1319192.98 2060.00
  -2  -2  1319846.38 2403.91
   2  -2 -12 7165.03  868.70
  -2  -2  12 8911.85  758.79
  -2  -2  12 9471.11 1715.14
  -2   2  12 9028.55 1366.18
   2  -2 -1152616.18 5077.76
  -2  -2  1148360.55 3686.19
  -2  -2  1156972.38 7216.82
  -2   2  1149932.95 5133.78
   2  -2 -10 -243.45 1283.09
  -2  -2  10  399.75  248.96
  -2  -2  10  156.66  344.49
  -2  -2  10 1160.06  781.45
  -2   2  10  835.34  662.24
  -2  -2   919064.36 2465.11
  -2   2   915715.54 1782.45
  -2  -2   855084.01 6492.64
  -2   2   860403.01 6579.01
  -2   2   746209.99 4903.14
  -2  -2   742588.61 5012.47
   2  -2  -636875.76 3767.41
  -2  -2   634846.12 4368.75
  -2  -2   5370664.470622.75
   2  -2  -4122483.914696.13
  -2  -2   4123433.217019.13
   2   2  -311031.78 1170.75
   2  -2  -312187.28 1513.79
  -2  -2   312305.77 1619.29
  -2  -2   3 9085.30  553.04
   2   2  -2 1793.00  510.19
   2  -2  -2 3384.22  743.24
  -2  -2   2 1942.63  386.68
  -2  -2   2 2403.35  785.77
  -2   2   2 2173.91 1471.42
   2   2  -1115694.811184.35
   2   2  -1104553.8 9734.10
   2  -2  -1122792.212725.92
  -2   2   193142.16 9888.08
  -2  -2   198538.05 8923.39
  -2   2   1102148.010083.92
  -2  -2   188199.40 8053.07
   2  -2   012054.41 1467.73
   2  -2   0 9208.63 1771.12
   2   2   011002.51 1060.75
   2   2   011692.78 1434.04
  -2  -2   0 9544.44  868.63
  -2  -2   0 9230.18  899.74
  -2   2   0 8688.33  786.65
  -2   2   0 9824.87 1575.33
   2  -2   1  838.61  627.84
   2  -2   1  337.95 1201.95
   2   2   1  499.35  382.55
   2   2   1  313.88 1024.74
  -2   2  -1 2038.81 1125.04
  -2  -2  -1  630.95  437.07
  -2   2  -1  846.69  431.13
  -2  -2  -1  850.55  583.07
   2  -2   242002.00 3688.53
   2   2   240714.90 2882.01
   2   2   241830.49 4510.66
   2  -2   232795.64 3602.78
  -2   2  -242060.06 3342.08
  -2   2  -239087.90 4646.40
  -2  -2  -236362.41 2349.06
  -2  -2  -236974.02 2866.26
   2  -2   3 2728.03 1236.03
   2   2   3 4275.94  462.85
   2   2   3 6381.59 1087.72
   2  -2   3 5583.42  898.28
  -2   2  -3 5030.51  566.42
  -2   2  -3 4618.54 1231.37
  -2  -2  -3 4736.98  504.21
  -2  -2  -3 3912.67  572.86
   2  -2   4 4109.74  800.07
   2   2   4 4260.04 1046.44
   2   2   4 2673.71  354.72
  -2   2  -4 3646.97  592.37
  -2   2  -4 4537.96 1047.88
   2   2   541436.92 2786.36
   2   2   541285.50 2829.54
   2  -2   547811.49 4623.58
   2   2   544096.66 5271.11
  -2   2  -542787.66 4612.28
  -2   2  -543256.39 3641.92
   2   2   6 7441.56 1261.40
   2  -2   6 5851.51 1105.41
  -2   2  -6 4111.68  653.06
  -2   2  -6 4570.88  807.49
   2  -2   7  394.18  604.53
   2   2   7 -226.23  768.28
  -2   2  -7  223.12  497.06
  -2   2  -7  513.45  796.07
   2   2   8 1920.51  819.94
   2  -2   8 1039.03  465.81
   2  -2   8 2085.97  930.10
  -2   2  -8 1413.07  564.47
  -2   2  -8 1146.17  475.57
   2   2   9276775.243676.51
   2   2   9211407.426419.87
   2  -2   9320331.148547.13
   2  -2   9313036.048818.19
  -2   2  -9301417.643726.86
   2  -2  1035525.39 3884.76
   2   2  1031611.63 3444.34
   2  -2  1041840.17 4706.03
  -2  -2 -1033757.71 1960.45
   2  -2  11  679.48  676.33
   2   2  11 1043.14  737.30
   2   2  11  603.28  196.15
   2  -2  11 1533.24  848.53
  -2  -2 -11  489.88  189.42
   2  -2  12 1173.51  572.10
   2  -2  12  803.06  634.74
   2   2  12  829.17  877.99
   2   2  12  433.73  181.88
  -2  -2 -12  446.93  212.27
   2  -2  1310916.17 1475.29
   2   2  1311018.61 1789.00
   2   2  1310893.14  981.19
   2  -2  1311328.06 1567.48
   2  -2  1428797.37 3015.94
   2   2  1425410.99 2116.55
   2   2  1428973.99 3236.74
   2  -2  1423974.78 2671.05
   2  -2  1516925.69 1925.39
   2   2  1522418.86 2720.57
   2   2  1520169.09 1643.12
   2  -2  1520307.25 2145.20
  -2  -2 -1514900.30 1339.19
   2   2  1616079.25 1752.65
   2  -2  1614731.85 1729.34
   2  -2  1616634.89 1974.01
   2   2  1616490.98 1471.45
  -2  -2 -1611591.45 1139.19
   2  -2  17  789.39  562.31
   2   2  17  920.52  993.26
   2   2  17 1668.94  337.16
   2  -2  17 1633.19  698.06
  -2  -2 -17  415.48  262.12
   2  -2  18 9069.26 1309.13
   2   2  18 8239.66 1543.30
   2   2  18 6191.20  764.44
   2  -2  18 7368.63 1022.86
   2  -2  1922544.40 2431.64
   2   2  1921907.72 2710.46
   2  -2  1920180.35 2040.06
   2   2  1921722.41 1998.09
   2  -2  20 8967.47 1298.38
   2  -2  2011325.26 1546.63
   2   2  2010465.98 1248.42
   2   2  2012345.40 1852.37
   2  -2  21 1325.18  776.71
   2  -2  21 1672.49  607.99
   2   2  21 1537.20 1014.51
   2   2  21 1896.07  460.95
   2   2  22  530.34  952.18
   2  -2  22  191.40  765.69
   2  -2  22  856.48  428.70
   2   2  22  695.06  396.92
   2   2  23  718.12 1293.30
   2  -2  23  812.56  731.30
   2   2  23  985.36  437.10
   2  -2  23  143.49  456.03
   2  -2  24 -183.85  458.69
   2   2  24 1738.69 1242.33
   2  -2  24 1101.96  801.53
   2   2  24  200.50  454.33
   2  -2  25 3183.06 1012.06
   2  -2  25 3255.10  672.59
   2   2  25  339.12 1441.82
   2   2  26 3115.92 1365.50
   2  -2  26  517.11  546.48
   2  -2  26 3015.06  926.43
   2   2  27 3705.42 1511.15
   2  -2  27 1736.33  943.78
   2  -2  27  613.24  800.16
   2  -2  28  757.66  928.12
   2  -2  28  295.19  817.11
   2   2  28 1113.59 1465.49
   2   2  29 2187.65 1351.43
   2  -2  29  309.90  881.08
   2  -2  29  614.45 1034.90
   2   2  30 4953.57 2489.22
   2  -2  3011127.97 1818.05
   2  -2  31 5002.46 1340.11
   2   2  31 2283.08 2049.81
   2   2  32  698.63 1742.64
   2  -2  32  864.47 1116.09
   2  -2  33 6148.94 1699.47
   2   2  33 1571.03 2166.07
   2  -2  34 5350.16 1757.53
   2   2  34 1065.86 2160.89
   2   2  35 6295.89 2503.19
   2  -2  35 5202.33 1854.27
   2   2  36 6468.05 4369.30
   2  -2  36 2863.31 1632.16
   2   2  37 2432.18 3986.87
   2  -2  37 1493.48 1823.92
   2  -2  38 1680.49 1691.48
   2   2  38-6409.85 3663.57
  -2  -3  38  991.31 1057.28
   2  -3 -37  494.04  377.61
  -2  -3  37 2054.45 1045.69
  -2  -3  36-1699.32  978.31
  -2   3  35 2013.20  869.22
  -2  -3  35  810.17 1081.39
  -2  -3  34 -966.13  934.55
  -2   3  34  399.99  729.99
  -2  -3  33 -515.78  931.11
  -2   3  33  661.29  991.42
  -2  -3  32  768.50 1008.30
  -2   3  32  270.88  699.64
  -2   3  31 2597.08 1058.27
  -2  -3  31 1743.15 1117.18
  -2  -3  30  796.37  925.91
  -2   3  30  231.49  663.58
  -2  -3  29 -140.18 1266.53
  -2   3  29 1326.15  964.93
  -2  -3  28 3225.97 1490.73
  -2   3  28 2702.78  974.16
  -2   3  27 2216.25  765.51
  -2  -3  27  720.28  935.53
  -2  -3  27  941.50  945.61
  -2  -3  26  580.20  877.76
  -2   3  26  625.24  992.63
  -2  -3  26  257.18  838.95
  -2  -3  2518615.87 1918.33
  -2   3  2520340.98 2830.52
  -2  -3  2518119.44 2792.81
  -2  -3  24  154.69  655.12
  -2  -3  24  947.57  872.03
  -2   3  24-1196.63  657.14
  -2   3  23 3920.37  910.03
  -2  -3  23 5205.37  789.51
  -2  -3  23 5573.80 1242.57
  -2  -3  22 5657.12  910.01
  -2  -3  22 5243.74 1153.96
  -2   3  22 7358.02 1091.98
  -2   3  21 4366.40  897.06
  -2  -3  21 4783.37 1477.54
  -2  -3  21 3479.53  568.44
  -2  -3  20  594.39  860.78
  -2  -3  20  -48.79  444.94
  -2   3  20  -80.22  560.02
  -2   3  1931585.16 3444.73
  -2  -3  1928925.69 2661.33
  -2  -3  1927306.54 4135.79
  -2  -3  18 5124.51  749.40
  -2   3  18 6695.58 1317.76
  -2  -3  18 6488.70 1059.35
  -2  -3  17  600.03  362.21
  -2  -3  17 -980.96  768.73
  -2   3  17  936.61  645.62
  -2  -3  16 3740.34 1237.79
  -2  -3  16   50.82  642.42
  -2  -3  16 2407.41  497.00
  -2   3  16 1860.52  627.16
  -2  -3  1517413.59 1562.56
  -2  -3  1518187.85 2796.79
  -2   3  1516911.11 2007.81
  -2  -3  14 -266.58  274.23
  -2  -3  14  618.49  659.08
  -2  -3  14  366.71  819.90
  -2   3  14    7.99  577.43
  -2  -3  13  694.13  602.36
  -2  -3  13 2865.80  946.08
  -2   3  13  323.13  678.62
  -2  -3  13  441.29  247.71
  -2   3  1218508.78 2150.43
  -2  -3  1219474.53 2684.60
   2  -3 -11 6088.06  630.44
  -2  -3  11 7075.96  422.13
  -2  -3  1111903.64 1561.92
   2  -3 -1011118.13 1321.96
  -2  -3  1010233.75 1607.93
   2  -3  -9  107.73  576.65
   2   3  -9  184.82  252.12
  -2  -3   9 1315.31  733.08
   2  -3  -844723.75 4693.46
  -2  -3   845365.27 5004.63
   2  -3  -783458.09 8609.90
  -2  -3   790728.4010841.96
   2  -3  -6 -172.71  754.51
  -2  -3   6 1261.51  770.16
   2  -3  -566839.10 7010.01
  -2  -3   567821.31 7605.77
   2  -3  -4 2974.78  803.79
  -2  -3   4 4623.24  903.05
   2  -3  -330696.43 3094.43
  -2  -3   320685.37 3264.59
  -2  -3   328963.79 2946.31
   2  -3  -230625.00 3103.59
   2   3  -228805.02 2298.54
  -2  -3   228182.03 3074.78
  -2  -3   233068.68 3137.17
   2  -3  -123467.59 2901.52
   2   3  -121918.49 2071.76
  -2   3   123283.63 4326.00
  -2  -3   124373.77 2391.30
  -2  -3   128232.21 2806.98
   2   3   045121.73 3622.46
   2  -3   050521.76 5236.30
  -2  -3   050968.82 4637.00
  -2   3   053487.64 7975.95
  -2  -3   048061.11 5089.22
   2   3   181316.82 7314.39
   2  -3   182214.85 8550.34
  -2   3  -191214.2414155.18
  -2  -3  -171176.85 7126.73
  -2  -3  -190273.45 8558.00
   2   3   2 1374.75  416.57
   2   3   2  960.26 2391.42
   2  -3   2  599.25  743.67
  -2   3  -2 2929.05 1376.95
  -2  -3  -2  402.65  676.38
  -2  -3  -2  961.33  530.99
   2   3   3 8944.01 2898.76
   2  -3   3 5677.87  998.66
  -2  -3  -3 6289.14  712.87
  -2   3  -3 7332.46 1778.98
   2   3   4 2779.74  391.84
   2  -3   4 3729.31  799.13
   2   3   4 2065.21 1367.39
  -2   3  -4 2514.16 1410.25
  -2  -3  -4 2116.49  359.06
   2   3   555468.13 7370.97
   2  -3   552667.58 5809.68
  -2   3  -547985.30 6254.45
   2  -3   635845.96 3319.24
   2   3   630809.91 4103.54
  -2   3  -632499.43 3808.80
   2  -3   715305.93 2304.89
   2   3   716451.99 2569.67
  -2   3  -716315.10 2257.34
   2   3   8 4898.79 1450.83
   2  -3   8 4478.18  887.75
  -2   3  -8 3525.43 1174.00
   2  -3   915590.25 2320.70
   2   3   915013.09 1748.64
  -2   3  -915131.02 1825.80
   2  -3  1061344.87 7887.53
   2   3  1059372.75 8203.41
  -2   3 -1063863.64 7520.76
   2   3  1130282.13 4190.16
   2  -3  1140131.19 4868.46
  -2   3 -1136631.95 4384.73
   2   3  12 5715.95 1440.78
   2  -3  12 5192.48  925.23
   2  -3  12 4239.95 1028.20
  -2  -3 -12 3585.28  262.67
   2  -3  13 -366.75  791.25
   2  -3  13 -280.99  667.39
   2   3  13  430.16 1051.49
  -2  -3 -13  193.13  111.60
  -2  -3 -13  259.00  155.91
   2  -3  14 -466.48  683.63
   2   3  14  154.53 1031.87
   2  -3  14 -428.47  539.73
  -2  -3 -14  226.22  188.63
   2   3  1514598.81 2433.17
   2  -3  1510693.60 1606.29
   2  -3  1510867.61 1592.74
   2  -3  1610330.74 1567.86
   2  -3  1612394.76 1631.51
   2   3  1612735.13 1940.01
   2   3  16 9407.19  778.20
   2  -3  1715474.46 1932.61
   2   3  1716108.03 2182.46
   2   3  1715677.45 1225.88
   2  -3  1715920.64 1903.52
  -2  -3 -1710431.84 1019.92
   2   3  18 1592.91  261.39
   2  -3  18 1490.75  674.04
   2   3  18 3266.11 1107.97
   2  -3  18 1881.15  752.15
  -2  -3 -18  847.02  266.95
   2  -3  19 4327.26  785.99
   2   3  19 3665.97 1258.48
   2   3  19 1296.37  301.93
   2  -3  19 1421.83  506.08
   2   3  20 1398.61 1200.89
   2  -3  20 1021.29  653.04
   2  -3  20 2643.21  714.98
   2   3  20 1208.38  324.64
   2   3  2125157.89 3657.94
   2  -3  2125298.78 2562.15
   2  -3  2127707.98 3132.78
   2   3  2122580.50 1816.64
   2  -3  22 4889.22  910.18
   2   3  22 3918.04 1483.48
   2  -3  22 4006.30  606.53
   2   3  22 3316.52  433.48
   2  -3  23 8360.12 1263.09
   2  -3  23 8792.79 1346.32
   2   3  23 7561.07 1652.39
   2   3  23 6807.33  816.05
   2  -3  2419823.15 2633.33
   2   3  2430405.72 4570.03
   2  -3  2428014.19 3520.55
   2  -3  2510690.41 1474.36
   2   3  2512750.02 2384.26
   2  -3  25 4836.62 1124.98
   2  -3  26  469.15  748.46
   2   3  26  680.88 1677.35
   2  -3  26 -237.01  807.09
   2   3  2730976.77 5044.36
   2  -3  2735352.49 4006.56
   2  -3  2725016.78 3460.85
   2  -3  28  998.64  943.77
   2   3  28  981.13 1603.12
   2  -3  28  841.26  667.63
   2  -3  29 3831.64 1127.07
   2   3  29 2789.95 1922.85
   2  -3  29 3824.30  953.39
   2  -3  30  897.99  800.71
   2  -3  30 8318.04 1364.63
   2   3  30 1246.02 1910.35
   2  -3  31 5399.19 1413.15
   2   3  31 1246.36 2040.82
   2   3  32 9540.31 4321.49
   2  -3  32 4475.99 1369.84
   2  -3  33 8761.46 1884.27
   2   3  3313639.19 5010.38
   2  -3  34 -791.54 1137.29
   2   3  34  167.50 3607.36
   2   3  35 2691.50 4014.32
   2  -3  35 2115.08 1522.76
   2  -3  36 1889.82 1551.39
   2   3  36 3745.78 4135.31
   2   3  37  877.98 4540.45
   2  -3  37 5658.67 1869.22
  -2  -4  37  397.07 1479.34
   2  -4 -36  896.91  632.61
  -2  -4  36 -967.98 1448.08
   2  -4 -35  722.23  876.28
  -2  -4  35 1749.78 1472.76
   2  -4 -34  615.13  586.02
  -2  -4  34  799.26 1384.08
   2  -4 -33 4464.99 1138.67
  -2  -4  33 2288.48 1689.73
   2  -4 -32  390.55  551.71
  -2  -4  32  264.11 1347.30
   2  -4 -31 1496.61  606.74
  -2  -4  31 1450.90 1471.64
   2  -4 -30 5040.18  638.78
  -2  -4  30 3689.94 1665.97
   2  -4 -29 2719.36  447.50
  -2  -4  29 3832.17 1538.15
   2  -4 -28 2227.56  424.61
  -2  -4  2811095.98 1934.26
  -2  -4  2777508.65 9124.57
  -2  -4  2793416.4613678.67
  -2   4  26 6808.75 1410.26
  -2  -4  2610384.60 1245.11
  -2  -4  26 8826.52 1524.60
  -2  -4  2510259.66 1082.30
  -2  -4  2511164.98 2051.64
  -2   4  2513084.62 1723.62
  -2  -4  24 1202.50  635.50
  -2   4  24 2153.41  770.34
  -2  -4  24 1312.01  958.43
  -2  -4  23 7407.03 1088.39
  -2  -4  23 9295.31 1712.13
  -2   4  23 7539.81 1179.49
  -2  -4  22  838.98  494.35
  -2  -4  22  948.12  870.10
  -2   4  22 1264.94  675.64
  -2  -4  21  341.26  436.45
  -2  -4  21  228.94  827.07
  -2   4  21 1246.27  621.30
  -2  -4  20 7203.61 1398.41
  -2  -4  20 3669.08  569.12
   2  -4 -19 2118.91  328.98
  -2  -4  19  959.17  351.60
  -2  -4  19 2239.32  881.40
   2  -4 -18  -55.66  273.57
  -2  -4  18  505.60  375.23
  -2  -4  18 1976.03  784.61
   2  -4 -1750594.77 4923.80
  -2  -4  1747186.24 3976.16
  -2  -4  1745095.75 5518.49
   2  -4 -16 1683.64  723.30
  -2  -4  16 1983.44  407.71
  -2  -4  16 2387.85  834.44
   2  -4 -15 1136.89  586.93
  -2  -4  15 2505.96  743.25
   2  -4 -14  155.66  508.96
  -2  -4  14 -787.16  702.11
  -2  -4  14  -44.63  334.27
   2  -4 -1315452.53 1751.39
  -2  -4  1315788.48 2348.25
  -2  -4  1320359.05 1672.84
   2   4 -12  537.74  413.15
   2  -4 -12 1684.19  917.96
  -2  -4  12 1904.32  762.44
   2   4 -11 3651.90  493.71
   2  -4 -11 5985.60  896.53
  -2  -4  11 5858.14 1074.39
   2  -4 -1025737.63 2523.23
  -2  -4  1025967.76 3202.20
   2   4  -9 7631.07  942.48
   2  -4  -912484.42 1872.63
  -2  -4   913717.87 1742.70
   2  -4  -838005.21 3296.90
   2   4  -822930.64 2446.78
  -2  -4   836667.22 4132.46
   2  -4  -7 9277.30 1321.62
  -2  -4   7 7333.34 1264.93
   2  -4  -6  991.88  756.47
  -2  -4   6  675.59  630.21
   2  -4  -513830.49 1675.64
  -2  -4   511513.19 1584.08
   2  -4  -4 8491.51 1229.05
  -2  -4   4 8028.16 1098.97
   2  -4  -3  609.42  696.39
  -2  -4   3 1217.25  776.22
   2  -4  -2 5346.80  959.17
  -2  -4   2 5754.12 1072.73
   2   4  -182407.70 7988.30
   2  -4  -196485.3310333.27
  -2  -4   196302.16 9694.35
   2   4   0 8158.44  923.53
   2  -4   0 8114.25 1217.11
  -2  -4   0 6587.15 2155.93
  -2   4   012161.64 3020.36
  -2  -4   0 8440.04  951.90
   2   4   110067.87 1158.19
   2  -4   112078.33 1555.12
  -2  -4  -111180.77 1257.36
  -2   4  -113929.94 3212.13
  -2  -4  -1 9518.65 1597.11
   2  -4   2 4159.39  935.42
   2   4   2 3398.41  630.24
  -2  -4  -2 3197.70  570.79
  -2   4  -2 4523.33 1103.33
   2  -4   3125417.415575.06
   2   4   3130671.514319.24
  -2  -4  -3134312.113359.86
  -2   4  -3158354.125047.65
   2  -4   4 7930.83 1483.95
   2   4   4 7034.06  748.91
  -2  -4  -4 7038.33  667.47
  -2   4  -410256.65 2131.38
   2   4   5 9311.21  545.39
   2  -4   512446.84 1527.64
  -2  -4  -512182.28  923.55
  -2   4  -511643.23 2231.65
   2   4   618523.37 4697.30
   2  -4   619671.42 2312.58
   2   4   617785.98 1173.83
  -2  -4  -618238.53 1209.03
  -2   4  -621940.62 3647.94
   2   4   712995.02  736.52
   2  -4   714373.21 1683.90
   2   4   714312.53 4064.26
  -2   4  -715107.13 2203.38
   2   4   861741.6111516.19
   2  -4   856096.56 5996.45
  -2   4  -847511.74 6206.06
   2   4   936609.73 5432.05
   2  -4   949275.32 5639.50
  -2   4  -948397.26 5260.92
   2   4  10  445.09 1243.19
   2  -4  10 1270.59 1095.09
  -2   4 -10  514.82  727.85
   2   4  11  569.80  695.94
   2  -4  11 1541.90  756.71
  -2   4 -11  -28.14  773.90
   2   4  12 3796.36 1461.39
   2  -4  12 3714.91  890.79
  -2   4 -12 4345.01 1002.63
   2  -4  13 8923.44 1500.51
   2   4  13 8998.08 1684.36
  -2   4 -13 7652.33 1431.99
   2  -4  14 -953.50  687.52
   2   4  14 1176.65  797.35
   2  -4  14  -34.71  365.96
  -2  -4 -14  297.38  162.57
  -2  -4 -14  279.05  125.04
   2  -4  1599053.0611399.45
   2  -4  1595231.0210265.73
   2   4  1591105.5812790.24
  -2  -4 -1573737.12 6768.26
   2  -4  16  393.71  520.75
   2   4  16-1054.18 1344.34
   2  -4  16  394.25  587.98
  -2  -4 -16  608.49  170.12
  -2  -4 -16  450.25  149.74
   2   4  1712265.93 2433.70
   2  -4  1711541.19 1569.94
   2  -4  1715488.40 1814.41
   2  -4  18 7838.98 1215.59
   2   4  18 6495.23 1227.02
   2  -4  18 5367.00 1054.00
   2   4  1981968.4111414.35
   2  -4  1992384.9010283.95
   2  -4  1987310.62 9178.08
  -2  -4 -1968866.20 5767.71
   2   4  20 1143.28 1440.17
   2  -4  20 2421.30  789.25
   2  -4  20 2874.28  742.08
  -2  -4 -20 1833.38  211.18
   2   4  21 -633.99 1373.04
   2  -4  21 1231.47  690.62
   2  -4  21  314.14  555.25
  -2  -4 -21  792.75  204.88
   2   4  22 5780.31 1089.30
   2  -4  22 3741.87  939.33
   2  -4  22 6727.17  950.30
  -2  -4 -22 3287.54  364.66
   2  -4  2310552.72 1492.97
   2  -4  23 9765.14 1447.68
   2   4  23 7940.52 2451.29
  -2  -4 -2310129.30  896.25
   2  -4  24 3213.01  873.14
   2  -4  24 1710.71  804.00
   2   4  24 1221.37 1733.42
   2  -4  2526708.60 3071.11
   2  -4  2518734.58 2746.61
   2   4  2527340.73 4789.73
   2  -4  2614974.02 2265.07
   2  -4  2618581.55 2350.98
   2   4  2619290.53 5396.89
   2  -4  27  636.78  875.66
   2  -4  27 1200.63  900.72
   2   4  27 -116.42 3184.99
   2   4  2812105.95 4167.57
   2  -4  28 9823.30 1534.91
   2  -4  28 4980.69 1251.65
   2   4  2918805.26 4845.18
   2  -4  29 7971.52 1725.80
   2  -4  2911685.17 1786.66
   2   4  30-3124.93 3031.37
   2  -4  30 -693.48  896.62
   2  -4  30 1620.20  716.98
   2  -4  3112814.44 1983.80
   2   4  3112353.47 5029.07
   2  -4  32  -55.67  967.91
   2   4  32  475.54 3311.53
   2   4  33-2114.93 3474.17
   2  -4  33-1634.03 1092.45
   2   4  34 -751.51 3448.32
   2  -4  34  528.47 1079.58
   2  -4  35 4944.19 1490.26
   2  -4  36  336.29 1097.68
   2  -4  37 -419.66 1382.98
  -2  -5  37 2962.87 1243.69
  -2  -5  36 1412.57 1158.85
   2  -5 -35 5680.81 1298.71
  -2  -5  35 3530.13 1374.68
   2  -5 -34 -234.61  594.09
  -2  -5  34   33.31 1007.97
   2  -5 -33-1110.41  756.46
  -2  -5  33   -4.81 1005.28
   2  -5 -32  474.30  578.64
  -2  -5  32  656.27  988.03
   2  -5 -3114465.78 1721.89
  -2  -5  3112696.80 2444.47
   2  -5 -30 5994.78 1077.42
  -2  -5  30 7750.07 1422.64
   2  -5 -29 1800.05  796.19
  -2  -5  29  878.07 1040.10
   2  -5 -28  886.88  552.64
  -2  -5  28 -331.86 1023.63
   2  -5 -27 1498.72  646.19
  -2  -5  27 2424.32 1101.47
   2  -5 -26 7652.02 1057.27
  -2  -5  26 5113.42 1375.70
  -2  -5  26 8115.05 1195.18
   2  -5 -25  917.17  628.83
  -2  -5  25  986.85  580.80
  -2  -5  25  473.39 1031.84
   2  -5 -24 7350.59  983.44
  -2  -5  24 8174.86 1326.23
  -2  -5  24 5550.62  806.44
   2  -5 -23 1134.67  497.92
  -2  -5  23   64.09  361.83
  -2  -5  23  201.12  888.56
   2  -5 -22 -608.16  507.97
  -2  -5  22 -512.64  800.18
  -2  -5  22 -128.89  344.20
   2  -5 -21 2700.90  942.93
  -2  -5  21 4936.97 1037.11
  -2  -5  21 3528.84  585.67
   2  -5 -20 5569.96  807.05
  -2  -5  20 3527.01  532.18
  -2  -5  20 6759.67 1239.26
   2  -5 -1913153.29 1348.37
  -2  -5  1910807.03 1108.68
  -2  -5  1912082.80 1935.55
   2  -5 -18 3797.31  659.79
  -2  -5  18 3429.40  923.44
  -2  -5  18 2170.78  359.50
   2  -5 -17  274.28  694.55
  -2  -5  17  583.19  705.78
  -2  -5  17   42.27  345.51
   2  -5 -1650603.72 4738.08
  -2  -5  1645904.16 3818.84
  -2  -5  1649164.57 6107.43
   2  -5 -1556115.69 5671.48
  -2  -5  1559297.88 7527.39
   2   5 -14 2041.34  605.11
   2  -5 -14 3124.90  719.65
  -2  -5  14 3099.34  829.87
   2  -5 -1321847.79 2165.05
   2   5 -1325287.21 2331.37
  -2  -5  1322189.59 3072.90
   2   5 -12  435.99  625.71
   2  -5 -12 1018.24  612.96
  -2  -5  12 3499.09  854.01
   2  -5 -1136259.97 3840.70
   2   5 -1136496.50 4001.04
  -2  -5  1135349.29 4197.99
   2   5 -10   47.42  728.89
   2  -5 -10 -280.15  561.48
  -2  -5  10 1414.99  653.59
   2  -5  -9 4611.94  839.67
   2   5  -9 5146.08 1393.88
  -2  -5   9 2883.38  981.49
   2   5  -851351.11 7266.19
   2  -5  -850934.79 5045.22
  -2  -5   851467.60 5648.50
   2  -5  -784876.10 9412.28
  -2  -5   785964.5710101.65
   2  -5  -647488.13 4432.15
  -2  -5   642357.73 4323.36
   2  -5  -5140338.417147.20
  -2  -5   5138928.016519.08
   2  -5  -414155.38 1635.76
  -2  -5   411894.04 1412.31
   2  -5  -3 4618.55  902.15
  -2  -5   3 3961.79  685.87
   2  -5  -2 -196.26  700.57
  -2  -5   2 -845.87  783.47
   2  -5  -1  777.56  823.71
  -2  -5   1 2251.14  714.29
   2  -5   018287.44 2140.06
   2   5   015465.95 1660.90
  -2  -5   017545.05 1672.97
   2  -5   132553.79 3175.71
   2   5   132125.36 2919.61
  -2  -5  -133023.94 2957.07
  -2   5  -132755.48 6009.93
   2   5   2 5886.06  611.40
   2  -5   2 9287.47 1316.94
  -2  -5  -2 6373.59  606.36
  -2   5  -2 9377.10 2730.20
   2  -5   335235.95 3352.84
   2   5   332622.89 2658.39
  -2  -5  -324173.60 1568.64
  -2   5  -329263.06 3919.60
   2   5   4 3168.74  414.36
   2  -5   4 6064.52 1075.86
  -2  -5  -4 3207.64  473.75
  -2   5  -4 3976.58 2155.35
   2  -5   5 5068.06 1015.98
   2   5   5 4750.81  488.86
  -2   5  -5 5356.60 1093.01
   2  -5   6 5953.48 1091.25
   2   5   6 4991.54  427.46
  -2   5  -6 5293.01 1716.41
   2  -5   765622.75 7440.81
   2   5   758349.31 4246.23
  -2   5  -765467.69 9388.80
   2  -5   8 7264.24 1204.89
   2   5   8 4670.78  382.85
  -2   5  -8 4809.03 1317.15
   2  -5   9 6870.27 1280.58
  -2   5  -9 5484.84  963.93
  -2  -5  -9 4791.05  470.53
   2  -5  10  618.03  846.35
  -2  -5 -10  105.38  113.94
  -2   5 -10   91.33  828.71
  -2  -5 -10  258.56  147.96
   2  -5  1134783.09 4398.60
   2   5  1132671.70 7433.86
  -2  -5 -1130267.52 2045.87
  -2   5 -1135112.57 3982.44
   2   5  12 4971.86 2715.09
   2  -5  12 7146.51 1272.13
  -2   5 -12 7127.21 1193.97
  -2  -5 -12 4694.22  242.71
  -2  -5 -12 5173.18  444.95
   2   5  13  635.42 2192.89
   2  -5  13  490.95  749.06
  -2   5 -13 1104.01  704.30
  -2  -5 -13  248.08  110.08
  -2  -5 -13  535.77  139.59
   2  -5  1411211.86 1979.87
   2   5  1410866.36 3345.56
  -2   5 -1410273.65 1562.09
  -2  -5 -1410899.08  703.50
   2  -5  15 -523.94  852.44
   2   5  15 -539.94 2169.38
  -2   5 -15  273.92  700.79
  -2  -5 -15  192.35  138.37
  -2  -5 -15  -98.17   92.75
   2  -5  16 9026.75 1395.09
   2   5  1612179.05 2056.92
   2  -5  16 6092.45  784.37
   2   5  1713032.25 3406.17
   2  -5  1711190.05 1427.66
   2  -5  17 8578.81 1285.41
   2  -5  18 5999.37  958.99
   2  -5  18 4612.25 1095.30
   2   5  18 4855.55 2898.15
   2   5  19 8168.64 3528.01
   2  -5  19 9436.38 1379.14
   2  -5  19 8644.37 1340.21
  -2  -5 -19 7051.63  543.85
   2   5  20 4001.97 3181.63
   2  -5  20 5026.33  967.49
   2  -5  20 4184.72 1167.70
   2  -5  2131770.77 3491.96
   2   5  2129567.78 4515.58
   2  -5  2125825.73 2938.82
  -2  -5 -2123062.25 1694.29
   2  -5  22 1226.58  720.46
   2  -5  22 1905.29  800.54
   2   5  22 1505.95 2722.34
  -2  -5 -22 1955.11  289.77
   2  -5  2322221.97 2526.58
   2   5  2322464.55 5888.47
   2  -5  2323151.69 2594.97
   2   5  24 1059.45 2525.60
   2  -5  24 -124.67  731.35
   2  -5  24  150.90  786.94
   2  -5  25 -306.19  733.45
   2   5  25 2744.04 1669.09
   2  -5  25  764.87  833.63
   2   5  2615209.45 5902.59
   2  -5  2626532.16 3156.15
   2  -5  2626177.06 3416.79
   2  -5  2739180.97 4674.44
   2   5  2723351.98 7596.53
   2  -5  2735901.05 4535.79
   2  -5  28 1870.82  983.06
   2   5  28 -501.04 3023.35
   2  -5  28  381.43  941.31
   2  -5  29 1341.73  757.38
   2  -5  29 2242.78 1044.45
   2  -5  30  881.26  985.08
   2  -5  30  153.90  705.37
   2  -5  31 5063.33 1227.98
   2  -5  31  481.31  826.47
   2  -5  32 -424.19 1016.68
   2  -5  33 2801.59 1195.45
   2  -5  34 -426.89 1019.81
   2  -5  35  177.64 1106.96
   2  -5  36 -440.11 1135.81
   2  -5  37 6205.67 1646.48
  -2  -6  36 1600.66 1180.63
  -2  -6  35 -308.40 1069.83
   2  -6 -34 4147.59  925.73
  -2  -6  34 4991.17 1452.23
   2  -6 -33 -361.14  555.70
  -2  -6  33 2162.13 1469.46
   2  -6 -32 3200.90  943.36
  -2  -6  32  936.47 1588.12
   2  -6 -31 -226.67  553.55
  -2  -6  31-1452.85 1440.67
   2  -6 -3012089.99 1529.79
  -2  -6  3011887.14 2027.60
   2  -6 -29  132.74  544.11
  -2  -6  29 -390.38  988.11
   2  -6 -2821654.82 2414.73
  -2  -6  2816767.12 2993.43
   2  -6 -2710592.55 1492.87
  -2  -6  27 6837.69 1570.88
   2  -6 -26 2393.20  946.52
  -2  -6  26 3015.45  778.42
  -2  -6  26 5219.31 1218.02
   2  -6 -25 -153.59  726.36
  -2  -6  25 1088.16  436.72
  -2  -6  25 -256.76  938.09
   2  -6 -2412942.68 1431.81
  -2  -6  2410920.94 1405.38
  -2  -6  24 9313.54 2041.62
   2  -6 -23 3833.65  683.78
  -2  -6  23 3177.75  646.77
  -2  -6  23 2095.04 1102.76
   2  -6 -22 9708.00 1212.34
  -2  -6  22 8087.36 1626.06
  -2  -6  22 6479.26  877.77
   2  -6 -21 4381.77  795.08
  -2  -6  21 3924.04 1129.62
  -2  -6  21 3700.26  509.75
   2  -6 -20  434.88  563.88
  -2  -6  20 1884.40  841.52
  -2  -6  20 1291.78  329.49
   2  -6 -19  166.63  511.66
  -2  -6  19  -49.81  701.13
  -2  -6  19   51.08  304.92
   2  -6 -18 3749.02  930.04
  -2  -6  18 3779.81  594.79
  -2  -6  18 5783.15  953.20
   2  -6 -1714840.49 1662.28
  -2  -6  1715095.54 2394.45
   2  -6 -1661991.18 6511.06
   2   6 -1661068.65 5776.78
  -2  -6  1663099.71 7557.94
   2   6 -15 -140.99  548.13
   2  -6 -15 1195.36  554.20
  -2  -6  15  379.68  918.02
   2   6 -14 1210.82  439.27
   2  -6 -14 1730.48  595.36
  -2  -6  14 2270.64  671.43
   2  -6 -1317309.75 1711.57
   2   6 -1317322.45 1937.71
  -2  -6  1318661.12 2359.61
   2   6 -12 6298.32 1285.61
   2  -6 -12 6424.65  976.71
  -2  -6  12 7797.71 1315.62
   2   6 -1157321.27 6923.95
   2  -6 -1147173.94 4476.77
  -2  -6  1150196.67 5960.51
   2   6 -1038874.66 5765.38
   2  -6 -1034787.89 3908.32
  -2  -6  1033047.13 3948.25
   2   6  -921960.86 3517.03
   2  -6  -920245.79 2080.11
  -2  -6   916893.65 1967.07
   2  -6  -871456.52 7316.56
  -2  -6   874253.23 8584.68
   2  -6  -714056.27 1805.00
  -2  -6   711845.91 1587.33
   2  -6  -6 4112.46  883.46
  -2  -6   6 4631.99 1007.17
   2  -6  -513294.06 1562.01
  -2  -6   516061.02 1969.80
   2  -6  -4  588.18  699.54
  -2  -6   4  989.49  607.41
   2  -6  -311905.89 1478.77
  -2  -6   313022.81 1500.72
   2  -6  -237118.77 4171.61
  -2  -6   240769.01 4261.52
   2  -6  -180124.24 8998.00
  -2  -6   176801.60 8101.91
   2  -6   027781.98 2974.38
  -2  -6   029751.80 3098.12
   2  -6   1 1003.59  743.60
  -2  -6  -1   85.03  601.90
   2  -6   248437.01 5228.50
   2   6   248415.18 4732.36
  -2  -6  -253054.08 4697.54
  -2   6  -253307.40 9916.06
   2  -6   3 7640.55 1198.19
   2   6   3 5639.83  695.31
  -2  -6  -3 8308.22  992.03
  -2   6  -3 6741.36 2572.53
   2  -6   439172.37 3965.47
   2   6   429615.36 1856.32
  -2  -6  -441280.44 3181.46
  -2   6  -438895.47 6483.58
   2  -6   5 -122.44  727.49
   2   6   5  365.49  310.32
  -2  -6  -5 -524.49  316.82
  -2   6  -5  990.19 1635.63
   2  -6   6 1045.43  919.89
   2   6   6  344.40  231.93
  -2  -6  -6  298.53  312.82
  -2   6  -6 2315.24  801.27
   2  -6   713734.27 1874.00
  -2   6  -714865.34 2096.49
  -2  -6  -712889.87 1169.99
   2   6   840677.52 2856.37
   2  -6   845166.62 4767.58
  -2   6  -846482.04 6991.70
  -2  -6  -851259.72 4117.73
   2  -6   950375.16 6571.33
   2   6   946939.01 3175.52
  -2   6  -956032.93 8258.07
  -2  -6  -953634.36 4334.41
   2  -6  1034098.92 4044.44
  -2   6 -1039907.30 5213.49
   2  -6  1110148.42 1638.67
  -2  -6 -11 8255.20  479.46
  -2  -6 -1110476.59  732.19
  -2   6 -1111617.72 1389.04
   2  -6  12 1771.35  822.84
  -2  -6 -12  731.42  162.07
  -2  -6 -12  268.12  166.46
  -2   6 -12  767.57  775.81
   2  -6  13 5080.74 1102.37
  -2   6 -13 6235.30 1135.52
   2  -6  1420661.49 2771.24
  -2   6 -1421608.95 2506.92
   2  -6  1515962.66 2530.68
  -2   6 -1514087.93 1966.70
   2  -6  16 6319.07 1251.44
  -2  -6 -16 6197.04  471.92
  -2   6 -16 6412.13 1253.89
   2  -6  17 3653.94  879.14
  -2   6 -17 1779.48  812.28
   2  -6  1812912.17 1800.23
   2  -6  1810321.95  989.28
   2  -6  19 -675.24  833.71
   2  -6  19 -155.46  668.71
   2  -6  2040285.71 4325.98
   2  -6  2040760.75 4574.93
  -2  -6 -2034687.42 2526.06
   2  -6  21 1119.06  717.50
   2  -6  21 -670.45  629.26
  -2  -6 -21    0.17  151.69
   2  -6  22  261.33  823.13
   2  -6  22  120.33  426.27
   2  -6  23  610.30  748.35
   2  -6  23  722.35  883.44
   2  -6  24 1453.10  728.06
   2  -6  24 1293.81  821.81
   2  -6  25 2669.40  820.56
   2  -6  25 4276.45 1013.93
   2  -6  26  718.25  776.70
   2  -6  26 -220.87  569.62
   2  -6  27  -59.28  888.00
   2  -6  27  674.83  839.93
   2  -6  28 2353.84 1154.54
   2  -6  28 5849.74 1059.71
   2  -6  29 5156.36 1343.68
   2  -6  2911164.68 1648.82
   2  -6  30  595.53  979.26
   2  -6  30  505.15  764.51
   2  -6  31 1091.10  972.93
   2  -6  31  -76.19  762.47
   2  -6  32 2606.30 1359.24
   2  -6  32  228.23  809.34
   2  -6  33  194.48  940.67
   2  -6  33   28.13  968.27
   2  -6  34 3511.06 1298.74
   2  -6  35  -88.09 1020.34
   2  -6  36 2371.75 1229.83
  -2  -7  36 1815.91 1247.57
  -2  -7  35  527.82 1133.42
  -2  -7  34 4436.38 1930.65
   2  -7 -33  631.86  606.56
  -2  -7  33 -538.25 1498.66
   2  -7 -32  -14.87  765.75
  -2  -7  32   58.82 1033.20
   2  -7 -31 -165.43  809.80
  -2  -7  31 -927.46 1035.99
   2  -7 -30 5298.05  874.82
  -2  -7  30 4443.68 1390.22
   2  -7 -29  632.20  585.10
  -2  -7  29  731.59 1040.33
   2  -7 -28 1572.91  637.78
  -2  -7  28  653.50  991.88
   2  -7 -27 2245.91  664.65
  -2  -7  27 2743.91 1209.34
   2  -7 -26 1195.21  600.76
  -2  -7  26 1503.44  917.11
   2  -7 -25   -1.86  788.02
  -2  -7  25 1036.92  865.88
  -2  -7  25  233.42  503.56
   2  -7 -24 6470.50 1200.54
  -2  -7  24 6338.88 1291.40
  -2  -7  24 5634.16  875.13
   2  -7 -23 -953.19  521.13
  -2  -7  23 -148.61  327.06
  -2  -7  23 -216.18  819.24
   2  -7 -22 1220.83  588.06
  -2  -7  22 1422.61  378.60
  -2  -7  22 2371.98 1257.60
   2  -7 -21 5147.76  840.99
  -2  -7  21 3495.88  574.07
  -2  -7  21 4842.68 1341.51
   2  -7 -20 2936.77  599.90
  -2  -7  20 3154.81  946.01
  -2  -7  20 2905.97  500.94
   2  -7 -19 4591.86  716.85
  -2  -7  19 3588.92  561.11
  -2  -7  19 5060.21  977.48
   2  -7 -18 8476.22 1117.93
   2   7 -1810467.06 1186.27
  -2  -7  18 9371.37 1723.30
   2  -7 -17-1473.22  680.69
   2   7 -17  461.03  585.32
  -2  -7  17 -305.70  714.53
   2  -7 -16 8044.14 1344.29
   2   7 -1610516.00 1437.18
  -2  -7  16 8504.37 1418.51
   2  -7 -15 2470.11  585.77
   2   7 -15 1023.11  482.51
  -2  -7  15 1318.54  663.27
   2   7 -1468879.44 8605.19
   2  -7 -1474084.12 7549.30
  -2  -7  1470694.26 7885.72
   2  -7 -13  785.73  578.29
   2   7 -13 1454.26  741.77
  -2  -7  13 2282.34  757.64
   2   7 -1215133.89 2355.30
   2  -7 -1217262.31 1732.40
  -2  -7  1212605.11 1841.74
   2  -7 -1130806.75 2886.91
   2   7 -1129126.80 4286.55
  -2  -7  1130208.10 3574.09
   2   7 -1012769.23 2287.65
   2  -7 -10 9974.29 1237.32
  -2  -7  1011218.35 1534.24
   2  -7  -9 6872.21  977.94
  -2  -7   9 5921.22 1178.26
   2  -7  -8 5412.38  920.12
  -2  -7   8 5415.10 1059.60
   2  -7  -7 4419.97  807.83
  -2  -7   7 4237.67  879.25
   2  -7  -6 -301.20  588.47
  -2  -7   6 -111.63  921.39
   2  -7  -5 7324.96 1095.05
  -2  -7   5 5724.29  978.36
   2  -7  -411565.58 1552.09
  -2  -7   412227.01 1659.79
   2  -7  -316200.93 1838.11
  -2  -7   314776.01 1755.63
   2  -7  -237958.29 3899.57
  -2  -7   239485.31 4318.87
   2  -7  -1 2290.98  779.36
  -2  -7   1 2673.54  655.66
   2  -7   077956.39 8430.61
  -2  -7   081499.28 8129.67
   2  -7   1 1872.57  776.15
  -2  -7  -1 2711.04  806.15
   2  -7   2 1374.58  719.97
  -2  -7  -2 1656.46  730.40
  -2   7  -2 -923.54 1968.96
   2  -7   3 2275.87  817.80
  -2  -7  -3 1996.39  669.16
  -2   7  -3 2250.20 2177.04
   2  -7   4 7353.93 1169.69
  -2  -7  -4 8980.43 1215.73
  -2   7  -412135.83 2768.94
   2  -7   511116.89 1493.83
   2   7   5 9446.98  827.49
  -2  -7  -512087.85 1430.94
  -2   7  -513292.66 3293.64
   2  -7   6 7198.12 1238.33
   2   7   6 7282.51  714.32
  -2   7  -6 7349.45 2328.06
  -2  -7  -6 6392.98  897.74
   2  -7   7 9753.89 1904.04
  -2   7  -713731.44 2742.37
  -2  -7  -711010.16 1211.20
   2   7   818356.14 1252.17
   2  -7   818268.58 2953.64
  -2   7  -822127.05 3725.45
  -2  -7  -818521.82 1636.29
   2  -7   9 9143.19 1825.68
  -2   7  -9 7586.92 2146.64
  -2  -7  -9 7101.33  749.37
   2   7  1019873.73 1312.61
   2  -7  1024638.46 3598.22
  -2   7 -1022674.00 3509.39
   2  -7  11 2144.10  951.88
   2   7  11 1333.10  162.82
  -2   7 -11 1236.16 1009.22
  -2  -7 -11 1456.51  246.73
   2  -7  12 6416.30 1289.52
  -2   7 -12 9341.64 1555.59
  -2  -7 -12 5005.14  440.76
   2  -7  13 9848.79 1525.34
  -2   7 -13 7598.48 1429.15
   2  -7  14 -447.37 1088.98
  -2  -7 -14 -271.07  145.89
  -2   7 -14  813.41  759.98
  -2  -7 -14  -63.54  138.32
   2  -7  15  576.43  830.88
  -2  -7 -15  333.98  153.43
  -2   7 -15 1812.08  662.44
  -2  -7 -15  182.70  197.83
   2  -7  1614346.85 1993.25
  -2   7 -1611734.15 1284.38
   2  -7  17  732.69  653.03
  -2   7 -17-1344.01  685.55
  -2  -7 -17  293.34  146.76
  -2  -7 -17  -29.56  136.45
   2  -7  1817498.59 2769.87
  -2  -7 -1816871.55 1139.15
  -2   7 -1820150.88 2416.02
   2  -7  19 -676.21  631.29
  -2  -7 -19  645.20  168.97
  -2   7 -19  935.01  798.54
   2  -7  2019144.01 2389.04
   2  -7  2021767.39 2347.99
  -2  -7 -2013871.47  929.19
   2  -7  2111100.65 1556.33
   2  -7  2114010.08 1963.01
   2  -7  22 7808.02 1173.38
   2  -7  22 6402.33 1184.48
   2  -7  23 1354.32 1066.87
   2  -7  23 3435.89  881.81
   2  -7  24 2311.70 1207.28
   2  -7  24 3940.24  982.50
   2  -7  25 2423.12  902.58
   2  -7  25 2690.11 1152.16
   2  -7  26 2629.29 1188.75
   2  -7  26 4156.91 1043.43
   2  -7  27 1371.51  827.59
   2  -7  27 -586.43  633.74
   2  -7  28 3915.16 1072.20
   2  -7  28 2950.77  886.92
   2  -7  29  549.25  719.65
   2  -7  29 2454.15  895.61
   2  -7  30  604.18  743.90
   2  -7  30 1751.78  902.82
   2  -7  31  757.19  887.81
   2  -7  31   48.44 1096.96
   2  -7  32 4124.94 1675.62
   2  -7  3214478.91 2000.04
   2  -7  33 1304.64 1010.39
   2  -7  33  668.06  857.92
   2  -7  34 5566.59 1440.44
   2  -7  35  682.21 1056.18
   2  -7  36 4122.81 1378.50
  -2  -8  35-1352.76 1200.02
  -2  -8  34  -14.63 1101.98
  -2  -8  33 3525.23 1772.67
   2  -8 -32  776.72  609.34
  -2  -8  32 -908.44 1048.63
   2  -8 -31  214.71  803.64
  -2  -8  31   -1.69  975.06
   2  -8 -30  659.01  808.26
  -2  -8  30 1289.63 1098.22
   2  -8 -29   72.55  770.44
  -2  -8  29-2010.27  987.84
   2  -8 -28 3810.71  944.70
   2  -8 -27 -539.71  751.74
  -2  -8  27  122.94  917.86
   2  -8 -26 5890.55  851.99
  -2  -8  26 8247.76 1486.29
   2  -8 -25  272.57  534.28
  -2  -8  25  567.75  910.89
   2  -8 -24  996.97  599.44
  -2  -8  24 1727.03  963.84
  -2  -8  24  911.27  414.36
   2  -8 -2310861.78 1268.46
  -2  -8  2312029.96 2415.30
  -2  -8  23 8738.32  956.51
   2  -8 -2219990.23 2154.73
  -2  -8  2223281.70 3410.83
  -2  -8  2220917.09 1957.76
   2  -8 -21 2757.04  843.95
  -2  -8  21  875.33  886.76
  -2  -8  21 2879.73  574.34
   2   8 -20 4012.18  673.96
   2  -8 -20 4477.16  720.17
  -2  -8  20 3689.47 1080.14
   2   8 -19  389.83  711.59
   2  -8 -19 1463.67  563.16
  -2  -8  19-1072.59  729.40
   2   8 -18 1079.94  553.35
   2  -8 -18 3783.78  738.30
  -2  -8  18 2726.71  895.89
   2   8 -17 1041.42  514.19
   2  -8 -17 1637.66  607.04
  -2  -8  17 1756.24  813.71
   2   8 -16 6070.29 1130.10
   2  -8 -16 6051.96  952.12
  -2  -8  16 7576.51 1484.97
   2  -8 -15  747.76  600.99
   2   8 -15  734.48  648.99
  -2  -8  15 1580.22  803.43
   2  -8 -1421557.02 2170.44
   2   8 -1425706.44 3103.63
  -2  -8  1421853.45 2823.73
   2  -8 -13 2192.79  847.44
   2   8 -13 2164.48 1157.46
  -2  -8  13 1464.19  697.36
   2  -8 -12 1834.14  632.12
   2   8 -12 2739.20 1451.26
  -2  -8  12  994.52  685.68
   2   8 -11 3774.27 1291.42
   2  -8 -11 4207.50  976.72
  -2  -8  11 4809.01  964.60
   2   8 -10 2255.75 1215.89
   2  -8 -10 1723.00  644.03
  -2  -8  10  543.48  685.06
   2  -8  -9 3997.22  796.04
  -2  -8   9 3259.61  886.04
   2  -8  -865991.41 6302.42
  -2  -8   861567.24 7534.78
   2  -8  -7 6963.69 1046.63
  -2  -8   7 6841.37 1136.25
   2  -8  -620982.76 2145.82
  -2  -8   619886.97 2451.79
   2  -8  -5  104.07  638.38
  -2  -8   5 -100.65  627.83
   2  -8  -4 1186.80  717.15
  -2  -8   4 2360.87  755.36
   2  -8  -3 5551.70  995.30
  -2  -8   3 5078.86 1266.52
   2  -8  -223153.24 2450.76
  -2  -8   221524.81 2439.48
   2  -8  -110546.09 1465.75
  -2  -8   110085.49 1233.82
   2  -8   0113950.213646.87
  -2  -8   0124486.714365.60
   2  -8   134767.87 3507.48
  -2  -8  -131715.09 3129.91
   2  -8   2 6633.13  962.38
  -2  -8  -2 3403.50  824.52
   2  -8   310412.24 1505.66
  -2  -8  -312946.94 1401.01
  -2   8  -312240.24 2466.84
   2  -8   4115854.515027.08
  -2  -8  -4122659.613516.06
  -2   8  -4140167.125159.33
   2  -8   5  605.97  778.03
  -2   8  -5 1306.34 1959.40
  -2  -8  -5 1350.21  608.25
   2  -8   6  620.44  839.50
  -2   8  -6-1368.68 1952.53
  -2  -8  -6  972.42  619.45
   2  -8   7  515.70  788.69
  -2  -8  -7 1002.32  528.16
  -2   8  -7-1550.56  879.55
   2   8   8 3888.29  468.37
   2  -8   8 3520.50  941.22
  -2  -8  -8 3844.91  695.34
  -2   8  -8 3288.34 1506.76
   2  -8   9 4734.40 1195.08
  -2   8  -9 3908.00 1406.56
  -2  -8  -9 3863.06  583.16
   2  -8  1021480.49 3529.85
  -2  -8 -1019617.58 1644.68
  -2   8 -1021756.62 3572.43
   2   8  11 -258.25  149.10
   2  -8  11  739.96  913.28
  -2   8 -11 -778.56 1170.86
   2  -8  12 7377.25 1357.09
  -2   8 -12 6004.12 1383.64
  -2  -8 -12 6986.62  657.44
   2  -8  13 1707.41  876.89
  -2  -8 -13  292.81  268.88
  -2   8 -13  119.65  938.44
  -2  -8 -13  729.88  163.82
   2  -8  1490775.8912188.06
  -2   8 -14113589.814181.03
  -2  -8 -1477204.58 6840.94
  -2  -8 -1482927.88 7034.98
   2  -8  15 2270.06  824.97
  -2  -8 -15 1977.18  213.48
  -2   8 -15 3193.54  922.91
  -2  -8 -15 2404.08  366.91
   2  -8  16   19.95 1122.53
  -2   8 -16 -326.87  720.02
  -2  -8 -16   12.19  167.73
   2  -8  17 1531.94  722.40
  -2   8 -17 -426.94  708.79
  -2  -8 -17  809.46  195.14
   2  -8  1810582.94 1772.01
  -2   8 -1816754.55 2144.38
  -2  -8 -1812571.90  909.08
   2  -8  19  637.02  741.72
  -2  -8 -19 1082.16  217.79
  -2   8 -19 1917.21  821.49
   2  -8  20 5789.91 1434.75
  -2   8 -20 5086.55 1101.96
   2  -8  21 -796.09  994.66
   2  -8  21  -62.36  406.90
   2  -8  22 1527.54  811.84
   2  -8  22 1746.76 1193.09
   2  -8  23 1915.86  785.86
   2  -8  23 1314.09 1281.72
   2  -8  2415724.36 2796.92
   2  -8  2423172.99 2949.18
   2  -8  25 2257.93 1136.81
   2  -8  25 2401.59 1042.70
   2  -8  26 6851.07 1649.59
   2  -8  26 6978.63 1308.18
   2  -8  27 3505.18  936.17
   2  -8  27 2421.61  968.64
   2  -8  2812009.43 1713.41
   2  -8  2811388.96 1704.32
   2  -8  29  304.53  739.72
   2  -8  29 -284.69  902.07
   2  -8  30 4226.86 1105.92
   2  -8  3013884.07 1743.93
   2  -8  31 2959.70 1296.13
   2  -8  31 4302.08 1146.08
   2  -8  32 1394.27  941.37
   2  -8  32  475.79  905.84
   2  -8  33  388.51 1004.27
   2  -8  33  446.70  866.82
   2  -8  34 2081.10 1200.32
   2  -8  35-1139.19 1101.12
  -2  -9  35 1320.41 1267.27
  -2  -9  34  -38.32 1131.62
  -2  -9  33 1700.64 1247.19
  -2  -9  32 -368.40 1062.03
   2  -9 -31 2206.58  782.54
  -2  -9  31 -407.98 1566.80
   2  -9 -30 2014.26  724.30
  -2  -9  30 2125.63 1242.45
   2  -9 -29 3612.54  806.34
  -2  -9  29 3394.83 1184.71
   2  -9 -28  -82.95  589.67
  -2  -9  28  353.95  902.77
   2  -9 -27 2885.57  712.62
  -2  -9  27 2009.96 1102.04
   2  -9 -26 2344.46  693.41
  -2  -9  26 2759.16 1090.30
   2  -9 -25 4046.71 1000.85
  -2  -9  25 1349.46  998.78
   2  -9 -24 1351.44  739.73
  -2  -9  24 3545.23  755.46
  -2  -9  24 4187.55 1050.77
   2  -9 -23 4966.46  802.43
  -2  -9  23 2453.27  589.26
  -2  -9  23 3247.85 1113.45
   2  -9 -22  642.04  583.53
  -2  -9  22 1644.10 1232.43
  -2  -9  22 1118.24  486.68
   2  -9 -21 1702.92  781.28
   2   9 -21 1132.80  543.77
  -2  -9  21 -420.43  863.32
   2  -9 -2015468.13 1772.67
   2   9 -2014898.04 1949.64
  -2  -9  2011768.58 1992.97
   2  -9 -19 2937.01  725.78
   2   9 -19 1537.70  696.76
  -2  -9  19 3050.02  895.26
   2  -9 -18 7123.23 1069.20
   2   9 -18 6191.87 1233.30
  -2  -9  18 6641.90 1189.01
   2   9 -17  924.74  635.52
   2  -9 -17  618.73  752.30
  -2  -9  17-1048.07  614.65
   2   9 -1614162.53 1926.81
   2  -9 -1614850.49 1911.71
  -2  -9  1613301.96 2234.74
   2   9 -1520723.88 3040.92
   2  -9 -1521997.91 2211.03
  -2  -9  1522698.11 2660.72
   2   9 -14 2893.20 1019.57
   2  -9 -14 6065.65  931.64
  -2  -9  14 5297.33  999.07
   2  -9 -13 4162.98  776.31
   2   9 -13 2860.63 1144.51
  -2  -9  13 5121.05  895.20
   2  -9 -1221389.00 2154.86
   2   9 -1219947.68 3635.67
  -2  -9  1221734.45 2629.70
   2   9 -11-1537.28 1852.89
   2  -9 -11 1861.86  618.59
  -2  -9  11 2672.36  831.60
   2   9 -1015283.04 2712.04
   2  -9 -1014961.77 1740.72
  -2  -9  1016068.82 2051.34
   2  -9  -963712.28 6153.05
  -2  -9   966347.39 7756.90
   2  -9  -8  311.46  604.66
  -2  -9   8  605.44  686.59
   2  -9  -716637.06 2185.19
  -2  -9   714355.24 2111.09
   2  -9  -626130.53 2672.40
  -2  -9   626966.46 3039.71
   2  -9  -5  820.21  619.19
  -2  -9   5 -875.88  649.25
   2  -9  -436194.22 3581.74
  -2  -9   440298.32 3966.09
   2  -9  -3 5526.22  996.90
  -2  -9   3 4939.30 1197.24
   2  -9  -215192.80 1750.74
  -2  -9   215416.39 1807.93
   2  -9  -117144.06 1877.82
  -2  -9   119738.57 2510.14
   2  -9   0 8526.55 1674.47
  -2  -9   0 7420.54 1174.65
   2  -9   1 5667.66  984.78
  -2  -9  -1 3387.07  770.24
   2  -9   2 2325.99  774.26
  -2  -9  -2 4531.01  968.81
   2  -9   3-1003.53  717.28
  -2  -9  -3-1179.41  716.54
  -2   9  -3  966.30 1856.28
   2  -9   410487.37 1495.27
  -2   9  -414039.34 3923.00
  -2  -9  -410421.59 1411.54
   2  -9   5  753.63  827.26
  -2   9  -5  381.58 1602.60
  -2  -9  -5 -177.18  636.47
   2  -9   617438.31 2380.82
  -2   9  -621914.16 4574.36
  -2  -9  -619722.22 2044.21
   2  -9   7 8949.70 1427.00
  -2   9  -7 9499.50 1847.59
  -2  -9  -710155.51 1269.97
   2  -9   8 7941.63 1392.28
  -2  -9  -8 8666.85 1064.16
  -2   9  -8 4293.75 2205.33
   2  -9   9 9780.94 1838.33
  -2   9  -9 8463.08 1694.64
  -2  -9  -9 9208.56 1041.60
   2  -9  1035445.94 4706.44
  -2  -9 -1038632.01 3431.06
  -2   9 -1043712.25 6752.89
   2  -9  1135819.07 4614.38
  -2  -9 -1138022.26 3521.57
  -2   9 -1136178.32 5649.93
   2  -9  12 5078.11 1217.76
  -2   9 -12 4612.17 1489.78
  -2  -9 -12 4740.14  717.27
   2  -9  1314939.89 2369.03
  -2   9 -1313294.16 2605.50
  -2  -9 -1315916.11 1253.12
   2  -9  14 6878.36 1404.75
  -2  -9 -14 5572.56  619.76
  -2   9 -14 7075.51 1499.25
   2  -9  15 1077.63 1159.84
  -2  -9 -15  500.56  290.47
  -2   9 -15  -94.97  886.46
   2  -9  16 3920.91 1176.10
  -2   9 -16 3659.27 1207.40
  -2  -9 -16 3688.77  460.27
   2  -9  1721354.22 3097.84
  -2   9 -1719636.71 2794.07
  -2  -9 -1720505.98 1514.63
   2  -9  18 1036.24  867.39
  -2   9 -18 1590.12  795.73
  -2  -9 -18  510.44  219.45
   2  -9  19 1125.67  858.29
  -2   9 -19  325.04  754.01
   2  -9  20 1655.23  766.58
  -2   9 -20  155.76  842.10
   2  -9  21  826.58  847.71
  -2   9 -21 2068.21  899.36
   2  -9  22 6192.64 1134.96
  -2   9 -22 2756.20 1278.96
   2  -9  23 6961.49 1468.87
   2  -9  23 7933.03 1287.15
   2  -9  24 1012.94  876.37
   2  -9  24 1480.07  856.77
   2  -9  25  805.77  804.64
   2  -9  25  689.35  848.97
   2  -9  26 3323.97 1015.09
   2  -9  26 5045.76 1163.70
   2  -9  27 7635.53 1400.09
   2  -9  27 8921.20 1524.64
   2  -9  28  164.28 1044.02
   2  -9  28  443.71  877.52
   2  -9  29  691.02  898.29
   2  -9  29  772.21  778.35
   2  -9  30  620.34  825.08
   2  -9  30 1794.63  975.05
   2  -9  31 -155.20  921.18
   2  -9  31  574.98  822.43
   2  -9  32 3774.71 1478.77
   2  -9  32 1237.90 1276.46
   2  -9  33  583.90  955.67
   2  -9  33  -47.87  881.06
   2  -9  34 1758.18 1081.38
   2  -9  34 1962.01 1105.18
  -2 -10  34 -335.63 1141.72
  -2 -10  33  961.56 1182.02
  -2 -10  32 -363.92 1094.84
   2 -10 -30 1050.58  681.21
  -2 -10  30 1050.82 1034.04
   2 -10 -29   37.25  624.02
  -2 -10  29  752.25  972.44
   2 -10 -28 1911.65  677.13
  -2 -10  28  -53.97  963.21
   2 -10 -27   86.10  843.61
  -2 -10  27 2149.20 1386.49
   2 -10 -26  -40.26  749.10
  -2 -10  26   64.92  913.97
   2 -10 -25  127.87  544.08
  -2 -10  25 -206.89  865.66
   2 -10 -24  997.79  791.99
  -2 -10  24 -472.28  864.71
   2 -10 -23 3175.87  797.87
  -2 -10  23 1956.21 1128.08
  -2 -10  23 2896.19  414.15
   2 -10 -22 3049.29  684.58
   2  10 -22 1759.14  693.65
  -2 -10  22 3562.46  964.59
   2 -10 -2124400.29 2524.80
   2  10 -2125231.82 2808.24
  -2 -10  2123904.60 3568.96
   2  10 -20  453.82  563.34
   2 -10 -20  567.48  785.58
  -2 -10  20 2187.80  863.18
   2  10 -19 1023.74  815.15
   2 -10 -19  316.38  781.90
  -2 -10  19  321.16  827.03
   2 -10 -18 2259.94  641.59
   2  10 -18 1996.67  821.98
  -2 -10  18 1423.10  825.11
   2 -10 -1725027.41 2417.93
   2  10 -1721078.74 3195.61
  -2 -10  1722763.12 3197.74
   2  10 -16 8921.43 1740.05
   2 -10 -16 9547.93 1183.24
  -2 -10  1610447.06 1711.83
   2 -10 -15 2223.27  614.74
   2  10 -15 2183.22  971.49
  -2 -10  15 1731.57  844.14
   2  10 -14 3621.17 2328.95
   2 -10 -14 8226.79 1393.19
  -2 -10  14 8957.42 1426.00
   2  10 -13 5620.09 2079.96
   2 -10 -13 6425.12  932.16
  -2 -10  13 8391.91 1453.63
   2  10 -1228243.53 4427.60
   2 -10 -1224094.79 2343.59
  -2 -10  1224311.63 3334.64
   2  10 -1143973.13 6527.19
   2 -10 -1132702.43 3187.87
  -2 -10  1136691.52 4278.91
   2 -10 -10 1970.82  733.20
  -2 -10  10 2714.85  757.73
   2 -10  -9 2280.31  724.03
  -2 -10   9 3757.99  828.33
   2 -10  -8 3061.98  767.94
  -2 -10   8 2033.01  783.11
   2 -10  -741466.71 4315.75
  -2 -10   738840.24 4931.63
   2 -10  -6 -205.96  659.79
  -2 -10   6 -141.00  665.82
   2 -10  -5  763.57  673.94
  -2 -10   5 1205.25  667.06
   2 -10  -422513.22 2301.29
  -2 -10   425297.34 2635.43
   2 -10  -3 6282.82 1344.36
  -2 -10   3 5614.41  879.98
   2 -10  -2 5606.34 1037.13
  -2 -10   2 7930.91 1410.99
   2 -10  -1  999.89  729.89
  -2 -10   1  659.95  635.66
   2 -10   041163.52 4325.21
  -2 -10   040284.01 4526.64
   2 -10   1  412.84  689.23
  -2 -10  -1  293.09  581.04
   2 -10   2 2213.80  810.93
  -2 -10  -2 2191.31  917.73
   2 -10   340706.62 4359.38
  -2 -10  -339617.75 4463.01
   2 -10   410779.56 1818.98
  -2  10  -412619.46 2986.25
  -2 -10  -410999.20 1378.48
   2 -10   5 9188.28 1452.52
  -2  10  -511135.48 2963.93
  -2 -10  -5 9378.48 1430.78
   2 -10   631809.04 4003.37
  -2 -10  -642710.95 3911.24
  -2  10  -632372.26 5332.89
   2 -10   7 2306.38  865.20
  -2  10  -7 -819.98 2014.92
  -2 -10  -7 1691.70  715.10
   2 -10   8 1566.63  801.68
  -2  10  -8-1222.14 1543.75
  -2 -10  -8  309.43  579.00
   2 -10   917016.35 2691.61
  -2  10  -921096.23 4131.26
  -2 -10  -919927.39 1957.23
   2 -10  10 1446.91 1110.64
  -2 -10 -10 1435.44  583.80
  -2  10 -10 1498.18 1301.90
   2 -10  11 3118.19 1537.06
  -2  10 -11 4695.45 1671.43
  -2 -10 -11 3880.00  686.50
   2 -10  12  730.61 1030.10
  -2  10 -12 1793.19 1381.84
  -2 -10 -12 1901.21  539.80
   2 -10  1321960.74 3185.23
  -2  10 -1322118.10 4007.46
  -2 -10 -1324555.88 2125.46
   2 -10  14 6015.42 1410.49
  -2  10 -14 2444.37 1317.48
  -2 -10 -14 7281.57  779.85
   2 -10  15 4454.83 1076.14
  -2  10 -15 3896.00 1304.85
  -2 -10 -15 2345.93  442.40
   2 -10  16 1152.01  890.66
  -2  10 -16 1006.65  677.31
  -2 -10 -16  501.80  358.20
   2 -10  17 1528.77 1035.39
  -2  10 -17 4085.57 1000.63
  -2 -10 -17 1490.55  416.62
   2 -10  18 2545.45  927.50
  -2  10 -18 -339.51  824.22
   2 -10  19-1268.51  823.44
  -2  10 -19 -145.20  791.01
   2 -10  20 -895.10  731.67
  -2  10 -20   23.30  783.49
   2 -10  21 1354.07  825.43
  -2  10 -21 1242.15  851.14
   2 -10  22 2027.23  904.15
  -2  10 -22  878.10  903.84
   2 -10  23 7192.18 1493.07
  -2  10 -23 7727.80 1353.52
   2 -10  24 2910.73 1088.56
   2 -10  24 5461.57 1113.25
   2 -10  2521216.79 3266.86
   2 -10  2522691.44 2770.62
   2 -10  26 1204.06 1213.56
   2 -10  26  760.51  855.20
   2 -10  27 -980.01  771.30
   2 -10  27  462.16  880.92
   2 -10  28 1253.17  944.77
   2 -10  28  851.25  818.75
   2 -10  29  737.12  943.28
   2 -10  29 3918.03 1143.73
   2 -10  30 4320.90 1763.94
   2 -10  30 8773.33 1581.84
   2 -10  31 2467.11 1120.54
   2 -10  31 7832.98 1377.01
   2 -10  32  942.36 1069.61
   2 -10  32 1602.15  972.25
   2 -10  33  953.15 1058.41
   2 -10  33  573.12  876.44
   2 -10  34 1918.11 1128.15
   2 -10  34 1369.01 1077.95
  -2 -11  33  948.24 1225.34
  -2 -11  32 -132.65  991.50
  -2 -11  31 3464.38 1265.62
  -2 -11  30 -550.15 1368.16
   2 -11 -29 3475.60  927.28
  -2 -11  29 2124.49 1178.08
   2 -11 -28  302.53  853.80
  -2 -11  28  250.70  967.83
   2 -11 -27  217.96  864.75
  -2 -11  27 1165.09  894.24
   2 -11 -26 -529.30  591.55
  -2 -11  26 -145.65  885.64
   2 -11 -2511042.08 1454.08
  -2 -11  25 6940.82 1464.37
   2 -11 -24 3325.23  989.13
  -2 -11  24 2534.91 1132.29
   2 -11 -23 1369.38  614.57
  -2 -11  23 -116.85  852.28
   2 -11 -22 -394.63  749.07
  -2 -11  22 3647.62 1267.15
   2  11 -2112286.69 1632.09
   2 -11 -2115290.06 1694.96
  -2 -11  2112521.67 2221.35
   2  11 -2011374.84 1621.69
   2 -11 -2011385.24 1440.58
  -2 -11  2010694.17 2084.86
   2  11 -19 6413.31 1740.69
   2 -11 -19 9330.93 1187.89
   2 -11 -18 1341.40  798.57
   2  11 -18 1495.49  848.04
  -2 -11  18 1120.65  847.12
   2 -11 -17  -48.94  766.87
   2  11 -17 1592.91  970.91
  -2 -11  17  107.60  713.88
   2  11 -16 1507.19 1459.86
   2 -11 -16 2813.78  940.20
  -2 -11  16 2450.61 1112.93
   2  11 -15 8650.36 1632.70
   2 -11 -1512949.77 1414.27
  -2 -11  1514992.62 1965.36
   2  11 -14 2101.00 1987.25
   2 -11 -14 2881.51  672.89
  -2 -11  14 1613.48  891.78
   2  11 -1310710.96 2303.84
   2 -11 -13 8154.41 1141.71
  -2 -11  13 9492.84 1598.62
   2  11 -1210785.46 2408.87
   2 -11 -1214024.94 1822.69
  -2 -11  1211591.99 1820.37
   2 -11 -1113366.49 1576.63
   2  11 -11 9054.05 2467.33
  -2 -11  1113423.02 1921.32
   2 -11 -10 -787.04  584.63
  -2 -11  10  854.58  763.84
   2 -11  -923881.53 2377.45
  -2 -11   926333.92 3267.98
   2 -11  -8 1965.71  969.26
  -2 -11   8 2591.63  799.17
   2 -11  -7  -99.47  652.41
  -2 -11   7 -587.62  731.00
   2 -11  -6 -155.68  657.62
  -2 -11   6  583.35  676.79
   2 -11  -530316.65 3096.34
  -2 -11   535670.17 3668.27
   2 -11  -4   93.16  666.51
  -2 -11   4  618.54  586.08
   2 -11  -328567.81 3039.44
  -2 -11   329030.18 3356.68
   2 -11  -2 1597.09 1041.65
  -2 -11   2 2172.31  953.75
   2 -11  -1 4625.89 1010.50
  -2 -11   1 4363.22  868.57
   2 -11   0 1105.97  682.61
  -2 -11   0  560.33  585.94
   2 -11   167256.97 7610.95
  -2 -11  -168668.32 7692.07
   2 -11   2   91.63  744.42
  -2 -11  -2  284.27  543.42
   2 -11   3 -533.84  725.90
  -2 -11  -3 -801.74  839.06
   2 -11   4  814.32  813.75
  -2  11  -4 -594.20 1864.89
  -2 -11  -4 1265.60  856.61
   2 -11   561144.33 7359.35
  -2  11  -563901.7512091.29
  -2 -11  -563917.16 6938.18
   2 -11   6 1504.70  924.97
  -2  11  -6 1334.10 1302.86
  -2 -11  -6 1275.49  792.41
   2 -11   725958.12 3180.71
  -2 -11  -730513.88 3050.36
  -2  11  -723668.91 5601.37
   2 -11   8  404.96 1050.58
  -2  11  -8 1112.18 1693.46
  -2 -11  -8 2149.55  752.70
   2 -11   9 -519.75  958.15
  -2  11  -9 -914.20 1623.91
  -2 -11  -9  531.21  631.12
   2 -11  10 3694.03 1280.27
  -2  11 -10 4663.87 2059.46
  -2 -11 -10 4733.30  868.41
   2 -11  1149381.92 7047.73
  -2  11 -1155454.96 8574.51
  -2 -11 -1149280.38 5004.77
   2 -11  12 1290.85 1015.29
  -2  11 -12 1078.63 1484.74
  -2 -11 -12 -308.94  445.33
   2 -11  13 3665.98 1088.64
  -2  11 -13 3148.56 1509.44
  -2 -11 -13 1942.62  583.53
   2 -11  14 8944.61 1773.14
  -2  11 -1411185.91 2384.97
  -2 -11 -14 9035.14 1014.00
   2 -11  15 3075.44 1047.52
  -2 -11 -15 2117.16  523.01
  -2  11 -15 4288.85  864.53
   2 -11  16 4258.84 1140.97
  -2 -11 -16 3796.15  584.29
  -2  11 -16 5124.96 1382.68
   2 -11  17 2094.60 1060.07
  -2  11 -17 3460.08 1368.83
   2 -11  18 4981.54 1203.56
  -2  11 -18 2266.45 1027.62
   2 -11  19 5812.11 1233.73
  -2  11 -19 4286.92 1146.80
   2 -11  2030987.63 3955.31
  -2  11 -2030983.80 3757.97
   2 -11  2112495.18 2454.64
  -2  11 -2110917.62 1869.67
   2 -11  22 -364.66  876.07
  -2  11 -22 1213.34  816.64
   2 -11  23 4327.46 1177.48
  -2  11 -23 4700.09 1261.31
   2 -11  24 2246.00  954.07
  -2  11 -24  998.84  943.33
   2 -11  25 1690.37  559.71
   2 -11  25 2062.75 1060.21
   2 -11  26 1463.22 1349.57
   2 -11  26 1278.15  955.61
   2 -11  2720052.69 3039.54
   2 -11  2718320.71 2564.40
   2 -11  28 1771.50  972.00
   2 -11  28 1084.91 1060.96
   2 -11  29 1164.89  871.26
   2 -11  29  794.53 1043.64
   2 -11  30 -570.06  781.53
   2 -11  30  121.79 1025.93
   2 -11  31 3918.19 1166.07
   2 -11  31 6497.03 1405.16
   2 -11  32 -401.69  879.40
   2 -11  32 1246.59 1043.69
   2 -11  33 2885.13 1193.93
   2 -11  33 1193.65 1058.75
  -2 -12  32  398.33 1095.05
  -2 -12  31 4393.35 1777.15
  -2 -12  30 -244.47  978.20
  -2 -12  29  621.88 1001.12
   2 -12 -28 1827.45 1020.23
  -2 -12  28  492.31  993.91
   2 -12 -27 4315.27 1176.66
  -2 -12  27 2983.50 1151.03
   2 -12 -26  451.09  652.02
  -2 -12  26  246.54  934.77
   2 -12 -25 1313.62  942.46
  -2 -12  25 1438.64  953.72
   2 -12 -24  -58.95  618.59
  -2 -12  24 -340.37  773.93
   2 -12 -23 3007.55  787.45
  -2 -12  23 1017.99 1272.20
   2 -12 -22  228.07  591.14
  -2 -12  22   64.84  814.73
   2 -12 -21 1577.91  893.71
  -2 -12  21 1912.61  862.49
   2 -12 -20   41.08  571.23
   2  12 -20 2122.22  708.40
  -2 -12  20 1464.26  909.82
   2 -12 -19 8339.41 1140.44
   2  12 -19 8619.97 1573.30
  -2 -12  19 9235.22 1668.10
   2 -12 -18 1937.10  665.92
   2  12 -18 1458.19 1147.39
  -2 -12  18 2060.75  808.42
   2  12 -1712804.16 2593.21
   2 -12 -1715616.88 1779.02
  -2 -12  1715990.56 2622.26
   2  12 -16  819.09 1143.36
   2 -12 -16 2767.06  909.95
  -2 -12  16  679.57  758.82
   2  12 -15 1118.76 1434.96
   2 -12 -15 1290.79  692.36
  -2 -12  15 1620.58  864.44
   2 -12 -14 3833.58  802.09
   2  12 -14 1762.94 1555.56
  -2 -12  14 2413.08  932.72
   2  12 -1311786.43 2654.54
   2 -12 -1314729.60 1796.56
  -2 -12  1313035.58 2144.46
   2  12 -12 1305.57 2503.00
   2 -12 -12 2816.44  725.89
  -2 -12  12 1625.06  806.16
   2  12 -1177011.5013309.20
   2 -12 -1175234.04 8619.46
  -2 -12  1180932.92 9746.82
   2 -12 -10 3851.72  828.60
  -2 -12  10 3335.68  972.07
   2 -12  -9  465.70  920.89
  -2 -12   9  249.83  748.57
   2 -12  -828233.18 2910.26
  -2 -12   827644.56 3333.91
   2 -12  -748762.46 5550.29
  -2 -12   752670.76 6271.39
   2 -12  -6 1881.75  734.85
  -2 -12   6 3130.09  811.88
   2 -12  -5 4971.93  975.39
  -2 -12   5 4639.30  931.46
   2 -12  -4 -928.58  699.52
  -2 -12   4 -241.73  657.23
   2 -12  -312659.33 1624.30
  -2 -12   311524.12 1679.11
   2 -12  -2 3078.41  810.50
  -2 -12   2 1661.99  731.50
   2 -12  -127997.50 3000.49
  -2 -12   133702.11 3548.58
   2 -12   023051.41 2660.89
  -2 -12   025096.46 3029.98
   2 -12   1  371.42  740.18
  -2 -12  -1 -610.38  651.74
   2 -12   2 -151.84  739.67
  -2 -12  -2-1131.62  919.52
   2 -12   340064.09 4623.35
  -2 -12  -342805.20 4656.96
   2 -12   4 7223.81 1398.71
  -2 -12  -4 5422.99  945.21
  -2  12  -4 5786.09 1695.42
   2 -12   542809.52 5083.39
  -2 -12  -540669.85 4449.57
  -2  12  -536569.52 7932.01
   2 -12   6  906.96  828.64
  -2 -12  -6 1224.69  601.96
  -2  12  -6  529.88 2212.07
   2 -12   7 2961.79  950.19
  -2  12  -7 3641.41 2185.22
  -2 -12  -7 2620.82  844.10
   2 -12   813461.72 2053.01
  -2  12  -8 6138.20 3148.62
  -2 -12  -815140.01 1810.60
   2 -12   9 9248.87 2267.24
  -2 -12  -9 7744.39 1002.12
  -2  12  -9 5926.99 2442.63
   2 -12  10 4679.03 1507.30
  -2  12 -10 1434.57 1843.77
  -2 -12 -10  511.22  747.39
   2 -12  11 7325.77 1517.78
  -2  12 -11 2636.92 1690.63
  -2 -12 -11 6242.27  966.74
   2 -12  12  290.11  957.40
  -2  12 -12 2054.62 1468.35
  -2 -12 -12 1149.23  688.47
   2 -12  13 1074.11 1020.91
  -2  12 -13  159.17 1432.69
  -2 -12 -13 -232.17  579.42
   2 -12  14  900.22 1033.16
  -2  12 -14 1283.96 1498.66
  -2 -12 -14 2077.86  676.35
   2 -12  15 8750.67 1695.47
  -2  12 -15 1069.09 2349.22
  -2 -12 -15 8785.14 1067.87
   2 -12  16 1364.78  911.92
  -2  12 -16 -783.00 1120.73
   2 -12  17 3999.77 1326.42
  -2  12 -17 6850.58 1451.44
   2 -12  18 3205.73 1034.67
  -2  12 -18  995.37  989.70
   2 -12  19 1390.02 1295.74
  -2  12 -19-1815.83  868.26
   2 -12  20-1121.95  990.17
  -2  12 -20  606.12  847.05
   2 -12  21  375.66  831.93
  -2  12 -21 -828.18  818.53
   2 -12  22 -688.08  811.44
  -2  12 -22  823.86  827.43
   2 -12  23 4846.15 1509.77
  -2  12 -23 4768.33 1108.28
   2 -12  24  417.06  948.02
  -2  12 -24 1654.27  920.54
   2 -12  25 7429.17 1557.60
  -2  12 -2513833.51 1981.63
   2 -12  26 -441.28  965.30
   2 -12  26 -749.88  568.43
   2 -12  27  296.02  866.10
   2 -12  27  441.33  959.97
   2 -12  28 2395.00 1141.35
   2 -12  28 1387.24  984.74
   2 -12  29 1604.80  999.59
   2 -12  29 1657.26 1215.14
   2 -12  30  267.02  837.71
   2 -12  30  160.10 1123.15
   2 -12  31 2048.85 1073.82
   2 -12  31 4634.72 1432.54
   2 -12  32  268.90  921.69
   2 -12  32 1092.86 1148.37
  -2 -13  30  842.49 1034.83
  -2 -13  29 1058.38 1035.04
  -2 -13  28-1190.04  953.87
   2 -13 -27 1278.77  711.34
  -2 -13  27  844.83  971.90
   2 -13 -26 8460.48 1189.70
  -2 -13  26 3378.44 1247.27
   2 -13 -25 2097.99  999.72
  -2 -13  25 1337.69  920.88
   2 -13 -24  746.37  677.10
  -2 -13  24 1395.37  859.31
   2 -13 -23 6761.71 1128.31
  -2 -13  23 5674.11 1541.91
   2 -13 -22 2604.11  740.80
  -2 -13  22 1356.28  926.45
   2 -13 -21  615.33  900.07
  -2 -13  21  310.09  888.59
   2  13 -2015065.13 2712.76
   2 -13 -2020762.01 2274.76
  -2 -13  2018146.96 2784.70
   2  13 -19 1190.83  998.86
   2 -13 -19 1616.30  692.13
  -2 -13  19 2319.78  903.06
   2 -13 -1818356.47 2154.11
   2  13 -1815364.69 3173.73
  -2 -13  1819740.04 2653.63
   2  13 -17  862.05 1101.82
   2 -13 -17  888.86  876.83
  -2 -13  17  454.76  766.78
   2  13 -16 3007.05 1418.11
   2 -13 -16 5577.67 1169.41
  -2 -13  16 7282.43 1701.11
   2  13 -15 4101.41 1670.50
   2 -13 -15 3086.73 1026.67
  -2 -13  15 3203.25 1003.57
   2 -13 -1419847.44 2484.86
  -2 -13  1417729.35 2654.66
   2 -13 -13 3819.96  801.68
   2  13 -13 6417.26 2055.04
  -2 -13  13  905.05 1038.49
   2  13 -12 1571.30 1723.00
   2 -13 -12  276.10  653.79
  -2 -13  12  904.48  918.94
   2 -13 -11 1862.24  685.47
   2  13 -11-3130.95 1688.94
  -2 -13  11  995.14  886.29
   2 -13 -10 3981.99  889.40
  -2 -13  10 4887.25 1352.54
   2 -13  -923047.50 2529.08
  -2 -13   923453.54 2977.86
   2 -13  -8 9120.09 1258.98
  -2 -13   8 9359.29 1597.87
   2 -13  -7 1472.69  773.12
  -2 -13   7 4265.58  950.97
   2 -13  -6 4595.70  935.07
  -2 -13   6 3634.19  912.72
   2 -13  -536383.29 3951.78
  -2 -13   534848.69 4215.78
   2 -13  -435323.27 3543.59
  -2 -13   427521.61 3248.33
   2 -13  -3 1032.10  741.95
  -2 -13   3 2285.10  814.84
   2 -13  -2 -414.05  675.87
  -2 -13   2   50.80  690.54
   2 -13  -111513.01 1554.19
  -2 -13   112235.05 2005.71
   2 -13   011685.69 1646.73
  -2 -13   014470.22 1719.33
   2 -13   1 2637.91  883.45
  -2 -13  -1  797.65  766.32
   2 -13   225408.32 3339.18
  -2 -13  -231877.21 3528.23
   2 -13   3  702.32 1288.81
  -2 -13  -3 2492.73  986.85
   2 -13   4 2291.44  922.09
  -2  13  -4  908.27 1922.42
  -2 -13  -4   85.86  817.96
   2 -13   5 2874.09 1051.59
  -2  13  -5 5659.34 2276.33
  -2 -13  -5 1770.13  806.04
   2 -13   638198.74 5531.20
  -2  13  -657513.0511072.32
  -2 -13  -651500.01 5658.78
   2 -13   710203.71 1750.27
  -2  13  -7 3616.17 2622.23
  -2 -13  -711007.46 1698.17
   2 -13   8 1724.59 1000.01
  -2  13  -8 1349.41 1166.43
  -2 -13  -8  382.47  815.38
   2 -13   9  987.40  996.18
  -2  13  -9 -407.97  975.69
  -2 -13  -9  121.05  514.05
   2 -13  10 7887.81 1363.57
  -2  13 -10 2859.68 1283.19
  -2 -13 -10 3890.69  988.74
   2 -13  1114340.56 2722.72
  -2  13 -11 8615.48 2829.51
  -2 -13 -1113882.30 1774.29
   2 -13  1228589.62 4539.59
  -2  13 -1225144.79 4920.80
  -2 -13 -1232013.93 3167.33
   2 -13  13 1876.29 1112.23
  -2  13 -13  922.78 1734.88
  -2 -13 -13 2842.06  818.17
   2 -13  14 4449.65 1609.40
  -2  13 -14 2676.17 1880.17
  -2 -13 -14 3001.47  811.96
   2 -13  1516262.22 2810.41
  -2  13 -1520421.17 3876.71
   2 -13  16  182.78  980.70
  -2  13 -16  602.67 1488.04
   2 -13  17  779.59  993.79
  -2  13 -17 -278.79 1122.15
   2 -13  18 1917.38 1132.21
  -2  13 -18 3607.89 1304.90
   2 -13  19  433.03  912.48
  -2  13 -19  133.21  918.07
   2 -13  20 -611.05  924.47
  -2  13 -20  316.57  905.58
   2 -13  21 3130.46 1067.02
  -2  13 -21  943.17  998.19
   2 -13  22  967.67 1262.57
  -2  13 -22 2270.72  997.10
   2 -13  23 2542.49 1004.83
  -2  13 -23 2073.34  986.05
   2 -13  24 3216.21 1153.12
  -2  13 -24 2576.37 1052.92
   2 -13  25 1205.65 1271.51
  -2  13 -25 1159.02 1001.31
   2 -13  26 1992.43 1092.54
  -2  13 -26 3310.51 1077.92
   2 -13  27 3464.82 1178.94
   2 -13  27 7484.17 1452.43
   2 -13  28 1469.19 1065.81
   2 -13  28 3209.22 1242.12
   2 -13  29  123.45  887.14
   2 -13  29   85.91 1073.44
   2 -13  30 2498.05 1411.33
   2 -13  30 2677.11 1394.11
  -2 -14  29 -270.57  922.85
  -2 -14  28 2524.99 1149.95
  -2 -14  27 1112.10  965.58
   2 -14 -26  922.56  772.52
  -2 -14  26 1128.68  970.90
   2 -14 -25 -132.29  714.93
  -2 -14  25 1763.65  878.51
   2 -14 -24  297.15  931.52
  -2 -14  24  -29.96  764.27
   2 -14 -23 5203.47  967.70
  -2 -14  23 1810.27  947.04
   2 -14 -2212334.57 1626.82
  -2 -14  22 3539.34 1117.23
   2 -14 -21  401.83  636.66
  -2 -14  21 -279.44  736.11
   2 -14 -20  782.32  648.79
  -2 -14  20-1422.09  759.22
   2  14 -19 6362.53 1938.91
   2 -14 -19 8695.97 1481.55
  -2 -14  19 9351.31 1935.08
   2 -14 -18 6957.69 1363.90
   2  14 -18 7083.57 2092.31
  -2 -14  18 8120.73 1369.86
   2 -14 -17  622.72  602.81
   2  14 -17   26.73 1164.41
  -2 -14  17  229.31  843.76
   2  14 -16 1414.38 1266.01
   2 -14 -16 1051.22  667.06
  -2 -14  16 1082.42  840.89
   2 -14 -15  107.22  628.22
   2  14 -15 2916.79 1468.69
  -2 -14  15 -945.82  773.12
   2 -14 -14 1790.29  726.24
   2  14 -14  909.44 2607.43
  -2 -14  14 1865.70 1232.07
   2  14 -13 1852.89 2421.26
   2 -14 -13 -301.40  641.47
  -2 -14  13  518.21  798.64
   2  14 -1234773.41 6516.99
   2 -14 -1229505.07 3329.96
  -2 -14  1233363.70 4346.15
   2 -14 -11 1089.27  731.47
   2  14 -11 -462.46 1809.80
  -2 -14  11  864.60  865.60
   2 -14 -10 6152.23 1080.76
  -2 -14  10 5357.52 1378.48
   2 -14  -9 -578.83  627.42
  -2 -14   9   16.42  787.04
   2 -14  -821260.68 2315.09
  -2 -14   820913.13 2669.70
   2 -14  -7 5090.33  956.03
  -2 -14   7 4479.67 1316.39
  -2 -14   6 1593.45  783.18
  -2 -14   5 1705.59  855.71
   2 -14  -4   95.61  681.46
  -2 -14   4 -248.61  652.45
   2 -14  -3 4173.96 1358.16
  -2 -14   3 2376.82  936.55
   2 -14  -2 3481.73 1030.86
  -2 -14   2 2212.77  794.45
   2 -14  -1  424.57  835.02
  -2 -14   1  275.14  948.89
   2 -14   0 9327.80 1667.59
  -2 -14   0 9757.79 1894.31
   2 -14   1 7661.41 1548.59
  -2 -14  -1 8316.53 1475.72
   2 -14   2  829.31 1242.37
  -2 -14  -2  413.29  730.14
   2 -14   3 4433.15 1053.53
  -2 -14  -3 1067.55  754.70
   2 -14   428579.67 3704.72
  -2 -14  -425409.19 2942.89
   2 -14   5 1418.85  950.70
  -2  14  -5 1136.10 1877.32
  -2 -14  -5 1250.33 1044.85
   2 -14   6 4060.85 1263.34
  -2  14  -6 3544.80 2383.23
  -2 -14  -6 5177.92 1213.17
   2 -14   7 1612.04 1148.17
  -2  14  -7  -59.94 1986.86
  -2 -14  -7 2472.81 1011.46
   2 -14   8  595.27 1129.60
  -2  14  -8 1108.44 2101.81
  -2 -14  -8 4196.57 1052.20
   2 -14   9 1351.06 1094.91
  -2  14  -9 1566.48 2085.47
  -2 -14  -9 2472.04  926.42
   2 -14  10 1866.85 1054.28
  -2  14 -10  695.57 1801.33
  -2 -14 -10  273.90  804.82
   2 -14  11  290.86 1070.63
  -2  14 -11-1095.10 1822.90
  -2 -14 -11  425.16  768.13
   2 -14  12  984.86 1337.08
  -2  14 -12  679.22 1523.92
  -2 -14 -12  248.44  729.88
   2 -14  13 2658.94 1305.41
  -2  14 -13 2107.25 1666.41
  -2 -14 -13  782.01  719.97
   2 -14  1424252.76 4052.84
  -2  14 -1425511.95 5199.14
   2 -14  15  130.09  942.66
  -2  14 -15 2317.38 1560.37
   2 -14  16 8399.89 1751.01
  -2  14 -1612055.62 2555.89
   2 -14  17  486.05 1048.85
  -2  14 -17  973.29 1230.61
   2 -14  18 7319.00 1725.54
  -2  14 -18 9176.58 1619.77
   2 -14  19 2605.30 1172.16
  -2  14 -19 5236.80 1590.66
   2 -14  20 6161.08 1417.27
  -2  14 -20 4358.50 1343.67
   2 -14  21 2896.15 1034.86
  -2  14 -21 1600.27 1111.97
   2 -14  22 -128.35  813.90
  -2  14 -22   26.50  870.31
   2 -14  23   60.82  826.09
  -2  14 -23  -16.89  874.25
   2 -14  24 1127.92 1321.11
  -2  14 -24 -184.66  886.72
   2 -14  25  867.65  977.01
  -2  14 -25  833.71  973.72
   2 -14  26 -716.19  956.30
  -2  14 -26-1560.86  929.44
   2 -14  27 -546.54  882.88
  -2  14 -27 -262.46  956.83
   2 -14  28 2561.57 1064.52
   2 -14  28 1165.95 1306.07
   2 -14  29  404.55 1350.93
   2 -14  29 1185.58 1259.39
  -2 -15  27  673.13 1231.43
  -2 -15  26 1967.11  972.83
  -2 -15  25  281.42  837.16
   2 -15 -24 4588.37 1257.94
  -2 -15  24 2585.20 1023.29
   2 -15 -23  -13.33  669.46
  -2 -15  23  879.93  828.13
   2 -15 -22 1024.16  965.49
  -2 -15  22 -157.26  803.58
   2 -15 -21 1667.29  699.39
  -2 -15  21 -366.90  780.97
   2 -15 -20 7893.63 1385.56
  -2 -15  20 4324.38 1404.60
   2 -15 -19  744.02  687.85
  -2 -15  19 -187.10  770.10
   2 -15 -18 3035.04  826.73
   2  15 -18 -486.99 1397.47
  -2 -15  18 1776.14 1224.10
   2 -15 -17 1934.00  742.05
   2  15 -17 1152.39 1336.51
  -2 -15  17 1805.40 1329.78
   2 -15 -16 6177.60 1343.97
   2  15 -16 1219.23 2712.09
  -2 -15  16 6188.15 1347.22
   2  15 -15 -756.09 1569.72
   2 -15 -15 1052.71  931.20
  -2 -15  15 1366.93  913.58
   2 -15 -14 3276.30 1029.75
   2  15 -14 -426.67 1929.26
  -2 -15  14 1442.79  924.41
   2 -15 -13 7010.51 1309.23
   2  15 -13 4833.60 2416.05
  -2 -15  13 3977.17 1243.93
   2 -15 -12 2230.75 1087.61
   2  15 -12 1564.94 2080.63
  -2 -15  12 3679.37 1134.18
   2 -15 -1126681.76 3206.74
   2  15 -1121219.10 5080.09
  -2 -15  1125177.93 3529.07
   2 -15 -10 9445.05 1325.18
  -2 -15  10 8624.13 1639.75
   2 -15  -9 -659.95  731.63
  -2 -15   9 -425.90  822.67
   2 -15  -8  183.46  697.90
  -2 -15   8  510.12 1055.66
   2 -15  -7 5679.68 1052.13
  -2 -15   7 5960.88 1527.33
   2 -15  -6  518.02  718.91
  -2 -15   6 -117.31  785.70
   2 -15  -5 2120.81  876.59
  -2 -15   5 3403.24  880.52
   2 -15  -413270.65 1788.40
  -2 -15   410508.25 1799.61
   2 -15  -3   10.05  722.06
  -2 -15   3  -78.54  823.68
   2 -15  -2 6355.84 1257.72
  -2 -15   2 6930.05 1347.20
   2 -15  -1 1636.35 1045.49
  -2 -15   1 2169.88  838.93
   2 -15   020799.78 2806.94
  -2 -15   020872.73 2660.70
   2 -15   113807.03 2189.57
  -2 -15  -121153.32 2735.48
   2 -15   247572.96 5613.29
  -2 -15  -244312.51 5469.92
   2 -15   3 8194.70 1479.20
  -2 -15  -3 5530.90 1454.24
   2 -15   4 -324.60  886.09
  -2  15  -4-1090.67 1098.82
  -2 -15  -4  466.97  952.24
   2 -15   5 -241.86 1033.36
  -2  15  -5 2682.45 1829.65
  -2 -15  -5 1740.96  990.56
   2 -15   6 7956.33 1609.72
  -2  15  -6 1763.96 2748.47
  -2 -15  -6 5156.98 1403.92
   2 -15   7 8403.12 1644.95
  -2  15  -7 7835.89 2774.55
  -2 -15  -7 8271.04 1619.82
   2 -15   8 2480.04 1140.74
  -2  15  -8  536.64 2132.32
  -2 -15  -8 1554.94  989.51
   2 -15   9-1177.82 1017.26
  -2  15  -9  161.16 2008.66
  -2 -15  -9 1466.62  848.50
   2 -15  10 1055.48 1151.61
  -2 -15 -10 1266.12  883.30
  -2  15 -10 -690.86 1059.32
   2 -15  11 2327.10 1188.90
  -2  15 -11  -56.70 1929.34
  -2 -15 -11  739.46  841.96
   2 -15  1229096.92 4166.06
  -2  15 -1222834.80 4864.90
   2 -15  13 2081.39 1168.71
  -2  15 -13 1069.96 1636.87
   2 -15  14-1032.11 1481.78
  -2  15 -14  -64.63 1778.31
   2 -15  15-1138.61  972.54
  -2  15 -15 2937.38 1561.87
   2 -15  1627517.04 4294.90
  -2  15 -1624644.08 5257.40
   2 -15  17 2529.62 1261.28
  -2  15 -17 1721.73 1735.82
   2 -15  1817478.43 2634.64
  -2  15 -1814867.99 2882.27
   2 -15  19 3085.11 1664.91
  -2  15 -19 8384.51 1837.58
   2 -15  20  872.79 1039.18
  -2  15 -20 3165.47 1168.31
   2 -15  21 -948.55  823.20
  -2  15 -21  110.13  971.29
   2 -15  22 3042.82 1093.51
  -2  15 -22 3850.32 1283.25
   2 -15  23 1297.49  935.25
  -2  15 -23  169.58  881.69
   2 -15  24 -940.79  909.09
  -2  15 -24  439.26  907.92
   2 -15  25-1121.33  978.94
  -2  15 -25 -712.96  957.72
   2 -15  26 1613.69 1138.94
  -2  15 -26 3547.81 1152.15
   2 -15  27  664.86  987.72
  -2  15 -27 -423.77  928.13
   2 -15  28  243.52 1325.47
   2 -15  28 -265.81  726.81
  -2 -16  25 -121.81  802.45
  -2 -16  24  646.02  902.80
   2 -16 -23 2009.78 1132.19
  -2 -16  23 1469.71  932.66
   2 -16 -2211691.86 1557.62
  -2 -16  22 5633.29 1794.58
   2 -16 -21  490.90  993.40
  -2 -16  21   30.33  789.71
   2 -16 -20 -948.93  707.06
  -2 -16  20  356.62  842.58
   2 -16 -19 4524.87 1194.86
  -2 -16  19  851.02  967.98
   2 -16 -1813212.29 1673.56
  -2 -16  18 9850.41 1690.67
   2 -16 -17 2449.20  833.00
   2  16 -17 2445.89 1493.14
  -2 -16  17 2282.87 1007.04
   2 -16 -16  269.42  696.40
   2  16 -16  652.82 1708.95
  -2 -16  16  809.41  851.36
   2 -16 -15 9804.12 1331.65
   2  16 -15 3994.99 2324.30
  -2 -16  15 4556.95 1528.10
   2 -16 -14 6722.23 1416.28
   2  16 -14 6127.02 2592.18
  -2 -16  14 6109.73 1426.25
   2  16 -13 5091.24 2949.75
   2 -16 -1313949.57 1894.28
  -2 -16  1312886.50 2135.53
   2  16 -12-1887.13 2052.94
   2 -16 -12 1626.45 1013.43
  -2 -16  12  174.87  925.04
   2 -16 -11 1439.26 1056.31
   2  16 -11 3246.04 2142.48
  -2 -16  11 1696.15 1114.50
   2 -16 -10 1876.81 1136.80
  -2 -16  10 2428.21 1023.88
   2 -16  -9 -649.30  694.07
  -2 -16   9  907.03  839.49
   2 -16  -8 4585.61  975.39
  -2 -16   8 5969.07 1711.65
   2 -16  -7 1200.48  902.36
  -2 -16   7 2267.29 1084.99
   2 -16  -612720.82 1814.03
  -2 -16   613249.77 2344.33
   2 -16  -510977.52 2116.42
  -2 -16   511986.43 1824.35
   2 -16  -4 4416.09 1010.03
  -2 -16   4 2783.35  853.72
  -2 -16   3 4133.19 1121.93
  -2 -16   211104.13 1834.86
   2 -16  -1 7479.08 1292.16
  -2 -16   1 2524.03 1051.19
   2 -16   0 8458.25 1574.69
  -2 -16   0 5470.43 1083.32
   2 -16   1 -540.29  989.05
  -2 -16  -1 -170.25  692.96
  -2 -16  -2 1740.50  863.03
  -2 -16  -317559.65 2745.27
   2 -16   431242.79 4476.23
  -2 -16  -431951.94 4063.75
   2 -16   529942.11 4883.36
  -2 -16  -532779.89 3548.68
  -2  16  -516474.08 2797.20
   2 -16   6 1191.58 1200.54
  -2  16  -6 -246.49 2039.84
  -2 -16  -6 -151.78  968.11
   2 -16   7 2386.06 1658.37
  -2  16  -7  724.29 2021.74
  -2 -16  -7  759.54 1044.49
   2 -16   8 9397.40 1958.08
  -2  16  -8 4787.68 2826.64
  -2 -16  -8 8447.27 1692.39
   2 -16   9 6725.37 2079.28
  -2  16  -9 1990.43 1460.27
  -2 -16  -9 4722.86 1202.42
   2 -16  10 3608.61 1266.71
  -2  16 -10 2939.32 2245.62
  -2 -16 -10 1476.63  768.56
   2 -16  11 2277.67 1582.60
  -2  16 -11 1638.16 2128.35
   2 -16  12  225.60 1017.89
  -2  16 -12 2021.23 2045.03
   2 -16  13 3885.02 1247.69
  -2  16 -13 2718.39 1926.66
   2 -16  14 3010.54 1163.62
  -2  16 -14 2240.30 1817.62
   2 -16  15 6918.50 1505.86
  -2  16 -15 6301.15 2077.50
   2 -16  16 2019.26 1133.07
  -2  16 -16  343.61 1808.04
   2 -16  17 1360.99 1074.34
  -2  16 -17 2271.95 1606.76
   2 -16  18 1753.73  982.25
  -2  16 -18 1017.45 1410.49
   2 -16  19 2790.51 1108.52
  -2  16 -19  235.88 1411.58
   2 -16  20 2489.37 1148.22
  -2  16 -20 2084.62  912.14
   2 -16  21  919.34  905.79
  -2  16 -21  631.30 1077.16
   2 -16  22 -403.80  900.05
  -2  16 -22 -435.53 1046.37
   2 -16  23 1206.19  932.35
  -2  16 -23 -249.35 1067.54
   2 -16  24 1829.25 1024.25
  -2  16 -24 -481.27 1022.12
   2 -16  25  109.03  949.98
  -2  16 -25 -274.18  561.93
   2 -16  26  672.01 1041.21
  -2  16 -26 1156.36 1026.88
  -2 -17  23  138.15  864.00
   2 -17 -22  907.96  756.24
  -2 -17  22 -230.79  915.09
   2 -17 -21  801.11  799.21
  -2 -17  21  177.14  816.67
   2 -17 -20  914.02  747.24
  -2 -17  20   -2.45  823.04
   2 -17 -19 3744.38  941.35
  -2 -17  19 2675.65 1158.82
   2 -17 -18  185.46  995.73
  -2 -17  18  793.74  946.62
   2 -17 -17 2344.48  845.32
  -2 -17  17 3525.71 1072.59
   2 -17 -16  951.02  787.26
   2  17 -16 2509.85 1990.60
  -2 -17  16 2289.28  991.25
   2  17 -15 5434.74 2698.54
   2 -17 -1512688.87 1599.14
  -2 -17  1510351.27 1940.17
   2  17 -14  568.19 2015.96
   2 -17 -14 1234.78 1024.83
  -2 -17  14  -15.89  958.06
   2  17 -13-2922.00 1938.69
   2 -17 -13  486.20  964.18
  -2 -17  13  580.75  934.38
   2  17 -12-1740.32 2158.07
   2 -17 -12  584.38 1016.20
  -2 -17  12 1247.16  945.67
   2  17 -11 -229.68 1996.26
   2 -17 -11  890.08  749.83
  -2 -17  11 1045.85  894.48
   2 -17 -10 3898.65  970.53
  -2 -17  10 2833.11 1013.98
   2 -17  -917844.42 2190.97
  -2 -17   914280.65 2365.50
   2 -17  -8  329.45 1128.72
  -2 -17   8 1038.66  906.57
   2 -17  -7 3269.72 1366.32
  -2 -17   7 4578.82 1005.26
   2 -17  -6-1304.14  810.11
  -2 -17   6  233.34  792.81
   2 -17  -5 5619.61 1208.86
  -2 -17   5 5147.65 1194.54
   2 -17  -4 1457.50 1048.98
  -2 -17   4  395.87  790.81
   2 -17  -3 1771.97 1065.67
  -2 -17   3 1316.74  966.42
   2 -17  -2 1976.73 1491.02
  -2 -17   2 1970.25 1063.65
   2 -17  -1  374.60  949.68
  -2 -17   1 -668.49  806.20
  -2 -17   0 -685.16  782.94
  -2 -17  -121838.49 2665.41
   2 -17   221085.92 3200.49
  -2 -17  -220852.80 2617.40
  -2 -17  -3 2093.31  942.84
  -2 -17  -4 -295.95 1054.91
  -2  17  -4 2810.38 1940.85
   2 -17   5 5029.44 1460.25
  -2 -17  -5 6900.83 1557.89
  -2  17  -5 1905.33 2483.51
   2 -17   6 2031.80 1180.42
  -2 -17  -6 2530.15 1169.28
  -2  17  -6 2407.18 1320.17
   2 -17   7 -349.77 1075.91
  -2  17  -7-2261.39 2004.20
  -2 -17  -7 -116.17  679.29
   2 -17   8  672.19 1080.97
  -2  17  -8-1467.59 2005.17
  -2 -17  -8 -142.98  684.60
   2 -17   9 -373.63 1147.61
  -2  17  -9  185.88 2115.23
  -2 -17  -9 -534.98  698.97
   2 -17  10 -238.31  995.26
  -2  17 -10 2712.24 1922.02
   2 -17  1111127.24 2422.07
  -2  17 -11 6329.86 2915.27
   2 -17  12 2257.91 1190.08
  -2  17 -12 4267.39 2349.10
   2 -17  13 -177.80 1041.04
  -2  17 -13  859.87 1003.29
   2 -17  14-1253.06  944.36
  -2  17 -14 1304.73 1687.21
   2 -17  15   29.79  951.24
  -2  17 -15 -347.48 1575.61
   2 -17  16 4784.13 1352.85
  -2  17 -16 6883.30 2115.51
   2 -17  17 4240.42 1240.04
  -2  17 -17 8038.39 2213.14
   2 -17  18 -731.70  879.36
  -2  17 -18 1156.59 1220.26
   2 -17  19  998.94  977.39
  -2  17 -19  135.43 1271.07
   2 -17  20 -396.53  956.47
  -2  17 -20  -36.24 1303.08
   2 -17  21 -127.28  903.80
  -2  17 -21 2901.98 1176.87
   2 -17  22  821.15 1165.48
  -2  17 -22 -663.05 1037.21
   2 -17  23 1850.51 1039.00
  -2  17 -23 1698.08 1230.68
   2 -17  24  781.89  977.30
  -2  17 -24 -596.69  979.47
  -2 -18  21 1533.51  972.17
   2 -18 -20  421.20  991.67
  -2 -18  20 -141.81  843.52
   2 -18 -19 2746.96  867.86
  -2 -18  19  265.50  913.11
   2 -18 -18 1210.91  796.97
  -2 -18  18  687.26 1009.95
   2 -18 -1711514.71 1504.62
  -2 -18  17 8141.11 1640.89
   2 -18 -16  455.72  732.96
  -2 -18  16 -154.99  938.71
   2 -18 -15  306.41  737.18
   2  18 -15 -108.21 1890.15
  -2 -18  15 1860.60  926.70
   2 -18 -14   57.84 1030.50
   2  18 -14  800.40 2166.97
  -2 -18  14-1719.52  903.15
   2  18 -13-1075.49 2112.65
   2 -18 -13  610.78  737.18
  -2 -18  13 -615.73  954.52
   2 -18 -12 4821.79 1025.78
   2  18 -12 1323.66 2585.59
  -2 -18  12  719.54 1026.75
   2 -18 -11 7875.17 1350.98
   2  18 -11 6765.02 2959.41
  -2 -18  11 5658.98 1458.24
   2  18 -10 -553.69 2233.20
   2 -18 -10 1595.05  898.15
  -2 -18  10  367.39 1009.46
   2 -18  -9  577.83  874.62
  -2 -18   9 1004.18  955.65
   2 -18  -8 1793.28  877.82
  -2 -18   8  436.46  830.78
   2 -18  -7 8157.00 1542.72
  -2 -18   711442.59 1897.13
   2 -18  -6 2057.25 1055.04
  -2 -18   6 1468.36  901.13
   2 -18  -5  859.11 1014.83
  -2 -18   5 1407.34  862.17
   2 -18  -4  783.67  983.13
  -2 -18   4  601.13  808.56
   2 -18  -314530.59 2935.64
  -2 -18   314519.50 2103.06
   2 -18  -2 3208.79 1177.82
  -2 -18   2 2177.74 1430.87
   2 -18  -1 2866.74 1131.92
  -2 -18   1 3334.28 1378.59
   2 -18   0  521.47  970.32
  -2 -18   0 2046.11 1233.49
  -2 -18  -1 1059.11  813.33
   2 -18   2 2859.07 1692.94
  -2 -18  -2  -84.75  827.09
   2 -18   3 9379.62 1907.59
  -2 -18  -3 9837.91 1732.08
  -2  18  -3 1096.10 2623.73
   2 -18   4 2327.86 1299.55
  -2 -18  -4 3114.73 1342.39
  -2  18  -4 2065.13 2173.96
   2 -18   511581.98 2189.78
  -2 -18  -5 6345.00 1581.32
  -2  18  -5 3158.74 2806.65
   2 -18   6 1124.63 1290.61
  -2 -18  -6  519.24  797.07
  -2  18  -6 1747.05 2237.29
   2 -18   7 4589.78 1522.05
  -2 -18  -7 3673.95  987.23
  -2  18  -7 4811.50 2562.36
   2 -18   8  -88.85 1128.63
  -2  18  -8 1651.79 2091.86
  -2 -18  -8    2.67  989.13
   2 -18   917496.26 2868.76
  -2  18  -9 6006.57 3282.52
   2 -18  10-1210.02 1038.41
  -2  18 -10 1837.23 2097.35
   2 -18  11  758.43 1632.21
  -2  18 -11 5744.73 2348.56
   2 -18  12 1259.34 1088.54
  -2  18 -12  472.45 2109.71
   2 -18  13 3928.66 1239.36
  -2  18 -13 6709.11 2181.29
   2 -18  14 -127.72  970.93
  -2  18 -14 -945.85 1655.36
   2 -18  15 1715.46 1148.04
  -2  18 -15 5053.52 1925.51
   2 -18  16  -10.31 1392.15
  -2  18 -16  590.14 1022.26
   2 -18  17  122.62  891.41
  -2  18 -17 -301.06 1556.96
   2 -18  18-1563.85  970.78
  -2  18 -18   41.28 1802.82
   2 -18  19 3272.95 1268.36
  -2  18 -19 3407.17 1699.55
  -2  18 -20  631.40 1377.95
   2 -18  21 1186.46  935.89
  -2  18 -21  990.22 1172.22
   2 -19 -19 3039.53  959.28
   2 -19 -18 -573.99  756.56
   2 -19 -17  376.72  781.99
  -2 -19  17 1973.49 1083.12
   2 -19 -16  782.40  724.05
  -2 -19  16 -395.63  941.11
   2 -19 -15 7459.20 1596.77
  -2 -19  15 5516.64 1430.59
   2  19 -14  -16.22 2339.05
   2 -19 -14 2217.93  911.12
  -2 -19  14 1096.00  956.22
   2  19 -13-1311.75 2256.16
   2 -19 -13 1353.19  859.21
  -2 -19  13  838.58  937.32
   2  19 -12  447.22 2267.01
   2 -19 -12 -699.03  785.25
  -2 -19  12    3.40  990.47
   2 -19 -11  928.84  868.85
   2  19 -11  466.24 2429.96
  -2 -19  11 1432.71 1058.53
   2 -19 -10 -345.02 1125.85
   2  19 -10 -590.61 2249.63
  -2 -19  10 -133.66  894.81
   2 -19  -916932.04 2911.33
  -2 -19   916160.44 2580.86
   2 -19  -8 4880.99 1649.12
  -2 -19   8 4761.11 1667.23
   2 -19  -7 -887.12  935.62
  -2 -19   7  223.67 1138.06
   2 -19  -6 7435.56 1420.14
  -2 -19   6 3250.01 1531.75
   2 -19  -512424.23 1972.83
  -2 -19   5 7185.55 1419.09
   2 -19  -4 1795.31 1315.40
  -2 -19   4 -764.23  837.00
   2 -19  -3 2759.26 1523.10
  -2 -19   3 2808.88 1025.56
   2 -19  -2 2154.30 1057.92
  -2 -19   2  234.39  859.75
   2 -19  -1 2459.35 1109.14
  -2 -19   1 1486.01  991.64
   2 -19   0    6.99  984.78
  -2 -19   0  598.52 1238.03
   2 -19   1 7256.43 1735.98
  -2 -19  -1 8740.19 1579.10
   2 -19   2  398.56 1147.32
  -2 -19  -2 -754.03  862.33
   2 -19   3 2722.85 1661.77
  -2 -19  -3 1053.35  914.32
  -2  19  -3  635.43 2067.10
   2 -19   4  696.98 1248.04
  -2 -19  -4  627.89 1161.75
  -2  19  -4 4301.13 2172.56
   2 -19   5  433.48 1145.97
  -2 -19  -5  -27.44 1112.52
  -2  19  -5-1004.28 2105.72
   2 -19   6 -966.24 1192.38
  -2 -19  -6  -86.06  793.03
  -2  19  -6  259.43 2053.89
   2 -19   7 2904.56 1318.76
  -2  19  -7  455.32 2456.07
   2 -19   8-2160.06 1357.37
  -2  19  -8 -544.17 2372.73
   2 -19   9 -298.82 1091.75
  -2  19  -9-1236.20 2347.53
   2 -19  10  178.24 1099.91
  -2  19 -10 1743.98 1325.31
   2 -19  11 3942.99 1862.36
  -2  19 -11 4696.15 2637.02
   2 -19  12-1326.38 1066.34
  -2  19 -12 2315.07 2204.76
   2 -19  13  101.48  979.13
  -2  19 -13  658.10 1770.19
   2 -19  14 -812.93 1308.09
  -2  19 -14  682.99 1662.79
   2 -19  15 1322.77 1053.41
  -2  19 -15   58.79 1901.85
   2 -19  16  628.03  929.04
  -2  19 -16  415.51 1770.11
   2 -19  17 2054.45 1404.80
  -2  19 -17  916.67 1951.98
   2 -19  18 2053.84 1044.19
  -2  19 -18 1118.39 1881.07
  -2  19 -19 -582.13 1403.33
   2 -20 -15  408.31 1127.15
  -2 -20  15  227.62  947.94
   2 -20 -14 1544.37  912.19
  -2 -20  14 1417.02 1033.42
   2  20 -13 3994.00 2622.93
   2 -20 -13  952.11  883.55
  -2 -20  13   97.20 1287.41
   2  20 -12 -472.64 2659.25
   2 -20 -12 3334.19 1528.98
  -2 -20  12 3316.08 1571.77
   2  20 -11  -35.49 2738.11
   2 -20 -11 1319.47 1089.35
  -2 -20  11 3940.21 1236.86
   2  20 -10 1705.17 2520.97
   2 -20 -10 1105.67  984.73
  -2 -20  10   37.52  985.84
   2 -20  -9   75.16  965.23
  -2 -20   9 2181.57 1095.31
   2 -20  -8 4780.77 1225.75
  -2 -20   8 1505.85 1101.37
   2 -20  -7 4602.50 1276.27
  -2 -20   7 4205.00 1242.66
   2 -20  -6 8622.73 1433.17
  -2 -20   6 2576.32 1098.91
   2 -20  -5 1696.92 1481.71
  -2 -20   5 1670.01  930.18
   2 -20  -4 1029.21 1435.55
  -2 -20   4 1998.12 1263.30
   2 -20  -3 3585.24 1758.17
  -2 -20   3 2026.72  982.34
   2 -20  -215761.95 2260.94
  -2 -20   2 9002.11 1684.02
   2 -20  -1 3971.04 1401.25
  -2 -20   1 3711.10 1089.69
   2 -20   0 1474.72 1301.35
  -2 -20   0 2369.15 1402.84
   2 -20   1  602.28 1154.22
  -2 -20  -1  217.05  884.63
   2 -20   2 2101.92 1323.86
  -2  20  -2 1165.64 2246.36
  -2 -20  -2 2328.08 1001.00
   2 -20   3 1213.83 1406.79
  -2  20  -3 3187.76 2204.86
  -2 -20  -3 1335.67  888.24
   2 -20   4 1933.74 1329.96
  -2 -20  -4 1378.48 1183.01
  -2  20  -4 -491.69 2293.16
   2 -20   5 6419.10 1729.37
  -2 -20  -5 3308.31 1109.93
  -2  20  -5 4373.50 2634.24
   2 -20   6 2018.23 1348.33
  -2  20  -6 -177.22 2319.47
   2 -20   7 8125.39 1841.57
  -2  20  -7 1219.74 2770.86
   2 -20   8 4848.95 1551.23
  -2  20  -8 3819.37 2845.35
   2 -20   9 2026.12 1363.90
  -2  20  -9 5058.38 2363.03
   2 -20  10 2261.23 1299.58
  -2  20 -10 2522.86 2397.43
   2 -20  11 1143.70 1201.24
  -2  20 -11 3287.56 2292.85
   2 -20  12  825.25 1060.16
  -2  20 -12 1491.79 2388.54
   2 -20  13 -828.94 1032.01
  -2  20 -13  879.84 1820.74
   2 -20  14  117.52 1409.11
  -2  20 -14 1717.52 1791.74
  -2  20 -15 1911.07 1925.68
   2  21 -11 -239.24 2694.55
   2 -21 -11  430.24 1000.91
  -2 -21  11 1508.29 1042.08
   2  21 -10-1215.26 2547.14
   2 -21 -10  938.96 1399.60
  -2 -21  10  767.71 1056.54
   2  21  -9 -870.12 2465.33
   2 -21  -9  590.97  894.02
  -2 -21   9 -818.65 1313.28
   2 -21  -8 3561.51 1160.02
  -2 -21   8 2706.79 1606.94
   2 -21  -7 -176.48  980.27
  -2 -21   7  838.77  962.13
   2 -21  -6  298.81 1015.43
  -2 -21   6 1416.99  943.71
   2 -21  -5 1221.09 1053.85
  -2 -21   5   65.02  904.40
   2 -21  -4 3571.16 1320.24
  -2 -21   4 2174.52 1067.71
   2 -21  -3  324.05 1627.85
  -2 -21   3 -693.44 1190.05
   2 -21  -2-1639.73 1600.53
  -2 -21   2 -400.97  851.65
   2 -21  -1-1156.71 1578.71
  -2 -21   1 1701.63  901.30
   2 -21   0  -54.41 1647.93
  -2 -21   0 1174.52 1239.10
   2 -21   1 4110.24 1481.64
  -2 -21  -1 3205.67 1116.85
   2 -21   2 2176.08 1382.48
  -2  21  -2 2498.79 2315.87
  -2 -21  -2 2745.65 1106.12
   2 -21   3 -141.78 1228.32
  -2  21  -3  529.85 2067.40
  -2 -21  -3 -616.81 1240.11
   2 -21   4   88.83 1234.46
  -2  21  -4  194.94 2100.38
   2 -21   5  -10.59 1257.27
  -2  21  -5 -611.12 1952.43
   2 -21   6 3015.22 1443.67
  -2  21  -6 6599.21 2722.38
   2 -21   7-1405.54 1154.65
  -2  21  -7 1561.40 2303.10
   2 -21   8  611.13 1250.16
  -2  21  -8 3073.47 2522.52
   2 -21   9 1012.52 1612.84
  -2  21  -9 1636.86 2209.94
  -2  21 -10-3005.26 2372.72
  -2  21 -11 1513.11 2314.06
  -3   0  37 -860.07  913.09
  -3   0  36 1809.39  995.45
  -3   0  35  925.59 1174.56
  -3   0  34 1066.56  899.29
  -3   0  33 -483.98  876.64
  -3   0  3215237.64 2777.86
  -3   0  31  131.41  840.60
  -3   0  30 4557.77 1084.15
  -3   0  29 -557.71  824.13
  -3   0  2847717.83 6301.81
  -3   0  27-1281.41 1142.65
  -3   0  2621429.08 2852.42
  -3   0  25 1199.84  965.91
  -3   0  24 1845.63  925.41
  -3   0  23 -440.99  791.77
  -3   0  2212428.81 1878.56
  -3   0  21 -380.25  759.68
  -3   0  2048384.77 6193.09
  -3   0  19 -323.60  683.67
  -3   0  18 2225.26  300.84
  -3   0  18 9081.31 1196.80
  -3   0  17  652.85  708.74
  -3   0  1616925.43 2222.52
   3   0 -15  107.52  140.77
  -3   0  15  516.21  645.42
  -3   0  1454997.09 6516.95
   3   0 -13   36.30   87.02
  -3   0  13  767.15  702.44
  -3   0  1218288.23 2402.29
   3   0 -11  -39.64   78.76
  -3   0  11   67.00  707.40
  -3   0  10  400.91  737.03
  -3   0  10  298.95  341.78
   3   0  -9  -32.72   81.92
  -3   0   9 -116.10  159.19
  -3   0   9 -187.70  700.83
   3   0  -8 7547.54  760.98
  -3   0   811658.08 1565.94
  -3   0   813300.47  886.02
  -3   0   7   61.78  117.14
  -3   0   7 -172.96  700.66
  -3   0   6203663.428891.27
  -3   0   5 -232.86  701.03
   3   0  -418396.18 1826.88
   3   0  -419112.36  925.75
  -3   0   431600.88 2885.87
   3   0  -3  260.73  306.77
   3   0  -3  204.07  759.29
  -3   0   3 -649.43  565.62
   3   0  -2136035.312983.96
   3   0  -2216945.826337.31
  -3   0   2180026.322104.73
   3   0  -1 -186.88  501.64
   3   0  -1 -135.99  739.48
   3   0  -1 -207.67  459.60
   3   0   0 1166.13  451.62
   3   0   0 1198.08  460.42
   3   0   0  735.48  483.29
   3   0   1  162.05  461.85
   3   0   1  109.99  466.19
   3   0   1 -120.60  584.42
   3   0   1  645.60  471.27
   3   0   236497.40 2835.87
   3   0   235580.92 2983.61
   3   0   230704.08 2452.85
   3   0   3 -310.13  332.24
   3   0   3  -42.97  626.55
   3   0   3 -186.40  511.06
   3   0   435123.08 3310.14
   3   0   438539.99 3017.83
   3   0   5  486.39  589.46
   3   0   5  168.36  365.84
  -3   0  -5  128.07  297.59
   3   0   6 5450.71 1005.54
   3   0   6 7363.62  696.86
  -3   0  -6 5936.94  566.58
   3   0   7  186.54  268.94
   3   0   7   54.96  611.78
  -3   0  -7  131.78  239.92
   3   0   8 -212.20  294.26
   3   0   8  692.38  607.88
  -3   0  -8  -58.06  208.04
   3   0   9 -381.43  608.59
   3   0   9  -51.49  366.61
  -3   0  -9 -131.42  245.03
   3   0  10 2694.40  448.96
   3   0  10 4170.36  670.81
  -3   0 -10 4001.41  391.04
   3   0  11   10.78  350.17
   3   0  11   -4.07  316.86
  -3   0 -11    6.37  181.90
   3   0  1215037.21 1372.70
  -3   0 -12 8283.72  487.04
   3   0  13  322.84  357.11
   3   0  13  795.16  698.92
  -3   0 -13  -65.76  195.40
   3   0  1457067.09 6162.85
   3   0  1455411.00 5018.61
  -3   0 -1449120.01 3787.92
   3   0  15  247.51  268.73
   3   0  15 -399.10  644.84
  -3   0 -15 -102.01  248.20
   3   0  16  355.61  698.90
   3   0  16 1062.12  318.20
  -3   0 -16  597.77  238.23
   3   0  17 1098.46  695.61
   3   0  17  -87.25  270.62
   3   0  18  765.94  308.68
   3   0  18 2206.02  748.43
   3   0  19 -854.18  700.68
   3   0  19  518.36  363.06
   3   0  20 6898.75  864.46
   3   0  20 7914.26 1350.73
   3   0  21  -48.21  823.85
   3   0  21  373.50  433.21
   3   0  22  197.59  764.68
   3   0  22 -307.72  400.50
   3   0  23  -86.72  446.70
   3   0  23  257.22  827.89
   3   0  24 8865.71 1580.97
   3   0  25  314.45  886.47
   3   0  26 2516.09 1099.51
   3   0  27  436.44  968.18
   3   0  2846916.97 5794.97
   3   0  29-1036.60 1244.52
   3   0  30 2251.06 1566.40
   3   0  31 1793.68 1537.48
   3   0  3214415.36 2861.59
   3   0  33-2321.74 1719.73
   3   0  34 3563.97 2044.12
   3   0  35-1408.19 1773.76
   3   0  36 1629.52 1836.94
   3   0  37 -441.63 1700.96
  -3   1  37 1670.24  971.01
  -3  -1  37 2152.66 1071.98
  -3   1  36 3300.58 1071.57
  -3  -1  36 4180.50 1193.15
  -3   1  35  433.07 1215.92
  -3  -1  35  715.34 1279.87
  -3  -1  34  840.36  881.57
  -3   1  34  -61.74  831.15
  -3  -1  33 -197.36  841.74
  -3   1  33  -40.45  851.53
  -3  -1  32  679.74  884.66
  -3   1  32  675.47  857.70
  -3  -1  31 1079.22  993.48
  -3   1  31 1615.38  894.81
  -3  -1  3019598.28 2876.25
  -3   1  3018022.27 2533.32
  -3  -1  29 1930.87  901.67
  -3   1  29-1233.29  772.74
  -3   1  28 -462.18  774.01
  -3  -1  28  213.20  836.93
  -3   1  27 3848.21  944.61
  -3  -1  27 3987.29 1090.54
  -3   1  2624939.61 3506.77
  -3  -1  2626650.09 3472.88
  -3   1  25 1739.07 1184.58
  -3  -1  25 3411.52 1002.47
  -3  -1  24 5462.07 1633.25
  -3   1  24 5593.40 1061.33
  -3  -1  23 5822.00 1170.03
  -3   1  23 5242.69 1047.14
  -3  -1  22 6088.03 1293.35
  -3   1  22 6720.60 1155.64
  -3  -1  21 6217.21 1452.84
  -3   1  21 7993.31 1609.51
  -3  -1  2020056.99 2825.91
  -3   1  2020082.68 2718.49
  -3  -1  19  416.47  839.27
  -3   1  19 1082.97  714.01
  -3  -1  18  381.53  750.51
  -3  -1  18  303.27  207.12
  -3   1  18  803.72  646.77
  -3   1  17 4724.94 1214.23
  -3  -1  17 4689.18 1048.00
  -3  -1  1619348.60 2863.93
  -3   1  1620163.33 2418.59
   3  -1 -15 1986.97  329.70
  -3  -1  15 4193.53  901.29
  -3   1  15 3342.86  800.50
   3  -1 -14 1188.28  271.26
  -3   1  14 1751.40  705.14
  -3  -1  14 1543.54  740.72
   3  -1 -13  479.21  177.21
  -3  -1  13  378.92  112.70
  -3   1  13 1268.80  743.22
  -3  -1  13  469.43  734.49
   3  -1 -1219638.30  998.95
  -3   1  1225849.37 2930.94
  -3  -1  1229545.64 3262.25
   3  -1 -1144368.60 3339.25
  -3  -1  1152789.07 5705.29
  -3   1  1145371.31 4921.95
   3  -1 -10   13.83  512.07
  -3   1  10  370.15  651.90
  -3  -1  10   58.30  782.38
  -3  -1   929348.90 3479.26
  -3   1   932233.01 3609.73
  -3   1   8  682.94  603.38
  -3  -1   8  730.35  761.76
  -3   1   8  187.46  693.58
  -3   1   724334.27 2852.70
  -3  -1   719848.44 2482.15
  -3   1   719540.58 2272.28
   3   1  -655593.25 4233.00
  -3   1   663961.11 6268.09
  -3  -1   669273.59 6680.70
  -3   1   644110.38 3305.15
  -3   1   5172266.319325.33
  -3   1   5207479.628256.50
  -3  -1   5230105.729860.38
   3  -1  -4231855.234282.19
  -3   1   4239473.235246.47
  -3  -1   4221464.434147.55
   3  -1  -319543.79 1982.39
   3   1  -316702.68 1244.44
   3   1  -315954.63 1180.34
  -3   1   312535.75 1180.84
  -3  -1   319221.41 2172.97
   3  -1  -2 7389.85  989.81
   3   1  -210277.17  997.88
   3  -1  -2 7081.46 1108.49
   3   1  -2 6695.76  682.35
  -3   1   2 6412.58  906.41
  -3  -1   2 9606.48 1478.08
   3   1  -1 4859.79  754.00
   3   1  -1 4358.02  670.76
   3  -1  -1 6261.48 1147.58
   3  -1  -1 2827.87  848.67
  -3   1   1 5029.02  784.64
  -3  -1   1 5092.34  990.35
   3   1   0 6307.56  746.00
   3   1   0 7769.84 1117.36
   3  -1   0 7012.95 1157.73
   3  -1   0 6943.82  951.24
   3   1   0 4435.14  689.80
  -3  -1   0 6430.26  863.81
  -3   1   0 5386.61 1079.70
   3   1   1 6784.92 1048.55
   3   1   1 6436.04  683.18
   3  -1   1 8026.36 1261.12
   3   1   1 6274.66  679.28
  -3   1  -1 6499.38  983.48
   3  -1   2 1363.98  757.68
   3   1   2 2363.66  777.97
   3   1   2 1534.69  533.74
   3   1   2 2204.47  393.57
  -3   1  -2 2427.98  754.72
   3   1   3 2397.13  524.95
   3   1   3 3443.12  886.03
   3  -1   3 3499.66  590.82
   3   1   3 1218.96  428.74
   3  -1   3 2631.65  626.18
  -3   1  -3 1954.82  555.40
   3   1   4 4378.88  793.01
   3  -1   4 4126.86  761.53
   3   1   4 3341.41  535.28
   3   1   4 3257.41  466.49
   3  -1   4 4745.94  794.05
  -3   1  -4 3089.49  573.62
   3   1   517780.33 2174.19
   3   1   519879.12 1501.20
   3   1   518716.01 1562.63
   3  -1   519555.13 1659.67
   3  -1   518797.90 2086.01
   3  -1   6222426.525151.36
   3   1   6203603.526172.68
   3   1   6148445.714152.80
   3   1   6200398.322250.73
   3  -1   6233811.930410.97
  -3   1  -6151753.715409.80
   3   1   7  926.30  230.08
   3  -1   7 2190.60  706.91
   3  -1   7 1324.37  382.47
   3   1   7 1321.72  767.67
  -3   1  -7  861.27  406.33
   3   1   8 3217.48  897.51
   3   1   8 2928.42  325.64
   3  -1   8 3956.36  831.57
   3  -1   8 3508.81  559.85
  -3   1  -8 2808.87  470.98
   3   1   9 3389.45  828.32
   3  -1   9 4397.46  703.61
   3   1   9 2006.34  292.90
   3  -1   9 3431.41  797.25
  -3   1  -9 3680.36  479.76
  -3  -1  -9 2860.29  263.54
   3   1  1013462.40 1790.88
   3  -1  1013793.41 1372.96
   3  -1  1012723.59 1591.64
  -3   1 -1010278.39  716.19
   3   1  11  391.86  783.21
   3  -1  11  177.04  670.71
   3   1  11  736.81  266.34
   3  -1  11 1472.02  650.30
  -3  -1 -11  505.81  126.79
  -3   1 -11  237.53  319.75
   3  -1  12 5518.48  757.93
   3   1  12 6205.73 1010.01
   3  -1  12 6179.86  997.00
  -3  -1 -12 4501.80  374.86
   3  -1  1336184.16 3566.70
   3   1  1334845.24 3752.98
   3  -1  1336676.07 3807.04
   3  -1  14 6999.19 1123.77
   3  -1  14 6518.52  944.49
   3   1  14 5597.30  538.30
   3   1  14 5852.34 1097.73
  -3  -1 -14 6059.61  456.80
   3  -1  15 4343.91  818.01
   3   1  15 5924.59 1074.56
   3  -1  15 4193.94  687.84
  -3  -1 -15 3280.36  319.94
   3  -1  1617998.62 2064.75
   3   1  1616782.69 2216.19
   3  -1  1618059.12 1751.64
   3   1  1614869.77 1256.91
  -3  -1 -1615134.95 1007.35
   3  -1  17 6754.52 1022.34
   3   1  17 5757.10 1080.37
   3  -1  17 4144.12  670.47
   3   1  17 3372.79  463.97
   3  -1  18 5588.68  814.41
   3   1  18 6571.70 1092.33
   3  -1  18 4431.44  695.93
   3   1  18 3582.46  493.47
   3  -1  1915616.73 1954.40
   3   1  1912345.70 1290.81
   3   1  1912523.39 1734.37
   3  -1  2029987.82 3356.41
   3   1  2033024.35 3846.31
   3   1  2025258.41 2420.32
   3  -1  21 3293.14  913.63
   3   1  21 3816.88  956.96
   3  -1  21 1180.92  454.82
   3   1  21 1678.36  433.58
   3  -1  22 4720.03 1081.16
   3  -1  22 3839.71  651.49
   3   1  22 1844.97  460.58
   3   1  22 3073.81 1000.07
   3  -1  23 2269.72 1046.25
   3   1  23 2272.75  961.17
   3  -1  23 2467.20  574.49
   3  -1  24 2085.14 1002.26
   3   1  24 7098.61 1035.09
   3  -1  24 2378.04  710.66
   3  -1  25 1370.35  966.80
   3   1  25 2897.86 1261.07
   3  -1  26 3748.19 1257.94
   3   1  26 6455.56 1479.06
   3   1  2710783.04 2099.83
   3  -1  27 8117.97 1627.73
   3  -1  28 1149.06 1128.26
   3   1  28 1283.33 1311.51
   3  -1  29 2452.86 1084.00
   3   1  29  302.98 1237.41
   3  -1  30 4057.97 1251.83
   3   1  30 3227.35 1866.70
   3  -1  31 6376.59 1823.07
   3   1  31 5816.72 2084.22
   3  -1  3217834.79 3054.01
   3   1  3213126.89 2900.17
   3  -1  33 -376.03 1419.71
   3   1  33-1732.21 1550.91
   3  -1  34 -355.95 1370.18
   3   1  34  712.73 1588.01
   3  -1  35 -659.59 1516.26
   3   1  35 3269.49 2071.31
   3  -1  36 2290.43 2033.66
   3   1  36 4461.97 2453.16
   3  -1  37   20.26 1802.23
   3   1  37   36.24 2042.03
  -3   2  37  157.63  824.23
  -3  -2  37  463.30  939.76
  -3  -2  36 1442.27 1332.96
  -3   2  36  958.56 1181.17
  -3  -2  35  617.76  946.97
  -3   2  35 -788.31  759.13
  -3  -2  34 1594.50  987.77
  -3   2  34  148.24  786.45
  -3   2  33 1503.52  835.62
  -3  -2  33 2025.92 1066.74
  -3  -2  32 3545.64 1133.93
  -3   2  32  933.86  896.74
  -3   2  31 -858.13  891.77
  -3  -2  31 -803.07  920.43
  -3   2  3010127.68 1728.61
  -3  -2  30 8487.63 1731.48
  -3  -2  29 8384.60 1513.22
  -3   2  29 9642.04 1624.83
  -3  -2  28 5568.74 2051.01
  -3   2  28 9075.79 1281.98
  -3  -2  27 2154.57 1048.82
  -3   2  27 3137.96  905.96
  -3  -2  26  638.42 1023.24
  -3   2  26 2208.37  853.07
  -3  -2  25 4368.72 1262.17
  -3   2  25 5618.59 1395.00
  -3   2  24  860.36  818.52
  -3  -2  24  913.01  927.21
  -3  -2  23 1481.03 1332.99
  -3   2  23 2726.66  860.50
  -3  -2  22 4194.02 1081.24
  -3   2  22 2628.61  821.61
  -3  -2  21-1010.54 1128.29
  -3   2  21  605.15  668.59
  -3   2  20   79.84  651.31
  -3  -2  1952809.92 6318.15
  -3   2  1949423.63 6203.43
  -3  -2  18  135.41  321.09
  -3  -2  18-1706.23  730.01
  -3   2  18 -513.26  629.62
  -3  -2  1727017.62 3792.64
  -3   2  1726003.76 3069.05
  -3  -2  1627206.49 3308.12
  -3   2  1624503.12 2776.49
  -3  -2  15  596.28  788.71
  -3   2  15 1101.63  676.55
  -3  -2  1440773.73 5151.66
  -3   2  1436354.55 4477.63
   3  -2 -1333775.25 2778.05
  -3   2  1336780.44 4106.52
  -3  -2  1337661.86 4963.68
   3  -2 -12  964.28  487.02
  -3  -2  12 1096.65  863.15
  -3   2  12 -270.09  671.50
  -3  -2  11 3050.92 1118.26
  -3   2  11 4952.91 1069.90
  -3  -2  10    6.69  753.22
  -3   2  10  772.84  685.89
  -3   2   9  136.20  733.90
  -3  -2   9 -605.34  785.59
   3  -2  -8 -409.61  343.11
  -3  -2   8 -595.63  818.53
   3  -2  -7 2703.75  765.32
  -3  -2   7 2438.47  976.20
   3  -2  -6  404.60  630.62
  -3   2   6  464.51 1188.98
  -3  -2   6  -52.83  711.60
   3  -2  -5 3582.89  930.50
   3   2  -5 3458.24  341.80
  -3  -2   5 3996.14  947.20
  -3   2   5 6806.56 1632.56
   3  -2  -411674.20 1884.83
  -3   2   414953.98 2094.55
  -3  -2   411594.19 1563.97
   3  -2  -3114866.114374.30
  -3   2   3135756.418470.18
  -3  -2   3121553.015711.22
  -3  -2   3115619.910819.09
   3  -2  -225554.49 2746.71
  -3  -2   240724.56 3776.70
  -3   2   226869.39 3902.29
  -3  -2   223159.84 1674.74
   3   2  -131115.06 2591.74
   3  -2  -123761.77 2692.92
   3  -2  -141351.89 3591.67
  -3  -2   144008.23 4280.42
  -3   2   138167.91 4046.11
  -3  -2   137280.61 2363.45
   3   2   0 4443.79  799.25
   3   2   0 3893.95  705.45
   3  -2   0 4189.97  854.72
  -3  -2   0 3874.17  955.63
  -3  -2   0 3412.38  492.67
  -3   2   0 5090.93 1012.22
   3  -2   1 6169.84  914.93
   3   2   1 7962.34 1041.42
   3   2   1 6534.68  818.46
  -3  -2  -1 5463.58  676.80
  -3   2  -1 6317.98 1124.22
  -3  -2  -1 5703.90  963.52
   3   2   258578.26 5767.15
   3  -2   269127.41 6850.10
   3   2   262639.33 5327.40
  -3   2  -272057.88 7524.06
  -3  -2  -264450.57 5689.19
   3   2   3 6135.95  572.14
   3  -2   310887.59 1399.09
   3   2   3 7642.17 1271.25
  -3   2  -3 8694.17 1201.87
   3   2   4 -192.70  566.32
   3   2   4  368.02  255.67
   3   2   4  278.43  254.36
   3  -2   4  493.00  555.23
  -3   2  -4  241.39  663.68
   3   2   5  348.94  677.00
   3   2   5  591.72  221.49
   3   2   5  516.08  223.54
   3  -2   5  991.57  457.95
  -3   2  -5  602.60  478.65
   3   2   616368.21 2121.56
   3  -2   615350.54 1442.44
   3   2   617432.23 1362.22
  -3   2  -619028.91 1869.39
   3   2   764284.31 4775.61
   3  -2   771477.04 6500.89
   3   2   763105.97 7280.37
   3  -2   771276.58 6851.33
   3   2   772914.67 6015.34
   3   2   8 6719.30 1211.05
   3   2   8 5115.38  449.66
   3  -2   8 7171.89 1029.07
   3   2   8 5679.83  559.03
   3  -2   8 5871.86  997.49
   3   2   999504.0012581.84
   3  -2   9101205.811062.90
   3   2   992585.55 7673.12
   3  -2   9111760.313490.00
   3  -2  10 -633.74  691.02
   3   2  10   10.69   67.09
   3  -2  10  511.69  631.86
   3   2  10   73.36   97.03
   3   2  10 -235.05  742.75
   3   2  11 8863.85 1460.54
   3  -2  11 9940.98 1472.08
   3  -2  11 9917.18 1565.01
   3   2  1221608.98 2632.43
   3  -2  1220484.02 2525.25
   3  -2  1222672.75 2688.03
   3   2  13129413.117194.18
   3  -2  13141017.017007.12
   3  -2  13164417.919269.96
  -3  -2 -13115505.0 9494.24
   3  -2  1449866.87 4717.85
   3   2  1442891.62 4022.17
   3  -2  1450638.65 5233.74
   3  -2  15 2254.68  684.03
   3   2  15 1362.62  783.57
   3   2  15  878.65  170.73
   3  -2  15 1807.85  680.41
   3  -2  16 1445.17  370.00
   3   2  16 1155.63  521.95
   3  -2  16 1716.34  514.95
   3   2  16  665.22  192.19
  -3  -2 -16  645.22  113.01
   3  -2  1716560.69 1862.05
   3   2  1715002.43 1985.54
   3  -2  1716174.91 1578.63
   3   2  1711732.26  929.97
  -3  -2 -1713955.50  909.78
   3  -2  1814359.33 1731.91
   3  -2  1817287.52 2038.44
   3   2  1816020.55 1343.50
   3   2  1820797.45 2019.89
   3  -2  19 2760.03  703.55
   3   2  19  803.11  955.73
   3  -2  19 1132.82  530.58
   3   2  19  716.87  188.91
   3   2  2019468.90 2630.09
   3  -2  2014984.78 1767.02
   3  -2  2017822.26 2108.90
   3   2  2012327.23 1124.99
   3  -2  21  754.25  758.35
   3  -2  21  282.75  454.16
   3   2  21  266.83 1013.66
   3   2  22  502.83 1007.58
   3  -2  22 -265.30  458.90
   3  -2  22   82.72  820.34
   3   2  23 9690.94 1640.06
   3  -2  23 3440.62  701.13
   3  -2  23 6696.18 1206.70
   3  -2  24 6881.19 1160.56
   3   2  24 5562.71 1371.88
   3  -2  24 3555.07  669.20
   3   2  25  736.85 1302.70
   3  -2  25 1175.20  939.12
   3  -2  25  387.34  445.86
   3   2  26  529.55 1479.39
   3  -2  26 1341.37  885.74
   3  -2  27  671.46  924.35
   3   2  27   73.78  821.31
   3   2  2811103.01 2422.40
   3  -2  28 9154.17 1708.87
   3  -2  29 5982.31 1508.89
   3   2  29 3431.53 2014.81
   3  -2  30 1162.17 1194.32
   3   2  30 2682.99 1656.94
   3  -2  31  401.58 1132.15
   3   2  31  495.08 1582.00
   3  -2  32 2034.37 1134.10
   3   2  32-2249.18 1841.54
   3   2  33 2487.43 2089.81
   3  -2  33 2345.16 1276.59
   3   2  34 7590.39 2511.21
   3  -2  34 3539.89 1910.98
   3  -2  35 1711.12 1624.52
   3   2  35 4952.31 2332.40
   3  -2  36 1749.25 1485.04
   3   2  36-1273.63 2100.40
   3  -2  37 1304.56 1600.43
   3   2  37  122.16 2138.57
   3  -3 -37 1828.40  841.02
  -3  -3  37 2419.03 1184.45
   3  -3 -36  937.40  714.84
  -3  -3  36 -832.69  979.86
   3  -3 -35  939.14  442.83
  -3  -3  35 2177.50 1051.44
   3  -3 -34   90.74  377.88
  -3  -3  34 1037.67  990.98
  -3  -3  33 -276.22 1304.49
  -3   3  33  413.61  739.40
  -3  -3  32  523.32  974.16
  -3   3  32  428.94  783.89
  -3  -3  31 4327.08 1382.92
  -3   3  31 1696.33  998.74
  -3  -3  30 -335.93 1056.83
  -3   3  30 2558.32  814.77
  -3  -3  29   43.76 1016.55
  -3   3  29 1052.09 1096.68
  -3  -3  28 5570.74 1639.51
  -3   3  28 2339.32 1000.14
  -3  -3  27 5676.08 1247.22
  -3   3  27 5067.87 1128.42
  -3  -3  26 4834.22 1312.67
  -3   3  26 3331.24  968.65
  -3   3  25 2974.65 1209.31
  -3  -3  25 2224.02 1352.46
  -3  -3  24 5245.86 1397.89
  -3   3  24 5980.38 1120.30
  -3  -3  23 1129.21  947.21
  -3   3  23 1861.83  755.32
  -3  -3  22-1339.80 1133.09
  -3  -3  22  118.05  950.30
  -3   3  22 -331.51  634.22
  -3  -3  2119699.14 2243.21
  -3   3  2118745.71 2410.20
  -3  -3  2120591.45 3191.71
  -3  -3  20 6960.23 1128.02
  -3  -3  20 3541.98  690.46
  -3   3  20 3185.64 1265.49
  -3  -3  1915913.97 1390.57
  -3  -3  1917753.69 2629.45
  -3   3  1914949.67 2037.48
  -3  -3  18  636.16  392.77
  -3   3  18 1448.88  713.92
  -3  -3  18  709.00  803.80
  -3  -3  17 5912.42  657.94
  -3  -3  17 7423.28 1216.93
  -3   3  17 7903.64 1466.57
  -3  -3  1620369.71 1540.72
  -3  -3  1622549.57 2792.68
  -3   3  1620749.06 2371.69
  -3  -3  1515507.24 1089.80
  -3  -3  1517944.40 2609.35
  -3   3  1518166.54 2439.14
  -3  -3  1417365.90 1148.62
  -3  -3  1425389.27 3205.72
  -3   3  1420492.52 2370.74
   3  -3 -13 3042.24  532.03
  -3  -3  13 2363.61  275.16
  -3  -3  13 5372.65 1184.34
   3  -3 -1221916.99 2392.65
  -3  -3  1224945.79 3507.44
   3  -3 -1133238.29 3318.25
  -3  -3  1134326.91 4522.85
   3  -3 -1029395.58 2863.56
  -3  -3  1028324.41 3599.48
   3  -3  -9 1475.80  733.20
  -3  -3   9 1814.24  853.37
   3  -3  -811883.99 1742.27
  -3  -3   812915.92 2138.17
   3  -3  -7 2581.78  828.12
  -3  -3   7 2503.99  849.86
   3  -3  -641822.62 3971.61
  -3  -3   632385.26 1949.29
  -3  -3   638072.55 3983.10
   3  -3  -560174.85 6050.85
  -3  -3   556350.52 3871.41
  -3  -3   567832.38 7315.48
  -3   3   566671.72 8477.25
   3  -3  -426165.76 2692.08
  -3  -3   422377.45 1490.53
  -3  -3   427873.64 3248.16
  -3   3   430585.24 4083.89
   3  -3  -3 5357.16  906.04
  -3  -3   3 5328.72 1340.02
  -3  -3   3 3237.25  460.73
  -3   3   3 4187.87 1594.00
   3  -3  -210500.65 1757.94
  -3  -3   2 7682.39  763.10
  -3   3   211508.10 2234.39
  -3  -3   210431.40 1603.07
   3  -3  -1 5532.63 1002.28
   3   3  -1 5528.83 1922.09
  -3  -3   1 5102.39  575.77
  -3   3   1 7056.91 1435.47
  -3  -3   1 5089.38  979.84
   3  -3   0 7021.64 1001.63
   3   3   010218.41 2433.80
   3   3   0 5469.31  743.56
  -3   3   0 7559.78 1604.81
  -3  -3   0 4005.27  691.50
  -3  -3   0 6670.96 1235.35
   3   3   1 4739.99  965.72
   3   3   1 2708.21  503.56
   3  -3   1 4549.42  867.45
  -3  -3  -1 4486.40  654.53
  -3   3  -1 3857.53 1390.89
   3   3   2 7682.59 1425.79
   3   3   2 6211.09  620.65
   3  -3   2 6941.98  956.24
  -3   3  -2 8153.12 1454.31
  -3  -3  -2 6513.55  966.38
   3   3   3 7160.65 1342.43
   3   3   3 7256.96  613.52
   3  -3   3 8838.94 1110.60
  -3   3  -3 8625.92 1573.34
  -3  -3  -3 6269.82  649.31
   3   3   4 6207.93 1395.01
   3   3   4 4826.22  468.05
   3  -3   4 5912.20 1068.32
  -3   3  -4 2847.81 1141.20
  -3  -3  -4 4595.69  570.81
   3  -3   5134932.816442.87
   3   3   5129369.618303.77
  -3   3  -5133926.017676.98
   3  -3   6 7750.87 1355.51
   3   3   6 8330.10 1511.72
  -3   3  -6 8262.03 1330.17
   3   3   7 2635.33 1080.54
   3  -3   7 3758.71  896.35
  -3   3  -7 1472.12  799.22
   3   3   8100504.512910.73
   3  -3   8118484.013235.43
  -3   3  -8118110.414630.15
   3   3   923804.08 2985.74
   3  -3   927670.97 3118.21
  -3   3  -928778.08 3402.34
   3  -3  1034086.71 3236.20
   3   3  1030832.91 3688.24
   3   3  1128595.82 3512.62
   3  -3  1130167.00 3213.07
   3  -3  1132671.24 3365.10
   3   3  1290061.7611142.45
   3  -3  1293910.8010339.55
   3  -3  1299500.0012179.78
   3   3  1310930.67 1877.53
   3  -3  1312494.15 1642.84
   3  -3  1311117.72 1733.43
   3   3  14 3242.54 1105.09
   3  -3  14 4257.14  810.80
   3  -3  14 3353.79  977.30
   3   3  1529224.78 3812.17
   3  -3  1536406.58 4197.53
   3  -3  1535894.97 3872.44
   3   3  16  849.76  553.47
   3  -3  16 1113.96  542.79
   3  -3  16 1553.04  673.87
   3  -3  1725332.82 2739.80
   3   3  1717734.72 2504.24
   3  -3  1720054.04 2466.64
   3  -3  18 7401.01 1194.12
   3   3  18 9834.69 1768.16
   3  -3  18 6676.78  927.44
   3   3  19 1675.28 1304.23
   3  -3  19 2594.48  572.21
   3  -3  19 3806.84  820.07
   3  -3  20  295.59  658.63
   3   3  20  985.13 1112.55
   3  -3  20  178.44  439.60
   3  -3  2145546.34 4920.40
   3  -3  2136529.68 3728.21
   3   3  2145627.44 5195.21
   3  -3  22 -524.43  661.51
   3   3  22 -767.37 1118.03
   3  -3  22  477.21  606.29
   3   3  23  709.94 1192.27
   3  -3  23 -332.37  556.11
   3  -3  23  624.67  733.09
   3   3  24-1022.60 1305.92
   3  -3  24  250.80  415.65
   3  -3  24   21.29  846.53
   3  -3  25 2010.86  890.33
   3  -3  25  914.57  619.59
   3   3  25  955.26 1455.19
   3  -3  26  397.60  909.95
   3  -3  26 1016.94  695.60
   3   3  26-1531.01 1396.26
   3   3  27 3805.35 1798.45
   3  -3  27 4670.49 1214.56
   3  -3  2810053.77 1912.55
   3   3  2811261.57 2793.26
   3   3  29 1312.19 1780.32
   3  -3  29 -318.33  953.32
   3  -3  30 1178.30 1031.80
   3   3  30  566.18 1850.11
   3   3  3124190.04 4762.31
   3  -3  3122375.16 3068.02
   3  -3  32 -177.70 1112.44
   3   3  32 2752.73 1897.31
   3   3  33 3225.02 2074.97
   3  -3  33 1166.31 1238.99
   3  -3  34 -703.95 1176.82
   3   3  34 -894.34 2034.68
   3  -3  35  881.89 1189.92
   3   3  35-2884.11 3841.21
   3  -3  36  751.42 1517.21
   3   3  36-1939.17 3754.13
   3  -3  37 6519.46 2161.65
   3   3  37 7326.63 5239.08
   3  -4 -36 2440.58  785.51
  -3  -4  36  471.30 1523.98
   3  -4 -35 1366.66  962.98
  -3  -4  35 1083.78 1081.52
   3  -4 -34  236.66  635.55
  -3  -4  34  558.13 1069.55
   3  -4 -33 5829.87  969.64
  -3  -4  33 4049.78 1365.16
   3  -4 -32 -277.55  607.17
  -3  -4  32  -23.40 1020.45
   3  -4 -31  939.88  688.85
  -3  -4  31 1653.87 1076.62
   3  -4 -30  684.43  901.78
  -3  -4  30 2340.93 1040.96
   3  -4 -2912289.32 1605.88
  -3  -4  29 7278.19 2076.88
   3  -4 -28 1365.93  686.00
  -3  -4  28 2043.13 1024.69
   3  -4 -2724334.64 2563.25
  -3  -4  2716988.34 2845.63
   3  -4 -26 5212.31  835.21
  -3  -4  26 1566.29 1198.12
   3  -4 -25 7164.91 1078.92
  -3  -4  25 5849.74 1492.86
   3  -4 -24 5039.43  935.58
  -3  -4  24 2917.44 1133.11
   3  -4 -23  758.62  631.83
   3  -4 -22 3062.56  674.22
  -3  -4  22 2371.19  588.95
  -3  -4  22 2063.27 1061.29
   3  -4 -21 4427.97  799.26
  -3  -4  21 4755.57  688.73
  -3  -4  21 5429.36 1234.06
   3  -4 -20 4605.09  899.58
  -3  -4  20 3883.01  559.93
  -3  -4  20 4885.23 1097.82
   3  -4 -19 6496.64 1175.86
  -3  -4  19 5872.11  640.72
  -3  -4  19 5401.12 1188.91
   3  -4 -18 8366.46 1140.21
  -3  -4  18 8965.03 1701.86
   3  -4 -1719832.69 2330.33
  -3  -4  1719436.00 3047.67
   3  -4 -16  246.51  588.01
  -3  -4  16  476.99  145.85
  -3  -4  16 1297.61  769.45
   3  -4 -15 4080.86  775.57
  -3  -4  15 2944.38  887.97
   3  -4 -14   75.86  561.30
  -3  -4  14-1807.69 1013.51
   3  -4 -1313583.54 1521.90
  -3  -4  1312468.37 2016.32
   3  -4 -1246506.87 4648.87
  -3  -4  1253649.72 6799.73
   3  -4 -11 2970.81  738.57
  -3  -4  11 3035.70  870.01
   3  -4 -10 3219.04  871.09
  -3  -4  10 3356.71  964.79
   3   4  -9  201.52  205.73
   3  -4  -9  858.93  683.20
  -3  -4   9 -425.87  808.50
   3  -4  -8 2222.91  839.93
  -3  -4   8 3337.48  798.47
  -3  -4   8 1325.33 1342.73
   3  -4  -713076.58 1922.19
  -3  -4   712741.85 1798.11
  -3  -4   710390.38  793.85
   3  -4  -6 9038.85 1226.44
  -3  -4   610996.06  858.84
  -3  -4   6 8917.98 1624.26
   3  -4  -531868.64 3027.44
  -3  -4   537280.50 4108.39
  -3  -4   530608.66 1973.45
   3  -4  -4 3924.63  893.81
  -3  -4   4 3756.09  818.21
  -3  -4   4 3008.84  587.63
   3  -4  -358934.25 6517.56
  -3   4   368162.0010753.01
  -3  -4   360762.93 6432.24
   3  -4  -2  416.37  997.66
  -3  -4   2 -607.59  488.63
  -3  -4   2   36.43  788.00
  -3   4   2-1234.67 1463.96
   3  -4  -136221.56 3359.09
  -3  -4   126434.89 1738.97
  -3  -4   133939.02 3424.46
  -3   4   138017.24 5604.78
   3  -4   0  710.54  696.93
  -3  -4   0 2699.83  763.02
  -3   4   0  -55.70 1546.43
   3  -4   135056.81 3574.26
  -3  -4  -138511.27 3802.83
  -3   4  -135364.40 4965.16
   3   4   2 4290.36  657.78
   3  -4   2 3203.26  867.44
  -3   4  -2 4605.30 1678.91
  -3  -4  -2 5193.82  892.50
   3   4   318869.86 1489.13
   3   4   319251.90 3648.71
   3  -4   321078.09 2201.14
  -3   4  -316981.46 3009.47
  -3  -4  -314156.06 1094.95
   3  -4   4 -170.55  600.20
   3   4   4 -272.95 2023.17
   3   4   4  195.23  176.70
  -3  -4  -4 -425.62  286.84
  -3   4  -4 -951.56  912.18
   3   4   511807.51  894.11
   3  -4   514500.91 1453.66
   3   4   5 9929.48 1958.69
  -3   4  -513543.59 2129.52
  -3  -4  -516373.13 1229.71
   3   4   6 1883.79 1268.29
   3  -4   6 2044.63  699.73
   3   4   6 1670.48  297.12
  -3   4  -6 1866.86  853.03
  -3  -4  -6 1968.67  305.34
   3   4   713391.99  707.78
   3   4   722045.09 3047.67
   3  -4   715192.69 1434.77
   3   4   714786.22  849.21
  -3   4  -717914.70 2272.95
   3  -4   8  688.95  848.26
   3   4   8 1593.45 1361.94
  -3   4  -8 1107.44  493.53
   3   4   914051.22 2419.29
   3  -4   913553.64 1866.89
  -3   4  -912588.62 1611.27
   3   4  1010417.48 1952.88
   3  -4  10 6223.55  935.76
  -3   4 -10 6230.28 1212.28
   3   4  11 -605.84  933.83
   3  -4  11   10.58  570.57
  -3   4 -11 -419.05  756.06
   3   4  12 1541.52 1096.14
   3  -4  12  914.89  706.77
  -3   4 -12 1891.83  765.41
   3   4  1329922.15 3250.94
   3  -4  1331517.03 4039.77
   3  -4  1332193.27 3364.26
   3  -4  14 4683.75  786.69
   3   4  14 3513.05 1249.20
   3  -4  14 3948.16 1067.38
   3   4  15 3275.79 1223.88
   3  -4  15 1901.96  699.04
   3  -4  15 2176.55  755.75
   3  -4  16 1808.92  624.77
   3  -4  16 2376.14  742.13
   3   4  16 2214.06  738.94
   3  -4  1745629.86 5395.52
   3   4  1744886.12 6186.25
   3  -4  1746787.13 5208.54
   3  -4  18  944.80  726.72
   3   4  18  -55.67 1043.64
   3  -4  18  301.97  658.71
   3   4  1915678.72 2933.19
   3  -4  1916625.50 1999.37
   3  -4  1916420.13 2121.14
   3  -4  20 -217.65  701.76
   3   4  20 -306.31 1334.54
   3  -4  20 -255.71  644.80
   3  -4  21    3.73  662.52
   3   4  21-1012.01 1452.41
   3  -4  21 -133.86  526.44
   3  -4  22 7123.24 1295.93
   3  -4  22 6247.92  787.38
   3   4  2211332.54 1965.51
   3  -4  23 1069.48  752.25
   3  -4  23 2026.76  816.06
   3   4  23 3204.34 1618.70
   3  -4  24   61.48  763.58
   3  -4  24  116.92  477.36
   3   4  24 -866.34 1549.53
   3  -4  25 5793.13 1071.00
   3   4  25 6588.08 2046.75
   3  -4  25 3220.78  913.03
   3  -4  26 3785.16 1171.12
   3   4  26 4424.34 1986.76
   3  -4  26 3523.18  870.96
   3  -4  27 1275.51  925.23
   3   4  27 -413.35 1584.11
   3  -4  27 -867.57  499.34
   3  -4  28-1459.31  996.73
   3   4  28 1445.95 1689.29
   3  -4  2910446.36 1754.61
   3   4  29 7688.10 1642.05
   3  -4  30  579.47  988.19
   3   4  30-3065.51 3198.25
   3  -4  31 -474.89  945.85
   3   4  31 3168.18 3336.87
   3  -4  32 -707.88 1048.82
   3   4  32 2251.76 3407.27
   3  -4  33 4195.45 1357.72
   3   4  33 5138.79 4247.48
   3  -4  34 -625.84 1135.05
   3   4  34-1891.89 3571.80
   3   4  35-1003.22 4310.88
   3  -4  35 3483.41 1403.04
   3  -4  36 1626.11 1288.93
   3   4  36-1461.45 3986.48
   3  -5 -36  822.31  961.67
  -3  -5  36 -272.49 1072.52
   3  -5 -35  550.06  702.03
  -3  -5  35 2229.79 1207.03
   3  -5 -34  296.43  628.03
  -3  -5  34  101.78 1034.50
   3  -5 -33 2291.04  787.55
  -3  -5  33  571.86 1479.59
   3  -5 -32  123.32  659.83
  -3  -5  32 1680.69 1062.39
   3  -5 -3113615.64 1562.99
  -3  -5  31 6192.59 1613.52
   3  -5 -30 2404.96 1054.49
  -3  -5  30 1792.60 1165.72
   3  -5 -29 -894.94  624.78
  -3  -5  29 1025.90  998.10
   3  -5 -28 -586.41  656.78
  -3  -5  28  -23.59  969.67
   3  -5 -27  479.24  674.73
  -3  -5  27 1122.65 1014.43
   3  -5 -2612524.84 1490.99
  -3  -5  2611150.51 2417.75
   3  -5 -25 1740.80  680.95
  -3  -5  25 2812.67 1183.10
   3  -5 -24 -514.17  597.16
  -3  -5  24 -130.08  971.16
   3  -5 -23 1307.77  613.29
  -3  -5  23  889.77  968.04
   3  -5 -22 5163.35  961.17
  -3  -5  22 6068.51 1522.06
   3  -5 -2120895.91 2542.78
  -3  -5  2120946.55 1665.65
  -3  -5  2126009.27 3548.42
   3  -5 -20 1683.28  652.65
  -3  -5  20  587.60  270.68
  -3  -5  20 2190.69  928.02
   3  -5 -19   87.92  539.31
  -3  -5  19 -137.00  233.03
  -3  -5  19-1460.35  793.48
   3  -5 -18 -327.45  590.07
  -3  -5  18  289.13  220.43
  -3  -5  18 -132.98  772.15
   3  -5 -1730710.37 2813.26
  -3  -5  1721714.39 1386.33
  -3  -5  1733039.96 4231.57
   3  -5 -1611695.15 1473.58
  -3  -5  1610458.40 1831.60
   3  -5 -1534106.78 3463.85
  -3  -5  1536103.24 4431.88
   3  -5 -14 1653.27  652.47
  -3  -5  14  905.74  788.28
   3   5 -13  -70.18  187.95
   3  -5 -13  603.96  579.75
  -3  -5  13 1213.12  761.44
   3  -5 -12 9109.51 1314.74
  -3  -5  12 9553.56 1656.23
   3  -5 -1168509.33 6992.45
  -3  -5  1167835.72 8312.51
   3  -5 -10 2825.18  730.60
   3   5 -10 1306.94  463.87
  -3  -5  10 1968.61  769.10
   3  -5  -981803.97 8941.54
  -3  -5   977747.19 9362.08
   3  -5  -8  755.57  639.61
  -3  -5   8  721.31  749.63
   3  -5  -712911.86 1505.24
  -3  -5   710694.19 1649.18
   3  -5  -6 2593.37  838.82
  -3  -5   6 1393.66  758.52
   3  -5  -559882.31 6459.22
  -3  -5   555469.33 7392.92
  -3  -5   560397.45 6846.69
   3  -5  -410253.35 1348.83
  -3  -5   421264.55 2797.40
  -3  -5   414377.68 1716.47
   3  -5  -3  219.00  677.66
  -3  -5   3  539.07  842.19
  -3  -5   3  283.72  709.16
   3  -5  -2 3831.59  883.24
  -3   5   2 5654.05 2202.03
  -3  -5   2 3327.67  855.66
   3  -5  -1 9193.05 1275.29
  -3  -5   111138.98 1367.29
  -3   5   1 8800.76 2759.06
   3  -5   0 1714.92  797.23
  -3  -5   0 2270.73  764.10
  -3   5   0 2103.14 1899.49
   3  -5   192765.6410545.72
  -3   5  -1104071.116666.83
  -3  -5  -1101790.010684.17
   3   5   2  103.40  358.52
   3  -5   2  394.11  664.82
  -3  -5  -2 -380.93  489.91
  -3   5  -2 1764.74 1291.31
   3   5   316522.54 1549.30
   3  -5   318465.70 2505.16
  -3  -5  -321363.65 1949.64
  -3   5  -317619.97 3159.05
   3  -5   417095.64 1864.59
   3   5   417184.32 1393.81
  -3   5  -418500.20 3267.82
   3  -5   589830.7410230.20
   3   5   589996.22 8428.37
  -3   5  -599153.1612118.84
   3  -5   6176395.822802.60
   3   5   6170400.418231.62
  -3   5  -6164917.827171.10
   3  -5   754134.02 5956.28
   3   5   744770.48 9214.37
   3   5   754902.60 3652.51
  -3  -5  -756760.37 4266.89
  -3   5  -757067.31 6079.04
   3  -5   8 8790.36 1131.08
   3   5   8 8866.38 3012.99
  -3   5  -8 9947.33 1657.94
   3  -5   918523.74 2156.65
   3   5   917040.37 4398.98
  -3   5  -919171.31 2513.08
   3   5  10 6758.60 2752.77
   3  -5  10 6103.32  965.41
  -3   5 -10 4150.34  888.80
   3  -5  1158241.86 6690.63
   3   5  1190529.7214462.33
  -3   5 -1162374.23 7671.49
   3  -5  12  431.89  756.68
   3   5  12 2989.66 2323.53
  -3   5 -12 2165.64  773.46
   3   5  13  854.07 1184.45
   3  -5  13 1635.35 1043.97
  -3   5 -13 -838.35  671.20
   3   5  14 6513.38 1260.75
   3  -5  14 6918.47 1208.99
  -3   5 -14 6030.48 1197.54
   3  -5  1518501.88 2080.35
   3   5  1516207.92 2562.55
   3  -5  15 9519.06  972.65
   3  -5  16 9192.00 1433.94
   3   5  1610720.48 2303.83
   3  -5  1612974.14 1605.01
   3  -5  1726371.93 3081.42
   3   5  1720868.84 3779.88
   3  -5  1724246.87 2447.44
   3  -5  18 4353.62  888.17
   3  -5  18 2843.27  692.34
   3   5  18 2069.55 1487.27
   3   5  19  727.08 1374.87
   3  -5  19  777.43  679.65
   3  -5  19 2575.26  827.22
   3  -5  20 5721.98  996.39
   3   5  20 4371.83 1316.79
   3  -5  20 3110.92  936.17
   3  -5  2119618.86 2333.57
   3  -5  2117925.34 2447.87
   3   5  2117783.74 3345.67
   3  -5  2210601.94 1189.10
   3  -5  22 8179.97 1290.89
   3   5  22 5836.53 2259.75
   3  -5  23  633.04  754.53
   3   5  23    3.66 2976.66
   3  -5  23 2136.44  866.30
   3  -5  24 1537.62  839.31
   3  -5  24 1020.43  845.35
   3   5  24-2061.76 3067.37
   3  -5  25 3503.88  875.62
   3   5  25 3372.30 3093.08
   3  -5  25  320.90  560.76
   3  -5  26 2478.97 1018.76
   3  -5  26 6394.47 1152.19
   3   5  2611109.79 3700.75
   3  -5  27  847.96  933.97
   3   5  27-1385.24 3046.57
   3  -5  27  477.26  806.63
   3   5  28 1674.88 3199.55
   3  -5  28 -264.60  851.37
   3  -5  28 1126.02  965.86
   3   5  29  622.04 3439.70
   3  -5  29 1317.67 1008.92
   3  -5  30 2081.30 1124.29
   3   5  30 1381.25 3496.25
   3  -5  31 7711.63 1554.79
   3   5  31 3360.01 4279.08
   3   5  32 2249.97 3441.91
   3  -5  32  422.25  633.24
   3  -5  33-1111.33 1081.53
   3   5  33-8659.30 3646.50
   3  -5  34  528.84 1109.32
   3  -5  35 2345.46 1217.48
   3  -5  36 1005.70 1278.28
   3  -6 -36  937.60  753.38
  -3  -6  36 1417.43 1172.99
   3  -6 -35  530.18  691.24
  -3  -6  35   -8.10 1111.07
   3  -6 -34 2579.71  857.98
  -3  -6  34 4467.11 1359.39
   3  -6 -33  421.68  651.05
  -3  -6  33 -828.21 1013.61
   3  -6 -32 1746.12  699.26
  -3  -6  32 1137.97 1143.56
   3  -6 -31   23.34  851.57
  -3  -6  31 -188.74 1396.40
   3  -6 -30 9310.58 1310.69
  -3  -6  30 5340.35 1993.56
   3  -6 -29   10.83  600.45
  -3  -6  29  155.05  968.99
   3  -6 -2818690.48 2291.39
  -3  -6  2815735.94 2817.04
   3  -6 -27 1007.81  676.82
  -3  -6  27 3130.03 1178.86
   3  -6 -26 2569.71  741.28
  -3  -6  26 1718.41 1128.01
   3  -6 -25 3968.34  804.86
  -3  -6  25 2402.12 1142.69
   3  -6 -24 7650.03 1151.05
  -3  -6  24 6520.58 1471.05
   3  -6 -2310375.32 1692.70
  -3  -6  23 9657.45 2171.48
   3  -6 -22 2853.20  726.39
  -3  -6  22 2915.43 1099.03
   3  -6 -21 1291.03  625.58
  -3  -6  21  391.32  307.19
  -3  -6  21 2931.78  951.40
   3  -6 -20 9518.62 1497.08
  -3  -6  20 6815.35  643.81
  -3  -6  20 4943.52 1304.47
   3  -6 -19 1688.63  764.96
  -3  -6  19 1732.28  304.39
  -3  -6  19 3048.79  931.89
   3  -6 -1816031.83 1976.92
  -3  -6  1812232.98 2007.34
  -3  -6  18 9760.89  787.39
   3  -6 -1727086.10 2747.79
  -3  -6  1728346.34 3575.57
  -3  -6  1724665.86 1823.57
   3  -6 -16 9517.25 1273.82
  -3  -6  16 8279.92 1624.80
  -3  -6  1610206.01  836.90
   3   6 -15 7690.25  815.50
   3  -6 -15 8405.34 1086.83
  -3  -6  15 8567.30 1477.78
   3   6 -14  370.11  330.28
   3  -6 -14 1754.38  613.39
  -3  -6  14 2630.64 1008.15
   3  -6 -13 1262.07  601.71
   3   6 -13  401.21  343.40
  -3  -6  13  -62.92  675.36
   3   6 -1231557.15 3290.41
   3  -6 -1227235.69 2790.60
  -3  -6  1225998.59 3486.06
   3   6 -11 1162.84  742.02
   3  -6 -11 5074.88  851.08
  -3  -6  11 5139.59 1029.85
   3   6 -10 -987.98  833.75
   3  -6 -10  809.00  666.54
  -3  -6  10 -363.53  669.73
   3  -6  -916966.22 2196.87
  -3  -6   916052.05 2228.69
   3  -6  -810921.11 1579.17
  -3  -6   812215.64 2057.30
   3  -6  -7 -167.45  898.49
  -3  -6   7  251.27  649.33
   3  -6  -612686.31 1590.83
  -3  -6   613596.53 2102.91
   3  -6  -5  347.39  624.96
  -3  -6   5  -16.87  597.23
   3  -6  -417503.52 1983.95
  -3  -6   417391.00 2361.60
   3  -6  -3   85.78  654.70
  -3  -6   3 -163.93  530.94
   3  -6  -296684.0510986.44
  -3   6   2104121.917251.13
  -3  -6   2101758.511591.32
   3  -6  -111371.40 1533.40
  -3   6   113668.49 3251.86
  -3  -6   111872.76 1618.70
   3  -6   0 8404.32 1266.69
  -3   6   010442.24 3306.18
  -3  -6   0 9755.67 1378.79
   3  -6   111424.60 1502.08
  -3   6  -1 9672.66 3032.19
  -3  -6  -111726.32 1472.52
   3  -6   282939.83 9023.37
  -3  -6  -289527.12 9043.42
  -3   6  -292061.6015629.32
   3  -6   317567.93 1977.79
   3   6   316967.85 1771.98
  -3   6  -320170.06 4265.04
  -3  -6  -321274.04 1879.80
   3  -6   454142.87 5848.95
  -3  -6  -461865.94 5076.39
  -3   6  -458509.64 9413.94
   3  -6   563362.78 6505.18
   3   6   565951.91 5411.00
  -3   6  -570202.98 8531.80
   3  -6   6103597.111977.82
  -3   6  -6124620.618991.18
   3   6   721742.28 1388.26
   3  -6   726381.46 2701.73
  -3   6  -729549.87 4433.04
   3  -6   855833.40 6566.78
  -3   6  -864412.62 8733.24
   3  -6   936486.66 3875.98
  -3   6  -940293.20 5379.82
   3  -6  1019386.35 2218.53
  -3   6 -1014153.59 2183.94
   3  -6  11 1727.99  758.89
  -3   6 -11 2104.58  919.89
   3  -6  1211989.86 2050.57
  -3   6 -1210458.29 1203.39
   3   6  13   72.58 2136.31
   3  -6  13  904.20 1109.45
  -3   6 -13  -18.54  359.92
   3   6  1410390.88 2453.02
   3  -6  1411204.16 1618.49
  -3   6 -1412948.56 1859.72
   3   6  15   41.77 2506.96
   3  -6  15 3455.91  876.80
  -3   6 -15 1646.49  814.81
   3   6  16 7244.65 3005.44
   3  -6  16 5295.24 1379.03
  -3   6 -16 6613.49 1102.56
   3   6  1714437.46 3528.97
   3  -6  17 9938.37 1766.36
   3  -6  17 7707.96  881.91
   3  -6  1817741.36 2346.95
   3   6  1812753.81 4495.14
   3  -6  1818486.11 2168.55
   3  -6  19  599.17  638.42
   3  -6  19  207.68  413.64
   3   6  19 2707.06 2438.73
   3   6  20 7798.75 3646.48
   3  -6  20 9521.48 1728.26
   3  -6  2012733.91 1752.01
   3  -6  21  814.38  640.74
   3   6  21  475.94 2477.52
   3  -6  21  496.51  787.72
   3  -6  22-1467.67  882.35
   3   6  22 2325.90 2590.52
   3  -6  22  218.95  711.35
   3  -6  23 1230.75  667.52
   3   6  23-1805.21 2804.03
   3  -6  23  974.68  827.35
   3   6  24 3549.88 3540.28
   3  -6  24 6094.22  919.20
   3  -6  24 5405.20  985.33
   3  -6  25 5225.30 1016.39
   3  -6  25 4065.90 1108.93
   3   6  25 2783.43 3446.77
   3  -6  26 4631.60  687.26
   3   6  26 6015.61 3687.66
   3  -6  26 5130.02 1169.74
   3  -6  27 1737.58  777.56
   3  -6  27 3935.04 1049.80
   3  -6  28  857.63  709.12
   3  -6  28 4701.17 1055.81
   3  -6  29 -355.66  932.69
   3  -6  29 -308.99  629.42
   3  -6  30 2142.83 1132.61
   3  -6  31 -410.35  959.74
   3  -6  32 -324.45 1001.72
   3  -6  33  130.48 1013.44
   3  -6  34 1522.09 1189.74
   3  -6  35 2751.49 1281.59
   3  -7 -35  930.34  785.87
  -3  -7  35  312.09 1171.40
   3  -7 -34  901.10  773.71
  -3  -7  34 2179.21 1149.83
   3  -7 -33  -71.19  665.82
  -3  -7  33  758.22 1063.49
   3  -7 -3212449.06 1845.05
  -3  -7  32 7065.84 1700.34
   3  -7 -31 1747.08  769.82
  -3  -7  31  875.14 1155.97
   3  -7 -3011567.39 1547.92
  -3  -7  30 2916.18 1412.25
   3  -7 -29 1071.62  620.50
  -3  -7  29-1166.09 1407.84
   3  -7 -28  629.01  637.26
  -3  -7  28 1106.98 1042.01
   3  -7 -27 -911.28  635.95
  -3  -7  27 -870.81 1018.65
   3  -7 -2616974.15 2035.59
  -3  -7  2616049.99 2759.67
   3  -7 -25 2975.75  786.37
  -3  -7  25 1750.93 1059.31
   3  -7 -24 -461.37  885.31
  -3  -7  24 1129.57  928.99
   3  -7 -23 1663.48  681.14
  -3  -7  23  276.72  890.26
   3  -7 -2223012.17 2734.45
  -3  -7  2222390.15 3499.47
   3  -7 -21  949.60  845.29
  -3  -7  21 1683.35  967.86
   3  -7 -2028395.56 2911.40
  -3  -7  2026106.24 3735.50
  -3  -7  2020796.67 1761.16
   3  -7 -19 1760.77  908.35
  -3  -7  19 1389.28  808.39
  -3  -7  19 1485.50  365.23
   3  -7 -18  419.88  590.11
  -3  -7  18 -388.83  729.54
  -3  -7  18  278.09  288.94
   3  -7 -17 1327.01  669.79
   3   7 -17 3173.36  554.27
  -3  -7  17 2152.66  923.43
   3  -7 -1647371.36 4737.66
  -3  -7  1648427.87 6019.23
   3   7 -15  717.13  478.94
   3  -7 -15  101.53  607.43
  -3  -7  15  695.74  785.91
   3   7 -1422862.99 2403.04
   3  -7 -1421841.67 2189.58
  -3  -7  1423488.03 2944.25
   3   7 -1314161.86 1875.72
   3  -7 -1314020.37 1671.76
  -3  -7  1312435.78 1951.58
   3   7 -12 1187.29  886.35
   3  -7 -12 2315.59  714.52
  -3  -7  12 2645.81  851.65
   3   7 -1117719.98 2707.89
   3  -7 -1118294.23 2020.26
  -3  -7  1116842.53 2235.38
   3  -7 -10103767.512240.73
   3   7 -10109174.315765.64
  -3  -7  10111737.214101.50
   3  -7  -9  142.91  602.18
  -3  -7   9  686.36  686.18
   3  -7  -8 1029.19  903.78
  -3  -7   8 1105.53  653.50
   3  -7  -7 -229.03  567.94
  -3  -7   7  663.74  604.53
   3  -7  -6  734.49  704.16
  -3  -7   6  308.39  798.70
   3  -7  -5   75.46  919.52
  -3  -7   5 -319.00  546.37
   3  -7  -415424.95 1788.07
  -3  -7   417680.04 1866.06
   3  -7  -3  105.95  700.51
  -3  -7   3  896.18  588.03
   3  -7  -2  937.77  662.99
  -3  -7   2  163.46  561.82
   3  -7  -1   59.69  661.20
  -3  -7   1  -35.88  679.38
  -3   7   1-2931.91 1626.98
   3  -7   053202.76 5421.40
  -3  -7   056781.00 5288.07
  -3   7   051839.54 7035.05
   3  -7   122442.67 2376.96
  -3  -7  -121655.28 2149.25
  -3   7  -123712.63 4608.71
   3  -7   2-1080.35  656.40
  -3  -7  -2  204.33  524.56
  -3   7  -2 -877.77 1737.68
   3  -7   3 8596.96 1354.17
  -3   7  -3 8554.02 2393.68
  -3  -7  -3 7571.04  981.69
   3  -7   425613.69 3179.40
  -3  -7  -427356.03 2171.73
  -3   7  -425886.26 5139.60
   3  -7   5 5542.92 1087.43
   3   7   5 2759.32  390.02
  -3  -7  -5 4325.00  584.03
  -3   7  -5 5328.48 1553.17
   3  -7   6113698.614392.91
   3   7   6114573.811179.24
  -3  -7  -6142010.813560.05
  -3   7  -6127453.221036.80
   3  -7   712407.79 1977.43
  -3   7  -7 9925.68 2510.90
   3  -7   818812.44 2646.10
  -3   7  -814762.70 2997.55
   3  -7   9 1035.87 1116.62
  -3   7  -9 3355.39 1143.38
   3  -7  10 8610.79 1623.30
   3   7  10 7286.19  438.66
  -3   7 -10 9473.15 1671.30
   3  -7  11  495.86 1034.49
  -3   7 -11  175.60  753.83
   3  -7  12 6945.22 1664.51
  -3   7 -12 7918.74 1371.37
   3  -7  13 5338.00 1198.25
  -3   7 -13 5353.83 1067.04
   3  -7  14 1192.16  889.72
  -3   7 -14 2684.75  747.89
   3  -7  15  439.24  823.09
  -3   7 -15  958.60  761.90
   3  -7  1610146.56 2034.16
  -3   7 -16 7656.89 1352.96
   3  -7  17 9155.24 1618.12
  -3   7 -1712080.90 1868.32
   3  -7  18 5983.53 1370.09
  -3   7 -18 7090.28 1279.17
   3  -7  19  181.32  699.37
   3  -7  19 -473.31  380.05
   3  -7  20 5811.27 1299.69
   3  -7  20 7254.62 1061.71
   3  -7  21 2206.83  787.75
   3  -7  21 3533.95  858.94
   3  -7  22 3280.08  869.95
   3  -7  22 3140.28 1139.12
   3  -7  23 2141.24  840.92
   3  -7  23 2680.63  918.10
   3  -7  24 5292.62 1078.98
   3  -7  24 3890.70 1109.22
   3  -7  25 -445.27  620.20
   3  -7  25 1564.02  873.33
   3  -7  26  943.96  907.98
   3  -7  26  617.29  926.19
   3  -7  27 -135.38  942.67
   3  -7  27 -203.57  923.28
   3  -7  28  977.88  973.56
   3  -7  28 1201.25  982.99
   3  -7  29  -46.49  848.48
   3  -7  29   64.53  881.14
   3  -7  30 3199.70 1085.75
   3  -7  30 1956.87 1070.55
   3  -7  31   87.95  889.05
   3  -7  32 8735.01 1768.08
   3  -7  33  -44.14 1102.69
   3  -7  34 -296.10 1091.18
   3  -7  35  944.31 1148.38
   3  -8 -34 4654.16 1365.85
  -3  -8  34 1644.68 1359.52
   3  -8 -33  804.09  974.88
  -3  -8  33 -594.64 1073.85
   3  -8 -32  817.10  732.52
  -3  -8  32  175.80 1134.37
   3  -8 -31 1883.67  796.39
  -3  -8  31 2287.90 1609.80
   3  -8 -30 1868.68  765.99
  -3  -8  30 1778.59 1551.30
   3  -8 -29  205.94  655.26
  -3  -8  29 1062.83 1417.68
   3  -8 -28 2356.54  780.92
  -3  -8  28 2759.85 1086.26
   3  -8 -27  831.67  667.66
  -3  -8  27 1334.84 1102.87
   3  -8 -26  319.08  609.08
  -3  -8  26 -220.45  944.55
   3  -8 -25 -806.37  830.07
  -3  -8  25   64.13  953.09
   3  -8 -2415236.60 1784.74
  -3  -8  24 9157.73 2051.73
   3  -8 -2310215.66 1392.77
  -3  -8  23 9831.98 1909.48
   3  -8 -2215638.60 1687.37
  -3  -8  2213788.11 2541.67
   3  -8 -21 5788.28 1015.44
  -3  -8  21 4894.23 1129.81
   3  -8 -20 1833.35  734.63
  -3  -8  20  249.68  853.04
  -3  -8  20 1053.64  284.69
   3  -8 -19  256.10  687.54
  -3  -8  19  356.74  773.66
  -3  -8  19  269.51  151.88
   3   8 -1823967.90 2520.54
   3  -8 -1826828.40 2939.38
  -3  -8  1828257.96 4153.85
   3   8 -17  725.58  367.00
   3  -8 -17 1615.95  906.16
  -3  -8  17  143.82  780.84
   3   8 -1631544.87 3006.31
   3  -8 -1632512.33 3377.23
  -3  -8  1632247.55 4202.68
   3   8 -15  872.96  463.82
   3  -8 -15 -192.98  610.24
  -3  -8  15 -708.79  805.87
   3  -8 -1426273.65 2753.70
   3   8 -1429607.29 3486.87
  -3  -8  1426403.46 3439.19
   3  -8 -13 3611.74  820.66
   3   8 -13  881.25  857.23
  -3  -8  13 4040.62  901.90
   3  -8 -1225429.57 2680.68
   3   8 -1232045.80 4546.24
  -3  -8  1232971.96 3716.78
   3  -8 -11 2180.48  785.30
   3   8 -11 3821.27 1439.80
  -3  -8  11 1872.38  982.68
   3  -8 -1014500.95 1592.62
  -3  -8  1015425.43 1859.12
   3  -8  -9 8715.37 1190.56
  -3  -8   9 7768.82 1321.61
   3  -8  -817776.61 1895.01
  -3  -8   817992.36 2178.54
   3  -8  -7   54.50  645.77
  -3  -8   7 1984.85  641.03
   3  -8  -628085.00 2978.69
  -3  -8   627444.29 2705.35
   3  -8  -5 2120.73  713.89
  -3  -8   5 3775.01  942.30
   3  -8  -430856.94 3293.92
  -3  -8   430205.67 3076.87
   3  -8  -318079.73 2057.53
  -3  -8   319457.43 1956.73
   3  -8  -241747.18 4297.65
  -3  -8   245185.84 4315.01
   3  -8  -1 1225.25  685.94
  -3  -8   1 1832.62  712.05
   3  -8   0 -186.15  698.06
  -3  -8   0  213.05  396.70
  -3   8   0  -45.93 1819.45
   3  -8   1  252.72  620.08
  -3  -8  -1  -96.32  555.74
  -3   8  -1 -263.21 1918.81
   3  -8   2 9876.73 1383.63
  -3  -8  -212149.42 1354.80
  -3   8  -210863.71 2199.59
   3  -8   3 2806.67  894.99
  -3  -8  -3 4082.98  753.19
  -3   8  -3 2853.98 2259.82
   3  -8   469479.31 7629.18
  -3  -8  -482032.81 7517.53
  -3   8  -473785.9513313.89
   3  -8   5  699.67  957.79
  -3   8  -5 -267.53 1749.88
  -3  -8  -5 1713.21  485.95
   3  -8   636012.18 3990.93
  -3  -8  -641910.55 3265.78
  -3   8  -630657.31 5447.60
   3  -8   7 7664.16 1355.17
  -3  -8  -711502.75  998.81
  -3   8  -713123.56 2589.49
   3  -8   850873.08 5640.51
  -3   8  -855646.48 7838.18
   3   8   9 8319.92  591.55
   3  -8   910626.76 1742.75
  -3   8  -912371.54 2199.22
   3  -8  10 5413.44  973.51
  -3   8 -10 3008.05 1164.77
   3  -8  11  922.60  793.18
  -3   8 -11 2793.92  913.61
  -3  -8 -11 1557.71  120.49
   3  -8  1211924.12 2340.75
  -3   8 -1213683.28 2271.21
   3  -8  13  922.55  917.74
  -3   8 -13 1608.83  855.25
   3  -8  1410664.87 1925.93
  -3   8 -1414592.64 2225.52
   3  -8  15 8181.60 1367.55
  -3   8 -15 6936.18 1186.95
   3  -8  16 4654.28 1053.32
  -3   8 -16 3734.94  941.58
   3  -8  17 -175.68  764.12
  -3   8 -17  752.44  754.80
   3  -8  1816248.11 2390.11
  -3   8 -1817095.10 2349.26
   3  -8  19 2144.41  848.80
  -3   8 -19 2527.26  978.95
   3  -8  20 2010.47 1062.35
  -3   8 -20  951.01  827.94
   3  -8  21   35.44  774.76
   3  -8  21  590.81  709.57
   3  -8  22 5031.80  999.94
   3  -8  22 6852.76 1045.09
   3  -8  23 1632.56  813.50
   3  -8  23 3537.82  921.28
   3  -8  2411033.81 1908.63
   3  -8  2413040.67 1961.74
   3  -8  25  867.07 1132.66
   3  -8  25 1378.60  928.05
   3  -8  26  314.97  965.23
   3  -8  26 -647.87  851.79
   3  -8  27 1696.58 1093.38
   3  -8  27 1801.01 1034.10
   3  -8  2827643.10 3128.15
   3  -8  2816749.37 2519.40
   3  -8  29 1431.36 1055.28
   3  -8  29  639.89 1049.66
   3  -8  30  952.20  975.45
   3  -8  30  858.15 1068.36
   3  -8  31  941.60  982.54
   3  -8  31-1368.93  962.62
   3  -8  32  650.87 1008.18
   3  -8  34  802.79 1212.51
   3  -9 -34  457.78  962.98
  -3  -9  34  880.00 1157.92
   3  -9 -33  696.75  929.61
  -3  -9  33 1801.88 1209.00
   3  -9 -32 6550.79 1269.24
  -3  -9  32 4827.28 1566.80
   3  -9 -31  641.38  841.09
  -3  -9  31 1623.33 1162.45
   3  -9 -30 3188.81  904.58
  -3  -9  30 1303.81 1137.51
   3  -9 -29-1120.27  717.13
  -3  -9  29 -168.52  994.92
   3  -9 -28 1346.81  745.61
  -3  -9  28 -175.23 1012.39
   3  -9 -27 1355.72  889.87
  -3  -9  27 2642.55 1101.03
   3  -9 -26  859.66  715.05
  -3  -9  26 -863.07  994.90
   3  -9 -25 4893.74 1278.81
  -3  -9  25 3220.89 1132.06
   3  -9 -24  -95.16  642.08
  -3  -9  24 -983.00  877.28
   3  -9 -23  601.99  653.68
  -3  -9  23 1037.15  908.25
   3  -9 -22 2987.39 1140.16
  -3  -9  22 4248.58 1077.36
   3  -9 -21 2330.24  780.63
  -3  -9  21 1887.95  924.99
   3  -9 -20 7448.35 1213.32
  -3  -9  20 6852.78 1366.98
   3  -9 -19 4487.94 1013.54
  -3  -9  19 6770.26 1147.99
   3  -9 -18 1019.90  668.83
  -3  -9  18 1390.15 1262.66
   3  -9 -1723505.34 2548.61
   3   9 -1725258.48 2798.51
  -3  -9  1727787.30 3712.11
   3  -9 -16 2813.25  815.02
   3   9 -16 3131.09  708.81
  -3  -9  16 5630.69 1128.51
   3  -9 -1524070.10 2547.59
   3   9 -1523867.23 3239.17
  -3  -9  1520876.43 2851.31
   3  -9 -14 1442.18  644.57
   3   9 -14   19.98  877.58
  -3  -9  14 2487.18  809.46
   3  -9 -13 5075.69  922.01
   3   9 -13 3551.94 1374.17
  -3  -9  13 5887.82 1112.34
   3   9 -12  942.65 1500.42
   3  -9 -12 1206.73  647.87
  -3  -9  12 1830.37  715.03
   3   9 -1141592.89 6547.08
   3  -9 -1140114.98 4365.51
  -3  -9  1136355.31 4307.08
   3  -9 -1035676.53 3666.16
  -3  -9  1039367.30 4301.53
   3  -9  -9 -240.30  852.93
  -3  -9   9  298.28  662.48
   3  -9  -8 4984.84  936.25
  -3  -9   8 7321.90 1368.71
   3  -9  -7  865.66  622.52
  -3  -9   7  367.41  721.09
   3  -9  -6 5956.93  911.63
  -3  -9   6 4134.56  879.27
   3  -9  -537441.90 3644.47
  -3  -9   535114.28 3726.83
   3  -9  -4  168.78  688.31
  -3  -9   4  919.20  524.54
   3  -9  -3 6756.77 1100.54
  -3  -9   3 7104.66 1039.02
   3  -9  -2   39.77  609.55
  -3  -9   2  870.03  748.50
   3  -9  -198460.0112080.36
  -3  -9   1107538.211282.89
   3  -9   020154.52 2077.82
  -3  -9   019461.15 1800.57
  -3   9   015035.90 3989.44
   3  -9   112213.77 1665.51
  -3  -9  -116105.70 1659.42
  -3   9  -111612.65 3745.60
   3  -9   2 3317.79  967.21
  -3  -9  -2 5507.04  939.33
  -3   9  -2 6043.07 2418.40
   3  -9   3 1301.16  924.28
  -3  -9  -3  787.80  532.27
  -3   9  -3 1917.58 2058.90
   3  -9   4  316.04  649.95
  -3  -9  -4  547.65  542.21
  -3   9  -4 1208.41 1037.67
   3  -9   5 8457.00 1375.21
  -3  -9  -5 8458.24  996.34
  -3   9  -5 6244.00 2327.56
   3  -9   6 6304.65 1003.46
  -3   9  -6 2382.17 1952.06
  -3  -9  -6 3398.17  625.81
   3  -9   7 3964.19  973.91
  -3   9  -7 4943.24 1486.48
  -3  -9  -7 4329.39  679.06
   3  -9   8 1158.77  856.78
  -3  -9  -8 1152.11  391.02
  -3   9  -8 3645.81 1435.64
   3  -9   912837.37 1766.71
  -3  -9  -913396.74 1260.03
  -3   9  -912772.91 1924.26
   3  -9  1010597.32 1696.47
  -3  -9 -1012910.98 1115.98
  -3   9 -1012496.95 2691.55
   3  -9  11 8037.61 1402.89
  -3   9 -11 8688.25 2055.28
  -3  -9 -11 6341.81  638.76
   3  -9  12 4161.24 1335.18
  -3  -9 -12 5964.54  625.48
  -3   9 -12 7612.25 1495.96
   3  -9  1322862.97 3159.84
  -3   9 -1324028.01 3509.93
  -3  -9 -1321943.36 1634.58
   3  -9  14 8260.32 1439.76
  -3   9 -14 9690.90 1688.94
   3  -9  1520220.87 2993.34
  -3   9 -1520801.26 3088.88
   3  -9  1612796.59 2695.04
  -3   9 -1617480.71 2623.12
   3  -9  17 7027.85 1315.23
  -3   9 -17 5085.16  789.95
   3  -9  18 2992.03  924.64
  -3   9 -18 1610.59  831.83
   3  -9  19 2121.80  991.00
  -3   9 -19 2032.00  956.20
   3  -9  20 4788.87 1419.22
  -3   9 -20 4727.63 1110.33
   3  -9  21 1892.07  967.03
  -3   9 -21 3245.06 1064.25
   3  -9  2211549.80 1508.12
   3  -9  22 7061.62 1308.28
   3  -9  23  976.22  868.78
   3  -9  23  834.90  880.53
   3  -9  24 3157.72  997.73
   3  -9  25 6042.46  975.20
   3  -9  25 5751.65 1204.15
   3  -9  26 6605.22 1353.70
   3  -9  26 8021.02 1443.30
   3  -9  27  684.13  835.38
   3  -9  27 3558.28 1163.10
   3  -9  28 5153.90 1242.51
   3  -9  2811402.22 1728.95
   3  -9  29  446.73 1022.05
   3  -9  30  250.29 1008.39
   3  -9  30 -243.10  725.12
   3  -9  31  707.11  812.82
   3  -9  32 6080.46 1456.10
   3  -9  33 1233.66 1135.75
   3 -10 -33  509.05  981.32
  -3 -10  33 1416.88 1156.67
   3 -10 -32 1073.92 1015.62
  -3 -10  32 1263.67 1175.68
   3 -10 -31  578.60 1184.31
  -3 -10  31  809.97 1107.74
   3 -10 -30 1628.74 1124.46
  -3 -10  30   80.20 1081.50
   3 -10 -29 1958.66  850.54
  -3 -10  29  218.17 1115.22
   3 -10 -28 -371.30  731.77
  -3 -10  28 -345.24  969.95
   3 -10 -27 1604.66  810.12
  -3 -10  27  812.80 1039.80
   3 -10 -26 -180.28  669.89
  -3 -10  26 1539.00  902.50
   3 -10 -25 2066.08 1007.53
  -3 -10  25  614.32  988.51
   3 -10 -24  462.66  641.58
  -3 -10  24  411.78  932.43
   3 -10 -23 7699.73 1209.77
  -3 -10  23 7688.89 1774.58
   3 -10 -22 4685.66  845.61
  -3 -10  22 3366.50 1091.98
   3 -10 -21 7600.91 1210.91
  -3 -10  21 6401.59 1515.99
   3 -10 -20 1497.69  685.49
  -3 -10  20 2449.99  940.16
   3 -10 -19 4325.37 1130.48
  -3 -10  19 4414.15 1137.77
   3 -10 -18 1147.59  681.51
  -3 -10  18 1793.08  875.02
   3 -10 -1720755.47 2370.07
   3  10 -1720381.29 2907.54
  -3 -10  1721393.10 3094.98
   3  10 -16 4370.01 1315.67
   3 -10 -16 6079.70 1025.79
  -3 -10  16 4097.97 1163.92
   3  10 -15 -464.72  723.09
   3 -10 -15 1768.97  621.20
  -3 -10  15  487.38  706.81
   3 -10 -14  900.47  650.75
   3  10 -14    7.12  859.88
  -3 -10  14 7086.16 1086.19
   3 -10 -1352632.61 5526.54
   3  10 -1354095.82 7992.78
  -3 -10  1350739.20 6196.61
   3  10 -1227484.84 4907.59
   3 -10 -1225141.53 2732.42
  -3 -10  1225141.71 3271.60
   3 -10 -11  660.79  650.45
  -3 -10  11  321.45  718.34
   3 -10 -10  572.61  682.67
  -3 -10  10 -748.97  601.60
   3 -10  -926317.75 3093.66
  -3 -10   926825.24 2909.33
   3 -10  -8  589.76  668.83
  -3 -10   8  -84.81  874.24
   3 -10  -722893.57 2572.90
  -3 -10   725390.46 3045.06
   3 -10  -6 9011.17 1342.17
  -3 -10   610962.30 1676.71
   3 -10  -5 5780.14  985.97
  -3 -10   5 7104.85 1113.63
   3 -10  -4  694.19  676.50
  -3 -10   4 2066.76  627.56
   3 -10  -338880.11 4077.37
  -3 -10   340894.02 4162.34
   3 -10  -2 2007.93  796.59
  -3 -10   2 1865.75  606.52
   3 -10  -1 -219.05  680.56
  -3 -10   1  408.36  517.72
   3 -10   0  -98.38  661.50
  -3 -10   0  758.45  697.67
   3 -10   1  272.35  669.91
  -3 -10  -1  208.71  610.61
  -3  10  -1 -879.05 1820.78
   3 -10   210551.85 1811.23
  -3  10  -210320.82 2856.37
  -3 -10  -2 8043.92 1290.26
   3 -10   312846.94 1725.58
  -3 -10  -315253.82 1536.49
  -3  10  -312008.43 3782.70
   3 -10   4 6365.07 1141.70
  -3 -10  -4 5463.89  956.76
  -3  10  -4 3492.68 2389.70
   3 -10   5 6908.20 1066.87
  -3 -10  -5 4919.56  833.96
  -3  10  -5 6811.70 2250.09
   3 -10   6 1593.03 1077.76
  -3 -10  -6 1700.91  559.45
  -3  10  -6-2042.99 1607.39
   3 -10   711483.02 1851.48
  -3 -10  -714127.96 1402.07
  -3  10  -710152.11 3122.47
   3 -10   8 -161.60  799.62
  -3 -10  -8  540.71  381.05
  -3  10  -8   -3.23  687.91
   3 -10   936557.48 4709.94
  -3 -10  -936829.22 3010.63
  -3  10  -938469.79 6262.57
   3 -10  1014472.93 2119.02
  -3 -10 -1015112.03 1271.07
  -3  10 -1015756.41 3339.03
   3 -10  11 4060.33 1308.09
  -3 -10 -11 4117.75  514.26
  -3  10 -11 5925.40 1666.71
   3 -10  12 8159.32 1650.37
  -3 -10 -12 9369.48  816.16
  -3  10 -1213036.22 2445.46
   3 -10  1322856.96 3207.53
  -3  10 -1320966.87 3710.60
  -3 -10 -1323257.43 1823.72
   3 -10  14 8420.13 1716.18
  -3  10 -14 9825.40 2030.69
   3 -10  1519016.16 2954.93
  -3  10 -1517659.18 2775.48
   3 -10  1610029.11 1884.41
  -3  10 -1611871.57 1497.53
   3 -10  17 -409.97 1283.09
  -3  10 -17 -115.45  852.11
   3 -10  18 3305.45 1062.37
  -3  10 -18 3486.51  905.77
   3 -10  19 7658.81 1646.69
  -3  10 -19 9866.12 1637.77
   3 -10  20   70.65  939.37
  -3  10 -20 1646.43  839.38
   3 -10  21 -161.35  882.11
  -3  10 -21 -122.43  807.65
   3 -10  22 -331.61  827.61
  -3  10 -22 -242.14  932.12
   3 -10  2315828.37 2318.61
   3 -10  2317182.69 1696.72
   3 -10  24 -741.28  792.80
   3 -10  24  503.88  881.19
   3 -10  25 2719.58 1080.81
   3 -10  25 4158.71  737.62
   3 -10  26 -250.16  896.99
   3 -10  26  241.76  883.86
   3 -10  27-1450.70  885.74
   3 -10  27  -95.27 1058.64
   3 -10  28  731.77  859.98
   3 -10  28 2023.63 1178.35
   3 -10  2912629.96 2065.07
   3 -10  2910476.79 2077.21
   3 -10  30  271.96 1072.99
   3 -10  30 -862.21 1056.00
   3 -10  31 -547.17 1145.87
   3 -10  31 -359.24 1082.63
   3 -10  32 1881.62 1241.71
   3 -10  32 1128.60  888.25
   3 -10  33 3065.79 1321.00
   3 -11 -32  -21.92 1161.85
   3 -11 -31 1781.14 1212.01
  -3 -11  31  930.51 1158.21
   3 -11 -30 -125.06 1081.21
  -3 -11  30  627.56 1023.73
   3 -11 -29 1175.76 1141.94
  -3 -11  29  884.36 1090.18
   3 -11 -28  352.50 1049.54
  -3 -11  28    2.70  902.03
   3 -11 -27 1231.60  795.22
  -3 -11  27  689.49  953.68
   3 -11 -26  936.55  724.65
  -3 -11  26  523.89  903.48
   3 -11 -25 1911.89  727.69
  -3 -11  25   71.16  896.31
   3 -11 -24  254.50  672.53
  -3 -11  24 -291.69  925.83
   3 -11 -23 -341.59  637.08
   3 -11 -22 1809.58  772.78
  -3 -11  22 3862.21 1002.43
   3 -11 -2114187.15 1789.06
  -3 -11  2111464.83 2400.93
   3 -11 -20 1122.38  727.43
  -3 -11  20  866.44  918.02
   3 -11 -19  423.37  953.87
  -3 -11  19 2152.78  998.38
   3 -11 -18 1135.57  690.80
  -3 -11  18 -992.29  829.91
   3 -11 -17 3232.22  829.07
  -3 -11  17 2652.92  961.25
   3 -11 -16  927.41  617.09
   3  11 -16  661.59 1106.30
  -3 -11  16 1171.98  776.87
   3  11 -15 1380.21 1286.00
   3 -11 -15 3624.68  909.50
  -3 -11  15 3430.55  987.35
   3  11 -14 7680.22 1627.44
   3 -11 -14 6629.56 1095.39
  -3 -11  14 8004.03 1531.84
   3  11 -1355266.27 8729.58
   3 -11 -1347801.42 5266.45
  -3 -11  1361055.47 6760.99
   3  11 -12 4879.87 1897.43
   3 -11 -12 6462.23 1109.04
  -3 -11  12 7638.71 1674.79
   3 -11 -1141699.73 4738.17
  -3 -11  1138718.69 4721.60
   3 -11 -10 -222.00  637.79
  -3 -11  10  463.57  627.14
   3 -11  -9 8636.77 1389.32
  -3 -11   9 6373.56 1185.87
   3 -11  -8  439.21  699.59
  -3 -11   8  -25.89  612.56
   3 -11  -7 6292.17 1040.09
  -3 -11   7 7024.85 1340.27
   3 -11  -6 1049.05  685.13
  -3 -11   6 1921.88  732.90
   3 -11  -515540.71 2252.62
  -3 -11   518126.51 2214.29
   3 -11  -417331.32 2137.48
  -3 -11   416270.07 1932.59
   3 -11  -3  439.53  739.36
  -3 -11   3 1130.92  576.78
   3 -11  -2  327.64  712.92
  -3 -11   2 1006.33  556.73
   3 -11  -1 9502.24 1438.30
  -3 -11   111550.48 1670.55
   3 -11   0 5837.57 1031.43
  -3 -11   0 7260.21 1302.55
   3 -11   151617.57 5750.59
  -3 -11  -156114.63 5808.53
  -3  11  -153753.67 9641.17
   3 -11   2  915.97  742.41
  -3 -11  -2  785.07  519.56
  -3  11  -2 1713.79 2025.43
   3 -11   3 7005.35 1157.09
  -3 -11  -3 6646.65 1011.32
  -3  11  -3 8115.69 2875.78
   3 -11   4 -990.95  660.19
  -3 -11  -4  564.51  586.53
  -3  11  -4 3667.79 1955.23
   3 -11   527607.14 3242.21
  -3 -11  -531068.37 2737.67
  -3  11  -522713.37 5737.45
   3 -11   623820.00 3047.19
  -3 -11  -627156.77 2386.26
  -3  11  -622627.44 5377.69
   3 -11   7 3395.58 1084.70
  -3 -11  -7 3538.90  572.88
  -3  11  -7  451.39 1864.39
   3 -11   8 2598.46  863.91
  -3 -11  -8  998.50  487.02
  -3  11  -8 3463.17 1337.92
   3 -11   915348.39 2456.66
  -3 -11  -913150.56 1264.58
  -3  11  -917082.04 3381.41
   3 -11  10 1582.67  970.39
  -3 -11 -10 3101.85  462.23
  -3  11 -10 6333.26 1707.05
   3 -11  1124088.34 3504.03
  -3 -11 -1126280.86 2162.74
  -3  11 -1125935.64 4638.37
   3 -11  12-1196.62  943.42
  -3 -11 -12  -25.05  223.29
  -3  11 -12-1059.81 1173.75
   3 -11  13 4843.90 1445.85
  -3  11 -13 1082.30 1653.38
   3 -11  14 1927.25 1124.26
  -3  11 -14 1035.52 1153.70
   3 -11  15 2721.37 1154.71
  -3  11 -15 4873.16 1369.83
   3 -11  16 4310.68 1331.12
  -3  11 -16 4387.73 1227.37
   3 -11  17 2109.87 1145.84
  -3  11 -17 2086.90  600.40
   3 -11  18 -109.74 1246.37
  -3  11 -18 -379.50  897.95
   3 -11  19-1758.27 1248.36
  -3  11 -19  788.39  797.00
   3 -11  20 -983.70 1227.89
  -3  11 -20 -493.19  817.60
   3 -11  2123094.73 3462.54
  -3  11 -2116227.13 2283.05
   3 -11  22  832.01  981.36
  -3  11 -22 1752.59  578.54
   3 -11  23 1665.13  897.63
  -3  11 -23 3290.48 1069.14
   3 -11  24  227.26  800.59
   3 -11  24 -367.17  548.75
   3 -11  2525567.78 3840.59
   3 -11  2524714.07 3076.52
   3 -11  26 -154.99 1036.74
   3 -11  26-1052.49  862.65
   3 -11  27 3052.47 1109.53
   3 -11  27 3181.27 1249.69
   3 -11  28  359.15  814.60
   3 -11  28  164.70  658.88
   3 -11  29  427.61 1121.43
   3 -11  29   20.92 1197.72
   3 -11  30 -780.79 1159.19
   3 -11  30  469.67 1283.40
   3 -11  31 4823.21 1186.35
   3 -11  3110514.73 2032.10
   3 -11  32  379.02 1310.75
   3 -11  32  772.02  854.59
   3 -12 -30 1293.92  851.77
  -3 -12  30 1264.04 1122.42
   3 -12 -29 3333.82  972.09
  -3 -12  29 1830.65 1104.32
   3 -12 -28  522.28 1034.55
  -3 -12  28 -470.43  892.93
   3 -12 -27 1006.39 1057.44
  -3 -12  27 1269.19  976.00
   3 -12 -26 1598.44  847.95
  -3 -12  26  342.14  952.44
   3 -12 -25 5117.82 1000.68
  -3 -12  25 2021.46 1109.51
   3 -12 -24 2285.87 1066.18
  -3 -12  24 1051.67  941.58
   3 -12 -23 -395.84  661.53
  -3 -12  23 1226.45  830.09
   3 -12 -22 3202.51 1094.61
  -3 -12  22 3003.19 1097.83
   3 -12 -21 1119.95  720.01
  -3 -12  21  913.27  941.51
   3 -12 -20 2512.49  886.76
  -3 -12  20 3684.38 1078.94
   3 -12 -19 5471.51 1006.38
  -3 -12  19 3400.99 1102.90
   3 -12 -18 2175.79  773.48
  -3 -12  18 1956.21 1058.41
   3 -12 -1710279.91 1309.90
  -3 -12  17 4812.34 1312.92
   3  12 -16  565.11  904.26
   3 -12 -16 1176.23  653.30
  -3 -12  16  -17.92  739.93
   3  12 -15 7802.67 2383.40
   3 -12 -15 6913.90 1185.12
  -3 -12  15 8475.35 1423.13
   3  12 -14 1481.92 1964.82
   3 -12 -14 1416.67  764.22
  -3 -12  14  185.51  802.07
   3  12 -1350881.38 8555.01
   3 -12 -1345670.83 4781.91
  -3 -12  1348002.63 6111.88
   3 -12 -12  448.56  759.65
   3  12 -12 1928.96 1413.94
  -3 -12  12  220.49  811.44
   3 -12 -11  347.02  736.44
  -3 -12  11 1701.91  756.03
   3 -12 -10 -701.98  723.32
  -3 -12  10 -593.96  644.23
   3 -12  -9 3775.67 1062.54
  -3 -12   9 3114.08  830.01
  -3 -12   819664.81 2866.78
  -3 -12   729522.04 3741.27
   3 -12  -6 2899.84  947.17
  -3 -12   6 4674.87 1194.98
   3 -12  -5 3971.85  971.23
  -3 -12   5 5722.95 1102.87
   3 -12  -4  -57.16  697.14
  -3 -12   4 -276.08  635.37
   3 -12  -334127.95 3783.05
  -3 -12   336053.34 4181.27
   3 -12  -2 -151.41  796.70
  -3 -12   2 2280.81  697.59
   3 -12  -125302.28 3038.53
  -3 -12   120161.36 2205.03
   3 -12   0 -566.68  719.69
  -3 -12   0 -204.75  596.05
   3 -12   122284.15 2466.72
  -3 -12  -126331.66 2827.71
  -3  12  -119757.68 3500.37
   3 -12   2  130.25  697.93
  -3 -12  -2  471.32  789.40
  -3  12  -2 2822.77 1874.58
   3 -12   348301.64 5749.09
  -3 -12  -353409.60 5108.98
  -3  12  -358807.6211679.73
   3 -12   411275.31 1617.28
  -3 -12  -411065.85 1245.02
  -3  12  -410902.45 3069.21
   3 -12   5 1443.03  919.92
  -3 -12  -5 1280.86  629.58
  -3  12  -5 1831.72 2001.89
   3 -12   6 3384.06 1055.95
  -3  12  -6 -694.30 1958.12
  -3 -12  -6 4497.67  697.21
   3 -12   7 7230.73 1406.80
  -3 -12  -7 7529.75 1016.73
  -3  12  -7 3295.70 2189.32
   3 -12   813169.37 1858.38
  -3 -12  -8 9662.89 1142.39
  -3  12  -8 4134.39 2367.26
   3 -12   910265.40 1802.53
  -3 -12  -910918.65 1156.48
  -3  12  -9 9681.23 2622.73
   3 -12  10 1508.58 1022.85
  -3  12 -10-3080.48 1340.11
   3 -12  11  162.95  972.00
  -3 -12 -11  174.97  357.35
  -3  12 -11-2157.88 1366.22
   3 -12  12  384.17 1039.96
  -3  12 -12-2625.05 1505.57
   3 -12  13 9996.16 2077.52
  -3  12 -1311890.21 2093.17
   3 -12  14 1557.24 1116.19
  -3  12 -14 1056.35 1185.90
   3 -12  1516873.78 3038.90
  -3  12 -1511965.79 2520.45
   3 -12  16 -317.60 1451.48
  -3  12 -16 -790.05 1110.84
   3 -12  17  815.24 1458.36
  -3  12 -17 1130.03  984.79
   3 -12  18  168.27  948.65
  -3  12 -18 -561.07  903.87
   3 -12  19 8602.08 1706.78
  -3  12 -19 9016.74 1330.63
   3 -12  20 1516.52 1008.45
  -3  12 -20 1177.10  985.34
   3 -12  21 1682.23  949.25
  -3  12 -21 -526.75  849.48
   3 -12  22 4574.98 1316.93
  -3  12 -22 6322.88 1329.04
   3 -12  23 6808.19 1240.52
  -3  12 -23 5499.16 1295.23
   3 -12  24 4226.11 1117.08
  -3  12 -24 1429.25 1007.89
   3 -12  25 4605.28 1394.26
   3 -12  25 1927.14  732.98
   3 -12  26 -602.44  914.72
   3 -12  26  201.70  876.87
   3 -12  27  296.92  921.29
   3 -12  27 1545.47 1170.05
   3 -12  28  -74.71  915.18
   3 -12  28 -493.72 1134.39
   3 -12  29 2273.96 1018.60
   3 -12  29 3386.04 1638.99
   3 -12  30 1390.75 1326.18
   3 -12  30  594.01 1493.98
   3 -12  31 -768.57  866.30
   3 -12  31  966.27 1509.41
   3 -13 -29 1064.21  873.99
  -3 -13  29  294.08  991.18
   3 -13 -28 1845.56  933.68
  -3 -13  28 1527.73 1037.06
   3 -13 -27  -54.50  774.99
  -3 -13  27-1135.51  913.89
   3 -13 -26 4288.22 1299.14
  -3 -13  26  108.02  962.78
   3 -13 -25 8774.34 1300.95
  -3 -13  25 3084.77 1210.69
   3 -13 -24  107.86  744.76
  -3 -13  24  645.34  881.64
   3 -13 -23 1949.70  805.29
  -3 -13  23  532.27  932.26
   3 -13 -22 1009.82  708.32
  -3 -13  22  668.64  919.40
   3 -13 -21 6135.60 1089.17
  -3 -13  21 4317.23 1110.12
   3 -13 -20 5261.96 1037.94
  -3 -13  20 4067.57 1283.29
   3 -13 -19  193.95  766.44
  -3 -13  19 2554.04  871.72
   3 -13 -18 1474.42  828.38
  -3 -13  18  548.68  811.67
   3 -13 -17  669.27 1036.77
  -3 -13  17  476.89  842.84
   3 -13 -16 8944.38 1614.50
  -3 -13  16 4981.17 1251.97
   3  13 -1526773.29 4813.93
   3 -13 -1527997.29 3131.72
  -3 -13  1522951.04 3375.77
   3 -13 -14 9996.88 1472.28
   3  13 -1413023.19 2664.04
  -3 -13  14 8936.88 1693.80
   3  13 -13 9216.69 2176.84
   3 -13 -13 7526.37 1179.09
  -3 -13  13 6489.43 1237.23
   3  13 -1235288.43 6066.95
   3 -13 -1230966.51 3362.75
  -3 -13  1233505.35 4044.07
   3 -13 -1130362.10 3568.58
  -3 -13  1125139.77 3079.07
   3 -13 -10 3909.24  931.88
  -3 -13  10 2197.88  809.95
   3 -13  -9 5902.74 1034.12
  -3 -13   9 5768.50 1234.31
   3 -13  -8   58.12  750.23
  -3 -13   8  566.65 1007.55
   3 -13  -7 5399.26 1056.04
  -3 -13   7 5252.28 1401.14
   3 -13  -6  286.83  746.14
  -3 -13   6 2592.50 1066.51
   3 -13  -514055.94 1778.04
  -3 -13   515866.03 1951.35
   3 -13  -410351.82 1484.77
  -3 -13   4 9245.39 1529.92
   3 -13  -3 5056.13 1019.70
  -3 -13   3 4531.65  895.81
   3 -13  -2 6129.72 1175.05
  -3 -13   2 5622.34  956.23
   3 -13  -126864.69 3110.29
  -3 -13   124867.22 2680.34
   3 -13   017733.65 2391.62
  -3 -13   016862.22 2323.54
   3 -13   111258.05 1774.93
  -3 -13  -113315.95 2023.38
  -3  13  -110462.83 2990.22
   3 -13   2 2997.31 1123.13
  -3 -13  -2 6491.42 1134.44
  -3  13  -2 4015.70 2551.16
   3 -13   3  673.83  828.93
  -3 -13  -3  590.14  525.42
  -3  13  -3 -279.96 2191.76
   3 -13   4 5344.37 1223.67
  -3 -13  -4 4978.73  760.96
  -3  13  -410093.11 2943.36
   3 -13   517164.07 2733.74
  -3 -13  -514824.11 1663.66
  -3  13  -512541.67 2814.42
   3 -13   614027.45 2090.41
  -3 -13  -616540.41 1768.78
  -3  13  -6 7996.36 3165.95
   3 -13   7 1777.33  942.76
  -3 -13  -7  892.53  420.62
  -3  13  -7 2403.74 1749.32
   3 -13   8 1122.21  993.17
  -3 -13  -8 2625.65  591.01
  -3  13  -8  478.29 1826.00
   3 -13   9 1008.78  928.51
  -3 -13  -9  159.41  527.66
  -3  13  -9 -188.49 1650.82
   3 -13  1014259.85 2244.07
  -3 -13 -10 8662.83  930.76
  -3  13 -1013796.77 2978.09
   3 -13  11 2649.08 1225.71
  -3  13 -11 1998.20 1589.56
   3 -13  12 9376.45 1833.21
  -3  13 -12 9221.93 1527.31
   3 -13  13 -849.81 1049.26
  -3  13 -13-1076.48 1434.31
   3 -13  14 3383.06 1294.88
  -3  13 -14 1564.34 1603.72
   3 -13  15 2599.51 1148.57
  -3  13 -15 2035.68 1262.35
   3 -13  16 9388.66 1850.41
  -3  13 -16 8241.05 1930.38
   3 -13  17 6018.03 1489.80
  -3  13 -17 8282.64 1179.77
   3 -13  18 1889.98 1382.90
  -3  13 -18-1129.95  932.80
   3 -13  19 1216.12 1087.69
  -3  13 -19  794.44 1088.56
   3 -13  20 6429.81 1388.77
  -3  13 -20 5132.95 1290.99
   3 -13  21 1820.67 1139.21
  -3  13 -21 4882.00 1173.10
   3 -13  22 7833.11 1592.53
  -3  13 -22 6448.29 1365.85
   3 -13  23  567.62 1194.68
  -3  13 -23  -11.59  887.13
   3 -13  24 1191.31  858.95
  -3  13 -24 -902.43  888.95
   3 -13  25 2841.22 1046.00
  -3  13 -25 2244.61 1103.25
   3 -13  26 3254.50 1274.30
   3 -13  26 7867.44 1045.20
   3 -13  27  281.66 1364.40
   3 -13  27 1214.12 1258.54
   3 -13  28  650.94  964.26
   3 -13  28 1254.97 1295.22
   3 -13  29 -495.25  907.91
   3 -13  29   57.62 1375.37
   3 -14 -28 3485.27 1064.34
   3 -14 -27 1964.07  956.75
  -3 -14  27 1619.17 1010.33
   3 -14 -26 -734.69  831.91
  -3 -14  26  -42.58  866.01
   3 -14 -25 1600.23 1147.46
  -3 -14  25  -34.52  897.94
   3 -14 -24 2481.98  942.46
  -3 -14  24 1087.01 1007.66
   3 -14 -23 1484.60  883.58
  -3 -14  23 2082.85 1008.92
   3 -14 -2211755.77 1581.54
  -3 -14  22 3673.27 1276.27
   3 -14 -21  -41.10  776.50
  -3 -14  21 -170.09  819.45
   3 -14 -20 1422.37  804.89
  -3 -14  20    1.74  827.17
   3 -14 -19 2633.96 1113.78
  -3 -14  19  850.31  938.90
   3 -14 -18 9241.58 1530.03
  -3 -14  18 8271.51 1587.21
   3 -14 -17  629.13  733.37
  -3 -14  17 1163.15  903.37
   3 -14 -16 1900.32  769.59
  -3 -14  16 2935.48  924.86
   3 -14 -15  929.70  720.69
  -3 -14  15  211.30  801.73
   3  14 -1412754.06 2920.84
   3 -14 -1414715.22 1923.56
  -3 -14  1416192.87 2406.88
   3  14 -13 1770.28 1768.00
   3 -14 -13  632.09  743.51
  -3 -14  13 1025.65  814.93
   3 -14 -1213216.93 1671.54
   3  14 -1212381.66 2882.98
  -3 -14  1211167.74 1824.87
   3 -14 -11 5996.22 1058.18
  -3 -14  11 1167.94 1159.93
   3 -14 -10  -55.54  736.12
  -3 -14  10   66.66 1108.38
   3 -14  -9   53.28  692.84
  -3 -14   9  434.54 1016.25
   3 -14  -8 6228.11 1061.79
  -3 -14   8 5291.63 1128.97
   3 -14  -7 3076.03  842.49
  -3 -14   7 2583.52  839.47
   3 -14  -6 7453.67 1208.83
  -3 -14   6 7018.85 1231.74
   3 -14  -5 1991.54  821.22
  -3 -14   5 1657.03  824.61
   3 -14  -4 1127.52  761.26
  -3 -14   4 1265.15  752.93
   3 -14  -3 -235.78  699.00
  -3 -14   3 -381.57  686.59
   3 -14  -2  868.92  762.00
  -3 -14   2  453.86  949.84
   3 -14  -1 3639.73 1004.03
  -3 -14   1 5559.47 1289.68
   3 -14   013485.06 1904.52
  -3 -14   014280.78 1780.84
   3 -14   167452.31 8285.65
  -3  14  -149441.5510818.27
   3 -14   2 2588.47 1100.76
  -3 -14  -2 4620.30  806.77
  -3  14  -2 3561.67 2580.60
   3 -14   3 3070.94 1118.61
  -3 -14  -3 4799.15  907.26
  -3  14  -3  968.65 2510.08
   3 -14   4 6673.66 1333.92
  -3 -14  -4 5946.60 1108.84
  -3  14  -4 4620.61 2507.06
   3 -14   5  212.07  944.10
  -3 -14  -5  806.32  498.89
  -3  14  -5-2373.04 1858.12
   3 -14   6 1780.69  985.99
  -3  14  -6  717.03 2052.68
  -3 -14  -6 1190.44  668.32
   3 -14   7 3575.89 1046.92
  -3 -14  -7 1553.12  711.95
  -3  14  -7 1319.83 1892.95
   3 -14   8 5061.08 1242.00
  -3  14  -8 5409.52 2150.24
  -3 -14  -8 3488.71  793.28
   3 -14   9 -569.16 1038.99
  -3 -14  -9 -219.46  580.21
  -3  14  -9 -279.45 1811.35
   3 -14  10 2272.35 1216.50
  -3  14 -10 2357.50 1642.76
   3 -14  11 1390.73 1542.50
  -3  14 -11 1511.63 1730.64
   3 -14  12 8238.23 1784.99
  -3  14 -12 8834.18 2802.26
   3 -14  13 5593.34 1741.80
  -3  14 -13 9362.01 2130.18
   3 -14  1425254.09 4077.03
  -3  14 -1424145.86 5033.80
   3 -14  15  842.46 1525.29
  -3  14 -15 1622.72 1786.41
   3 -14  16 1666.20 1108.16
  -3  14 -16-1310.00 1215.19
   3 -14  17 2564.47 1200.61
  -3  14 -17  196.04 1228.30
   3 -14  1816229.42 2917.93
  -3  14 -1822019.53 3418.82
   3 -14  19   39.58 1447.01
  -3  14 -19  913.88 1062.93
   3 -14  20 4161.32 1280.29
  -3  14 -20 2583.74 1188.75
   3 -14  21 -829.59  936.70
  -3  14 -21 -211.77  866.77
   3 -14  22 1124.03 1001.69
  -3  14 -22  171.48  955.05
   3 -14  23 -483.14  808.24
  -3  14 -23  400.39  849.69
   3 -14  24 1230.96  927.29
  -3  14 -24 1044.78  597.84
   3 -14  25  -46.89  933.64
  -3  14 -25 1630.56  984.49
   3 -14  26 1211.60 1397.60
  -3  14 -26  954.67 1011.29
   3 -14  27  376.42  979.20
   3 -14  27 -733.39  733.49
   3 -14  28 2283.83 1109.92
   3 -14  28  967.08 1385.33
   3 -15 -26 6405.52 1237.54
  -3 -15  26  738.54 1021.69
   3 -15 -25 -336.35  814.37
  -3 -15  25  599.19  918.41
   3 -15 -2410937.23 1835.91
  -3 -15  24 3053.87 1269.93
   3 -15 -23 2013.84  918.16
  -3 -15  23  979.23  992.93
   3 -15 -22  695.35  783.56
  -3 -15  22  927.37  928.80
   3 -15 -21  303.30  762.67
  -3 -15  21  303.18  836.75
   3 -15 -2017744.98 2220.66
  -3 -15  20 6288.31 1378.00
   3 -15 -19  290.98  803.89
  -3 -15  19  615.23  871.75
   3 -15 -18 4273.66  933.87
  -3 -15  18 1654.69 1044.89
   3 -15 -17 3770.39 1151.22
  -3 -15  17 1858.88  989.27
   3 -15 -16 5239.42 1126.15
  -3 -15  16 7332.60 1643.42
   3 -15 -15 2348.50  895.89
  -3 -15  15 2166.41 1277.16
   3 -15 -14 9201.88 1483.69
   3  15 -1410568.76 2704.25
  -3 -15  14 7073.70 1440.49
   3 -15 -13   -6.80  713.57
   3  15 -13-3231.81 1662.72
  -3 -15  13  415.88  754.93
   3 -15 -1211728.70 1526.44
   3  15 -1211984.15 3149.86
  -3 -15  12 5302.48 1186.09
   3 -15 -11 9751.67 1498.58
  -3 -15  1110587.55 1692.92
   3 -15 -1010994.34 1625.45
  -3 -15  1012528.18 1976.83
   3 -15  -9 -350.70  752.37
  -3 -15   9 1019.38  825.59
   3 -15  -8 2763.64  892.36
  -3 -15   8 4015.09 1014.25
   3 -15  -7  187.42 1068.28
  -3 -15   7 1411.22  816.34
   3 -15  -6 4962.37  994.01
  -3 -15   6 3121.82 1381.78
   3 -15  -5 3918.17 1084.42
  -3 -15   5 4402.27 1352.02
   3 -15  -417758.46 2102.89
  -3 -15   415360.35 2233.91
   3 -15  -3 1222.44  805.45
  -3 -15   3 1047.04  780.23
   3 -15  -2 7019.78 1292.40
  -3 -15   2 5941.57 1201.67
   3 -15  -113670.75 2061.39
  -3 -15   114087.44 2284.71
  -3 -15   016644.46 2003.78
  -3 -15  -1 1094.98  692.16
  -3  15  -1 4113.02 2243.64
   3 -15   2 2811.13 1090.38
  -3 -15  -2 1031.03  661.72
  -3  15  -2 3360.43 2283.57
   3 -15   327707.91 3686.84
  -3 -15  -326798.92 3130.48
  -3  15  -335152.64 7377.68
   3 -15   411698.20 1978.64
  -3  15  -410029.31 3225.19
  -3 -15  -414222.78 1809.04
   3 -15   5 5896.60 1204.30
  -3 -15  -5 3740.26  732.08
  -3  15  -5 4655.04 2385.19
   3 -15   6 2407.12 1082.46
  -3 -15  -6 3319.78  893.49
  -3  15  -6 2124.35 2264.59
   3 -15   7  491.77  895.73
  -3 -15  -7  265.45  621.93
  -3  15  -7  847.39 1764.40
   3 -15   8 1540.45 1132.50
  -3 -15  -8  952.08  675.06
  -3  15  -8 2657.21 1927.31
   3 -15   9 1942.49 1183.48
  -3  15  -9 2305.10 1987.33
   3 -15  1019561.69 3217.72
  -3  15 -1019470.31 3201.61
   3 -15  11-1661.17 1084.33
  -3  15 -11 4145.88 1643.15
   3 -15  1210415.07 1974.79
  -3  15 -12 6372.08 2455.76
   3 -15  13  793.97 1300.44
  -3  15 -13 2525.35 1608.20
   3 -15  14 4559.75 2000.35
  -3  15 -14 6180.59 2237.60
   3 -15  15 1174.67 1132.23
  -3  15 -15   53.37 1649.97
   3 -15  1632183.52 5051.73
  -3  15 -1640241.75 6324.41
   3 -15  17   16.03 1446.57
  -3  15 -17  363.39  726.41
   3 -15  18   76.59 1020.25
  -3  15 -18 -631.68 1195.50
   3 -15  19  661.10 1057.91
  -3  15 -19  225.89  971.43
   3 -15  20 3718.18 1519.56
  -3  15 -20 2075.21 1201.49
   3 -15  21 -953.30  917.14
  -3  15 -21  405.96  969.72
   3 -15  22 1506.27 1021.24
  -3  15 -22 -562.32  922.74
   3 -15  23   28.12  837.67
  -3  15 -23  265.07  902.55
   3 -15  24 -268.49  877.38
  -3  15 -24 -559.01  933.71
   3 -15  25 -677.95  880.42
  -3  15 -25  928.78  979.04
   3 -15  26 2014.39 1180.83
  -3  15 -26 4656.11 1233.30
   3 -16 -25  844.13 1144.18
   3 -16 -24 3904.49 1038.27
  -3 -16  24 2589.30 1559.39
   3 -16 -23 3061.78  976.10
  -3 -16  23 2483.97 1560.08
   3 -16 -22 4226.64 1271.73
  -3 -16  22 1405.29  987.27
   3 -16 -21 3328.90  940.31
  -3 -16  21 2648.00 1040.06
   3 -16 -20 -769.89  741.67
  -3 -16  20  131.81  852.59
   3 -16 -19  678.46  795.97
  -3 -16  19 -674.32  857.65
   3 -16 -18 5364.82 1076.02
  -3 -16  18 2562.78 1088.59
   3 -16 -17  145.95  784.02
  -3 -16  17 -550.89  800.64
   3 -16 -16 3294.34 1379.75
  -3 -16  16 1089.82  956.55
   3 -16 -15 -674.74  753.84
  -3 -16  15  143.06  856.04
   3 -16 -14  694.55  784.67
  -3 -16  14  708.12  823.45
   3 -16 -13 6534.72 1141.04
   3  16 -13 4006.52 2397.38
  -3 -16  13 3060.83 1023.40
   3  16 -12 1953.94 1967.40
   3 -16 -12 2828.73  850.81
  -3 -16  12  176.53  811.55
   3 -16 -11 1114.59  855.67
  -3 -16  11 1356.51 1228.87
   3 -16 -10  978.24  908.45
  -3 -16  10  471.30  938.80
   3 -16  -9 1647.09  854.90
  -3 -16   9 1868.47 1014.44
   3 -16  -8 2066.11  930.58
  -3 -16   8 4107.35 1097.38
   3 -16  -7 7154.30 1227.87
  -3 -16   7 4532.42 1144.05
  -3 -16   6 2464.29  931.64
  -3 -16   5  -78.58  754.92
   3 -16  -410061.35 1625.63
  -3 -16   4 8105.41 1713.98
   3 -16  -318346.92 2404.05
  -3 -16   319289.01 2438.51
   3 -16  -2 4215.27 1093.59
  -3 -16   2 2396.28  935.25
   3 -16  -1 1064.35  855.03
  -3 -16   1  630.62  760.23
   3 -16   0 -704.07  887.40
  -3 -16   0  370.56  915.80
   3 -16   1 1240.46  957.49
  -3 -16  -1  688.27  642.64
  -3  16  -1-1958.44 1942.37
   3 -16   2 5604.82 1700.27
  -3 -16  -212471.67 1602.29
  -3  16  -212728.30 3255.35
   3 -16   3 7110.05 1466.45
  -3 -16  -3 7189.09 1439.31
  -3  16  -3 9610.94 3287.73
   3 -16   4  705.51 1040.82
  -3 -16  -4  972.94  814.51
  -3  16  -4  425.46 1937.70
   3 -16   5 2180.27 1111.64
  -3  16  -5 -300.64 1954.84
  -3 -16  -5  417.85  558.64
   3 -16   6 1536.00  953.04
  -3  16  -6 1682.01 2140.27
  -3 -16  -6 1426.00  816.38
   3 -16   7 3044.86 1287.14
  -3  16  -7 2445.43 1976.16
  -3 -16  -7 1631.61  591.62
   3 -16   8 9521.25 1984.48
  -3  16  -8 6505.16 2700.64
   3 -16   9 5290.13 1829.22
  -3  16  -9  106.75 2119.38
   3 -16  10 5225.30 1424.05
  -3  16 -10 1064.86 1809.07
   3 -16  11 3189.32 1371.02
  -3  16 -11 6488.25 1946.66
   3 -16  12 7113.22 1623.98
  -3  16 -12 4382.96 2185.37
   3 -16  13 -742.21 1094.98
  -3  16 -13 1409.50 1649.58
   3 -16  14 2864.46 1209.01
  -3  16 -14 2010.29 1734.20
   3 -16  15  802.40 1085.75
  -3  16 -15-1550.12 1472.24
   3 -16  16  889.61 1564.64
  -3  16 -16-1922.55 1269.55
   3 -16  17 -844.21 1000.70
  -3  16 -17  213.67 1245.04
   3 -16  18 1129.46 1056.12
  -3  16 -18 -917.33 1231.57
   3 -16  19 1428.20 1152.23
  -3  16 -19 1106.45 1093.05
   3 -16  20  508.69 1051.12
  -3  16 -20 1922.38 1097.69
   3 -16  21 -798.92 1276.83
  -3  16 -21  458.71 1014.33
   3 -16  22  405.19  955.01
  -3  16 -22 -403.60  948.81
   3 -16  23  920.02 1251.02
  -3  16 -23  -68.70  977.02
   3 -16  24 2108.20 1027.99
  -3  16 -24 -688.36 1054.20
   3 -17 -22  -61.66  869.45
  -3 -17  22  502.61  885.01
   3 -17 -21 3351.82 1303.69
  -3 -17  21 1265.95 1020.37
   3 -17 -20 2387.11  955.23
  -3 -17  20  977.76  980.98
   3 -17 -1913459.11 1994.02
  -3 -17  19 3652.05 1322.82
   3 -17 -18 2046.40  899.66
  -3 -17  18  826.18 1338.54
   3 -17 -17  572.25  785.86
  -3 -17  17 -310.46  826.69
   3 -17 -16  495.83 1057.32
  -3 -17  16 -265.41  828.36
   3 -17 -15 1337.88  790.27
  -3 -17  15 -625.68  828.20
   3 -17 -14 1155.26  801.70
  -3 -17  14 -199.90  818.61
   3 -17 -13  611.33  840.02
  -3 -17  13 1096.43  854.91
   3  17 -12 -921.06 2802.32
   3 -17 -12 1437.66  837.44
  -3 -17  12  822.85  820.65
   3 -17 -11 7375.35 1312.50
  -3 -17  11 4958.51 1339.82
   3 -17 -10 3381.14 1053.95
  -3 -17  10 3446.01 1454.35
   3 -17  -9 2309.86  993.13
  -3 -17   9 1348.22 1269.57
   3 -17  -8  207.18  774.65
  -3 -17   8 1536.79  898.45
   3 -17  -7  293.62  769.89
  -3 -17   7  363.85  835.60
   3 -17  -6 3065.73  973.60
  -3 -17   6 2217.64  935.38
   3 -17  -5 4585.00 1203.62
  -3 -17   5 6212.26 1369.39
   3 -17  -4 9930.42 1635.97
  -3 -17   4 7324.56 1834.90
   3 -17  -3  879.27  943.37
  -3 -17   3  867.20  827.73
   3 -17  -213340.27 1971.37
  -3 -17   213505.75 1965.60
   3 -17  -120171.84 2852.08
  -3 -17   118383.32 2881.67
  -3 -17   0 3974.76 1303.46
  -3 -17  -1 1526.82  758.47
  -3  17  -1 4546.93 2179.96
   3 -17   2 3570.69 1300.25
  -3 -17  -2 5848.20 1315.51
  -3  17  -2 4155.34 2582.75
   3 -17   3 3272.60 1252.56
  -3 -17  -3 3166.41 1079.78
  -3  17  -3  439.36 2297.24
   3 -17   4  997.67 1015.73
  -3 -17  -4 1344.23  672.50
  -3  17  -4  379.81 1963.58
   3 -17   5 3540.71 1450.73
  -3  17  -5 1763.47 2384.76
  -3 -17  -5 7882.53 1325.47
   3 -17   6  875.16 1125.87
  -3  17  -6  282.44 2027.69
   3 -17   7 -252.73 1099.71
  -3  17  -7 2915.39 1925.94
   3 -17   8 1471.67 1078.63
  -3  17  -8  932.41 2038.77
   3 -17   9 3165.07 1380.71
  -3  17  -9 1090.10 2219.21
   3 -17  10 6366.17 1551.20
  -3  17 -10 3742.27 2460.40
   3 -17  11 1374.57 1214.09
  -3  17 -11 1911.23 1021.53
   3 -17  12  460.72 1102.70
  -3  17 -12 -373.18 1613.62
   3 -17  13 3738.48 1308.96
  -3  17 -13 2365.96 1850.25
   3 -17  14  610.49 1063.52
  -3  17 -14 -515.55 1474.86
   3 -17  15 3864.97 1451.47
  -3  17 -15 7299.78 2148.84
   3 -17  16  696.00 1161.05
  -3  17 -16 4425.39 1840.18
   3 -17  17  942.79 1033.33
  -3  17 -17 -528.58 1310.88
   3 -17  18 -132.96 1020.37
  -3  17 -18  543.53 1254.80
   3 -17  19 -259.64 1080.14
  -3  17 -19 -960.78  771.94
   3 -17  20 -484.74  969.99
  -3  17 -20 -249.36 1056.15
   3 -17  21  779.27 1035.57
  -3  17 -21  540.84 1061.97
   3 -17  22 -615.00 1058.64
  -3  17 -22-1410.67 1050.25
   3 -18 -20 1639.86  903.48
  -3 -18  20  686.77  994.46
   3 -18 -19  613.59 1123.59
  -3 -18  19  370.14  914.02
   3 -18 -18 -641.95  794.63
  -3 -18  18  523.39  917.84
   3 -18 -17 2872.90  972.03
  -3 -18  17 1764.71  953.90
   3 -18 -16 -795.10 1074.37
  -3 -18  16 -240.61 1206.14
   3 -18 -15 -820.69  795.62
  -3 -18  15  346.02  891.81
   3 -18 -14  395.13  801.66
  -3 -18  14   24.88  830.28
   3 -18 -13 8390.78 1332.73
  -3 -18  13 3211.17 1086.18
   3 -18 -12  -48.68 1152.91
  -3 -18  12 2051.10  903.91
   3  18 -11 5058.53 2704.70
   3 -18 -11 7476.34 1435.07
  -3 -18  11 3772.22 1163.34
   3 -18 -10 2586.35  901.28
  -3 -18  10  632.01  968.43
   3 -18  -9 2371.68  917.82
  -3 -18   9  465.34 1311.11
   3 -18  -8   18.24  923.78
  -3 -18   8 -276.61  830.26
   3 -18  -712183.08 1737.24
  -3 -18   7 6701.17 1405.23
   3 -18  -6  147.02  880.89
  -3 -18   6 -118.83  816.21
   3 -18  -5 2748.18 1079.23
  -3 -18   5 2999.87 1448.17
   3 -18  -4 1207.11 1335.72
  -3 -18   4 1091.86  926.01
   3 -18  -3 4323.49 1228.25
  -3 -18   3 3192.71 1111.34
   3 -18  -2 2131.47 1158.37
  -3 -18   2 3947.76  971.80
   3 -18  -1   58.74 1054.96
  -3 -18   1 2638.77 1207.88
  -3 -18   0 5830.32 1218.29
  -3  18   0 1575.22 2208.12
   3 -18   1 1162.34 1407.39
  -3 -18  -1  159.55 1070.60
  -3  18  -1 1408.70 2054.45
   3 -18   2   76.62  972.51
  -3 -18  -2   -3.99  938.94
   3 -18   3 8388.40 1603.53
  -3 -18  -313276.27 1690.36
   3 -18   4  656.59  975.32
  -3 -18  -4 2028.37  948.51
  -3  18  -4-1687.07 1976.48
   3 -18   5  881.21 1109.91
  -3  18  -5  -65.10 2093.26
   3 -18   6 2482.06 1301.16
  -3  18  -6 4456.04 2448.18
   3 -18   7 3472.61 1336.36
  -3  18  -7 1731.68 2146.17
   3 -18   8  875.54 1239.98
  -3  18  -8-1079.16 1857.74
   3 -18   9 7129.83 1659.72
  -3  18  -9 9397.76 2931.56
   3 -18  10 1350.05 1558.63
  -3  18 -10  841.44 2127.63
   3 -18  11 3429.04 1349.71
  -3  18 -11 2837.69 1888.56
   3 -18  12  218.58 1052.32
  -3  18 -12  293.46 1649.84
   3 -18  13 5997.38 1500.02
  -3  18 -13 4374.57 1395.71
   3 -18  14  794.57 1158.60
  -3  18 -14 2248.15 1865.62
   3 -18  15-1223.46 1099.62
  -3  18 -15  359.25 1715.28
   3 -18  16  904.05 1125.25
  -3  18 -16 1704.95 1715.37
   3 -18  17  291.21 1501.33
  -3  18 -17 2218.10 1434.36
   3 -18  18  308.64 1068.54
  -3  18 -18-1474.33 1288.98
   3 -18  19 2899.87 1257.79
  -3  18 -19 2873.19 1666.47
   3 -18  20  342.85  991.71
  -3  18 -20  433.01 1139.46
   3 -19 -17 2163.23  978.39
  -3 -19  17 2233.52 1053.59
   3 -19 -16  203.84  844.14
  -3 -19  16  523.90 1195.12
   3 -19 -15 3647.31 1023.11
  -3 -19  15 2010.80 1057.75
   3 -19 -14 1670.24  916.61
  -3 -19  14 2311.81  969.80
   3 -19 -13 -137.29 1143.65
  -3 -19  13  157.97  847.84
   3 -19 -12-1002.89  856.04
  -3 -19  12-1465.50  835.92
   3 -19 -1113123.20 1796.39
  -3 -19  11 6358.12 1409.12
   3 -19 -10   54.34  921.03
  -3 -19  10 1144.61 1256.14
   3 -19  -9 6807.36 1310.85
  -3 -19   9 4030.13 1142.32
   3 -19  -8  674.93  997.55
  -3 -19   8  823.31  885.32
   3 -19  -7  763.94  933.81
  -3 -19   7 1073.28  869.13
   3 -19  -6  398.21  894.23
  -3 -19   6 -817.79 1036.40
   3 -19  -5 3913.61 1384.17
  -3 -19   5 5690.56 1297.24
   3 -19  -4 1728.46 1119.81
  -3 -19   4 1755.55  999.59
   3 -19  -3 1856.13 1149.74
  -3 -19   3 2515.76 1335.12
   3 -19  -2  712.51 1129.21
  -3 -19   2 1254.53  938.53
   3 -19  -1 2808.07 1196.77
  -3 -19   1 3240.36 1028.80
   3 -19   0 1889.33 1061.96
  -3 -19   0 1654.71 1261.91
   3 -19   1 -487.06 1030.35
  -3 -19  -1 1299.79  831.35
  -3  19  -1 1030.15 1929.56
   3 -19   2  115.62 1398.60
  -3 -19  -2  945.54 1103.18
  -3  19  -2  524.64 2032.62
   3 -19   3  585.19 1023.44
  -3  19  -3 1231.24 2078.73
   3 -19   4 1333.11 1236.88
  -3  19  -4 1837.73 2119.27
   3 -19   5 3279.89 1355.55
  -3  19  -5 3445.41 2402.00
   3 -19   6 1627.73 1662.73
  -3  19  -6 1690.83 2287.18
   3 -19   7  355.15 1287.29
  -3  19  -7 3817.44 1343.08
   3 -19   8    4.44 1167.82
  -3  19  -8  869.77 1896.12
   3 -19   9 3529.47 1416.06
  -3  19  -9 2087.24 2406.36
   3 -19  10  306.98 1086.40
  -3  19 -10-1351.64 2019.91
   3 -19  11 1557.46 1156.19
  -3  19 -11 2962.04 1902.56
   3 -19  12 2400.24 1240.64
  -3  19 -12  471.50 1807.31
   3 -19  13 1434.30 1109.44
  -3  19 -13 -429.74  988.35
   3 -19  14   -9.31 1065.86
  -3  19 -14 -267.42 1592.02
   3 -19  15 3153.92 1705.09
  -3  19 -15 3816.23 2005.56
   3 -19  16  169.28 1035.43
  -3  19 -16 1112.89 1712.24
  -3  19 -17 -709.47 1404.21
   3 -20 -13 6741.39 1346.56
  -3 -20  13 3234.67 1183.02
   3 -20 -12 1134.78 1000.90
  -3 -20  12 2180.02  974.79
   3 -20 -11 1024.06  996.05
  -3 -20  11 1575.15 1375.04
   3 -20 -10  647.10 1248.13
  -3 -20  10  152.18  869.60
   3 -20  -9 -677.04  920.45
  -3 -20   9 1160.40  933.33
   3 -20  -813307.95 2203.97
  -3 -20   812743.12 2114.24
   3 -20  -7 6829.36 1731.32
  -3 -20   7 7130.26 1853.29
   3 -20  -6 -827.37  998.93
  -3 -20   6 -283.95  896.29
   3 -20  -5 1364.99 1050.30
  -3 -20   5 -840.08  812.94
   3 -20  -4-1482.71 1037.55
  -3 -20   4  580.03 1279.26
   3 -20  -3 6763.21 1417.03
  -3 -20   3 2825.11 1117.86
   3 -20  -2 2927.84 1430.84
  -3 -20   2 6857.37 1326.31
   3 -20  -1 1437.47 1131.41
  -3 -20   1 2419.92 1320.79
  -3  20   1 2148.54 1300.47
   3 -20   0  274.14  986.50
  -3 -20   0  162.13  850.03
  -3  20   0-2253.18 1819.93
   3 -20   1  210.40 1020.33
  -3 -20  -1 1329.92 1196.26
  -3  20  -1   17.84 2008.17
   3 -20   2 5136.61 1545.16
  -3  20  -2 5316.44 2544.01
   3 -20   3 -472.37 1732.89
  -3  20  -3 2104.33 1289.63
   3 -20   4  279.19 1169.09
  -3  20  -4 1309.69 2054.86
   3 -20   5  -83.58 1213.74
  -3  20  -5 3288.82 2204.08
   3 -20   6  909.88 1257.02
  -3  20  -6-2320.20 2053.07
   3 -20   7  763.01 1297.80
  -3  20  -7 4633.80 2159.60
   3 -20   8 4495.39 1848.16
  -3  20  -8  270.41 2260.44
   3 -20   9 3183.95 1382.62
  -3  20  -9 4372.71 2478.42
   3 -20  10 -344.34 1099.41
  -3  20 -10 -234.73 1663.75
   3 -20  11 3004.38 1281.51
  -3  20 -11 1671.68 1952.59
   3 -20  12   15.17 1024.13
  -3  20 -12 2294.50 1794.32
  -3  20 -13  757.00 1102.91
   3 -21  -7  100.27 1106.81
  -3 -21   7 -179.92  902.30
   3 -21  -6 2970.70 1224.95
  -3 -21   6 2779.32 1048.92
   3 -21  -5 -193.26 1040.88
  -3 -21   5 -400.75  899.12
   3 -21  -4 3777.01 1305.22
  -3 -21   4 3153.95 1118.82
   3 -21  -3  821.01 1108.80
  -3 -21   3  335.24 1305.41
   3 -21  -2   38.57 1053.30
  -3 -21   2 -121.23  911.45
  -3  21   2 1108.79 1893.57
   3 -21  -1  248.87 1050.16
  -3 -21   1 1314.21  915.53
  -3  21   1 -725.20 1990.41
   3 -21   0  317.24 1271.78
  -3  21   0  669.72 1196.56
   3 -21   1  733.77 1231.46
  -3  21  -1  383.17 2034.24
   3 -21   2 2644.49 1317.82
  -3  21  -2-1511.32 2098.75
   3 -21   3  762.41 1249.33
  -3  21  -3 2099.71 2120.34
   3 -21   4 -296.28 1237.04
  -3  21  -4 1965.44 1309.12
   3 -21   5   69.43 1634.26
  -3  21  -5-1261.01 2042.95
  -4   0  36 1090.51  961.32
  -4   0  35  133.48  858.17
  -4   0  34-1615.68 1254.41
  -4   0  33  654.84  898.50
  -4   0  32  537.25  853.71
  -4   0  31   47.11  803.19
  -4   0  30 5801.12 1395.51
  -4   0  29 1215.46  930.35
  -4   0  28 1372.40  911.08
  -4   0  27 2222.80  962.31
  -4   0  26  171.09  793.18
  -4   0  25-2036.14  795.57
  -4   0  2425361.13 3483.81
  -4   0  23 -936.55  861.75
  -4   0  22 -218.98 1059.47
  -4   0  21 -747.51  797.53
  -4   0  20 1747.47  819.74
  -4   0  19  630.04  765.98
  -4   0  1854605.15 6180.76
  -4   0  17  598.78  696.15
  -4   0  16 1599.27 1045.25
  -4   0  15 -712.44  653.59
  -4   0  14131976.717464.05
  -4   0  13  430.85  983.68
  -4   0  12 1296.01  778.52
  -4   0  11  994.62  727.59
  -4   0  10251025.139865.57
   4   0  -9  -77.70   82.84
  -4   0   9 -691.52  658.41
  -4   0   8221307.632412.95
   4   0  -7  -17.69  142.24
  -4   0   7 1759.29  710.31
   4   0  -6 6485.66  430.39
  -4   0   611617.12 1338.24
   4   0  -5   77.24  263.19
  -4   0   5 -879.41  588.83
   4   0  -4  498.48  322.96
  -4   0   4 -145.80  933.17
   4   0  -3 1273.70  851.19
   4   0  -3  658.93  538.55
   4   0  -3 -146.76  397.79
   4   0  -2 5713.65 1056.94
   4   0  -2 4427.30  768.41
   4   0  -2 5688.28  683.71
   4   0  -1  210.76  485.36
   4   0  -1   41.09  495.42
   4   0   0 3900.22  624.05
   4   0   0 4571.41  719.02
   4   0   1 -645.79  420.61
   4   0   1 -167.32  354.94
   4   0   262244.98 5251.79
   4   0   256965.26 4522.98
   4   0   3  181.77  498.98
   4   0   3  385.29  450.15
   4   0   485087.24 8441.91
   4   0   487675.03 7594.29
   4   0   5  -17.88  378.59
   4   0   5 -577.13  549.71
   4   0   6 4563.58  823.59
   4   0   6 5172.94  643.59
   4   0   7  579.60  685.79
   4   0   7 -152.16  296.90
   4   0   8 5709.98 1000.40
   4   0   8 6287.48  516.43
  -4   0  -8 3806.50  372.46
   4   0   9   23.05  593.97
   4   0   9  552.48  287.16
  -4   0  -9  270.39  186.16
   4   0  10 8539.83 1291.39
   4   0  10 8211.21  703.22
   4   0  11  784.86  711.49
   4   0  11   11.48  306.39
  -4   0 -11 -240.43  155.57
   4   0  12 5294.25 1056.59
   4   0  12 6412.52  731.66
   4   0  13  102.93  663.23
   4   0  13  593.63  312.27
  -4   0 -13    8.64  177.66
   4   0  1429033.27 2578.74
   4   0  1436408.08 3679.58
  -4   0 -1427800.97 1968.58
   4   0  15 -219.55  260.62
   4   0  15  956.34  396.28
   4   0  16 5134.25  597.51
   4   0  16 6841.60 1193.69
   4   0  17  259.29  234.69
   4   0  17  117.12  761.37
   4   0  1855464.36 4808.01
   4   0  1867456.91 7712.53
   4   0  19  909.10  721.90
   4   0  19 -193.16  197.25
   4   0  20 3337.66  873.14
   4   0  21 -340.35  795.55
   4   0  22 2426.79  564.99
   4   0  23 1068.57  963.34
   4   0  24 1710.09 1011.26
   4   0  25   95.63  927.85
   4   0  26 3839.25 1250.60
   4   0  27   81.45  930.37
   4   0  28 9161.99 1840.65
   4   0  29 1580.20 1422.59
   4   0  30 7386.74 1831.61
   4   0  31 1428.95 1461.85
   4   0  32 8081.83 1396.58
   4   0  33 -269.57 1427.32
   4   0  34 7016.14 2451.68
   4   0  35-1163.72 1830.65
   4   0  36 -699.37 1914.98
  -4  -1  36 -500.87  922.34
  -4   1  36 -157.13 1164.15
  -4  -1  35  351.78  920.27
  -4   1  35 1396.20  882.55
  -4  -1  34  216.20  889.31
  -4   1  34-1088.42  810.41
  -4  -1  33 1027.47  954.00
  -4   1  33 1917.89  961.76
  -4  -1  32 5597.72 1212.27
  -4   1  32 4082.94 1182.35
  -4  -1  31  147.86  883.01
  -4   1  31 1327.95  877.06
  -4  -1  30  411.91  970.90
  -4   1  30 1359.14  910.20
  -4   1  29  327.73  810.94
  -4  -1  29 -178.59  876.96
  -4  -1  28 1732.80  984.30
  -4   1  28 2908.86 1034.68
  -4  -1  27 1512.68  873.86
  -4   1  27  -22.41  908.62
  -4  -1  26 7396.51 1409.14
  -4   1  26 7593.02 1523.92
  -4   1  25 5813.83 1118.58
  -4   1  24 1042.03 1134.82
  -4  -1  24  654.50  913.46
  -4   1  23 8779.16 1266.12
  -4  -1  23 7608.57 1607.69
  -4  -1  2221398.39 3080.27
  -4   1  2223436.20 3052.39
  -4  -1  21 9708.78 1842.55
  -4   1  21 6918.49 1226.51
  -4   1  20    2.48  774.43
  -4  -1  20 1445.80  804.05
  -4  -1  19 5729.88 1568.43
  -4   1  19 3460.91  999.72
  -4  -1  18 2755.45  859.20
  -4   1  18 3912.09  869.27
  -4  -1  17 6965.26 1242.62
  -4   1  17 6184.08 1085.97
  -4  -1  1630006.19 3582.86
  -4   1  1628633.34 3305.83
  -4  -1  1558602.41 7079.70
  -4   1  1551075.76 5982.66
   4  -1 -1415033.68  867.73
  -4  -1  1418753.59 2166.56
  -4   1  1420795.59 2363.97
  -4  -1  13 3813.34  960.03
  -4   1  13 3867.45  865.93
   4  -1 -12116782.510842.28
  -4  -1  12146677.117419.72
  -4   1  12125280.015588.26
  -4  -1  1142124.04 4615.08
  -4   1  1138560.34 3871.70
  -4   1  1029082.69 3135.33
  -4  -1  1032857.77 3567.11
  -4  -1   943719.41 4904.14
  -4   1   946716.03 3741.63
  -4   1   943554.84 4773.51
  -4   1   850847.79 5200.78
  -4  -1   852585.96 5545.18
   4   1  -7  128.45  196.40
  -4   1   7   78.87  287.07
  -4  -1   7  309.38  718.02
  -4   1   7  696.15  608.71
   4  -1  -6133764.116272.20
  -4  -1   6132150.816472.63
   4  -1  -5104860.911293.83
   4   1  -5112548.813170.10
  -4  -1   5102650.811749.75
   4   1  -4 3982.24  748.29
   4  -1  -4 4868.44  817.21
   4   1  -4 3955.80  513.71
  -4   1   4 3736.79  697.14
  -4  -1   4 5250.08  890.39
   4   1  -3 1788.26  525.26
   4  -1  -3 1427.74  940.48
   4  -1  -3 2266.25  645.14
   4   1  -3 1460.55  713.57
  -4   1   3 1264.09  424.92
  -4  -1   3 2764.95  749.40
   4   1  -2 3942.63  534.87
   4  -1  -2 4369.43  797.05
   4   1  -2 3782.91  771.45
  -4  -1   2 5053.45 1093.93
  -4   1   2 5143.58  764.84
   4   1  -1 6372.76  748.80
   4  -1  -1 6485.55 1079.34
   4  -1  -1 6275.99  576.82
  -4  -1   1 5139.69  808.21
   4  -1   038313.82 3335.23
   4   1   039548.33 3620.36
   4   1   037808.17 3140.82
   4  -1   041775.69 3505.54
   4  -1   1 1345.78  612.76
   4   1   1 1616.75  524.30
   4   1   1  480.36  357.76
   4  -1   1 1767.42  457.36
   4   1   2 8016.43  961.89
   4   1   2 9174.94  855.20
   4  -1   2 8048.47  868.97
   4  -1   2 9721.48 1219.92
   4   1   312119.18 1329.92
   4  -1   313318.67 1221.99
   4   1   312390.59 1138.05
   4  -1   313824.68 1380.40
   4  -1   420236.56 1796.59
   4   1   418905.17 1964.86
   4   1   421646.98 1698.99
   4  -1   422430.26 2214.25
   4  -1   5 5053.47  794.20
   4   1   5 3839.06  738.05
   4  -1   5 2384.77  425.74
   4   1   5 2396.85  452.55
   4   1   5 3953.53  580.84
   4   1   6 2819.92  448.13
   4  -1   6 4320.38  805.65
   4   1   6 3206.59  742.02
   4   1   6 2146.66  410.68
   4  -1   6 3480.61  598.14
   4  -1   7 1430.35  468.86
   4   1   7 2014.76  694.45
   4   1   7 2138.76  409.70
   4   1   7 1238.46  327.49
   4  -1   7 2860.59  719.36
   4   1   810079.23  648.14
   4  -1   812321.12 1021.69
   4   1   811013.72 1553.80
   4  -1   811245.05 1599.08
   4   1   9 3294.85  792.70
   4  -1   9 3261.89  505.33
   4   1   9 2045.38  256.94
   4  -1   9 3016.37  467.34
   4  -1  1055082.61 5651.52
   4   1  1051850.96 5632.58
   4  -1  1058056.66 4774.12
   4  -1  11  710.03  645.67
   4  -1  11 -354.05  422.75
   4   1  11   47.06  695.92
   4   1  11  147.79  162.59
  -4  -1 -11   33.00  123.62
   4  -1  12 6032.79 1083.61
   4   1  12 6356.53 1178.84
   4  -1  12 4731.36  740.54
   4  -1  13 1438.15  665.82
   4   1  13 2327.16  748.08
   4   1  13  974.11  257.35
   4  -1  13 3402.44  558.64
   4  -1  1446312.25 5271.24
   4   1  1448704.16 5248.61
   4  -1  1448114.39 4558.31
   4  -1  15 2052.83  501.67
   4  -1  15 2172.76  843.98
   4   1  15 3673.18  786.21
   4  -1  16 2612.89  499.44
   4   1  16 2307.25  839.18
   4   1  16 2383.03  219.47
   4  -1  16 3869.53  898.40
  -4  -1 -16 1710.68  213.22
   4  -1  1710730.63 1521.83
   4   1  17 8759.27 1377.83
   4  -1  17 9424.72 1038.66
   4   1  18   47.74  767.92
   4  -1  18  402.60  376.73
   4  -1  18 -316.25  692.40
   4  -1  19 1629.69  867.94
   4  -1  19 1518.78  439.86
   4   1  19  855.05  873.37
   4  -1  20 6564.44  876.17
   4  -1  20 6936.05 1162.46
   4   1  20 8076.98 1323.15
   4  -1  21  707.58  752.47
   4   1  21   93.14  484.74
   4   1  22 -678.71  772.70
   4  -1  22  885.94  854.91
   4  -1  23 1846.20  933.98
   4   1  23 1017.27  995.13
   4  -1  24 3514.35 1070.16
   4   1  24 3631.60 1149.29
   4  -1  25-1046.93  804.11
   4   1  25 1636.20  787.50
   4   1  2611509.48 2321.90
   4  -1  26 8493.75 1680.60
   4  -1  27 4592.41 1386.31
   4   1  27 3789.11 1463.22
   4  -1  28 -214.71  995.29
   4   1  28 -312.54 1147.53
   4  -1  29 2625.67 1337.78
   4   1  29 2327.15 1540.19
   4  -1  30 4442.56 1397.85
   4   1  30 6909.19 1796.13
   4  -1  31  633.19 1094.79
   4   1  31 -131.36  940.73
   4  -1  32 4195.17 1709.21
   4   1  32 -871.19 1654.87
   4  -1  33 3097.33 1815.55
   4   1  33 4377.82 2017.21
   4  -1  34 2799.86 1559.63
   4   1  34-1771.50 1762.94
   4  -1  35 1834.26 1589.45
   4   1  35 -153.92 1830.23
   4  -1  36 7298.35 2321.08
   4   1  36 5097.54 2417.19
  -4   2  36  735.12  891.16
  -4  -2  36  -77.41  930.32
  -4  -2  35 -179.60  896.32
  -4   2  35  568.35  861.75
  -4  -2  34  818.93  968.53
  -4   2  34  649.52  859.88
  -4  -2  33 1067.42  983.38
  -4   2  33 1578.54  887.16
  -4  -2  32  857.23  943.54
  -4   2  32  848.05  829.53
  -4  -2  31 -800.51  857.32
  -4   2  31  547.47  738.70
  -4  -2  30 5395.77 1607.82
  -4   2  30 4070.25 1529.45
  -4  -2  29 -282.88  947.58
  -4   2  29 1594.91  845.22
  -4  -2  28 3804.36 1082.65
  -4   2  28 1747.73  925.98
  -4  -2  27  812.07  899.21
  -4   2  27  466.40  753.38
  -4  -2  26  441.66  932.19
  -4   2  26 -377.37 1012.55
  -4  -2  25 4827.08 1292.27
  -4   2  25 7671.70 1317.23
  -4   2  24 1773.07  790.26
  -4  -2  24  791.53  941.08
  -4  -2  23 4412.02 1201.51
  -4   2  23 2788.17  956.83
  -4  -2  22 5477.95 1126.53
  -4   2  22 3362.15  956.32
  -4  -2  21  767.40  823.97
  -4   2  21 -208.18  661.29
  -4  -2  20  813.84  860.43
  -4   2  20  174.01  665.47
  -4  -2  19 4574.88 1028.16
  -4   2  19 4561.15 1026.43
  -4  -2  1812471.83 1924.59
  -4   2  1811175.10 1877.31
  -4  -2  17 3604.78 1519.05
  -4   2  17 4856.69  957.12
  -4  -2  16 6640.18 1361.96
  -4   2  16 5755.47 1019.21
  -4  -2  15 7749.17 1504.40
  -4   2  15 7085.31 1230.37
   4  -2 -14 2420.99  352.73
  -4  -2  14 3197.30 1029.62
  -4   2  14  673.46  674.59
   4  -2 -1362792.43 5122.76
  -4  -2  1375589.92 8430.21
  -4   2  1371228.35 8204.50
  -4  -2  12 3377.28  942.65
  -4   2  12 3821.38  854.04
  -4  -2  1122861.12 2406.19
  -4   2  1111130.07 1332.05
   4  -2 -1046206.94 4583.93
  -4   2  1049396.11 5635.63
  -4  -2  1043504.57 5066.12
   4  -2  -912396.01 1443.43
  -4   2   9 8525.46 1210.78
  -4  -2   910909.65 1644.86
   4  -2  -837331.03 3736.81
  -4   2   836303.14 3797.68
  -4  -2   836372.23 3924.41
   4  -2  -778671.26 8597.99
  -4   2   788730.50 9744.95
  -4  -2   773864.57 8385.27
   4  -2  -6  780.41  679.23
   4   2  -6 -616.34  382.50
  -4   2   6  626.91  693.12
  -4  -2   6 -204.73  679.20
   4   2  -526021.94 2917.63
   4  -2  -528631.64 3261.08
  -4   2   529101.43 3007.93
  -4  -2   528821.85 3580.15
   4   2  -4  133.86  487.35
   4   2  -4  150.52  278.47
   4  -2  -4 1283.38  593.43
  -4   2   4  379.06  691.50
  -4  -2   4  243.72  611.97
   4  -2  -3  158.87  605.22
   4   2  -3  123.02  527.65
   4   2  -3  381.02  364.61
  -4   2   3 1163.70  496.30
  -4  -2   3  413.58  898.74
   4   2  -2 3296.94  640.53
   4  -2  -2 1423.95  627.47
   4   2  -2 1483.55  425.67
  -4   2   2  995.86  531.37
  -4  -2   2 2155.22  930.51
   4   2  -1 6121.76 1026.50
   4  -2  -1 7320.23 1303.39
  -4   2   1 8142.72 1111.75
  -4  -2   1 6918.83  955.23
   4   2   0 7237.25  812.32
   4  -2   0 6902.00  967.23
  -4   2   0 6462.26 1231.34
  -4  -2   0 5694.39 1088.41
   4  -2   122420.79 2114.82
   4   2   120530.79 1954.69
  -4   2  -121049.81 2396.37
  -4  -2  -121111.42 1858.47
   4   2   238956.99 2849.09
   4   2   239689.40 3258.88
   4  -2   238898.53 3475.57
  -4   2  -239121.02 3819.66
   4   2   357024.66 5634.96
   4   2   357256.72 4797.09
   4  -2   359629.75 5333.32
  -4   2  -357586.02 6176.43
   4   2   4  348.23  388.71
   4   2   4  -80.22  735.77
   4   2   4 -216.88  334.44
   4  -2   4  754.94  571.94
   4  -2   4  509.00  320.14
   4   2   5  824.69  319.16
   4   2   5 1252.79  327.05
   4  -2   5 1333.44  443.24
   4   2   5  623.71  679.29
   4  -2   5  588.04  617.30
   4   2   6  681.59  310.49
   4   2   6  711.46  276.51
   4   2   6 -212.14  662.77
   4  -2   6 1385.96  680.09
   4  -2   6 1134.27  413.63
   4   2   7 5508.44 1040.48
   4  -2   7 8694.16  841.25
   4   2   7 5307.22  355.81
   4   2   7 7119.88  704.37
   4  -2   7 6606.89 1064.20
   4  -2   838390.17 3447.99
   4  -2   830826.00 2712.84
   4   2   833676.74 2639.86
   4   2   832652.79 3747.73
   4   2   956481.83 6507.32
   4  -2   956830.88 4862.96
   4  -2   955796.06 6186.33
   4   2   951661.86 4212.88
   4  -2  10 3236.18  654.35
   4   2  10 4242.61  941.69
   4   2  10 2833.11  347.27
   4  -2  10 4410.67  863.21
   4  -2  1111598.61 1299.35
   4   2  1110792.34  805.28
   4  -2  1113399.84 1719.24
   4   2  1111149.17 1561.73
   4  -2  1233905.35 2737.37
   4   2  1224034.76 1579.46
   4   2  1233064.04 3490.55
   4  -2  1233386.28 3086.86
   4   2  1317355.63 2189.04
   4  -2  1320142.80 2227.27
   4  -2  1319985.65 2349.22
   4  -2  1410069.21 1488.36
   4   2  1410623.02 1623.33
   4  -2  1410544.81 1412.26
   4  -2  15 6271.20  894.72
   4   2  15 5543.22 1040.35
   4  -2  15 4415.93  942.49
   4  -2  16 4891.40  792.34
   4   2  16 2971.91  894.95
   4  -2  16 3373.65  559.15
   4  -2  1726131.20 2832.65
   4  -2  1720950.63 2215.72
   4   2  1726818.42 3079.58
   4  -2  1816101.12 2080.86
   4   2  1816426.33 2116.10
   4  -2  1813100.12 1478.87
   4  -2  19 3951.28  854.55
   4  -2  19 3678.46  658.46
   4   2  19 4053.01 1169.31
   4  -2  20 3154.56  933.78
   4   2  20 2123.89 1119.53
   4  -2  20 2220.05  533.89
   4   2  21 2287.95 1201.89
   4  -2  21 2665.09  577.54
   4  -2  21 1783.04  807.73
   4  -2  22 3576.66  941.10
   4   2  22 2674.03 1124.55
   4  -2  22 1935.96  584.86
   4   2  2312553.47 2146.46
   4  -2  23 9240.29 1596.45
   4   2  24 6965.01 1566.41
   4  -2  24 9083.49 1683.54
   4  -2  25 2627.06  685.25
   4   2  25  350.07 1222.85
   4  -2  2616480.99 2399.64
   4   2  2610560.96 2205.24
   4  -2  27 1732.83 1093.67
   4   2  27  942.32 1589.02
   4  -2  28 7127.73 1578.93
   4   2  28 7382.75 2235.52
   4  -2  29 4840.52 1307.30
   4   2  29 3630.59 2132.60
   4  -2  30  460.46 1071.97
   4   2  30 -776.08 1468.25
   4  -2  31 1610.10 1215.14
   4   2  31 1239.82 1656.70
   4  -2  32 2976.25 1424.67
   4   2  32 4248.34 1898.93
   4  -2  33 4536.74 1440.56
   4   2  33 2223.23 1903.44
   4  -2  34 1300.51 1564.45
   4   2  34-3344.55 2016.79
   4  -2  35 7901.70 2146.85
   4   2  35 7021.35 2923.18
   4  -3 -35 1117.02  866.67
  -4  -3  35 1900.29 1062.16
   4  -3 -34 -371.92 1056.03
  -4  -3  34-1807.84 1357.54
   4  -3 -33  900.08  787.17
  -4  -3  33  725.68 1025.52
   4  -3 -32  716.43  722.84
  -4  -3  32-1302.43  908.63
   4  -3 -31 2729.93  567.78
  -4  -3  31 3755.37 1523.69
   4  -3 -30  349.59  442.88
  -4  -3  30  633.92  924.86
   4  -3 -29  154.40  400.56
  -4  -3  29 -135.27  934.13
  -4  -3  28  856.57  927.92
  -4   3  28  618.88  784.81
  -4  -3  27 2067.48 1068.95
  -4   3  27 2092.93  945.02
  -4  -3  26 6281.06 1554.63
  -4   3  26 7016.62 1353.02
  -4  -3  25 4136.00 1227.38
  -4   3  25 7422.93 1350.60
  -4  -3  24 2205.81 1079.97
  -4   3  24 3508.69  921.92
  -4  -3  23  219.80  951.83
  -4   3  23 1308.34  764.53
  -4  -3  22 1647.93 1311.70
  -4   3  22  497.26  790.63
  -4  -3  2113933.95 2408.00
  -4   3  2117845.54 2335.80
  -4  -3  20 1366.67  907.56
  -4   3  20 1256.32  771.45
  -4  -3  19 -114.92  788.32
   4  -3 -18 1229.00  402.78
  -4  -3  18 3348.86  857.44
   4  -3 -1729892.65 2709.87
  -4  -3  1732415.09 4324.65
   4  -3 -16  651.69  564.84
  -4  -3  16  352.63  798.33
   4  -3 -1545214.93 4813.96
  -4  -3  1544945.91 5932.66
   4  -3 -14 2111.37  711.68
  -4  -3  14  391.14  824.34
   4  -3 -1313400.52 1613.04
  -4  -3  1313094.67 2036.57
   4  -3 -1247882.75 4534.05
  -4  -3  1247407.56 5432.09
   4  -3 -1136804.34 3699.72
  -4  -3  1138598.64 4408.81
   4  -3 -1023701.33 2485.68
  -4   3  1025425.47 3794.52
  -4  -3  1021535.28 2891.46
   4  -3  -914351.89 1730.62
  -4   3   913433.27 2049.67
  -4  -3   914525.97 2016.25
   4  -3  -8 8661.30 1326.01
  -4  -3   8 9972.59 1816.88
  -4   3   810552.80 2213.60
   4  -3  -766676.46 7170.77
  -4  -3   770039.68 8277.10
  -4   3   769787.86 8072.55
   4   3  -6  409.98  133.72
   4  -3  -6 -238.86  647.46
  -4  -3   6 -118.51  693.35
  -4   3   6 2496.20  894.03
   4  -3  -5 7859.72 1236.66
  -4   3   5 8282.11 1405.06
  -4  -3   5 8987.80 1459.26
   4  -3  -4 6924.12 1075.83
  -4  -3   4 5529.49 1101.72
  -4   3   4 7158.18 1347.13
   4  -3  -3 3255.79  800.60
  -4   3   3 4697.61 1302.39
  -4  -3   3 3261.58  854.98
  -4  -3   3 2605.06  423.79
   4   3  -2 4480.88 1523.26
   4  -3  -2 3223.87  832.99
  -4   3   2  801.45  761.75
  -4  -3   2 2704.71  686.30
  -4  -3   2 2172.97  407.24
   4  -3  -123872.19 2349.85
   4   3  -121418.74 2083.95
  -4  -3   123509.10 2294.57
  -4   3   121319.46 2543.52
   4  -3   0 1076.06  654.78
   4   3   0  137.70  845.44
  -4  -3   0 1312.72  474.91
  -4   3   0  150.93  730.41
   4  -3   142488.29 4474.18
   4   3   138420.24 4080.36
  -4   3  -138523.01 4006.60
  -4  -3  -138384.37 3400.67
   4  -3   2 2451.71  633.06
   4   3   2  416.69  778.15
  -4   3  -2 1427.96  799.31
  -4  -3  -2 3580.54  666.64
   4   3   3 8081.71 1325.50
   4  -3   3 8164.93  926.77
  -4   3  -3 5849.57 1085.81
  -4  -3  -3 6298.87  737.00
   4   3   413781.64 1714.69
   4   3   413361.20 1068.89
   4   3   415231.87 1111.51
   4  -3   416514.65 1949.51
  -4   3  -415700.30 1891.75
   4   3   5 1731.27  328.56
   4   3   5 -395.75  815.18
   4   3   5 1643.69  299.58
   4  -3   5 1971.48  538.24
  -4   3  -5  358.43  704.05
   4  -3   651676.13 4463.95
   4   3   644890.44 4806.07
   4   3   638243.60 2848.21
  -4   3  -643134.02 4482.13
   4   3   739634.84 4293.85
   4  -3   744410.56 3994.88
   4   3   734232.62 2388.35
  -4   3  -751115.14 5011.29
   4   3   814054.17 1945.30
   4  -3   814088.73 1306.96
   4   3   915840.09 2189.16
   4  -3   916596.02 1738.83
   4  -3   919538.25 2210.61
   4   3  10 1042.14  968.65
   4  -3  10 1059.68  535.05
   4  -3  10 2755.21  731.46
   4   3  1118812.22 2389.28
   4  -3  1117108.00 1962.18
   4  -3  1116807.94 1867.81
   4   3  12  514.83  925.48
   4  -3  12  905.48  600.56
   4  -3  12  671.42  665.46
   4   3  13 1341.72  550.91
   4  -3  13  475.68  659.36
   4  -3  13 -219.99  753.87
   4   3  14 8281.46 1436.25
   4  -3  14 5767.83 1126.24
   4  -3  14 5555.32 1085.32
   4   3  1559126.83 7717.89
   4  -3  1567175.11 7760.81
   4  -3  1556493.97 6497.50
   4   3  1616975.58 2345.91
   4  -3  1614660.31 1923.71
   4  -3  1614089.29 1875.14
   4  -3  17 2057.10  808.43
   4  -3  17 2826.15  742.98
   4   3  17 1297.29 1039.01
   4  -3  1822789.80 2753.97
   4  -3  1822751.80 2500.02
   4   3  1818225.59 2720.85
   4  -3  1949971.95 5882.44
   4  -3  1949552.60 5342.89
   4   3  1943900.41 5617.04
   4  -3  20 4915.29  943.77
   4  -3  20 6834.48  855.37
   4   3  20 7071.29 1504.52
   4   3  21 4847.20 1655.89
   4  -3  21 6209.74 1057.31
   4  -3  21 6301.42 1050.77
   4  -3  2217952.22 2203.44
   4  -3  2216802.08 2107.58
   4   3  2218210.59 2902.66
   4   3  23 5001.62 1586.89
   4  -3  23 3064.92  722.61
   4  -3  23 3137.62 1060.34
   4  -3  24  407.15  836.10
   4   3  24 -165.39 1261.23
   4  -3  2532201.26 3916.84
   4   3  2533634.08 4029.57
   4  -3  26 -468.20  486.36
   4   3  26 1924.40 1400.20
   4  -3  2711135.53 1894.85
   4   3  2710299.57 2267.37
   4  -3  28 1222.19 1067.75
   4   3  28 2281.76 1651.17
   4   3  29 3557.30 1639.33
   4  -3  29 1141.74 1085.21
   4  -3  30 -384.79 1061.05
   4   3  30 4324.32 1953.06
   4  -3  31 5414.38 1595.67
   4   3  31 5830.82 2478.88
   4  -3  32 -373.89 1183.42
   4   3  32-2162.78 1999.56
   4  -3  33 -755.33 1217.27
   4   3  33-2725.83 1984.64
   4  -3  34 1291.93 1187.98
   4   3  34-1861.07 1129.36
   4  -3  35 2176.04 1432.42
   4   3  35 2552.98 2401.49
  -4  -4  35 4185.05 1370.54
   4  -4 -34 1691.99 1054.64
  -4  -4  34 -437.58 1014.95
   4  -4 -33 2853.52  914.46
  -4  -4  33 4265.95 1207.04
   4  -4 -32 1115.37  765.65
  -4  -4  32  269.03  966.30
   4  -4 -31  696.40  975.83
  -4  -4  31  617.88 1055.94
   4  -4 -30 -648.32  737.39
  -4  -4  30 -279.57  997.96
   4  -4 -29 7336.20 1260.09
  -4  -4  29 3901.10 1310.63
   4  -4 -28 1078.71  703.84
  -4  -4  28 -222.71  949.69
   4  -4 -27 5337.45 1147.75
  -4  -4  27 5928.29 1518.48
   4  -4 -26-1176.99  680.30
  -4  -4  26  976.94  939.93
   4  -4 -2512800.46 1773.30
  -4  -4  2514987.08 2733.20
   4  -4 -24 2446.21  815.48
  -4  -4  24 1778.41 1000.97
   4  -4 -23 8057.65 1285.13
  -4  -4  23 6424.40 1464.33
   4  -4 -22 1757.03  744.89
  -4  -4  22  801.42 1335.43
   4  -4 -21  602.04  642.32
  -4  -4  21  706.40  866.24
   4  -4 -20 7315.49 1312.11
  -4  -4  20 5125.35 1297.08
   4  -4 -19 8600.78 1201.47
  -4  -4  19 4691.42 1435.96
   4  -4 -18  150.19  616.96
  -4  -4  18  564.30  821.69
   4  -4 -17 -560.60  612.41
  -4  -4  17 -179.04  777.24
   4  -4 -16 5953.98 1039.89
  -4  -4  16 3622.77 1165.89
   4  -4 -15 9258.44 1280.31
  -4  -4  15 7520.69 1375.69
   4  -4 -14 7650.47 1251.14
  -4  -4  14 8051.36 1450.50
   4  -4 -13 5725.79  963.93
  -4  -4  13 3305.90 1471.29
   4  -4 -12 1093.71  711.13
  -4  -4  12 1534.04  813.67
   4  -4 -11  845.01  784.49
  -4  -4  11 -566.24  697.44
   4  -4 -10  140.12  638.43
  -4  -4  10 1500.37  761.52
   4  -4  -9 6402.42 1123.36
  -4  -4   9 7613.63 1687.70
   4  -4  -8 6298.45 1059.42
  -4  -4   8 6432.57 1167.64
  -4   4   8 7747.11 1705.72
   4  -4  -747073.00 4956.80
  -4   4   755952.46 6805.10
  -4  -4   749070.28 5800.34
   4  -4  -6 4838.59  885.62
  -4   4   6 3257.56 1436.77
  -4  -4   6 3207.94 1302.26
   4  -4  -512857.66 1555.24
  -4  -4   514027.70 1810.96
  -4   4   517180.20 2659.33
   4  -4  -4 9583.10 1332.94
  -4   4   412129.63 2667.17
  -4  -4   4 7842.94 1338.96
   4  -4  -395291.5710924.24
  -4  -4   399513.3111418.96
  -4   4   394875.8412474.71
   4  -4  -2 5234.74  967.47
  -4   4   2 8984.58 1716.02
  -4  -4   2 6220.43 1091.70
   4  -4  -1 9989.42 1365.59
  -4   4   111082.98 2024.91
  -4  -4   113348.45 1596.61
   4  -4   0 4842.72  927.56
  -4  -4   0 5676.40 1050.28
  -4   4   0 5267.46 1244.53
   4   4   143578.25 6905.60
   4  -4   144245.32 4189.75
  -4   4  -139628.40 5088.00
  -4  -4  -145826.51 4043.38
   4   4   2  642.48 2052.75
   4  -4   2  611.59  580.43
  -4   4  -2  897.44  931.25
  -4  -4  -2 1521.06  573.80
   4   4   321561.37 2931.95
   4  -4   325032.02 2366.94
  -4   4  -325551.71 2988.80
  -4  -4  -326323.55 2187.76
   4   4   427496.43 3473.65
   4  -4   426556.05 2426.08
  -4   4  -423820.68 2864.74
  -4  -4  -426420.65 1978.44
   4  -4   5 3876.61  695.12
   4   4   5 5150.03 1327.49
  -4   4  -5 4691.81  661.69
  -4  -4  -5 3215.53  382.10
   4  -4   6  710.23  571.79
   4   4   6  335.91  168.20
   4   4   6  682.63 1020.27
   4   4   6  458.52  128.60
  -4   4  -6 1137.20  731.31
   4   4   7 7725.22 1467.53
   4  -4   7 6693.47  899.50
  -4   4  -7 7407.87 1314.93
   4   4   8 7363.32 1587.66
   4  -4   811409.80 1390.34
  -4   4  -8 7852.77 1334.32
   4  -4   9 4842.65  923.92
   4   4   9 6063.30 1266.59
  -4   4  -9 3732.92 1000.21
   4   4  10 6798.76 1362.78
   4  -4  10 5396.99  977.97
  -4   4 -10 5086.55  818.68
   4   4  1139876.78 4621.98
   4  -4  1141027.78 4078.93
   4  -4  1129535.78 2635.57
   4   4  12   43.47  961.74
   4  -4  12 -435.24  757.35
   4  -4  12  284.03  572.99
   4   4  13 7398.33 1586.70
   4  -4  13 4956.23 1263.54
   4  -4  13 6975.39 1150.07
   4   4  14  172.61  998.55
   4  -4  14  638.65  605.48
   4  -4  14 -441.18  554.27
   4   4  15  188.86 1040.70
   4  -4  15  548.68  588.84
   4  -4  15 -662.93  637.69
   4  -4  16 -299.44  624.96
   4   4  16 -142.67 1091.43
   4  -4  16 -114.05  836.90
   4  -4  1733993.65 4067.30
   4   4  1733128.57 4499.82
   4   4  18  281.38 1119.69
   4  -4  18  515.07  791.67
   4  -4  18  580.77  672.36
   4  -4  1917581.83 2243.63
   4   4  1916611.93 2081.43
   4  -4  1919014.27 2356.65
   4  -4  2023768.33 2860.54
   4  -4  2020080.87 2415.65
   4   4  2024227.48 3628.21
   4  -4  2113787.11 1925.25
   4  -4  2111666.20 1499.36
   4   4  2114694.48 2505.14
   4  -4  22  711.40  483.16
   4   4  22-1426.56 1179.19
   4  -4  22 -294.96  754.98
   4  -4  2343835.70 5361.20
   4   4  2351564.51 8005.64
   4  -4  2340748.60 5171.14
   4  -4  24 6472.35 1217.79
   4   4  2412757.47 2108.30
   4  -4  24 5898.92 1172.05
   4  -4  25 1187.44  850.07
   4   4  25 1569.60 1793.55
   4  -4  26 3114.70 1138.08
   4   4  26 4077.87 1958.42
   4   4  27 3465.95 1912.80
   4  -4  27 2338.85 1183.54
   4   4  28  915.58 1205.43
   4  -4  28  334.45  999.41
   4  -4  2914651.23 2353.86
   4   4  2912818.09 3149.65
   4  -4  30 1099.53  691.09
   4   4  30 -645.64 1884.32
   4  -4  31 2762.87 1209.49
   4   4  31 3162.42 2114.46
   4  -4  32  236.53 1071.38
   4   4  32 -400.89 1914.44
   4  -4  33  157.31 1131.01
   4   4  33 5989.28 3860.12
   4  -4  34 1090.72 1280.21
   4   4  34 -135.73 3767.05
   4  -4  35  597.89 1253.01
   4   4  35 -447.64 3779.00
   4  -5 -35  844.12  793.01
  -4  -5  35  853.40 1011.18
   4  -5 -34  366.69  706.98
  -4  -5  34 -803.60 1075.02
   4  -5 -33 2382.22 1119.70
  -4  -5  33 3536.28 1248.11
   4  -5 -32 1783.80  821.78
  -4  -5  32 2398.00 1153.03
   4  -5 -31 1864.84  790.71
  -4  -5  31 2401.85 1175.87
   4  -5 -30 1308.34  752.53
  -4  -5  30 1099.26 1083.08
   4  -5 -29  414.26  973.70
  -4  -5  29  264.91  968.38
   4  -5 -28 1348.02 1014.96
  -4  -5  28  178.29 1434.40
   4  -5 -27  932.29  691.96
  -4  -5  27 1668.15 1037.82
   4  -5 -26  928.57  740.06
  -4  -5  26 1191.94  982.12
   4  -5 -25-1176.89  694.51
  -4  -5  25 -911.38 1362.06
   4  -5 -24  471.16  999.67
  -4  -5  24 2573.72 1044.06
   4  -5 -23 -458.14  637.91
  -4  -5  23  632.19  902.92
   4  -5 -22 4420.38  909.77
  -4  -5  22 1731.52 1161.64
   4  -5 -21 7352.21 1283.33
  -4  -5  21 5258.78 1658.87
   4  -5 -20 1980.24  798.60
  -4  -5  20  721.77  926.36
   4  -5 -19 3183.41  792.40
  -4  -5  19 1891.82 1029.65
   4  -5 -18  -27.66  663.31
  -4  -5  18  493.93  869.72
   4  -5 -1719143.32 2255.86
  -4  -5  1717788.08 3027.39
   4  -5 -1617926.75 2300.06
  -4  -5  1612425.74 2286.46
   4  -5 -15 2672.89  774.10
  -4  -5  15 2699.99 1421.03
   4  -5 -14 2420.71  759.75
  -4  -5  14 1126.98  931.81
   4  -5 -13 2083.95  724.03
  -4  -5  13 3854.82 1004.81
   4  -5 -1213008.09 1587.45
  -4  -5  1213623.56 2056.24
   4  -5 -11 5940.17 1072.28
  -4  -5  11 5101.04 1647.30
   4  -5 -10  453.13  605.26
   4   5 -10   85.84  156.52
  -4  -5  10  234.74   71.98
  -4  -5  10 -155.34  677.67
   4  -5  -9  -42.49  604.25
  -4  -5   9  118.99  129.78
  -4  -5   9 -100.51  738.56
   4  -5  -8 4060.63 1194.49
  -4  -5   8 5239.52 1406.94
   4  -5  -7 5699.36 1059.87
  -4   5   7 6841.50 1840.57
  -4  -5   7 5065.67  411.63
  -4  -5   7 4241.08 1446.91
   4  -5  -6  841.12  741.11
  -4  -5   6  822.98  238.62
  -4   5   6 1832.33 1605.11
  -4  -5   6 -136.20  693.29
   4  -5  -515091.82 1745.12
  -4  -5   512276.03  898.79
  -4   5   518049.53 3705.48
  -4  -5   517052.96 2097.90
   4  -5  -411885.11 1510.31
  -4  -5   4 9095.16  804.99
  -4   5   413793.45 2741.48
  -4  -5   413331.35 1694.59
   4  -5  -3 1751.13  691.63
  -4   5   3 2569.98 1363.38
  -4  -5   3 1761.06  919.58
   4  -5  -2  823.58  661.29
  -4   5   2 1771.69 1392.31
  -4  -5   2  410.80  598.87
   4  -5  -114798.88 1855.82
  -4   5   113123.64 2365.85
  -4  -5   115100.97 1991.16
   4  -5   021508.17 2331.14
  -4   5   023860.24 3400.42
  -4  -5   024308.49 2518.79
   4  -5   1 3475.85  749.85
  -4   5  -1 2512.63 1297.28
  -4  -5  -1 4202.78  888.37
   4  -5   2 6602.86 1054.77
  -4   5  -2 7174.62 1816.19
  -4  -5  -2 7666.80 1148.83
   4  -5   318300.11 2010.07
  -4   5  -322496.22 3119.68
  -4  -5  -321337.60 2070.63
   4  -5   4 7721.34 1345.62
   4   5   4 6920.06 3427.20
  -4  -5  -410473.15  963.50
  -4   5  -4 8426.85 1545.87
   4  -5   559063.11 6088.23
   4   5   549243.21 9375.25
  -4   5  -565718.08 8201.14
  -4  -5  -558193.74 4737.84
   4   5   6 3458.12 2368.44
   4  -5   6 4416.87  797.81
  -4  -5  -6 3975.73  411.57
  -4   5  -6 4290.39 1015.75
   4   5   731116.36 5622.98
   4  -5   724746.30 2338.95
  -4   5  -723291.55 3018.08
   4   5   8 1317.26 1090.17
   4  -5   8  134.84  501.25
   4   5   8   87.51   82.01
   4   5   8  -45.68  114.53
  -4   5  -8 -760.15  637.07
   4   5   910027.09 1837.11
   4  -5   9 8849.75 1113.58
  -4   5  -9 7293.62 1025.47
   4   5  1052991.55 6945.60
   4  -5  1055316.74 5785.31
  -4   5 -1055993.71 6251.47
   4   5  1110628.17 2106.50
   4  -5  1110167.14 1276.37
  -4   5 -1110762.31 1642.36
   4   5  12 -703.25 1168.24
   4  -5  12 -289.14  797.38
  -4   5 -12  171.28  685.23
   4   5  13  599.60 1338.77
   4  -5  13 1588.58  645.98
  -4   5 -13 1055.61  782.55
   4   5  14 4866.64 1112.25
   4  -5  14 1143.02 1109.77
   4  -5  14 2255.67  809.78
   4   5  1545322.91 6456.24
   4  -5  1538136.90 4838.40
   4  -5  1541942.04 3936.88
   4   5  1612330.16 2572.80
   4  -5  1613179.87 1786.67
   4  -5  1612536.95 1733.14
   4   5  17 1173.71 1259.12
   4  -5  17 -138.56  367.07
   4  -5  17  362.08  625.18
   4  -5  18  711.40  816.94
   4   5  18   50.29  755.43
   4  -5  18-1155.48  647.82
   4  -5  1946725.91 5604.49
   4   5  1942348.66 6806.66
   4  -5  1943988.12 5285.54
   4  -5  20 7843.64 1444.16
   4   5  20 7155.17 1998.75
   4  -5  20 8285.64 1347.47
   4  -5  21 5580.03 1137.71
   4   5  21 5215.03 2008.70
   4  -5  21 7043.56 1166.00
   4  -5  2239179.75 4355.17
   4  -5  2233072.41 3614.16
   4   5  2233441.22 5842.79
   4  -5  23 2443.51  859.47
   4  -5  23  458.43  870.38
   4   5  23-1014.98 1519.98
   4  -5  24-1193.33  805.72
   4   5  24 4189.41 1603.46
   4  -5  24 1457.42  851.81
   4  -5  2515885.67 1771.32
   4   5  2528909.88 4765.11
   4  -5  2521834.01 2464.32
   4  -5  26 4084.90 1056.70
   4   5  26-1384.50 1737.98
   4   5  27-3286.55 3086.44
   4  -5  27  904.92  877.36
   4  -5  28 1254.97 1045.74
   4   5  28  898.76 3145.04
   4  -5  29 3127.83 1192.12
   4   5  29 1684.79 3709.22
   4  -5  30  148.08 1014.60
   4   5  30 1409.17 3284.89
   4  -5  31 2494.76 1202.78
   4   5  31 6305.90 4014.73
   4   5  32 2747.47 3547.10
   4  -5  32 -836.00  635.54
   4  -5  33 2820.82 1221.30
   4   5  33 -444.10 2331.84
   4  -5  34 2725.28 1341.98
   4   5  34 3944.26 4157.83
   4  -5  35 2971.03 1341.65
   4   5  35 2085.04 4279.98
   4  -6 -34 3447.69  971.30
  -4  -6  34 3185.44 1364.17
   4  -6 -33 1707.30  807.67
  -4  -6  33 1422.95 1135.70
   4  -6 -32  434.08 1006.82
  -4  -6  32 1162.85 1075.41
   4  -6 -31  990.38  734.90
  -4  -6  31 -923.42 1410.39
   4  -6 -3010426.15 1608.01
  -4  -6  3012689.09 2261.62
   4  -6 -29 2552.03  794.20
  -4  -6  29 1062.59 1153.47
   4  -6 -28 2048.11  777.20
  -4  -6  28 1713.28 1151.71
   4  -6 -27 1929.27  821.95
  -4  -6  27 1675.72 1500.27
   4  -6 -26    9.56  689.55
  -4  -6  26  639.69  987.89
   4  -6 -25 2112.79  792.05
  -4  -6  25  840.30 1011.81
   4  -6 -24 4175.73  833.00
  -4  -6  24 1569.75 1120.21
   4  -6 -23 6794.03 1574.29
  -4  -6  23 5849.28 1458.12
   4  -6 -22 5870.44 1076.15
  -4  -6  22 3079.39 1360.70
   4  -6 -21 1645.83  767.60
  -4  -6  21 1179.70  984.38
   4  -6 -20 7982.97 1547.04
  -4  -6  20 7673.13 1558.34
   4  -6 -1930900.24 3668.69
  -4  -6  1935242.32 4701.58
   4  -6 -18 8120.42 1617.18
  -4  -6  18 6740.11 1672.16
   4  -6 -17  317.13  711.77
  -4  -6  17  -75.96  861.95
   4  -6 -16 5725.35 1034.10
  -4  -6  16 4046.55 1250.57
   4  -6 -15 8413.66 1305.17
  -4  -6  15 8362.05 1749.20
   4  -6 -14 8556.31 1583.55
  -4  -6  14 5021.63 1254.19
   4  -6 -1310457.87 1682.81
  -4  -6  13 8006.71  471.34
  -4  -6  13 9293.45 1616.39
   4  -6 -12 2502.13  722.21
  -4  -6  12 1868.87  267.13
  -4  -6  12 1649.86  874.03
   4   6 -11  -22.92  381.30
   4  -6 -11 -514.48  645.41
  -4  -6  11 -127.22  208.33
  -4  -6  11 -404.93  756.33
   4   6 -10 1564.85  496.54
   4  -6 -10 2599.80  879.30
  -4  -6  10 3118.51  409.79
  -4  -6  10 3755.81  999.25
   4  -6  -9 8551.29 1600.04
  -4  -6   9 8940.65  782.13
  -4  -6   9 8640.55 2018.25
   4  -6  -857419.86 6000.22
  -4  -6   846662.90 4118.12
  -4  -6   859631.27 6984.52
   4  -6  -7  580.90  689.19
  -4  -6   7  371.92  444.08
  -4  -6   7  529.07  980.89
   4  -6  -6 1765.23  716.00
  -4  -6   6 1022.28  387.91
  -4   6   6 2096.83 1567.98
  -4  -6   6 2212.05 1057.55
   4  -6  -5 3071.43 1048.88
  -4   6   5 2544.34 1896.76
  -4  -6   5 3533.86 1211.93
   4  -6  -432021.91 3518.93
  -4   6   430931.44 5440.92
  -4  -6   429775.78 3536.79
   4  -6  -313068.51 1540.33
  -4  -6   312241.22 1618.29
  -4   6   3 9595.85 2647.48
   4  -6  -2 8946.70 1220.20
  -4   6   211302.50 2422.64
  -4  -6   2 8744.76 1599.61
   4  -6  -1 6856.62 1372.85
  -4   6   1 6407.32 2103.89
  -4  -6   1 7509.85 1392.33
   4  -6   029542.22 3074.77
  -4   6   028902.52 4625.14
  -4  -6   033067.25 3448.07
   4  -6   1 -346.94  625.97
  -4  -6  -1   -7.05  609.66
  -4   6  -1 -457.68 1107.23
   4  -6   2 5422.36 1215.07
  -4   6  -2 6559.41 1605.33
  -4  -6  -2 6051.55 1064.46
   4  -6   3 3140.47  744.53
  -4   6  -3 4209.25 1375.63
  -4  -6  -3 2136.56  702.09
   4  -6   4  393.58  639.74
  -4   6  -4-1719.80 1096.21
  -4  -6  -4  171.67  482.63
   4  -6   523491.41 2852.82
  -4  -6  -531029.23 2454.63
  -4   6  -523536.16 3454.06
   4  -6   633208.27 3564.92
  -4   6  -634358.96 4622.89
   4   6   7 1823.63  273.05
   4  -6   7 3551.29  679.34
  -4  -6  -7 2364.99  263.86
   4  -6   811046.59 1220.28
   4   6   8 8165.89  536.70
  -4   6  -8 8060.67 1437.01
   4  -6   914958.95 1746.96
   4   6   913454.81 3703.77
  -4   6  -915500.13 2191.16
   4   6  1011081.20 3692.95
   4  -6  1014007.79 1660.69
  -4   6 -1014466.91 1856.16
   4   6  1114903.45 4165.25
   4  -6  1116112.08 2225.41
  -4   6 -1114271.34 2216.25
   4   6  1219160.22 4571.99
   4  -6  1217807.03 2382.41
  -4   6 -1216815.00 2315.71
   4   6  1312230.80 2718.93
   4  -6  13 9955.25 1454.70
  -4   6 -1314116.19 2015.30
   4   6  14 -688.57 2282.39
   4  -6  14  662.68  790.95
  -4   6 -14  723.62  452.55
   4  -6  15 1012.76  716.69
   4   6  15 2364.81 2465.27
  -4   6 -15 -122.56  733.66
   4   6  16  712.88 2621.01
   4  -6  16  764.74  847.23
   4  -6  16 2403.61  702.01
   4  -6  17  546.24  658.49
   4   6  17-1405.39 2396.95
   4  -6  17  458.03  616.36
   4  -6  18 9976.97 1414.38
   4   6  18 6407.97 3205.90
   4  -6  18 5510.80 1044.44
   4  -6  19 3889.93  814.13
   4   6  19 1354.81 2809.96
   4  -6  19 1592.37  833.31
   4  -6  20  405.25  937.31
   4   6  20 1220.99 2577.97
   4  -6  20  637.16  726.62
   4  -6  21 1299.63  742.90
   4   6  21 3000.73 2833.27
   4  -6  21 2036.67  774.17
   4  -6  22  844.22  577.38
   4   6  22 2257.30 2797.77
   4  -6  22  956.14  773.11
   4   6  23 3143.56 3282.87
   4  -6  23 4885.33 1166.90
   4  -6  23 7318.10 1212.28
   4  -6  24 4910.34 1061.17
   4  -6  24 1830.73  732.11
   4   6  24 2176.60 2103.00
   4  -6  25-1276.85  779.88
   4  -6  25 1069.22  883.61
   4   6  25-1605.82 2843.18
   4   6  26 -567.86 3049.42
   4  -6  26  195.08  568.65
   4  -6  26 1615.10  877.60
   4  -6  27 -121.40  859.03
   4   6  27 3501.64 1854.63
   4  -6  28 2790.27 1071.53
   4   6  28  667.02 3366.09
   4   6  29 -428.12 3136.77
   4  -6  29 -126.21  908.53
   4  -6  30  122.71 1006.29
   4   6  30-7354.17 3102.85
   4  -6  31  389.94 1047.40
   4  -6  32 1203.80 1223.16
   4  -6  33 2279.56 1301.68
   4  -6  34 1560.22 1284.86
   4  -7 -34 2134.19 1210.15
  -4  -7  34 1381.54 1212.41
   4  -7 -33  383.31  784.85
  -4  -7  33  491.60 1090.69
   4  -7 -32 3937.09  950.38
  -4  -7  32  907.35 1325.59
   4  -7 -31 -770.02  721.76
  -4  -7  31  146.21 1495.38
   4  -7 -30  177.28  733.19
  -4  -7  30 1000.57 1065.98
   4  -7 -29  -91.20  683.82
  -4  -7  29  538.72 1026.17
   4  -7 -28 2111.00  797.87
  -4  -7  28 1796.75 1085.83
   4  -7 -27  -53.59  652.44
  -4  -7  27   72.04  956.08
   4  -7 -26 9549.52 1400.81
  -4  -7  26 8997.07 2097.71
   4  -7 -25 -490.74  718.84
  -4  -7  25 1082.97  939.54
   4  -7 -24 -219.49  703.49
  -4  -7  24 -839.23  912.16
   4  -7 -23 1443.65  701.31
  -4  -7  23 -341.75 1326.37
   4  -7 -2220637.89 2358.33
  -4  -7  2212576.14 2372.75
   4  -7 -21 5175.64 1021.22
  -4  -7  21 2472.60 1083.44
   4  -7 -20 8659.43 1488.69
  -4  -7  20 6041.60 1749.80
   4  -7 -19 2214.46  806.61
  -4  -7  19 1983.77 1010.09
   4  -7 -18 -360.02  649.33
  -4  -7  18  714.51  891.00
   4  -7 -17 6350.44 1046.76
  -4  -7  17 6741.27 1502.43
   4  -7 -1618527.69 2154.94
  -4  -7  1616664.19 2967.53
   4  -7 -15 1508.74  696.86
  -4  -7  15 2408.62  910.71
   4  -7 -14  206.42  605.37
  -4  -7  14  209.87  763.45
   4   7 -13 1164.19  379.86
   4  -7 -13 2786.52  805.13
  -4  -7  13 2510.96 1043.93
   4  -7 -12 5167.89 1131.65
  -4  -7  12 3946.95  977.15
   4   7 -11-1558.64  563.61
   4  -7 -11  212.09  667.17
  -4  -7  11  963.37  787.32
   4  -7 -1026467.34 2964.33
  -4  -7  1029753.41 4155.75
   4  -7  -9 2821.67  856.99
  -4  -7   9 2556.21  865.66
   4  -7  -8 6170.19 1044.40
  -4  -7   8 4872.26 1025.36
   4  -7  -713876.24 1698.97
  -4  -7   716025.68 1973.35
   4  -7  -618933.41 2166.23
  -4  -7   623689.86 2860.74
   4  -7  -511506.19 1440.89
  -4   7   5 9376.18 2789.28
  -4  -7   5 9757.22 1748.54
   4  -7  -4 6349.60 1124.86
  -4   7   4 6668.52 2133.44
  -4  -7   4 6956.81 1305.35
   4  -7  -3 4948.51  930.61
  -4   7   3  663.13 1841.14
  -4  -7   3 5195.52 1267.80
   4  -7  -2 9744.24 1369.59
  -4  -7   210748.16 1406.69
  -4   7   2 6124.25 2873.30
   4  -7  -110435.48 1459.83
  -4   7   113681.44 3012.11
  -4  -7   112218.65 1883.14
   4  -7   050757.38 5301.72
  -4   7   062687.65 9725.87
  -4  -7   056287.05 5628.80
   4  -7   112796.97 1616.90
  -4   7  -116395.10 3707.46
  -4  -7  -118118.77 2005.92
   4  -7   2 2988.01  823.56
  -4  -7  -2 3101.52  758.82
  -4   7  -2 2920.67  897.77
   4  -7   3 2441.84  736.83
  -4   7  -3 -571.75 1287.49
  -4  -7  -3 1482.47  572.64
   4  -7   451637.71 5843.76
  -4   7  -461365.00 9085.54
  -4  -7  -463817.03 5761.25
   4  -7   5 1376.02  718.19
  -4   7  -5  232.73 1278.72
  -4  -7  -5 1478.46  446.20
   4  -7   646923.16 4470.07
   4   7   640470.94 3218.37
  -4   7  -649575.71 7545.77
  -4  -7  -654355.40 4269.92
   4  -7   7  142.53  856.77
   4   7   7   85.06  141.84
  -4   7  -7  530.22  978.80
  -4  -7  -7  -14.63  205.11
   4  -7   8 4037.99 1110.93
  -4   7  -8 3741.48 1201.32
   4  -7   9  468.53  634.08
   4   7   9   15.56   81.37
  -4   7  -9  267.96  453.16
  -4  -7  -9   71.44  104.94
   4  -7  1023821.48 2683.67
  -4   7 -1026483.42 3265.07
   4  -7  11 2449.42  797.10
  -4   7 -11 1924.82  960.59
   4  -7  12 4269.42  930.22
  -4   7 -12 3922.37  937.16
   4  -7  13  217.41  642.77
  -4   7 -13  692.81  747.24
   4  -7  14 3401.25  993.70
  -4   7 -14 3563.94  572.96
   4  -7  15 1699.46 1250.44
  -4   7 -15 1780.65  852.04
   4  -7  1619455.32 3001.93
  -4   7 -1617196.73 2287.79
   4  -7  17 -827.88  704.53
  -4   7 -17 1182.94  795.25
   4  -7  18  940.14  729.68
   4  -7  18 -735.41  628.05
   4  -7  19 3036.49 1215.17
   4  -7  19 4354.29  855.92
   4  -7  2013885.60 2062.93
   4  -7  2014703.69 2104.56
   4  -7  21 2396.06  835.18
   4  -7  21 1130.57  799.71
   4  -7  22 -102.37  701.43
   4  -7  22  757.43  766.98
   4  -7  23 1960.00  963.02
   4  -7  23  948.86  540.77
   4  -7  24  -88.63  649.26
   4  -7  24 1323.67  843.46
   4  -7  25  648.04  979.79
   4  -7  25  415.54  813.60
   4  -7  2628158.97 3208.41
   4  -7  2616383.88 2422.58
   4  -7  27  245.04  911.41
   4  -7  27 -634.06  649.67
   4  -7  28 -407.75  939.98
   4  -7  29  975.65 1035.27
   4  -7  30 2527.91 1183.43
   4  -7  31  516.26 1037.36
   4  -7  32   39.86 1182.44
   4  -7  33  216.60 1130.90
   4  -7  34 1677.94 1357.20
   4  -8 -33  190.60 1224.48
  -4  -8  33  805.64 1131.45
   4  -8 -32 2187.03 1217.25
  -4  -8  32  379.63 1641.90
   4  -8 -31   69.98  749.46
  -4  -8  31  754.57 1069.74
   4  -8 -30 1702.34  783.59
  -4  -8  30 -990.97 1032.76
   4  -8 -29  137.54  679.27
  -4  -8  29  -65.30 1083.47
   4  -8 -28 3072.97  885.72
  -4  -8  28 1825.99 1170.90
   4  -8 -27 -203.97  705.19
  -4  -8  27 -362.17 1291.40
   4  -8 -26 1329.43  920.80
  -4  -8  26 -222.52  974.17
   4  -8 -25 1103.95  746.58
  -4  -8  25 1865.24 1029.98
   4  -8 -24 5612.74 1029.47
  -4  -8  24 4675.17 1476.59
   4  -8 -23 1718.52  723.32
  -4  -8  23  947.91  976.91
   4  -8 -22 2918.36 1075.35
  -4  -8  22 2739.69 1038.61
   4  -8 -21 1136.19  713.74
  -4  -8  21 1413.89 1031.69
   4  -8 -20 8399.03 1373.67
  -4  -8  20 7417.19 1611.01
   4  -8 -19 1764.35  753.88
  -4  -8  19  106.65  953.52
   4  -8 -18 6513.89 1125.06
  -4  -8  18 4775.95 1355.55
   4  -8 -17 5963.24 1155.67
  -4  -8  17 6223.38 1268.76
   4  -8 -16  895.16  774.75
  -4  -8  16 2042.32  939.11
   4  -8 -15  480.97  743.03
  -4  -8  15 1172.59  989.49
   4  -8 -1418483.93 2243.69
  -4  -8  1416208.06 2397.90
   4  -8 -13 6450.52  960.50
   4   8 -13 1492.08  588.84
  -4  -8  13 2954.19 1005.34
   4   8 -12 8067.44 1625.18
   4  -8 -12 9962.22 1433.32
  -4  -8  12 9527.39 2046.07
   4  -8 -11 6723.05 1180.11
   4   8 -11 7480.36 1536.34
  -4  -8  11 7271.08 1460.31
   4  -8 -10 8629.43 1263.65
  -4  -8  10 9344.50 1550.12
   4  -8  -9 -862.24  594.82
  -4  -8   9 1605.65  817.23
   4  -8  -821552.55 2493.50
  -4  -8   820167.04 2588.71
   4  -8  -710011.35 1344.06
  -4  -8   7 8394.44 1719.74
   4  -8  -6 -358.16  636.04
  -4  -8   6  312.81  607.08
   4  -8  -5  474.77  852.71
  -4  -8   5 -475.50  607.19
   4  -8  -434097.40 3547.97
  -4   8   436989.55 6515.21
  -4  -8   437073.81 3983.94
   4  -8  -3 -493.52  644.26
  -4   8   3 -278.97 1931.39
  -4  -8   3 -374.64  557.27
   4  -8  -227673.12 3545.28
  -4  -8   232424.81 3162.72
  -4   8   233409.32 6426.15
   4  -8  -1 2765.34  856.14
  -4   8   1 -367.78 1988.70
  -4  -8   1 2493.76  601.32
   4  -8   0 5763.92  986.17
  -4   8   0 5076.68 2466.21
  -4  -8   0 4652.54 1048.03
   4  -8   1 1519.64  716.31
  -4  -8  -1 2568.86  808.45
  -4   8  -1  756.22 1968.38
   4  -8   2 1907.18 1083.52
  -4   8  -2 1029.90 1636.53
  -4  -8  -2 2019.72  627.13
   4  -8   3 -366.35  676.78
  -4   8  -3 -323.49 1137.15
  -4  -8  -3  225.33  486.14
   4  -8   4 3792.07 1104.19
  -4  -8  -4 3363.46  654.00
  -4   8  -4 4085.11 1662.46
   4  -8   5  998.68  793.84
  -4   8  -5 2845.34 1333.35
  -4  -8  -5 2847.68  565.63
   4  -8   625348.94 2619.75
  -4  -8  -626029.70 2142.12
  -4   8  -627154.87 4278.49
   4  -8   710963.25 1519.83
  -4   8  -714501.42 2834.48
  -4  -8  -711552.24 1104.88
   4  -8   837664.65 4035.90
  -4   8  -835470.17 5191.69
   4  -8   9  903.83  922.39
  -4  -8  -9   37.46  141.06
  -4   8  -9 -265.25  928.48
   4  -8  1016605.08 2062.61
  -4   8 -1015276.82 2503.07
   4  -8  11 1557.22  787.77
  -4   8 -11  603.94  492.74
   4  -8  1222215.11 3051.56
  -4   8 -1221427.43 2964.80
   4  -8  13  308.27  821.36
  -4   8 -13-1171.05  679.84
   4  -8  14 2408.25 1061.33
  -4   8 -14 3259.58  966.35
   4  -8  15 9132.23 1850.57
  -4   8 -15 7075.67  952.03
   4  -8  16 2877.00 1027.21
  -4   8 -16 3436.97  948.75
   4  -8  17 6033.83 1493.18
  -4   8 -17 2968.71  999.90
   4  -8  1820127.24 2758.51
  -4   8 -1815245.23 2184.17
   4  -8  19 1825.08  488.83
   4  -8  19  297.99  897.95
   4  -8  20 1485.12  863.54
   4  -8  20  987.71  760.02
   4  -8  21 -533.74 1060.63
   4  -8  21 2106.01  772.29
   4  -8  2213889.93 2315.47
   4  -8  2219023.43 2363.05
   4  -8  23  235.84  666.13
   4  -8  23  299.86  870.12
   4  -8  24 1078.61 1074.00
   4  -8  24 3387.11 1065.98
   4  -8  25 -514.65  674.16
   4  -8  25    4.95  944.69
   4  -8  26 2801.84 1003.66
   4  -8  26 5516.03 1243.54
   4  -8  27 1298.03 1130.70
   4  -8  27 2131.62 1067.07
   4  -8  28 7028.58 1573.62
   4  -8  29  747.73 1172.76
   4  -8  30  -74.57 1109.15
   4  -8  31 1265.54 1217.56
   4  -8  32 1090.58 1154.67
   4  -8  33 -585.24 1220.00
   4  -9 -32 1123.66 1143.36
  -4  -9  32 2440.87 1326.85
   4  -9 -31 -958.69  940.17
   4  -9 -30  981.37  961.17
  -4  -9  30 1117.71 1100.20
   4  -9 -29  123.38  872.97
  -4  -9  29-1702.66 1006.42
   4  -9 -28  308.25  794.91
  -4  -9  28 -877.19 1310.49
   4  -9 -27  826.29  839.82
  -4  -9  27 -440.52  970.96
   4  -9 -26 1343.91  818.29
  -4  -9  26 1147.23 1020.18
   4  -9 -25 2918.49  888.11
  -4  -9  25  986.16 1047.48
   4  -9 -24   54.58 1023.37
  -4  -9  24-1991.44  992.93
   4  -9 -23  820.10  786.02
  -4  -9  23 1231.28 1330.50
   4  -9 -22  967.02  780.32
  -4  -9  22 2027.76 1019.69
   4  -9 -21  817.28  771.55
  -4  -9  21 1393.06 1008.90
   4  -9 -20 2700.37  886.94
  -4  -9  20 2873.22 1192.46
   4  -9 -19  153.93  672.20
  -4  -9  19 -508.48  867.37
   4  -9 -18 3301.15 1223.58
  -4  -9  18 4546.90 1116.19
   4  -9 -17 3793.89  896.36
  -4  -9  17 2885.47 1129.02
   4  -9 -16  793.42  680.70
  -4  -9  16  536.33  920.92
   4  -9 -15 3693.41  814.08
  -4  -9  15 2482.55  979.53
   4  -9 -14 3547.04 1014.33
  -4  -9  14 3725.22 1063.07
   4  -9 -13 5917.36 1107.29
  -4  -9  13 6410.55 1437.86
   4  -9 -1222996.21 2623.53
   4   9 -1221707.03 3562.95
   4  -9 -1222796.02 2598.94
  -4  -9  1219748.35 2897.79
   4  -9 -11   13.65  668.40
  -4  -9  11  819.97 1069.77
   4  -9 -10 9400.91 1678.15
  -4  -9  10 8021.79 1616.65
   4  -9  -9 7607.13 1242.80
  -4  -9   9 8463.43 1402.82
   4  -9  -8 9407.98 1367.69
  -4  -9   8 5657.19 1085.46
   4  -9  -7 2014.02  820.87
  -4  -9   7 1886.54  810.59
   4  -9  -633295.12 3437.01
  -4  -9   637856.54 3895.96
   4  -9  -5 9429.89 1401.31
  -4  -9   5 5313.80  999.35
   4  -9  -412489.14 1598.35
  -4   9   4 9379.80 2931.91
  -4  -9   412215.23 1534.78
   4  -9  -314387.30 1763.46
  -4   9   314169.91 3645.29
  -4  -9   313009.40 1961.76
   4  -9  -2 5760.47  960.86
  -4  -9   2 4907.72 1100.73
  -4   9   2 6563.39 2397.56
   4  -9  -131082.20 3356.07
  -4  -9   133805.41 3376.10
  -4   9   132446.51 6468.81
   4  -9   0 3657.77  819.85
  -4  -9   0 4630.34 1057.92
  -4   9   0 9214.54 2384.90
   4  -9   1 1500.76  800.46
  -4   9  -1  615.24 1752.10
  -4  -9  -1 2511.63  699.99
   4  -9   2 1884.10  829.67
  -4  -9  -2 1523.57  642.38
  -4   9  -2 2741.34 1804.76
   4  -9   3 5159.70 1311.75
  -4  -9  -3 6393.20 1001.34
  -4   9  -3 3525.92 2451.28
   4  -9   436761.90 4075.11
  -4   9  -440481.74 6844.20
  -4  -9  -447890.32 4454.77
   4  -9   5 2166.45 1009.50
  -4  -9  -5 3561.37  610.05
  -4   9  -5 3148.21 1599.47
   4  -9   6 -369.97  718.70
  -4   9  -6 -110.11 1259.34
  -4  -9  -6  334.54  332.67
   4  -9   7 4678.10  986.16
  -4  -9  -7 2709.59  481.41
  -4   9  -7 4865.16 1610.08
   4  -9   8 1508.43 1022.22
  -4  -9  -8 1132.07  275.63
  -4   9  -8  820.21 1346.19
   4  -9   929257.47 3258.67
  -4   9  -921440.30 2770.66
   4  -9  1016431.90 2161.29
  -4   9 -1015152.88 2766.94
   4  -9  11 6023.44 1153.75
  -4   9 -11 6191.18 1755.13
   4  -9  12  631.57  783.30
  -4   9 -12 1421.52  828.68
   4  -9  13 -100.61  871.08
  -4   9 -13  571.01  822.51
   4  -9  1419349.75 2813.33
  -4   9 -1424111.71 3370.76
   4  -9  15 7694.99 1921.37
  -4   9 -15 9759.95 1721.84
   4  -9  16  956.35 1034.87
  -4   9 -16 1216.06  768.25
   4  -9  17 -308.15 1102.67
  -4   9 -17  309.71  746.26
   4  -9  18  703.39  949.27
  -4   9 -18 1348.53  871.68
   4  -9  19 3545.55 1087.87
  -4   9 -19 5975.88 1167.80
   4  -9  2017339.44 2979.67
  -4   9 -2015825.82 2151.68
   4  -9  21 6364.99 1297.42
   4  -9  21 9272.59 1503.75
   4  -9  22  852.22  871.22
   4  -9  22 1500.15  802.50
   4  -9  23 1728.42  914.97
   4  -9  23 1236.22  941.68
   4  -9  24  295.85  959.99
   4  -9  24 -109.96  928.30
   4  -9  25 3119.95 1191.65
   4  -9  25 2642.29 1233.26
   4  -9  26 9276.51 1715.08
   4  -9  2620410.95 2606.25
   4  -9  27 3986.58 1133.52
   4  -9  27 6573.03 1758.82
   4  -9  28 -496.88  735.39
   4  -9  28 2369.24 1173.56
   4  -9  2910959.13 2294.39
   4  -9  30 7773.51 2129.38
   4  -9  31  152.86 1245.83
   4  -9  32 2109.39 1371.54
   4 -10 -31  257.32 1008.75
  -4 -10  31  536.10 1456.98
   4 -10 -30  148.61  940.41
  -4 -10  30 -613.04 1004.38
   4 -10 -29  282.43  951.34
  -4 -10  29  955.00 1027.30
   4 -10 -28 1588.33  952.04
  -4 -10  28  231.77 1030.42
   4 -10 -27 -479.97 1169.71
  -4 -10  27-1204.74  974.44
   4 -10 -26  398.96  813.07
  -4 -10  26  596.59  971.91
   4 -10 -25  316.38  796.24
  -4 -10  25 -746.61 1273.45
   4 -10 -24 1032.78  770.30
  -4 -10  24 -244.13  964.99
   4 -10 -23 4479.81  907.69
  -4 -10  23 3122.47 1315.95
   4 -10 -22 -132.32  790.68
  -4 -10  22  -20.27  905.72
   4 -10 -21 -115.62 1018.83
  -4 -10  21-1209.56 1034.47
   4 -10 -20 4336.57 1025.46
  -4 -10  20 4245.88 1185.02
   4 -10 -1922092.61 2657.00
  -4 -10  1921242.44 3325.14
   4 -10 -18 8865.09 1314.41
  -4 -10  18 6050.31 1734.44
   4 -10 -17 5775.94 1101.24
  -4 -10  17 7637.38 1652.10
   4 -10 -16  454.41  690.61
  -4 -10  16  -60.06  861.05
   4 -10 -15 8804.15 1330.87
  -4 -10  15 6500.78 1712.13
   4 -10 -14 1207.62  812.34
  -4 -10  14 1253.62  872.16
   4 -10 -1349316.05 5165.78
  -4 -10  1346272.29 5887.49
   4  10 -1216951.23 3301.84
   4 -10 -1217703.96 2069.09
  -4 -10  1215854.02 2560.64
   4 -10 -11 2066.40  742.57
  -4 -10  11  539.27 1185.26
   4 -10 -10 6666.21 1176.62
  -4 -10  10 3419.91 1016.48
   4 -10  -9 7809.92 1609.73
  -4 -10   9 8180.71 1529.87
   4 -10  -814735.28 1834.38
  -4 -10   814005.92 2031.38
   4 -10  -7 -369.67  752.24
  -4 -10   7  622.76  662.03
   4 -10  -6 6511.85 1225.30
  -4 -10   6 5953.93 1081.81
   4 -10  -5  621.90  858.06
  -4 -10   5 1954.09  916.72
   4 -10  -4 3780.60  873.17
  -4 -10   4 3279.22  826.62
   4 -10  -3 5238.08 1111.55
  -4 -10   3 5061.46  823.54
  -4  10   3 8604.33 2489.83
   4 -10  -2 8908.91 1387.23
  -4 -10   2 6587.86 1268.40
  -4  10   2 8230.89 2763.89
   4 -10  -1 7204.90 1285.38
  -4  10   1 8941.29 3432.47
  -4 -10   110705.50 1569.08
   4 -10   0  509.08  700.80
  -4 -10   0  721.01  495.96
  -4  10   0 2995.30 1958.24
   4 -10   112968.58 1770.54
  -4 -10  -114131.55 1631.00
  -4  10  -112921.46 3907.27
   4 -10   210759.54 1517.21
  -4 -10  -212079.07 1238.85
  -4  10  -2 9913.70 2272.84
   4 -10   3 2985.45  907.64
  -4  10  -3 2384.02 1919.83
  -4 -10  -3 5454.37  879.66
   4 -10   4  963.82  727.53
  -4 -10  -4  966.34  526.59
  -4  10  -4   19.71 1743.55
   4 -10   5 3288.93  869.94
  -4  10  -5 1063.17 1517.71
  -4 -10  -5 2913.14  520.17
   4 -10   6  835.16  815.99
  -4  10  -6  434.14 1538.86
  -4 -10  -6 2060.84  397.62
   4 -10   747437.53 5367.82
  -4  10  -750618.45 9109.66
  -4 -10  -755393.59 4702.89
   4 -10   8 4983.91 1002.38
  -4  10  -8 8885.65 2018.11
  -4 -10  -8 4447.57  639.04
   4 -10   9 8622.45 1536.51
  -4  10  -9 9114.93 1609.46
  -4 -10  -9 8398.73  863.38
   4 -10  1011918.11 2253.57
  -4  10 -1011495.50 2175.51
   4 -10  1121201.51 2750.95
  -4  10 -1119086.33 3114.82
   4 -10  12 5267.97 1290.09
  -4  10 -12 4481.20 1381.16
   4 -10  13  656.75 1086.33
  -4  10 -13 1739.64  563.96
   4 -10  14  -64.95 1360.03
  -4  10 -14  608.26  874.26
   4 -10  15    1.91  971.13
  -4  10 -15 -501.82  872.69
   4 -10  16-1136.29 1023.03
  -4  10 -16  830.53  777.33
   4 -10  17 2730.57 1043.53
  -4  10 -17 2260.60  864.77
   4 -10  18 2337.82 1442.90
  -4  10 -18  102.24  795.55
   4 -10  19 5675.04 1486.05
  -4  10 -19 7069.20 1417.57
   4 -10  20 3745.16 1181.91
  -4  10 -20 1498.24 1044.60
   4 -10  21 8727.48 1714.70
  -4  10 -21 7551.36 1469.21
   4 -10  22  931.59 1293.70
   4 -10  22 2033.39  592.42
   4 -10  23 9197.00 2255.44
   4 -10  2316942.12 2257.78
   4 -10  24  260.83 1016.57
   4 -10  24  577.34  566.69
   4 -10  25  549.57  758.61
   4 -10  26 -816.92  769.24
   4 -10  26 -621.49  671.05
   4 -10  27 2099.70  999.21
   4 -10  27 2318.00 1317.31
   4 -10  28 -189.75  866.01
   4 -10  28 1779.12  802.52
   4 -10  29 2790.59 1014.96
   4 -10  29 1464.76 1563.62
   4 -10  30  698.46 1373.94
   4 -10  31 -901.43 1549.39
   4 -11 -30 1497.66  961.48
  -4 -11  30 -387.91 1041.38
   4 -11 -29 2045.15  957.59
  -4 -11  29 -214.94 1041.17
   4 -11 -28  431.13  830.52
  -4 -11  28-1086.33 1263.08
   4 -11 -27 4531.76 1244.73
  -4 -11  27 4990.47 1347.60
   4 -11 -26  113.47  780.42
  -4 -11  26 -181.38  934.37
   4 -11 -25  710.42 1062.97
  -4 -11  25  408.81  979.47
   4 -11 -24 1253.47  808.27
  -4 -11  24  252.72 1008.63
   4 -11 -23 2872.70  918.59
  -4 -11  23 1371.77 1084.49
   4 -11 -22 -133.79  715.29
  -4 -11  22  358.21  879.86
   4 -11 -21 7978.13 1386.17
  -4 -11  21 7637.19 1468.49
   4 -11 -20 -147.90  696.03
  -4 -11  20  653.38  936.67
   4 -11 -19 2782.05  786.79
  -4 -11  19 1040.73 1062.83
   4 -11 -18  -41.61  658.80
  -4 -11  18 1755.94 1269.04
   4 -11 -17 6986.90 1215.31
  -4 -11  17 6068.50 1557.18
   4 -11 -16 5747.65 1306.15
  -4 -11  16 3890.85 1094.64
   4 -11 -1528250.54 3114.33
  -4 -11  1531266.62 4033.77
   4 -11 -14 9174.09 1379.03
  -4 -11  1410249.23 1945.77
   4 -11 -13 8207.07 1223.67
  -4 -11  13 4014.18 1334.29
   4  11 -12  370.27 1528.13
   4 -11 -12 1675.16  690.66
  -4 -11  12   63.35  814.59
   4 -11 -1153433.60 4646.79
  -4 -11  1122767.22 2332.26
   4 -11 -10 1285.39  763.41
  -4 -11  10 1099.78  811.64
   4 -11  -9 4626.33 1060.93
  -4 -11   9 6249.45 1508.78
   4 -11  -8 1760.52  840.21
  -4 -11   8 1255.37  738.21
   4 -11  -724418.45 2893.43
  -4 -11   723638.97 2695.21
   4 -11  -6 -116.36  720.67
  -4 -11   6-1130.98  662.06
   4 -11  -5 6366.17 1120.86
  -4 -11   5 6481.38 1257.84
   4 -11  -4  488.55  741.65
  -4 -11   4  526.19  633.79
   4 -11  -3   47.74  708.19
  -4 -11   3  907.75  819.08
  -4  11   3-2899.29 1807.52
   4 -11  -2 -917.39  719.77
  -4 -11   2   88.51  506.02
  -4  11   2 2413.46 1867.04
   4 -11  -129670.59 3325.60
  -4  11   132889.12 6993.72
  -4 -11   128523.15 2857.57
   4 -11   0 3383.56  830.65
  -4  11   0  749.52 2261.41
  -4 -11   0 3827.11  883.56
   4 -11   127369.90 3039.21
  -4  11  -135530.99 6993.24
   4 -11   2 2329.52  834.56
  -4  11  -2 3526.33 2222.68
  -4 -11  -2 2745.04  696.81
   4 -11   322360.90 2883.79
  -4  11  -324598.80 5714.65
  -4 -11  -328120.19 2685.68
   4 -11   4 3872.51  948.72
  -4  11  -4 3661.15 2154.51
  -4 -11  -4 3811.16  812.20
   4 -11   520455.28 2621.39
  -4  11  -526322.79 5470.36
  -4 -11  -527451.30 2409.26
   4 -11   6 2963.69  901.94
  -4  11  -6 2803.08  986.07
  -4 -11  -6 2204.16  623.79
   4 -11   7 -248.83  724.16
  -4 -11  -7   25.34  407.42
  -4  11  -7-1465.86 1252.36
   4 -11   8  904.50  940.81
  -4  11  -8 -868.74 1190.06
  -4 -11  -8   39.36  379.46
   4 -11   9 2930.61 1352.70
  -4  11  -9 1752.78 1427.27
   4 -11  10 2209.61  931.07
  -4  11 -10 -104.55 1301.74
   4 -11  11 6971.65 1377.46
  -4  11 -11 3671.12 1436.57
   4 -11  12 2043.03 1027.09
  -4  11 -12 1057.16 1205.84
   4 -11  13 1096.02 1134.53
  -4  11 -13 1574.76 1189.16
   4 -11  14-1102.23  941.86
  -4  11 -14 -127.38  517.71
   4 -11  15-2114.32 1086.44
  -4  11 -15  -93.48  868.03
   4 -11  16  216.89 1420.39
  -4  11 -16  743.36 1062.87
   4 -11  17  -49.77 1343.86
  -4  11 -17 1545.40  854.53
   4 -11  18  762.13 1059.59
  -4  11 -18  834.51  832.23
   4 -11  19 6072.03 1680.17
  -4  11 -19 8067.45 1383.97
   4 -11  20 1072.65 1007.15
  -4  11 -20 1247.91  626.84
   4 -11  2122703.07 3313.66
  -4  11 -2120816.23 2725.39
   4 -11  22 -353.02  897.71
  -4  11 -22  -51.39  882.70
   4 -11  23 1042.20  983.28
   4 -11  23 -106.10  509.65
   4 -11  24 1193.34  953.78
   4 -11  24-2024.09  920.30
   4 -11  25  453.56  850.83
   4 -11  25 1517.52 1064.98
   4 -11  26 -460.48  800.27
   4 -11  26 1528.73 1085.34
   4 -11  27  371.41  945.71
   4 -11  27 2732.51 1377.77
   4 -11  28  874.85  917.60
   4 -11  28 -126.57 1365.78
   4 -11  29 1097.66  990.72
   4 -11  29 2620.77 1610.88
   4 -11  30 -609.35 1482.22
   4 -12 -29 1219.22  940.94
   4 -12 -28  814.18  812.08
  -4 -12  28 -830.68  961.67
   4 -12 -27  841.87 1238.19
  -4 -12  27 1825.78 1055.57
   4 -12 -26 -218.04  798.31
  -4 -12  26 1101.46  990.27
   4 -12 -25 2694.83  929.56
  -4 -12  25 1401.24 1176.83
   4 -12 -24  747.71  790.70
  -4 -12  24  661.85  952.18
   4 -12 -23 1823.81  829.28
  -4 -12  23 1007.93  979.41
   4 -12 -22 1623.62  820.04
  -4 -12  22  728.05  983.95
   4 -12 -21 4040.73  890.70
  -4 -12  21 -701.09 1383.64
   4 -12 -20 4198.19  975.77
  -4 -12  20 4868.32 1279.70
   4 -12 -19 3450.89  917.58
  -4 -12  19 3067.59 1110.23
   4 -12 -18  759.68  982.99
  -4 -12  18 -316.50  896.41
   4 -12 -17 3065.46  886.54
  -4 -12  17 3990.29 1577.58
   4 -12 -16-1418.69  684.63
  -4 -12  16  951.77  856.83
   4 -12 -15 3610.88  958.60
  -4 -12  15 6627.58 1248.68
   4 -12 -14  302.61  683.67
  -4 -12  14  515.70  917.49
   4 -12 -1313290.67 1774.30
  -4 -12  1316311.52 2961.23
   4 -12 -12 -164.47  735.69
  -4 -12  12  404.16  779.83
   4 -12 -11  233.44  786.02
  -4 -12  11 1954.51  801.33
   4 -12 -10  690.44  773.75
  -4 -12  10  690.22 1057.32
   4 -12  -9 2866.21  902.94
  -4 -12   9 2877.17  886.69
   4 -12  -810726.22 1552.09
  -4 -12   810388.69 1721.48
   4 -12  -710462.26 1581.25
  -4 -12   7 9442.34 1645.72
   4 -12  -6  832.61  686.63
  -4 -12   6 -345.99  612.36
   4 -12  -5 1557.88  783.96
  -4 -12   5 1258.84  906.74
   4 -12  -4  116.69  740.05
  -4 -12   4  732.57  617.02
   4 -12  -346557.29 5525.20
  -4  12   344360.69 8859.48
  -4 -12   352293.61 5640.70
   4 -12  -223196.70 3075.51
  -4  12   222355.97 5571.40
  -4 -12   227364.71 2798.12
   4 -12  -1  235.18  704.17
  -4  12   1 1273.85 1207.07
  -4 -12   1  717.25  515.31
   4 -12   0 2284.87  882.99
  -4  12   0 1084.05 2230.46
  -4 -12   0 4160.15  939.09
   4 -12   133982.42 3823.92
  -4  12  -134533.60 7600.66
  -4 -12  -138200.63 3942.13
   4 -12   2 6660.20 1480.94
  -4  12  -2 5767.22 1767.46
  -4 -12  -2 7076.28 1035.22
   4 -12   318674.73 2328.31
  -4  12  -321327.34 4294.31
  -4 -12  -323415.97 2299.80
   4 -12   4 1268.73  986.19
  -4 -12  -4 2090.49  652.72
  -4  12  -4 1180.75 1962.17
   4 -12   5   95.00  813.65
  -4 -12  -5  567.01  504.55
  -4  12  -5  573.18 1781.29
   4 -12   613715.74 1666.55
  -4  12  -6 5131.30 1985.97
  -4 -12  -6 8469.51  898.57
   4 -12   7 7675.37 1360.32
  -4 -12  -7 3668.62  627.57
  -4  12  -7 3103.73 1636.62
   4 -12   8 -834.64  883.22
  -4  12  -8 1101.88 1399.54
   4 -12   9 2751.04 1008.95
  -4  12  -9 1768.14  931.53
   4 -12  10 3057.44 1226.27
  -4  12 -10 3469.18 1610.22
   4 -12  11 1033.39  946.07
  -4  12 -11 -173.57 1436.21
   4 -12  1217676.64 2834.05
  -4  12 -1217899.31 3448.50
   4 -12  13 4439.46 1351.77
  -4  12 -13 4092.93 1481.28
   4 -12  14 -551.87 1037.36
  -4  12 -14  -91.06 1085.53
   4 -12  15 2738.12 1259.20
  -4  12 -15 2250.91 1028.60
   4 -12  16 2638.31 1208.22
  -4  12 -16 1161.17  979.79
   4 -12  17 1639.77 1079.01
  -4  12 -17 -633.47 1069.82
   4 -12  18  778.26 1040.16
  -4  12 -18  699.49  909.29
   4 -12  19 6110.15 1559.12
  -4  12 -19 6436.09 1271.10
   4 -12  20 -586.89  940.47
  -4  12 -20  631.41  831.41
   4 -12  21 3725.89 1254.55
  -4  12 -21 3991.63  732.65
   4 -12  22 4614.11 1337.86
  -4  12 -22 4571.83 1216.98
   4 -12  2312129.86 2214.49
  -4  12 -2313725.29 2008.57
   4 -12  24 1460.15 1278.83
   4 -12  24  232.66  644.70
   4 -12  25 1074.03 1257.98
   4 -12  25 1570.83 1175.71
   4 -12  26  425.60 1135.39
   4 -12  26 -634.47 1076.93
   4 -12  27 1643.39 1082.86
   4 -12  27 5615.58 1453.83
   4 -12  28  462.20  962.41
   4 -12  28 1511.55 1386.44
   4 -12  29 4483.09 1234.70
   4 -12  29 5437.42 1848.29
   4 -13 -28 1491.47  956.96
   4 -13 -27 1702.09  936.17
  -4 -13  27 1130.26 1120.88
   4 -13 -26 6697.38 1261.71
  -4 -13  26  109.77 1662.22
   4 -13 -25 1782.92 1173.39
  -4 -13  25 -243.31  947.22
   4 -13 -24  394.37  870.50
  -4 -13  24 2275.93 1076.71
   4 -13 -23  460.36  768.53
  -4 -13  23 -935.12  910.28
   4 -13 -2213860.80 1717.09
  -4 -13  22 5542.28 1471.36
   4 -13 -21 2246.77  929.58
  -4 -13  21 2285.82 1056.81
   4 -13 -20 1396.03  898.84
  -4 -13  20  159.87 1366.42
   4 -13 -19 -251.41  745.88
  -4 -13  19  235.22  921.41
   4 -13 -18 1648.49  802.34
  -4 -13  18 1065.88 1037.50
   4 -13 -17 4644.52 1084.32
  -4 -13  17 3122.57 1185.46
   4 -13 -1646075.52 6101.19
  -4 -13  1651984.55 7565.42
   4 -13 -1524454.31 3170.89
  -4 -13  1527224.32 3807.90
   4 -13 -14  627.10  753.06
  -4 -13  14  271.83  824.03
   4 -13 -13 1400.05  874.06
  -4 -13  13 1565.67  910.57
   4 -13 -1215672.43 2057.57
  -4 -13  1214741.58 2250.24
   4 -13 -1121318.37 2444.62
  -4 -13  1118921.72 2770.29
   4 -13 -10 5506.68 1023.06
  -4 -13  10 4768.33 1094.80
   4 -13  -9  884.40 1023.53
  -4 -13   9 -273.73  749.93
   4 -13  -8  521.28  809.60
  -4 -13   8 1303.05  697.02
   4 -13  -7 5797.51 1156.15
  -4 -13   710349.01 1739.78
   4 -13  -614793.11 2067.54
  -4 -13   615110.11 2011.87
   4 -13  -5  657.22  820.29
  -4 -13   5 1536.96  674.82
   4 -13  -410941.97 1647.67
  -4 -13   413125.72 1723.67
   4 -13  -3  487.19  714.86
  -4  13   3 2358.32 1918.81
  -4 -13   3  -15.21  557.99
   4 -13  -2 3386.23  923.94
  -4  13   2 4626.78 2332.61
  -4 -13   2 2794.62  713.41
   4 -13  -1 3342.84  931.85
  -4  13   1 3218.86 2290.34
  -4 -13   1 3304.18  971.22
   4 -13   022506.70 2711.84
  -4 -13   024739.44 2746.07
  -4  13   021246.00 5989.15
   4 -13   1  427.18  750.58
  -4 -13  -1 -946.22  647.74
  -4  13  -1-3906.80 2131.74
   4 -13   2 6084.86 1073.55
  -4  13  -2 7366.00 2834.12
  -4 -13  -2 6103.63 1195.81
   4 -13   3 -834.54  889.02
  -4 -13  -3 1545.09  669.72
  -4  13  -3 1992.81 1283.59
   4 -13   4 3879.68 1004.76
  -4 -13  -4 2162.25  550.18
  -4  13  -4 2309.32 2184.47
   4 -13   5 4758.86 1071.93
  -4  13  -5 5696.00 2425.70
  -4 -13  -5 3971.11  707.35
   4 -13   6 1605.30  969.56
  -4 -13  -6  548.15  554.10
  -4  13  -6-1124.20 1950.36
   4 -13   7 -475.96 1322.02
  -4  13  -7 1718.55 1449.37
   4 -13   8 4044.15 1133.26
  -4  13  -8  481.13 1509.54
   4 -13   9   20.04 1048.68
  -4  13  -9 1585.68  882.76
   4 -13  10 9365.16 1576.63
  -4  13 -10 4400.74 1903.89
   4 -13  11 1524.32  978.72
  -4  13 -11 3437.01 1659.93
   4 -13  12 2157.68 1156.46
  -4  13 -12  971.11 1606.85
   4 -13  13 -368.16 1073.26
  -4  13 -13-1086.26 1141.54
   4 -13  14 5093.32 1939.76
  -4  13 -14 6558.83 1704.16
   4 -13  15 2314.44 1895.38
  -4  13 -15 6673.25 1635.64
   4 -13  16 2269.16 1122.93
  -4  13 -16 -466.66  956.37
   4 -13  17  953.11 1148.75
  -4  13 -17  962.31  953.43
   4 -13  18  157.76 1074.96
  -4  13 -18  555.12  945.14
   4 -13  19 2211.68 1174.00
  -4  13 -19 2090.57  960.27
   4 -13  20  -62.89  962.96
  -4  13 -20 1501.05  871.90
   4 -13  21 1026.90 1124.09
  -4  13 -21  392.17  861.59
   4 -13  22 2214.22 1013.24
  -4  13 -22 1217.35  994.78
   4 -13  23  935.85 1373.19
  -4  13 -23 1370.69 1029.21
   4 -13  24  510.73  977.39
  -4  13 -24 1496.16 1008.76
   4 -13  25  592.54  947.87
   4 -13  25 3137.30  796.71
   4 -13  26 1654.67 1020.94
   4 -13  26 2727.02 1314.23
   4 -13  27  426.14  913.10
   4 -13  27 -435.18 1149.13
   4 -13  28 -300.52 1262.30
   4 -13  28 -282.76 1190.34
   4 -14 -26 -206.58 1162.74
  -4 -14  26-1207.52  963.43
   4 -14 -25  785.40  863.33
  -4 -14  25  224.87  977.46
   4 -14 -2415932.97 1905.20
  -4 -14  24 5068.63 1523.19
   4 -14 -23  622.66 1048.21
  -4 -14  23 -337.52  895.83
   4 -14 -22 2586.85 1030.18
  -4 -14  22 1281.33 1083.81
   4 -14 -21 -240.57 1100.58
  -4 -14  21 -110.29  925.55
   4 -14 -2012965.39 1851.81
  -4 -14  20 5894.26 1446.80
   4 -14 -19  308.21  815.03
  -4 -14  19  426.72  920.68
   4 -14 -18 2283.08  881.70
  -4 -14  18 1255.54  983.41
   4 -14 -17 1820.15  966.82
  -4 -14  17 1017.77  980.17
   4 -14 -16  656.24  778.49
  -4 -14  16 -450.58 1252.20
   4 -14 -15-1033.62 1043.22
  -4 -14  15  109.53  867.64
   4 -14 -14 9357.00 1622.34
  -4 -14  14 1633.36 1150.09
   4 -14 -13 -728.15  730.12
  -4 -14  13  850.27  839.78
   4 -14 -12 3722.74 1026.00
  -4 -14  12 3849.76 1124.03
   4 -14 -11 -163.63  732.25
  -4 -14  11  229.98  834.87
   4 -14 -10 1049.25  768.90
  -4 -14  10  -85.83  767.97
   4 -14  -9  812.53 1118.93
  -4 -14   9  498.88 1086.79
   4 -14  -821375.87 2443.73
  -4 -14   817666.43 2549.59
   4 -14  -7  -91.33  795.43
  -4 -14   7  862.11  733.94
  -4 -14   6 2075.81  750.64
   4 -14  -5 6339.75 1446.21
  -4 -14   5 3285.35  822.57
   4 -14  -414533.25 2026.63
  -4 -14   418662.77 2490.93
   4 -14  -3 7845.32 1270.85
  -4  14   3 3453.48 2486.27
  -4 -14   3 4331.55  827.74
   4 -14  -240049.22 4557.79
  -4  14   242240.16 6933.22
  -4 -14   243133.93 4746.14
   4 -14  -1 1104.63  810.04
  -4  14   1 1620.21 2338.62
  -4 -14   1  813.36  565.65
   4 -14   0  302.47  779.22
  -4  14   0 4747.27 2323.03
  -4 -14   0  530.98  560.45
   4 -14   1  634.38  708.97
  -4  14  -1 5412.50 2417.55
  -4 -14  -1  665.15  769.53
   4 -14   2 2683.33  873.85
  -4 -14  -2 2660.74  601.56
  -4  14  -2 2138.29 1455.05
   4 -14   3 9574.26 1532.93
  -4 -14  -312947.22 1451.65
  -4  14  -3 5867.47 3173.21
   4 -14   415505.84 2362.78
  -4 -14  -418166.34 1920.44
  -4  14  -411892.46 3427.91
   4 -14   5 4321.83 1209.66
  -4 -14  -5 3570.82  773.56
  -4  14  -5 3604.14 2397.03
   4 -14   6 4995.17 1341.74
  -4  14  -6 6262.36 2774.15
   4 -14   7 1158.84  970.83
  -4  14  -7  119.43 1481.63
   4 -14   819075.31 2537.43
  -4  14  -8 7887.83 2412.98
   4 -14   9  609.23 1422.99
  -4  14  -9 1922.80 1503.53
   4 -14  10 1023.89 1072.61
  -4  14 -10 2065.02 1570.96
   4 -14  11  258.49 1079.05
  -4  14 -11  968.87 1516.73
   4 -14  1224729.60 3556.64
  -4  14 -1216586.60 2781.52
   4 -14  13 2010.88 1222.96
  -4  14 -13 1906.46 1321.06
   4 -14  14 8634.64 2387.56
  -4  14 -14 8657.37 1799.42
   4 -14  15 1212.42 1267.00
  -4  14 -15 3008.05 1319.54
   4 -14  16 -515.07 1052.76
  -4  14 -16 1032.22 1149.49
   4 -14  17 2383.88 1220.47
  -4  14 -17  702.53  595.30
   4 -14  18 5712.53 1833.36
  -4  14 -18 2684.19 1168.11
   4 -14  19 1671.62  969.12
  -4  14 -19-1681.54  901.27
   4 -14  20 -115.05  998.45
  -4  14 -20 -576.61  835.30
   4 -14  21 -852.57 1009.11
  -4  14 -21  538.86  858.02
   4 -14  22 1269.19 1068.00
  -4  14 -22 3081.53 1031.71
   4 -14  23 1949.09 1339.26
  -4  14 -23 -648.56  944.94
   4 -14  24 -241.34  965.95
  -4  14 -24 1704.65  982.23
   4 -14  25 1656.64  958.41
  -4  14 -25  306.70  992.77
   4 -14  26  -40.46  889.79
   4 -14  26  135.84 1123.07
   4 -15 -24  667.67 1221.75
  -4 -15  24 -146.56  981.46
   4 -15 -23  240.93  917.91
  -4 -15  23 -776.98  953.97
   4 -15 -2211673.48 1503.74
  -4 -15  22 3092.63 1353.79
   4 -15 -21  409.43  921.30
  -4 -15  21  807.49  977.89
   4 -15 -20  -91.79  861.29
  -4 -15  20  140.30  919.11
   4 -15 -19  493.70  889.42
  -4 -15  19  -87.36  916.33
   4 -15 -18 1889.86 1106.05
  -4 -15  18 1000.59  968.89
   4 -15 -17 -666.93  798.90
  -4 -15  17-1934.39 1294.27
   4 -15 -1611080.14 1520.14
  -4 -15  16 4315.13 1307.00
   4 -15 -15 1846.73  923.90
   4 -15 -14 -541.86 1003.58
  -4 -15  14 -263.99  889.87
   4 -15 -13 1744.77  932.15
  -4 -15  13 2499.47 1351.10
   4 -15 -12 1258.84  863.93
  -4 -15  12  819.99  952.11
   4 -15 -11 2928.84  943.04
  -4 -15  11 2417.27  982.08
   4 -15 -10 3913.87  995.09
  -4 -15  10 2397.72 1357.63
   4 -15  -9 2995.96 1157.12
  -4 -15   9 3879.01  968.19
   4 -15  -8 -451.51 1067.14
  -4 -15   8  335.29  739.82
   4 -15  -7  706.00  851.81
  -4 -15   7  -20.45  944.13
   4 -15  -6 6123.73 1069.83
  -4 -15   6 2971.62  873.26
   4 -15  -5 4071.48 1067.01
  -4 -15   5 1820.66 1072.67
   4 -15  -416893.65 2272.38
  -4 -15   417868.78 2115.45
   4 -15  -3 3103.73  993.43
  -4  15   3 2045.49 2244.46
  -4 -15   3 1530.05  733.43
  -4 -15   2 1103.19  634.71
  -4 -15   1 3472.90 1028.22
   4 -15   054935.01 6780.96
  -4 -15   054934.62 6132.42
  -4  15   062934.5713166.49
   4 -15   132726.67 4101.47
  -4 -15  -134706.19 3596.45
  -4  15  -131362.47 7342.62
   4 -15   2 5646.66 1134.95
  -4 -15  -2 3387.57  972.79
  -4  15  -2 7618.76 2631.27
   4 -15   3 -164.14  811.38
  -4 -15  -3  414.41  529.46
  -4  15  -3 2278.17 2162.07
   4 -15   4 5240.94 1327.12
  -4 -15  -4 3978.11  880.24
  -4  15  -4 2311.25 2500.98
   4 -15   5 -297.16 1220.20
  -4  15  -5  725.27 1845.31
   4 -15   6 1365.69 1077.56
  -4  15  -6 5238.46 2396.14
   4 -15   7  954.65  958.78
  -4  15  -7 1699.94 2137.35
   4 -15   8 3233.13 1194.37
  -4  15  -8 3576.53 1754.76
   4 -15   9  249.97  961.45
  -4  15  -9 3292.64 1598.80
   4 -15  1039580.31 6443.83
  -4  15 -1031852.22 5850.76
   4 -15  11 -744.63 1056.69
  -4  15 -11  -58.45 1511.21
   4 -15  12 3727.59 1711.11
  -4  15 -12 4200.54 1760.57
   4 -15  13 -697.78 1157.70
  -4  15 -13 1069.22 1384.44
   4 -15  1416372.70 2213.30
  -4  15 -14-2109.14 1677.44
   4 -15  15  -83.19 1133.09
  -4  15 -15-1396.72 1204.13
   4 -15  16 5812.61 1378.69
  -4  15 -16-1751.15 1450.91
   4 -15  17   95.62 1100.07
  -4  15 -17 -252.44  536.02
   4 -15  18  430.98 1086.40
  -4  15 -18  127.77  961.69
   4 -15  19  339.98 1039.98
  -4  15 -19   16.24 1030.84
   4 -15  20  679.85 1504.63
  -4  15 -20 2442.09 1062.43
   4 -15  21  393.83 1098.35
  -4  15 -21  579.64  948.87
   4 -15  22 1488.35 1089.89
  -4  15 -22 1788.28  978.81
   4 -15  23 1379.57 1049.29
  -4  15 -23  369.74  921.26
   4 -15  24  650.63 1087.35
  -4  15 -24 1642.43  659.86
   4 -16 -23 -412.91  862.94
   4 -16 -22-1068.99 1145.27
  -4 -16  22  -46.49  960.02
   4 -16 -21 1419.65  897.31
  -4 -16  21 1036.78 1033.97
   4 -16 -20 -302.39 1074.35
  -4 -16  20   81.59  950.22
   4 -16 -19 1092.93  860.17
  -4 -16  19 1708.83 1395.43
   4 -16 -18 -202.33  822.71
  -4 -16  18-1363.02  958.32
   4 -16 -17 1118.33  823.48
  -4 -16  17   14.30  957.69
   4 -16 -16 -867.67  812.94
  -4 -16  16  971.41  942.92
   4 -16 -15 2639.79  925.62
  -4 -16  15 1259.12  965.39
   4 -16 -14  491.33 1160.80
  -4 -16  14  960.47  906.53
   4 -16 -13 2250.63  959.10
  -4 -16  13 4552.73 1089.47
   4 -16 -12 2277.48  914.49
  -4 -16  12 1947.98 1009.16
   4 -16 -11 2303.16  908.35
  -4 -16  11 1354.79 1285.91
   4 -16 -10 4532.90 1147.69
  -4 -16  10 4315.91 1159.23
   4 -16  -9  807.21  811.90
  -4 -16   9  -94.22  799.14
   4 -16  -8 6508.45 1139.73
  -4 -16   8 4116.81 1354.35
   4 -16  -7  757.55  781.86
  -4 -16   7  426.61  712.72
   4 -16  -6 1451.72 1214.53
  -4 -16   6 1686.84 1032.51
   4 -16  -5 8729.39 1486.33
  -4 -16   5 6904.14 1328.49
   4 -16  -411386.05 1839.40
  -4 -16   410406.65 1558.63
   4 -16  -3 8142.00 1431.86
  -4  16   310494.59 2423.94
  -4 -16   310484.25 1501.35
   4 -16  -2 6527.36 1282.28
  -4  16   2 2884.25 2952.09
  -4 -16   2 5332.38 1010.90
   4 -16  -1 4886.91 1214.17
  -4  16   1 2413.48 2488.96
  -4 -16   1 3857.33  832.28
   4 -16   0 7043.46 1417.54
  -4  16   010454.70 2309.34
  -4 -16   0 6959.87 1404.30
   4 -16   1 5498.81 1250.09
  -4 -16  -1 3876.23  851.35
  -4  16  -1 7572.44 2728.42
   4 -16   2 1343.57  954.27
  -4 -16  -2 2203.98  908.36
  -4  16  -2 1709.42 2409.51
   4 -16   3 -201.09  937.14
  -4 -16  -3  542.74  775.70
  -4  16  -3 5239.77 2514.10
   4 -16   4 4975.27 1345.66
  -4  16  -4 2806.83 2326.22
   4 -16   5 2342.58 1033.91
  -4  16  -5-1220.64 2016.64
   4 -16   6 3955.29 1280.79
  -4  16  -6 7734.77 2591.15
   4 -16   7 4810.79 1273.41
  -4  16  -7 5331.92 1545.26
   4 -16   8 9550.25 1851.62
  -4  16  -8 8786.89 2293.78
   4 -16   9  -54.54 1140.19
  -4  16  -9  676.23 1495.77
   4 -16  10 2387.37 1227.59
  -4  16 -10 -339.67 1583.12
   4 -16  11  801.49 1206.02
  -4  16 -11 1505.07 1466.56
   4 -16  12 4244.22 1393.55
  -4  16 -12 2935.88 1800.54
   4 -16  13  407.45 1192.44
  -4  16 -13 2162.53 1572.49
   4 -16  14  554.59 1182.05
  -4  16 -14  610.31 1198.02
   4 -16  15 -781.32 1255.69
  -4  16 -15-2456.22 1293.58
   4 -16  16 2808.67 1287.41
  -4  16 -16 1818.64 1364.35
   4 -16  17 1103.69 1114.96
  -4  16 -17 -500.96 1238.84
   4 -16  18 3390.11 1396.78
  -4  16 -18 2172.69 1195.83
   4 -16  19  720.65 1118.08
  -4  16 -19  781.76  976.96
   4 -16  20   26.52 1084.33
  -4  16 -20 1789.50 1095.19
   4 -16  21  230.37 1123.09
  -4  16 -21 -499.40  891.45
   4 -16  22 2870.74 1303.30
  -4  16 -22 5091.48  808.72
   4 -16  23   79.70 1052.45
  -4  16 -23  167.87  969.85
   4 -17 -20 -192.97 1246.45
  -4 -17  20  950.67  994.81
   4 -17 -19  508.96  914.15
  -4 -17  19  -51.95  985.86
   4 -17 -18  798.70  903.89
  -4 -17  18 -362.96  989.29
   4 -17 -17 4913.97 1129.92
  -4 -17  17 2172.65 1622.62
   4 -17 -16 1245.92  884.00
  -4 -17  16  163.65  912.37
   4 -17 -15  516.96  885.49
  -4 -17  15  399.23  919.48
   4 -17 -14 1540.25 1182.80
  -4 -17  14  349.98  899.00
   4 -17 -13  414.62  790.49
  -4 -17  13 -230.50 1180.96
   4 -17 -12 1513.34  963.18
  -4 -17  12  763.73  886.49
   4 -17 -11 2451.28  918.21
  -4 -17  11 1221.44  919.22
   4 -17 -10 3100.63 1072.00
  -4 -17  10 3037.58 1471.32
   4 -17  -9 1801.96  876.37
  -4 -17   9  374.99  848.62
   4 -17  -8 -737.01  813.93
  -4 -17   8 -504.67  771.45
   4 -17  -7  520.05  915.59
  -4 -17   7 1820.67 1153.93
   4 -17  -6 6480.67 1232.87
  -4 -17   6 4286.45 1118.71
   4 -17  -5 9567.97 1546.53
  -4 -17   5 9748.27 1902.57
   4 -17  -4 5506.14 1216.60
  -4 -17   4 3569.63  966.54
   4 -17  -3  200.92 1269.08
  -4  17   3 1175.45 2049.60
  -4 -17   3-1533.77  975.74
   4 -17  -2  418.97  873.49
  -4 -17   2   48.16  720.17
   4 -17  -114711.57 2299.06
  -4 -17   113877.36 2173.37
  -4 -17   012579.39 1575.94
  -4  17   0 5473.71 3388.61
   4 -17   1 6945.38 1711.38
  -4 -17  -1 2649.00 1059.14
   4 -17   2 1158.88 1025.67
  -4  17  -3 7970.79 3050.24
  -4  17  -4 1233.65 2065.68
   4 -17   5  901.24  927.73
  -4  17  -5 -744.82 1179.62
   4 -17   6 2874.38 1160.66
  -4  17  -6-1462.51 2051.19
   4 -17   7 -202.78  965.83
  -4  17  -7-1097.13 1900.57
   4 -17   8  564.13 1192.55
  -4  17  -8  966.96 1594.43
   4 -17   9 5856.53 1647.24
  -4  17  -9 3266.44 1902.06
   4 -17  10 1700.56 1242.45
  -4  17 -10  748.33 1577.67
   4 -17  1111427.39 2087.38
  -4  17 -11 2861.94 2119.51
   4 -17  12 2449.39 1269.20
  -4  17 -12   45.36 1575.83
   4 -17  13  836.41 1129.68
  -4  17 -13 -950.21 1461.65
   4 -17  14  818.59 1182.00
  -4  17 -14  -43.01 1522.79
   4 -17  15 2535.89 1234.80
  -4  17 -15 -694.49 1358.54
   4 -17  16 -672.44 1133.13
  -4  17 -16 -753.41 1300.52
   4 -17  17 1182.32 1166.01
  -4  17 -17 -363.99 1297.31
   4 -17  18  561.78 1135.42
  -4  17 -18  281.94 1027.89
   4 -17  19  891.92 1091.84
  -4  17 -19 -357.78 1035.28
   4 -17  20  390.08 1480.58
  -4  17 -20 1073.83 1088.05
   4 -18 -18 1520.06  954.63
  -4 -18  18 -222.09 1029.86
   4 -18 -17 3632.42 1179.73
  -4 -18  17 1496.56 1146.48
   4 -18 -16 1308.90  989.71
  -4 -18  16  824.62  993.40
   4 -18 -15 1141.17  896.08
  -4 -18  15   39.95  924.88
   4 -18 -14  654.25  854.85
  -4 -18  14 -631.68  849.14
   4 -18 -1316451.31 1886.70
  -4 -18  13 6322.03 1388.39
   4 -18 -12  657.11  918.68
  -4 -18  12 2151.61 1298.76
   4 -18 -11  908.47  891.35
  -4 -18  11 1164.84  932.13
   4 -18 -10  398.67  892.18
  -4 -18  10  669.45  873.21
   4 -18  -918678.73 2562.25
  -4 -18   9 7805.15 1785.48
   4 -18  -8 -243.85 1177.97
  -4 -18   8  367.75  772.81
   4 -18  -7 1710.94 1374.78
  -4 -18   7 1665.64 1114.36
   4 -18  -6 -491.11 1112.97
  -4 -18   6  262.11  784.19
   4 -18  -5 2879.58 1484.91
  -4 -18   5 2521.03  969.15
   4 -18  -4  280.22  983.13
  -4  18   4 -606.17 1948.52
  -4 -18   4 1543.62  815.99
   4 -18  -311091.94 1733.66
  -4  18   3 6441.74 2875.59
  -4 -18   3 7259.09 1323.43
   4 -18  -2 1693.62  987.07
  -4  18   2-1013.15 2097.08
  -4 -18   2  884.34  718.77
   4 -18  -1 3974.35 1261.65
  -4  18   1  691.77 2309.86
  -4 -18   1 3837.69 1129.01
  -4 -18   0 -244.09  691.76
  -4  18   0-1610.26 2097.01
  -4  18  -1 4330.51 2633.56
   4 -18   2 1535.18 1071.20
  -4  18  -2-2269.01 2152.80
   4 -18   3 1467.70 1117.47
  -4  18  -3 4775.02 2490.68
   4 -18   4  351.97  951.47
  -4  18  -4  651.53 1895.14
   4 -18   5-1603.27 1034.77
  -4  18  -5-3697.95 2036.32
   4 -18   6 1197.96 1012.19
  -4  18  -6    1.20 1999.14
   4 -18   715694.49 2594.00
  -4  18  -7 5292.92 3056.55
   4 -18   8 1046.61 1205.73
  -4  18  -8  830.74 1530.81
   4 -18   9 1046.97 1311.46
  -4  18  -9 2000.81 1585.22
   4 -18  10 -780.92 1583.12
  -4  18 -10  938.54 1521.13
   4 -18  11  940.22 1216.64
  -4  18 -11  978.80 1599.86
   4 -18  12 1097.91 1202.33
  -4  18 -12  959.71 1595.24
   4 -18  13  924.98 1307.74
  -4  18 -13 3709.28 1765.42
   4 -18  14   43.16 1205.21
  -4  18 -14 3277.68 1781.42
   4 -18  15-1470.96 1124.84
  -4  18 -15 1496.24 1251.55
   4 -18  16 -608.29 1168.39
  -4  18 -16  327.53 1349.03
   4 -18  17 3080.74 1293.26
  -4  18 -17-1733.07 1476.18
   4 -19 -14 1665.60  986.44
  -4 -19  14  481.60  952.45
   4 -19 -13  295.69  878.53
  -4 -19  13 -631.71  916.04
   4 -19 -12  298.91 1201.65
  -4 -19  12 -212.32 1243.34
   4 -19 -1110845.85 1576.30
  -4 -19  11 3667.83 1322.85
   4 -19 -10 3963.07 1076.81
  -4 -19  10 1428.93 1051.95
   4 -19  -9 1068.65  998.14
  -4 -19   9 2223.13 1199.30
   4 -19  -8 1186.25  917.33
  -4 -19   8  427.21  830.24
   4 -19  -7 3413.04 1296.26
  -4 -19   7 3218.38 1324.70
   4 -19  -6 2269.20 1113.02
  -4 -19   6  -45.04  808.56
   4 -19  -5 4088.48 1247.11
  -4 -19   5 1973.02  966.94
   4 -19  -4  243.09  957.34
  -4  19   4 1595.27 1990.76
  -4 -19   4   -2.44  724.55
   4 -19  -3 -210.05  896.49
  -4  19   3 2667.70 1974.87
  -4 -19   3   72.88  707.86
   4 -19  -2 1413.79 1074.58
  -4  19   2 -293.49 2059.65
  -4 -19   2   85.44  723.55
   4 -19  -113342.57 2107.78
  -4  19   1 7001.60 3259.61
   4 -19   0  526.95 1026.74
  -4  19   0-1321.46 2033.28
   4 -19   1 5038.23 1415.83
  -4  19  -1  502.89 2462.13
   4 -19   2  781.58  986.41
  -4  19  -2  259.80 2147.77
   4 -19   3  482.37 1006.32
  -4  19  -3 -519.75 2200.24
   4 -19   4  111.61  989.70
  -4  19  -4 2566.44 1233.28
   4 -19   5  941.92 1032.21
  -4  19  -5 2122.29 2239.73
   4 -19   6 1631.73 1244.38
  -4  19  -6 1616.47 2147.38
   4 -19   7  205.53 1215.25
  -4  19  -7 1766.24 2036.76
   4 -19   8-1460.61 1108.28
  -4  19  -8 -260.99 1626.61
   4 -19   9 1811.65 1624.48
  -4  19  -9  318.08 1625.30
   4 -19  10  951.67 1163.54
  -4  19 -10-1149.56 1558.29
   4 -19  11 7485.13 1707.81
  -4  19 -11 3940.25 2066.62
   4 -19  12 2314.47 1281.22
  -4  19 -12 -770.24 1643.53
   4 -19  13 1634.24 1344.56
  -4  19 -13 1031.65 1721.37
   4 -20  -9 1887.29 1397.81
  -4 -20   9  565.60  882.82
   4 -20  -8 9414.82 1693.23
  -4 -20   8 4392.55 1232.46
   4 -20  -7 2120.99 1132.82
  -4 -20   7  578.36 1226.09
   4 -20  -6  321.21  935.32
  -4 -20   6 -373.90  759.84
   4 -20  -5 1772.57 1149.05
  -4  20   5 3061.12 2164.69
  -4 -20   5  332.59 1164.69
   4 -20  -4  743.95 1115.28
  -4  20   4 -467.13 1944.51
  -4 -20   4  -27.50  765.13
   4 -20  -3 2644.72 1300.80
  -4  20   3 6198.71 2539.08
   4 -20  -2 1089.76 1115.95
  -4  20   2 -108.80 2157.58
   4 -20  -1-1238.43 1115.01
  -4  20   1-2664.44 2155.46
   4 -20   0  -76.09 1001.24
  -4  20   0 1952.86 2053.82
   4 -20   1 1226.39 1042.01
  -4  20  -1-2833.45 1973.86
   4 -20   2 2006.58 1670.22
  -4  20  -2 5458.37 2594.16
   4 -20   3  769.69 1050.86
  -4  20  -3 2411.26 2330.29
   4 -20   4  777.75  995.66
  -4  20  -4-3551.72 1914.29
   4 -20   5 -231.23 1154.29
  -4  20  -5 -539.92 1941.02
   4 -20   6 -393.02 1076.26
  -4  20  -6  635.22 1930.80
   4 -20   7 4627.91 1816.75
  -4  20  -7-1329.95 2140.27
  -5   0  34 3948.77 1128.05
  -5   0  33   72.75  879.04
  -5   0  32  672.76  917.42
  -5   0  31    1.18  829.13
  -5   0  30 5272.83 1201.40
  -5   0  29  -29.66  820.97
  -5   0  28  711.71  870.58
  -5   0  27 -809.71  804.58
  -5   0  26 1683.50  949.39
  -5   0  25 1580.98  851.75
  -5   0  24 5260.22 1155.14
  -5   0  23-1089.18  810.86
  -5   0  22 -561.97 1110.12
  -5   0  21  766.32  778.50
  -5   0  2019305.25 2938.50
  -5   0  19-1240.96 1066.49
  -5   0  18 5943.95 1014.48
  -5   0  17 -812.09  751.27
  -5   0  16  959.66  749.86
  -5   0  15 -363.05  665.88
  -5   0  14 5644.13 1096.24
  -5   0  13  320.51  714.25
  -5   0  12  195.75  699.00
  -5   0  11  860.92  720.66
  -5   0  10205071.829604.02
   5   0  -9  -57.77   88.15
  -5   0   9   18.16  591.82
   5   0  -844457.18 2365.45
  -5   0   8122647.3 8822.40
   5   0  -7  123.90  168.17
  -5   0   7  211.92  560.38
   5   0  -6 1219.16  287.19
   5   0  -6 2652.80  415.95
   5   0  -5   99.95  301.97
   5   0  -5  138.39  537.68
   5   0  -419833.13 2288.71
   5   0  -420913.67 1605.06
   5   0  -3   18.86  426.26
   5   0  -3 1517.35  533.36
   5   0  -281849.39 7199.08
   5   0  -276812.49 7791.35
   5   0  -1  305.79  368.47
   5   0  -1  225.36  430.01
   5   0   0125651.812578.11
   5   0   0113626.212007.72
   5   0   1  249.29  528.54
   5   0   1  177.32  327.92
   5   0   222965.01 1862.61
   5   0   221540.82 1601.73
   5   0   3  -11.75  409.97
   5   0   3 -227.19  294.26
   5   0   4 4121.67  708.55
   5   0   4 4731.86  488.73
   5   0   5  359.04  496.75
   5   0   5 -460.11  331.38
   5   0   638552.08 3624.62
   5   0   637562.03 2874.63
   5   0   7  153.74  611.57
   5   0   7  204.94  350.33
   5   0   817966.76 2143.56
   5   0   816553.39 1300.80
   5   0   9  189.51  694.67
   5   0   9    7.59  286.55
   5   0  10  615.58  720.73
   5   0  10  543.89  311.29
   5   0  11  740.09  691.39
   5   0  11 -417.68  292.80
   5   0  1244712.33 5105.34
   5   0  1242697.23 3466.56
   5   0  13 -150.20  748.32
   5   0  13  230.29  311.39
   5   0  14 7332.39 1204.38
   5   0  14 3372.96  497.38
   5   0  15  713.09  799.93
   5   0  15 -451.83  321.17
   5   0  16100498.213537.90
   5   0  17 -481.36  787.22
   5   0  18 7179.53 1332.51
   5   0  19  320.17  457.38
   5   0  2037556.19 4418.00
   5   0  21 -384.47  827.18
   5   0  2212206.41 1807.84
   5   0  23 -592.55  878.96
   5   0  24  678.18  552.47
   5   0  25  -73.98  903.44
   5   0  26 5329.05 1396.66
   5   0  27 -307.06  966.73
   5   0  28 6484.11 1460.11
   5   0  29   55.83 1254.38
   5   0  30-1237.41 1328.27
   5   0  31  155.17 1323.69
   5   0  3217755.13 3336.22
   5   0  33-1409.41 1529.04
   5   0  34-1203.87 1844.35
  -5  -1  34 2368.17 1025.08
  -5   1  34 1846.91  988.80
  -5  -1  33 -785.32  875.05
  -5   1  33 -564.49  809.64
  -5  -1  32 6436.30 1291.66
  -5   1  32 4971.05 1239.74
  -5  -1  31 -137.07  855.71
  -5   1  31  -25.19  793.01
  -5  -1  30  203.52  852.98
  -5   1  30 1337.74  836.74
  -5  -1  29 1079.29  855.22
  -5   1  29  -17.76  800.06
  -5  -1  28 3347.83 1051.55
  -5   1  28 2351.70  920.32
  -5  -1  27 2866.31 1422.53
  -5   1  27 3140.06  963.13
  -5  -1  26 2941.22 1158.52
  -5   1  26 3315.53  971.96
  -5  -1  25  803.98  884.86
  -5   1  25 -381.46  691.63
  -5  -1  24 1542.07  842.76
  -5   1  24 -138.74  815.47
  -5  -1  23 6947.95 1401.02
  -5   1  23 5611.03 1327.30
  -5  -1  2216698.79 2568.79
  -5   1  2216777.16 2487.75
  -5  -1  21 5335.51 1490.77
  -5   1  21 6203.39 1393.73
  -5  -1  20 -740.04  817.92
  -5   1  20 -820.49  767.32
  -5  -1  19 5064.59 1230.88
  -5   1  19 6787.45 1189.45
  -5  -1  18 2655.47  947.61
  -5   1  18 3108.96  863.36
  -5  -1  17 3544.71  970.17
  -5   1  17 2427.79 1059.97
  -5  -1  16 -142.65  709.45
  -5   1  16  868.14  672.81
  -5  -1  1514329.57 2056.58
  -5   1  1512776.19 1863.95
  -5  -1  14 1509.42  756.36
  -5   1  14 2005.87  720.11
  -5  -1  13 4418.77  991.53
  -5   1  13 4287.50  912.30
   5  -1 -1215132.11  789.74
  -5  -1  1220858.50 2318.38
  -5   1  1219574.53 2120.11
   5  -1 -11 7445.16  455.81
  -5  -1  1111196.70 1599.59
  -5   1  11 9107.97 1355.23
   5  -1 -1032655.58 1921.77
  -5  -1  1043398.46 4214.18
   5  -1  -918202.67 1897.53
   5  -1  -917046.17 1067.03
  -5  -1   920071.67 2244.81
   5   1  -8 4593.06  454.35
   5  -1  -8 7162.75  995.80
   5  -1  -8 6193.25  502.72
  -5  -1   8 6263.00 1055.28
   5  -1  -714730.96 1514.84
   5  -1  -713598.52  982.75
  -5  -1   714272.26 1693.49
   5  -1  -633825.58 3163.50
   5  -1  -629544.41 1956.88
  -5  -1   628630.90 3026.70
   5   1  -512154.18 2052.99
   5  -1  -517041.57 2028.76
   5   1  -514230.77 1106.35
   5  -1  -513627.47 1125.36
  -5  -1   514533.20 1793.26
   5   1  -4 1068.48  422.24
   5   1  -4 2259.46  780.74
   5  -1  -4 1940.51  545.00
   5  -1  -4 1931.31  426.78
  -5  -1   4 1496.03  635.24
   5   1  -3 -624.01  409.56
   5  -1  -3 -739.27  701.31
   5   1  -3  731.97  256.62
   5  -1  -3   12.44  442.06
   5  -1  -2 3400.66  605.73
   5   1  -2 3281.90  568.98
   5  -1  -2 2626.28  487.42
   5  -1  -1 2640.16  582.83
   5   1  -1  708.24  388.67
   5   1  -1 2394.30  677.72
   5  -1  -1 2386.63  501.04
   5   1   0  167.55  486.27
   5  -1   0  508.26  457.46
   5   1   0  271.96  536.33
   5  -1   0  250.85  561.72
   5   1   1 3884.22  581.22
   5  -1   1 5853.57  749.03
   5   1   1 3769.73  680.67
   5  -1   1 5652.84  758.36
   5  -1   2  568.92  412.27
   5   1   2 1662.10  443.92
   5   1   2  666.29  428.06
   5  -1   2 1085.74  424.57
   5   1   3  971.86  461.46
   5  -1   3  692.93  353.76
   5   1   3  199.70  368.04
   5  -1   3  774.12  457.91
   5   1   424155.46 2047.98
   5  -1   423447.22 1862.03
   5   1   424250.75 1901.32
   5  -1   422592.89 2020.25
   5   1   5 4389.13  808.42
   5   1   5 5736.63  650.40
   5  -1   5 5738.11  591.31
   5  -1   5 6040.80  868.19
   5  -1   6 6334.56 1008.64
   5   1   6 8605.44 1158.47
   5   1   6 5938.19  629.60
   5  -1   6 7866.47  871.54
   5  -1   7  200.71  578.25
   5   1   7-1182.99  584.77
   5   1   7  296.12  289.09
   5  -1   7  150.20  266.75
   5  -1   8 1722.00  656.70
   5  -1   8  840.02  311.33
   5   1   8 1817.44  744.27
   5   1   8 1738.98  347.46
   5  -1   9 2331.41  806.64
   5   1   9 1430.15  840.21
   5   1   9 1879.02  333.82
   5  -1   9 1955.49  439.40
   5  -1  1012487.98 1755.47
   5   1  1011535.47 1671.77
   5   1  1013300.67  970.19
   5  -1  1014123.53 1154.96
   5   1  11   30.83  758.43
   5   1  11  -56.86  195.93
   5  -1  11 1185.56  403.84
   5  -1  11 -111.74  719.77
   5  -1  12 1147.96  743.81
   5   1  12 -823.22  755.54
   5  -1  12  403.39  430.53
   5   1  12  187.92  224.44
   5  -1  13 9099.18 1033.19
   5   1  13 6669.21 1248.33
   5  -1  13 8183.67  911.07
   5   1  13 5492.42  584.40
   5  -1  1426793.54 3171.52
   5   1  1427704.63 3295.44
   5  -1  1424882.58 2471.82
   5  -1  15 9757.49 1620.96
   5   1  15 7220.98 1474.04
   5  -1  15 7220.39  988.20
   5   1  16  156.19  811.98
   5  -1  16  519.07  851.65
   5  -1  16  466.32  476.40
   5  -1  17 3051.52  582.61
   5  -1  17 3407.36 1063.63
   5   1  17 2724.88 1080.74
   5  -1  18 6975.19 1342.49
   5   1  18 5086.60 1219.24
   5  -1  19  575.73  829.22
   5   1  19 2561.75  973.14
   5  -1  2011003.44 1715.73
   5   1  20 8955.53 1804.70
   5  -1  2118952.46 2696.32
   5   1  2123114.26 3045.53
   5  -1  22 1339.35  560.37
   5   1  22 1055.59  930.59
   5  -1  23  640.87  839.15
   5   1  23  376.49  945.52
   5  -1  24 6173.69 1245.25
   5   1  24 6404.17 1352.40
   5  -1  25 1075.73  951.17
   5   1  25 1568.55  758.72
   5  -1  26 2910.49 1146.70
   5   1  26 2065.48 1289.88
   5  -1  27  419.99  933.50
   5   1  27-1487.52 1165.31
   5  -1  28  929.40 1032.82
   5   1  28  822.87 1296.73
   5   1  29 3604.22 1278.88
   5  -1  29-1473.29 1028.25
   5  -1  30 4041.05 1459.50
   5   1  30 7926.70 1938.69
   5  -1  31 -784.64 1130.96
   5   1  31 -560.45 1602.81
   5  -1  32 3883.61 1835.91
   5   1  32 7373.72 2227.05
   5  -1  33 2412.14 1758.28
   5   1  33 1959.12 1937.00
   5   1  34 4632.10 2176.50
   5  -1  34 4161.16 1838.30
   5  -2 -34 1563.29  947.34
  -5  -2  34 -560.66  900.80
   5  -2 -33 -975.79  523.69
  -5  -2  33  895.17  938.03
   5  -2 -32  727.04  527.11
  -5  -2  32 1132.41  950.65
  -5  -2  31 1739.13 1331.07
  -5  -2  30 4186.49 1096.70
  -5   2  30 2266.03  980.41
  -5  -2  29 -142.48  839.60
  -5   2  29  379.21  799.63
  -5  -2  28 1680.78  869.90
  -5   2  28-1448.18  766.42
  -5  -2  27 2523.28  933.47
  -5   2  27 1165.66 1261.20
  -5  -2  26  356.63  883.48
  -5   2  26  335.80  770.01
  -5  -2  25 3708.61 1274.22
  -5   2  25 6825.48 1327.16
  -5  -2  24 1988.05  899.20
  -5   2  24  386.77  864.66
  -5  -2  23 2240.64  888.04
  -5   2  23 -736.99  778.46
  -5  -2  22 4790.13 1290.23
  -5   2  22 6700.62 1218.17
  -5  -2  21  732.87  835.13
  -5   2  21 1894.14  864.11
  -5  -2  20 8111.69 1618.07
  -5   2  20 8270.55 1524.07
  -5  -2  19-1244.30  850.07
  -5   2  19 -755.94  788.58
  -5  -2  1821270.08 2815.28
  -5   2  1817923.00 2464.46
  -5  -2  17 8946.27 1702.75
  -5   2  1713935.64 1956.54
   5  -2 -16  -41.59  392.40
  -5  -2  16 3483.54  938.31
   5  -2 -15 4609.25  699.72
  -5   2  15 2800.08  390.87
  -5  -2  15 6407.61 1161.28
   5  -2 -14  941.57  634.60
  -5  -2  14  293.29  721.63
  -5   2  14  149.84  309.89
   5  -2 -13 3071.37  813.75
  -5   2  13  831.20  347.32
  -5  -2  13 2668.89 1209.79
   5  -2 -12 4183.36  785.36
  -5  -2  12 3656.41  884.17
   5  -2 -11 4873.63  934.72
  -5  -2  11 5401.12 1090.77
   5  -2 -1061828.88 6508.18
  -5   2  1058106.83 4980.67
  -5  -2  1056630.37 6607.51
   5  -2  -923936.36 2597.76
  -5  -2   919000.77 2855.39
  -5   2   920812.74 1811.47
   5  -2  -8 1412.74  730.07
  -5   2   8 1561.78  438.04
  -5  -2   8 1195.84  762.40
   5  -2  -7 3985.03  880.15
  -5   2   7 3697.73  549.10
  -5  -2   7 5610.51  975.42
   5   2  -6 8348.53 1119.84
   5   2  -6 9271.79 1352.81
   5  -2  -617058.95 1957.83
  -5   2   615007.09 1320.08
  -5  -2   615649.84 2038.59
   5   2  -5 9633.17  897.39
   5  -2  -515898.46 1629.87
  -5   2   515375.49 1393.80
  -5  -2   515117.97 1594.50
   5  -2  -4 2123.74  678.56
   5   2  -4 2543.08  565.62
   5   2  -4 1066.58  644.28
  -5   2   4 2543.83  571.45
  -5  -2   4 2749.58  696.76
   5  -2  -3 3828.02  732.63
   5   2  -3 4313.15  787.04
  -5  -2   3 4358.57  760.38
  -5   2   3 1665.00  525.77
   5   2  -210038.78  995.27
   5  -2  -212130.95 1495.67
  -5   2   211012.67 1366.13
  -5  -2   210309.13 1132.23
   5   2  -1  -95.40  445.08
   5  -2  -1 1265.20  559.60
  -5   2   1  642.29  576.06
  -5  -2   1    8.83  435.90
   5   2   031188.04 2541.10
   5   2   032167.51 2502.57
   5  -2   031389.24 2800.04
   5  -2   153822.54 5275.91
   5   2   151667.36 4388.46
   5   2   159393.36 4888.61
   5  -2   156792.51 4849.55
   5   2   2  602.03  451.98
   5  -2   2  691.55  467.23
   5   2   2 1085.77  460.00
   5  -2   2  525.63  405.64
   5  -2   3 2948.41  463.56
   5   2   3 2804.23  593.86
   5  -2   3 1899.67  464.30
   5   2   3 2490.41  462.71
   5   2   4 3245.34  525.33
   5  -2   4 3632.23  561.58
   5   2   4 2255.61  628.81
   5  -2   4 3274.85  642.40
   5   2   535744.67 3468.20
   5  -2   534652.32 3064.56
   5   2   538532.43 2995.37
   5  -2   537526.97 3392.60
   5   2   6 8339.51  767.23
   5   2   6 8419.23 1554.93
   5  -2   610841.20 1107.92
   5  -2   6 9117.31 1290.69
   5   2   734712.89 2544.79
   5   2   741178.89 4105.25
   5  -2   740600.65 4234.12
   5  -2   738321.55 3015.27
   5  -2   8 8945.93  964.70
   5   2   8 9118.99  694.27
   5   2   810723.16 1497.43
   5  -2   8 9285.14 1394.69
   5   2   9 5872.74  565.80
   5   2   9 6278.42 1237.80
   5  -2   9 6793.53  705.19
   5  -2   9 5743.68  981.77
   5   2  10 1404.18  184.91
   5  -2  10  564.61  457.82
   5   2  10 2366.48  931.64
   5  -2  10  870.17  717.50
   5  -2  11 9917.48 1561.27
   5   2  11 9163.35 1587.66
   5  -2  11 8644.11 1024.45
   5  -2  1227938.31 3404.76
   5   2  1230523.14 3757.67
   5  -2  1227827.51 2644.38
   5  -2  13 5424.46 1053.50
   5   2  13 4456.06  740.30
   5  -2  13 4711.70  757.12
   5  -2  14 9035.20 1335.01
   5   2  14 8426.60 1514.65
   5  -2  14 8078.32 1217.42
   5  -2  1527038.90 3277.05
   5  -2  1529083.24 3150.64
   5   2  1526515.22 3305.72
   5   2  1615663.59 2393.33
   5  -2  1616667.85 2142.99
   5  -2  1613705.86 1895.21
   5  -2  17 6172.97 1074.72
   5   2  17 6518.14 1387.92
   5  -2  17 4934.26  868.98
   5  -2  18  578.96  521.44
   5   2  18  958.20  940.78
   5  -2  18  -85.96  688.83
   5  -2  19 3934.01 1020.34
   5   2  19 6206.54 1441.79
   5  -2  20  443.41  823.17
   5   2  20  255.05 1119.34
   5  -2  2122973.46 2931.86
   5   2  2121284.56 3191.59
   5  -2  22 3394.76  964.90
   5   2  22 4835.38 1524.62
   5  -2  23 6107.86 1310.64
   5   2  23 5651.64  932.85
   5  -2  24  665.21  828.52
   5   2  24  -35.39 1133.97
   5  -2  25 -272.38  842.70
   5   2  25 -791.12 1100.90
   5  -2  26 7889.63 1672.44
   5   2  26 9863.08 2003.11
   5  -2  27 7803.96 1532.36
   5   2  27 8180.35 2077.48
   5  -2  28 2601.70 1105.06
   5   2  28 3298.79 1630.81
   5  -2  29 1035.13 1143.11
   5   2  29 1465.84  984.98
   5  -2  30  940.51 1109.14
   5   2  30   16.28 1538.24
   5  -2  31 2436.76 1320.25
   5   2  31 4299.45 1864.63
   5  -2  32 1129.54 1241.16
   5   2  32 -124.46 1716.31
   5  -2  33 2510.51 1292.08
   5   2  33  113.62 1063.67
   5  -2  34-1112.63 1547.81
   5  -3 -34 -262.62 1303.94
  -5  -3  34  515.47  934.30
   5  -3 -33 1020.83  946.87
  -5  -3  33 -184.64  921.73
   5  -3 -32 1662.61  989.14
  -5  -3  32 2788.75 1037.55
   5  -3 -31 1711.06 1275.93
  -5  -3  31 1067.69  936.81
   5  -3 -30 -532.21  859.48
  -5  -3  30-1583.09  799.98
   5  -3 -29 1825.05  909.11
  -5  -3  29  575.14  889.52
   5  -3 -28  741.87  815.00
  -5  -3  28  289.10  868.62
   5  -3 -27 7806.80 1477.59
  -5  -3  27 3736.90 1197.75
   5  -3 -26 1740.82  839.98
  -5  -3  26  -13.03  936.37
   5  -3 -25  340.50  813.11
  -5  -3  25 1451.70  921.50
   5  -3 -24 -497.30  745.16
  -5  -3  24  444.02  930.98
   5  -3 -23  465.86  793.46
  -5  -3  23  457.89  893.46
   5  -3 -2213451.02 1852.62
  -5  -3  22 9539.10 1803.91
   5  -3 -2138399.49 4346.04
  -5  -3  2132008.65 4931.71
   5  -3 -20 1414.19  862.10
  -5  -3  20  702.41  855.60
   5  -3 -19 3025.63  825.44
  -5  -3  19 3518.36 1062.94
   5  -3 -18 5870.45 1169.72
  -5  -3  18 3444.10 1599.28
   5  -3 -17 9992.43 1597.30
  -5  -3  1710022.26 2039.30
   5  -3 -16 3987.42  905.15
  -5   3  16 1311.01  931.09
  -5  -3  16 4083.66  984.10
   5  -3 -15  544.43  702.84
  -5  -3  15 2640.93 1191.93
  -5   3  15 1612.23  784.22
   5  -3 -14 7973.67 1225.88
  -5   3  14 7030.35 1362.31
  -5  -3  14 7673.82 1475.71
   5  -3 -13  277.55  631.13
  -5   3  13  978.08  784.36
  -5  -3  13 -950.14  824.62
   5  -3 -12 5241.16 1264.19
  -5   3  12 4053.12 1125.91
  -5  -3  12 4680.65 1038.33
   5  -3 -1145956.74 4952.33
  -5   3  1153600.81 5538.95
  -5  -3  1143462.40 5376.76
   5  -3 -10 4157.33 1132.58
  -5   3  10 5027.39  949.33
  -5  -3  10 3106.79 1015.51
   5  -3  -9 3684.56  883.17
  -5   3   9 4114.45  938.29
  -5  -3   9 3070.10  917.30
   5  -3  -825417.58 2801.59
  -5   3   827714.00 3083.38
  -5  -3   823198.22 2785.89
   5  -3  -762963.00 6816.60
  -5   3   761228.32 5960.72
  -5  -3   762001.22 6947.54
   5  -3  -6    1.56  691.88
   5   3  -6  179.28  348.51
  -5   3   6  306.51  486.40
  -5  -3   6  441.77  591.49
   5  -3  -5  561.70  606.03
   5   3  -5   13.03  248.59
  -5   3   5  643.11  707.92
  -5  -3   5  631.94  618.89
   5   3  -4 1169.65  369.22
   5  -3  -4 3866.80  707.60
  -5   3   4 2579.51  801.83
  -5  -3   4 2467.38  693.73
   5   3  -313441.77 2316.91
   5  -3  -313441.43 1471.73
  -5   3   312329.26 1507.69
  -5  -3   311867.58 1687.36
   5   3  -2 5560.35 1030.92
   5  -3  -2 7822.08 1060.37
  -5   3   2 8360.73 1096.10
  -5  -3   2 6076.64 1119.23
   5  -3  -1 8378.68 1472.97
   5   3  -1 9755.69 1151.11
  -5   3   1 8499.32 1272.04
  -5  -3   1 7651.24 1204.81
   5  -3   0 -445.52  486.39
   5   3   0  -82.25  492.14
  -5   3   0  -50.01  480.98
  -5  -3   0  827.02  573.93
   5   3   1 -575.68  531.69
   5  -3   1  448.70  473.05
  -5   3  -1 1145.44  547.39
  -5  -3  -1 -133.56  487.61
   5   3   2 3696.97  800.87
   5   3   2 4290.81  637.93
   5  -3   2 4583.79  648.47
  -5   3  -2 2292.21  759.98
   5   3   323587.38 2419.14
   5  -3   325112.16 2218.03
   5   3   324504.24 1923.15
  -5   3  -325822.34 2802.76
   5   3   4 1039.12  620.08
   5   3   4  316.29  360.12
   5  -3   4 1163.43  689.58
  -5   3  -4  623.60  651.95
   5   3   540712.80 4005.86
   5   3   540102.45 2900.82
   5  -3   541398.51 3624.22
   5  -3   532199.76 2876.62
   5   3   6 2328.47  867.23
   5   3   6 2681.36  424.43
   5  -3   6 3593.03  748.82
   5  -3   6 2831.04  738.56
   5  -3   7 9684.39 1191.72
   5   3   711223.77 1547.49
   5   3   7 8988.91  633.75
   5  -3   710527.03 1318.53
   5   3   8 6668.00 1196.70
   5  -3   8 5202.25  916.83
   5  -3   8 5369.39 1030.76
   5   3   928252.34 3433.48
   5  -3   926747.90 2480.98
   5  -3   928819.20 3387.91
   5  -3  1029981.74 2855.96
   5  -3  1032719.40 3305.93
   5   3  1033009.66 4335.11
   5   3  11 1181.35  975.22
   5  -3  11  853.16  453.40
   5   3  11   41.53  118.67
   5  -3  11 -884.48  663.32
   5   3  12 5779.96 1289.24
   5  -3  12 3414.46  642.41
   5  -3  12 5876.07 1087.52
   5   3  1316549.00 2488.73
   5  -3  1314674.46 1694.58
   5  -3  1312116.77 1839.38
   5   3  14 1986.04 1150.73
   5  -3  14 1280.19  678.92
   5  -3  14  435.53  785.41
   5  -3  1586918.5810379.51
   5   3  1594003.0812068.60
   5  -3  1584856.6510684.50
   5  -3  16  395.45  414.22
   5   3  16  658.72 1147.31
   5  -3  16 1031.64  741.97
   5   3  17  949.78 1137.75
   5  -3  17  803.33  445.95
   5  -3  17  340.03  707.06
   5  -3  18 7299.77 1186.20
   5   3  18 9815.64 1610.02
   5  -3  18 3826.65  986.40
   5  -3  19 2092.85  768.87
   5  -3  19  756.38  668.40
   5   3  19 4007.82 1319.35
   5  -3  20 8018.02 1436.06
   5   3  20 8081.62 1293.95
   5  -3  2111258.54 1787.78
   5   3  2113586.56 2235.13
   5  -3  22 3277.28 1035.68
   5   3  22 4459.78 1646.41
   5  -3  2310582.68 1616.07
   5   3  2311045.84 2414.04
   5  -3  24 3400.55 1070.97
   5   3  24 3885.16  977.84
   5  -3  25 6804.61 1316.98
   5   3  25 4734.74 1899.87
   5  -3  26  614.50  919.87
   5   3  26-1516.98 1362.00
   5  -3  27  763.53  862.77
   5   3  27 -574.24 1342.30
   5  -3  28 -480.10  951.25
   5   3  28 1915.45 1411.22
   5  -3  29 2499.06  757.76
   5   3  29 4137.39 1101.23
   5  -3  30 1782.67 1101.34
   5   3  30  786.14 1935.57
   5  -3  31 4430.19 1380.63
   5   3  31 4605.01 2448.30
   5  -3  32-1137.30 1145.71
   5   3  32 2195.84 2058.29
   5  -3  33 1429.44 1270.59
   5   3  33  350.22 2094.15
   5  -4 -33 2516.38 1079.28
  -5  -4  33 2167.60 1049.28
   5  -4 -32 -877.72  908.60
  -5  -4  32 -627.44  988.69
   5  -4 -31 2866.57 1403.11
  -5  -4  31 2425.92 1118.18
   5  -4 -30  641.27  887.48
  -5  -4  30 1488.06  945.82
   5  -4 -29 3804.69 1079.86
  -5  -4  29 4535.83 1212.84
   5  -4 -28 -233.92  805.80
  -5  -4  28-2282.38  913.79
   5  -4 -27 -175.36  786.58
  -5  -4  27  838.26  878.76
   5  -4 -26-1053.68  773.99
  -5  -4  26 2759.81 1012.63
   5  -4 -2513862.27 2031.55
  -5  -4  2510742.60 1990.25
   5  -4 -24  519.76  823.84
  -5  -4  24  614.75  972.40
   5  -4 -23 5259.69 1067.04
  -5  -4  23 2472.45 1299.92
   5  -4 -22 4257.80  953.39
  -5  -4  22 2777.15 1095.52
   5  -4 -2155876.29 6325.24
  -5  -4  2143909.49 6633.22
   5  -4 -20 5896.81 1073.34
  -5  -4  20 3766.13 1209.43
   5  -4 -19 3157.72  972.01
  -5  -4  19 3993.13 1123.07
   5  -4 -18  634.42  784.51
  -5  -4  18  150.08 1186.91
   5  -4 -17 4043.06  860.19
  -5  -4  17 4233.52 1040.12
   5  -4 -16 5991.04 1433.59
  -5  -4  16 7582.98 1402.51
   5  -4 -15 6164.51 1046.37
  -5   4  15 3584.13 1507.83
  -5  -4  15 5808.16 1223.67
   5  -4 -14 -143.96  621.61
  -5   4  14 -521.44 1124.00
  -5  -4  14  272.80  835.93
   5  -4 -1331734.20 3283.77
  -5   4  1332444.87 4224.73
  -5  -4  1331301.25 4015.05
   5  -4 -12  187.37  702.19
  -5   4  12  265.90 1007.89
  -5  -4  12  -55.43  849.86
   5  -4 -1110855.10 1507.44
  -5   4  1110481.90 2097.60
  -5  -4  11 9487.13 1749.14
   5  -4 -10 1194.43  692.93
  -5   4  10 1164.95 1134.15
  -5  -4  10  -60.01  812.35
   5  -4  -915148.30 1889.24
  -5   4   922235.17 2695.79
  -5  -4   915302.78 2080.31
   5   4  -8   87.71  211.49
   5  -4  -8  491.00  677.97
  -5   4   8-1214.18  619.21
  -5  -4   8  137.87  713.46
   5  -4  -7 4977.27 1001.35
  -5   4   7 4955.39 1063.63
  -5  -4   7 5401.34 1250.20
   5  -4  -614259.16 2061.40
  -5   4   615559.98 2028.21
  -5  -4   614145.00 1771.98
   5  -4  -5 9688.40 1433.65
  -5   4   514876.84 1989.02
  -5  -4   510187.54 1463.66
   5  -4  -413622.95 1562.75
  -5   4   4 8697.40 1386.50
  -5  -4   4 9450.60 1358.17
   5  -4  -359151.52 6281.07
  -5   4   367079.48 7122.18
  -5  -4   364296.86 6612.25
   5  -4  -217534.33 1934.17
  -5   4   222245.61 2591.49
  -5  -4   217955.43 1881.82
   5  -4  -1  540.51  577.37
   5   4  -1  550.85  990.34
  -5   4   1  989.70  844.27
  -5  -4   1 1512.53  704.89
   5   4   0 5078.21 1458.77
   5  -4   0 5398.16  834.26
  -5   4   0 5290.19 1018.62
  -5  -4   0 4199.83  625.79
   5  -4   1102552.011602.00
   5   4   1157410.419484.58
  -5   4  -1107011.012735.58
  -5  -4  -195099.1310526.48
   5   4   218690.48 2573.36
   5  -4   223037.24 2181.13
  -5   4  -219327.56 2167.82
  -5  -4  -219254.77 1776.04
   5   4   3   42.09  774.82
   5  -4   3  295.86  572.03
  -5   4  -3  -67.22  570.13
  -5  -4  -3  745.44  418.89
   5   4   413407.68 1905.20
   5   4   413516.08 1208.49
   5  -4   414777.17 1552.93
  -5   4  -411069.09 1449.54
   5   4   527890.30 3198.48
   5   4   528493.01 2054.53
   5  -4   530240.16 2837.93
  -5   4  -529026.06 3318.55
   5  -4   6 5053.37  970.49
   5   4   6 4752.97  438.11
   5   4   6 5661.63 1277.42
  -5   4  -6 5976.55 1021.69
   5  -4   721750.85 2040.72
   5   4   724028.16 3509.76
   5   4   721905.46 1460.00
  -5   4  -722912.64 2974.05
   5  -4   812735.78 1573.51
   5   4   815196.97 2208.23
   5   4   9 2462.53 1160.18
   5  -4   9 1640.01  574.03
   5  -4   9 1898.39  721.50
   5   4  10  768.47 1088.43
   5  -4  10  443.81  457.58
   5  -4  10 1958.08  750.70
   5  -4  1135585.18 3823.97
   5   4  1138973.35 5131.48
   5  -4  1137533.20 4181.54
   5   4  12  745.16 1203.58
   5  -4  12  406.46  756.88
   5  -4  12  379.84  601.21
   5   4  13 8594.30 1967.39
   5  -4  13 7708.88 1062.96
   5  -4  13 8692.98 1373.68
   5   4  14 1597.82 1334.40
   5  -4  14  171.87  748.78
   5  -4  14  478.98  731.36
   5   4  15 1683.14 1344.70
   5  -4  15 1589.07  901.91
   5  -4  15  655.85  736.16
   5   4  16 1875.25 1353.99
   5  -4  16 -907.63  577.22
   5  -4  16  385.44  680.66
   5   4  17 3723.75  881.08
   5  -4  17  898.02  888.42
   5  -4  17 1843.96  804.23
   5  -4  18 7918.37 1056.99
   5   4  18 8796.61 1865.39
   5  -4  18 1437.13  969.98
   5  -4  1932469.51 3333.85
   5  -4  1925475.25 3468.61
   5   4  1936866.21 5022.78
   5  -4  2015184.97 2091.70
   5  -4  2015068.40 2105.86
   5   4  2021437.64 3467.12
   5  -4  21 1426.59  817.00
   5   4  21 2724.82 1523.96
   5  -4  2211009.43 1725.17
   5   4  2215100.88 2689.75
   5  -4  23 5277.60 1036.17
   5   4  23 7996.77 2011.31
   5  -4  24 2280.52  821.86
   5   4  24 1054.71 1529.87
   5  -4  25 -370.24  848.16
   5   4  25 1449.82 1526.04
   5  -4  26   75.84  857.82
   5   4  26 -446.97 1528.12
   5  -4  2711368.36 1775.69
   5   4  27 8903.78 2284.91
   5  -4  28 -472.64  892.66
   5   4  28  971.82 1584.95
   5  -4  29  989.64 1108.77
   5   4  29 1290.56 1607.24
   5  -4  30-1774.06 1046.34
   5   4  30 3607.59 1605.98
   5  -4  31 -323.59 1176.29
   5   4  31 2687.33 1674.59
   5  -4  32   -6.68 1197.35
   5   4  32  495.71 1536.42
   5  -4  33 1305.38 1236.62
   5   4  33 2587.76 1782.60
   5  -5 -33 3527.97 1075.16
  -5  -5  33  775.67 1194.44
   5  -5 -32 1314.11  907.80
  -5  -5  32  551.90 1018.31
   5  -5 -31 1757.21  927.58
  -5  -5  31 1384.62 1046.19
   5  -5 -30 1419.82 1134.89
  -5  -5  30  289.41  923.93
   5  -5 -29  138.64  824.00
  -5  -5  29 1807.87  976.36
   5  -5 -28 3419.36  973.80
  -5  -5  28  978.24 1085.76
   5  -5 -27 1444.98  874.74
  -5  -5  27 1590.99  984.87
   5  -5 -26   31.45  789.53
  -5  -5  26 -701.03  903.56
   5  -5 -25   43.56  770.18
  -5  -5  25  910.28  908.78
   5  -5 -24 -258.10  785.54
  -5  -5  24 -235.62  868.62
   5  -5 -23 2183.13 1063.65
  -5  -5  23  254.56  986.30
   5  -5 -22 4707.32  937.90
  -5  -5  22 4240.26 1107.82
   5  -5 -2117054.57 2438.23
  -5  -5  2119931.09 3044.97
   5  -5 -20 3061.16  939.03
  -5  -5  20 3073.89 1106.23
   5  -5 -19 1001.38  779.57
  -5  -5  19  907.46  922.95
   5  -5 -18 2510.94  872.43
  -5  -5  18 1341.94  954.13
   5  -5 -17 7443.25 1380.79
  -5  -5  1710130.32 1669.26
   5  -5 -16 3788.26  918.24
  -5  -5  16 2122.16 1040.99
   5  -5 -15  639.90  722.74
  -5  -5  15  389.19  873.64
   5  -5 -14  834.06  709.86
  -5  -5  14 1687.90  939.55
   5  -5 -13  198.46  705.49
  -5   5  13   48.81 1461.17
  -5  -5  13  332.69  825.01
   5  -5 -12 6665.94 1121.53
  -5   5  12 5165.09 2023.18
  -5  -5  12 3993.19 1277.89
   5  -5 -1112629.64 1758.65
  -5   5  1115314.58 2371.47
  -5  -5  1111749.93 2000.01
   5  -5 -10 4800.58 1048.98
  -5   5  10 4708.26 1623.71
  -5  -5  10 4468.10 1103.06
   5  -5  -9 4084.25  881.00
  -5   5   9 2029.72 1322.47
  -5  -5   9 4803.80 1448.62
   5  -5  -8 4433.98 1281.93
  -5   5   8 5634.39 1293.58
  -5  -5   8 1393.71  949.96
   5  -5  -713899.80 1815.32
  -5   5   717949.86 2832.06
  -5  -5   713042.41 1931.96
   5  -5  -6   -8.96  644.19
  -5   5   6 -893.17  802.41
  -5  -5   6 -635.71  666.85
  -5  -5   6  132.52  152.65
   5  -5  -536102.11 3853.77
  -5   5   543704.27 5211.67
  -5  -5   535985.38 3868.42
   5  -5  -4  358.69  665.66
  -5   5   4 -610.40  852.27
  -5  -5   4 -742.01  903.83
   5  -5  -3 8657.26 1337.68
  -5   5   311907.44 2059.32
  -5  -5   310817.09 1736.91
   5  -5  -279028.30 8601.16
  -5   5   286517.9211169.65
  -5  -5   275523.28 8200.43
   5  -5  -1116801.813326.65
  -5   5   1109644.314609.10
  -5  -5   1123201.813905.63
   5  -5   0 4665.98  857.04
  -5   5   0 6502.02 1541.47
  -5  -5   0 4447.89  792.68
   5  -5   1  148.18  890.30
  -5   5  -1 1931.04  923.68
  -5  -5  -1  560.77  598.20
   5  -5   220390.46 2235.94
  -5   5  -222517.23 2673.49
  -5  -5  -221182.96 2059.68
   5   5   318517.31 4293.11
   5  -5   323842.17 2531.53
  -5  -5  -325904.81 2179.69
  -5   5  -326188.21 3127.02
   5   5   429144.17 5211.70
   5  -5   430843.39 3110.14
  -5   5  -429871.25 3459.09
  -5  -5  -426564.49 2328.01
   5  -5   573167.31 6570.98
   5   5   547566.40 3552.17
   5   5   589241.2512345.59
  -5   5  -564333.78 6961.50
   5  -5   6  819.47  662.23
   5   5   6 4547.95 2333.05
  -5   5  -6 1450.25  407.19
   5   5   7 3767.31  333.09
   5  -5   7 2663.62  734.62
   5   5   7 2767.18 1410.62
  -5   5  -7 4614.05  990.13
   5   5   8  561.90 1211.92
   5  -5   8 1964.83  806.37
   5   5   8  803.60  132.67
  -5   5  -8 1615.20  815.75
   5   5   915153.18 2749.79
   5  -5   921822.82 2353.21
  -5   5  -917694.59 2302.90
   5   5  10 2087.24 1529.23
   5  -5  10 3477.07  631.01
  -5   5 -10 3267.58  599.03
   5   5  11 1109.86 1313.17
   5  -5  11  602.32  397.03
   5  -5  11 2138.21  790.48
   5   5  12 3620.26 1808.77
   5  -5  12 5616.82  937.75
   5  -5  12 5924.13 1127.22
   5   5  1317073.82 2880.91
   5  -5  1312398.39 1480.79
   5  -5  13 9381.41 1433.36
   5   5  1445442.34 5397.95
   5  -5  1438413.49 4345.69
   5  -5  1435440.84 4172.44
   5   5  1519241.92 2490.66
   5  -5  1512522.98 1704.39
   5  -5  1513576.14 1855.33
   5   5  16 8839.04 1632.99
   5  -5  16 5918.22 1106.92
   5  -5  16 8421.59 1275.57
   5  -5  1715641.86 2402.09
   5  -5  1713881.03 1952.86
   5   5  1719637.57 2635.55
   5   5  18 7204.73 1874.32
   5  -5  18 1749.06  997.96
   5  -5  18 2796.39  918.17
   5   5  19  836.62 1512.70
   5  -5  19 -484.72  585.71
   5  -5  19  638.04  397.25
   5  -5  20 1189.54  674.90
   5   5  20 2584.33 1804.98
   5  -5  20 1250.73  740.64
   5  -5  21 1246.15  692.56
   5  -5  21 -489.95  556.25
   5   5  21 1308.53 1606.86
   5  -5  22  593.27  747.30
   5   5  22 1069.75 1010.23
   5  -5  2313581.50 1831.50
   5   5  2312942.18 3013.34
   5  -5  24 5914.52 1202.72
   5   5  24 6069.17 2129.80
   5  -5  25 1099.52  879.88
   5   5  25 1731.23 1637.67
   5  -5  26  103.35  761.25
   5   5  26 -447.40 1430.52
   5  -5  27-1546.78  938.66
   5   5  27 1347.62 1601.24
   5  -5  28  -75.51 1078.81
   5   5  28 -859.50 1519.74
   5  -5  29 3007.52  891.71
   5   5  29 6859.51 3415.22
   5  -5  30 2045.34 1280.75
   5   5  30 3663.39 3257.29
   5  -5  31 3384.48 1293.38
   5   5  31 2744.59 2050.73
   5  -5  32 2623.71 1228.09
   5   5  32-1610.62 3141.88
   5  -5  33   56.06 1120.40
   5  -6 -32  778.62  778.23
  -5  -6  32 -791.08  917.70
   5  -6 -31 1171.05  829.50
  -5  -6  31  249.96  995.22
   5  -6 -30 6821.97 1220.80
  -5  -6  30 2505.92 1254.07
   5  -6 -29 2717.91 1166.37
  -5  -6  29  222.84 1043.28
   5  -6 -28  243.34 1040.92
  -5  -6  28 -183.64  933.79
   5  -6 -27 4376.84 1265.07
  -5  -6  27  317.82 1018.11
   5  -6 -26 9002.42 1638.64
  -5  -6  26 4776.50 1291.46
   5  -6 -25 6319.44 1335.56
  -5  -6  25 2049.87 1052.92
   5  -6 -24 3676.50  941.22
  -5  -6  24 3652.76 1598.60
   5  -6 -23 2670.29  989.14
  -5  -6  23 3966.74 1315.53
   5  -6 -22  265.70  700.40
  -5  -6  22 -122.72  852.47
   5  -6 -21 -594.87  738.33
  -5  -6  21 -412.85  930.89
   5  -6 -2021655.38 2711.15
  -5  -6  2021893.32 3343.87
   5  -6 -19 1401.41  769.37
  -5  -6  19 1885.99 1005.36
   5  -6 -1811884.92 1640.84
  -5  -6  18 8006.32 1762.40
   5  -6 -17 1058.60 1034.38
  -5  -6  17  435.83  956.23
   5  -6 -16 7789.71 1370.89
  -5  -6  1611163.95 2084.71
   5  -6 -1521502.54 2828.26
  -5  -6  1524356.05 3702.30
   5  -6 -14 2179.06  696.46
  -5  -6  14 2277.94  959.04
   5  -6 -13 6269.06 1059.97
  -5  -6  13 1786.07 1096.03
   5  -6 -12 3164.47  863.87
  -5  -6  12 2027.39 1131.77
  -5   6  12 1855.61 1513.86
   5  -6 -11  531.34  657.88
  -5   6  11 1444.61 1866.63
  -5  -6  11  413.38  871.32
   5  -6 -10 7408.17 1312.63
  -5   6  10 4066.71 2405.85
  -5  -6  10 5963.98 1284.85
   5  -6  -9  775.47  829.07
  -5   6   9  640.06 1768.29
  -5  -6   9 1037.88  860.12
   5  -6  -8 4821.25 1357.04
  -5  -6   8 5106.35 1156.82
  -5   6   8 4002.13 2240.53
   5  -6  -7 1933.00  782.85
  -5   6   7 2287.25 1902.00
  -5  -6   7 3852.01 1144.39
   5  -6  -6 1566.05  798.21
  -5   6   6 3479.56 1316.39
  -5  -6   6 2770.80  829.07
   5  -6  -5 7871.62 1280.83
  -5   6   516155.53 2415.89
  -5  -6   5 8739.52 1789.99
   5  -6  -4 5931.73 1059.86
  -5  -6   4 5836.25 1134.16
  -5   6   4 4134.81 1432.30
   5  -6  -312032.33 1536.65
  -5   6   312287.61 2317.19
  -5  -6   310984.30 1597.06
   5  -6  -211198.25 1505.15
  -5   6   211319.56 2244.62
  -5  -6   2 8915.81 1342.42
   5  -6  -1 6261.96 1068.74
  -5   6   1 3023.61 1635.72
  -5  -6   1 7630.48 1254.69
   5  -6   028696.48 3367.85
  -5   6   028300.43 4813.67
  -5  -6   027423.30 3049.54
   5  -6   126405.59 2781.32
  -5   6  -122777.39 3535.43
  -5  -6  -130639.86 3004.51
   5  -6   2 3410.00 1115.34
  -5   6  -2 1968.82 1047.21
  -5  -6  -2 3830.60  759.82
   5  -6   322215.96 2364.46
  -5  -6  -325430.15 2342.75
  -5   6  -322332.95 3379.18
   5  -6   4 -191.15  552.23
  -5   6  -4  764.60  758.99
  -5  -6  -4  230.08  415.26
   5  -6   5 8928.97 1460.47
  -5   6  -5 5466.48 1273.19
  -5  -6  -5 7424.62  762.02
   5  -6   6 8774.43 1126.89
  -5   6  -6 8376.32 1516.64
  -5  -6  -6 9266.73  786.21
   5   6   7-1503.88 1977.81
   5  -6   7  223.39  562.53
   5   6   7 -232.67  147.01
  -5   6  -7-1390.54  623.46
   5   6   8  922.30  179.34
   5   6   8  411.95 2258.61
   5  -6   8  505.64  580.77
  -5   6  -8 1650.00  744.85
   5   6   9 1154.52 2921.62
   5  -6   9 4011.16  751.53
  -5   6  -9 3766.90  683.45
   5   6  10  631.15 2663.19
   5  -6  10 2685.82  700.68
  -5   6 -10 1866.62  915.70
   5   6  11 2117.14 2520.46
   5  -6  11 1965.23  665.89
  -5   6 -11  856.62  470.59
   5   6  1219137.03 4778.38
   5  -6  1213488.72 2057.44
  -5   6 -1214196.70 2126.18
   5   6  1317306.42 4402.47
   5  -6  1312912.43 1836.85
  -5   6 -13 8262.95 1614.15
   5   6  14 3732.68 3268.97
   5  -6  14 6633.73 1429.51
   5  -6  14 5162.34  960.52
   5   6  15 4808.28 3012.67
   5  -6  15 2939.91 1226.95
   5  -6  15 3820.13  885.76
   5   6  16 2439.95 2821.31
   5  -6  16 -160.67 1025.31
   5  -6  16 1057.83  685.63
   5   6  17 5082.74 3226.54
   5  -6  17 2242.47 1183.67
   5   6  18 1259.32 3242.33
   5  -6  18 1745.39 1095.40
   5  -6  18 3772.45  929.55
   5   6  19 -118.24 2920.35
   5  -6  19 1415.48  722.47
   5  -6  19   42.59  986.24
   5  -6  20 2115.72  956.79
   5   6  20 -164.21 2931.62
   5  -6  20 -600.31  706.88
   5  -6  21 5761.84 1196.49
   5   6  21 2309.25 3404.28
   5  -6  21 2556.86  867.30
   5  -6  22  224.81  637.37
   5   6  22 3896.34 3138.03
   5  -6  22  944.42  457.80
   5  -6  23   20.82  729.43
   5   6  23  848.22 2914.18
   5  -6  24 4261.94 1098.67
   5   6  24 7266.80 3685.68
   5  -6  25-1245.59  804.25
   5   6  25 4257.59 2936.88
   5  -6  26 2237.12  964.81
   5   6  26-4705.63 3094.25
   5  -6  27 2001.60  982.36
   5   6  27-1868.14 3070.05
   5  -6  28 2182.55 1058.12
   5   6  28-5153.85 2908.31
   5  -6  29  333.61 1182.95
   5   6  29 2058.57 2943.51
   5  -6  30  -17.05 1117.61
   5   6  30   93.50 2797.39
   5  -6  31  275.09 1224.65
   5   6  31  209.77 2962.82
   5  -6  32 2823.98 1432.54
   5   6  32 5023.74 3541.45
   5  -7 -32 2629.27  964.48
   5  -7 -31  261.60  780.94
  -5  -7  31  -20.96  973.32
   5  -7 -30 -458.07  717.80
  -5  -7  30  428.18 1025.29
   5  -7 -29  879.83  782.14
  -5  -7  29 1930.91 1040.84
   5  -7 -2810342.32 1532.13
  -5  -7  28 2707.93 1347.31
   5  -7 -27  580.27  716.13
  -5  -7  27  748.99  980.47
   5  -7 -26  624.73  708.60
  -5  -7  26   78.78 1304.60
   5  -7 -25 1380.91  799.73
  -5  -7  25    6.01 1006.77
   5  -7 -24 1189.11  799.77
  -5  -7  24  887.56 1031.90
   5  -7 -23  114.94  998.12
  -5  -7  23  981.55 1011.61
   5  -7 -2243013.74 4979.87
  -5  -7  2244540.51 6401.28
   5  -7 -21 2613.78  833.65
  -5  -7  21 1632.97 1123.28
   5  -7 -20 4758.03 1350.95
  -5  -7  20 6323.68 1290.89
   5  -7 -19  234.48  739.60
  -5  -7  19  710.53  920.57
   5  -7 -1815035.18 2162.03
  -5  -7  1816411.52 3388.68
   5  -7 -17  259.34  725.19
  -5  -7  17  549.73  908.24
   5  -7 -1619977.14 2414.04
  -5  -7  1612517.91 2417.39
   5  -7 -15 7141.94 1214.06
  -5  -7  15 5435.87 1452.64
   5  -7 -14 2668.72 1242.64
  -5  -7  14 2964.67 1079.71
   5  -7 -13  235.04  743.95
  -5  -7  13 -787.82  953.27
   5  -7 -1214859.75 1923.97
  -5  -7  1211947.13 2159.84
   5  -7 -11-1430.68  958.24
  -5   7  11-1299.30 2065.49
  -5  -7  11 -321.98  866.67
   5  -7 -10 5110.57 1072.38
  -5   7  10 6568.99 2354.10
  -5  -7  10 6586.56 1313.59
   5  -7  -9  367.93  694.30
  -5   7   9 -462.57 1692.19
  -5  -7   9  594.82  757.68
   5  -7  -8 7831.03 1297.46
  -5   7   8 6905.97 2359.75
  -5  -7   8 6858.51 1225.10
   5  -7  -7  949.29  732.45
  -5   7   7  673.79 1502.47
  -5  -7   7  691.11  842.83
   5  -7  -695031.4111592.33
  -5   7   6102006.319148.51
  -5  -7   6103295.112933.55
   5  -7  -5 7152.10 1229.73
  -5   7   512106.42 2215.82
  -5  -7   5 8092.41 1153.59
   5  -7  -4   22.68  677.78
  -5   7   4 1399.05 1441.83
  -5  -7   4 1105.20  624.35
   5  -7  -3 -186.39  674.45
  -5   7   3 2811.42 1438.04
  -5  -7   3 -351.79  609.19
   5  -7  -2105560.413026.75
  -5   7   2111479.617418.16
  -5  -7   2123690.515032.42
   5  -7  -1 5588.03 1033.65
  -5   7   1 9683.04 2472.24
  -5  -7   1 8291.31 1198.40
   5  -7   016114.52 1966.29
  -5  -7   014459.33 1912.57
  -5   7   013266.55 2447.94
   5  -7   1 6037.01 1164.32
  -5   7  -1 6170.15 1810.69
  -5  -7  -1 8067.97 1213.79
   5  -7   2 6152.18  941.73
  -5   7  -2 6030.11 1666.19
  -5  -7  -2 4430.45  797.50
   5  -7   3   76.64  632.69
  -5   7  -3 2281.36 1031.18
  -5  -7  -3  457.83  530.57
   5  -7   491463.9110815.28
  -5   7  -499783.1614042.28
  -5  -7  -499203.56 9739.12
   5  -7   5  299.69  700.96
  -5   7  -5 1107.70 1110.15
  -5  -7  -5 1369.47  411.83
   5  -7   6 8725.91 1546.46
  -5   7  -6 7010.53 1531.02
  -5  -7  -610219.86  921.38
   5  -7   7 1446.72  728.14
  -5   7  -7 1980.95  864.53
   5  -7   812131.23 1556.74
  -5   7  -811777.92 1977.71
   5  -7   9 5544.48 1140.03
  -5   7  -9 4080.33 1037.75
   5  -7  1025021.69 2953.04
  -5   7 -1019246.25 2636.38
   5  -7  11 1698.64  824.43
  -5   7 -11 2969.99  616.68
   5  -7  12  358.32  788.12
  -5   7 -12  677.81  772.09
   5  -7  13  159.25  681.69
  -5   7 -13 1063.84  517.43
   5  -7  1413962.48 1755.81
  -5   7 -1412079.58 1856.13
   5   7  15 2099.79 3019.89
   5  -7  15 1768.53 1282.81
  -5   7 -15 2966.32  989.53
   5   7  16-1302.77 2692.62
   5  -7  16  -28.22 1185.76
   5  -7  16 1131.29  674.00
   5   7  17-5664.20 2639.95
   5  -7  17  448.44  861.56
   5  -7  17-1322.99  671.24
   5   7  18 4595.10 3470.93
   5  -7  18 5195.23 1381.32
   5  -7  18 7633.67 1298.90
   5   7  19 -986.73 2743.46
   5  -7  19  -45.11  705.00
   5  -7  19  131.38 1014.54
   5   7  20 2947.06 3507.92
   5  -7  20 5917.54 1083.05
   5  -7  20 4002.22 1368.64
   5  -7  21 2823.24  960.49
   5   7  21 7173.74 2173.77
   5  -7  21 2842.52  915.80
   5  -7  22-1096.78  986.26
   5   7  22 3330.97 3164.81
   5  -7  22-1753.19  809.21
   5  -7  23  774.02  941.34
   5   7  23 1481.22 3034.59
   5  -7  23 -118.22  788.53
   5   7  2417364.97 6644.28
   5  -7  2435915.41 4281.90
   5  -7  25  771.32  912.71
   5  -7  26 1857.95 1085.94
   5  -7  27  208.77  965.21
   5  -7  28  951.60 1162.66
   5  -7  29-1877.84 1323.90
   5  -7  30 4327.57 1689.04
   5  -7  31 -575.43 1470.04
   5  -7  32  123.25 1241.02
   5  -8 -31 2072.60 1040.77
  -5  -8  31 1296.36 1086.78
   5  -8 -30 2981.02  987.84
  -5  -8  30  824.91 1096.12
   5  -8 -29 3442.20  971.87
  -5  -8  29 4473.22 1791.01
   5  -8 -28 -633.72  735.51
  -5  -8  28 -141.42  972.57
   5  -8 -27   14.18  715.32
  -5  -8  27  896.26 1032.25
   5  -8 -26 3240.91  843.53
  -5  -8  26 4226.40 1272.58
   5  -8 -25 2226.34  802.78
  -5  -8  25 1704.78 1099.36
   5  -8 -24 6808.69 1176.84
  -5  -8  24 2956.30 1285.48
   5  -8 -23 -856.41  717.08
  -5  -8  23  251.21  963.65
   5  -8 -22 1168.37  754.08
  -5  -8  22  303.29 1026.49
   5  -8 -21  348.75  671.43
  -5  -8  21 -475.46 1031.71
   5  -8 -20 5144.76 1155.80
  -5  -8  20 6138.49 1454.79
   5  -8 -1916663.75 2299.12
  -5  -8  1913332.32 2568.94
   5  -8 -18 6449.59 1187.15
  -5  -8  18 4280.65 1228.25
   5  -8 -17 2536.16  834.73
  -5  -8  17 1194.86  997.38
   5  -8 -1615313.26 2177.67
  -5  -8  1615291.88 3241.48
   5  -8 -15-1982.80  786.63
  -5  -8  15-1265.09  921.11
   5  -8 -1435499.14 4140.97
  -5  -8  1429113.09 4358.13
   5  -8 -13 1551.80  782.16
  -5  -8  13 1005.81 1342.91
   5  -8 -12  490.01  685.41
  -5  -8  12  201.46  889.52
   5  -8 -11 1997.73  753.46
  -5  -8  11 -401.82  956.50
   5  -8 -1031592.19 3539.12
  -5   8  1026211.91 6801.65
  -5  -8  1032888.20 4581.20
   5  -8  -9 1789.32  757.36
  -5   8   9 2651.80 1909.57
  -5  -8   9 1634.83  902.60
   5  -8  -8  321.03  753.65
  -5   8   8 -333.64 1743.07
  -5  -8   8 1932.81  792.67
   5  -8  -7  553.71  702.18
  -5   8   7 5005.14 2414.22
  -5  -8   7 1306.33  793.68
   5  -8  -6 1009.34  808.49
  -5   8   6 2757.56 1806.20
  -5  -8   6 1026.34  904.77
   5  -8  -5 4440.12  956.45
  -5   8   5  -26.48 2153.30
  -5  -8   5 6109.36 1409.80
   5  -8  -4 5619.18 1016.51
  -5   8   4 7775.83 2205.62
  -5  -8   4 7085.51 1451.95
   5  -8  -3 3241.10  934.87
  -5   8   3 4286.94 1966.90
  -5  -8   3 3292.17  864.71
   5  -8  -210780.79 1611.36
  -5   8   216127.76 2881.77
  -5  -8   212118.83 1970.92
   5  -8  -1  200.49  707.78
  -5   8   1  253.60 1192.07
  -5  -8   1  838.55  801.45
   5  -8   029803.57 3564.56
  -5   8   026831.06 4863.45
  -5  -8   028707.20 3271.96
   5  -8   1 -722.18  668.90
  -5   8  -1  833.98 1405.33
  -5  -8  -1-1582.53  708.58
   5  -8   2 5029.49  950.11
  -5   8  -2 4046.57 1650.45
  -5  -8  -2 5579.71 1078.22
   5  -8   3 6667.40 1452.24
  -5   8  -3 6561.38 1856.59
  -5  -8  -3 6461.02 1076.63
   5  -8   4 -649.08  717.91
  -5   8  -4  200.24  734.51
  -5  -8  -4 -721.39  487.40
   5  -8   5 -583.29  654.60
  -5   8  -5-1694.57 1019.18
  -5  -8  -5 -374.38  422.50
   5  -8   6 8899.16 1560.02
  -5   8  -6 8806.85 1937.15
  -5  -8  -6 9984.28  990.74
   5  -8   7 4142.06  908.47
  -5   8  -7 4866.64  870.71
  -5  -8  -7 3767.68  520.49
   5  -8   8 -468.06  839.48
  -5  -8  -8 -148.13  155.02
  -5   8  -8-1316.55  765.70
   5  -8   910721.17 1520.00
  -5   8  -9 9712.68 1804.72
   5  -8  10 5469.77  932.50
  -5   8 -10 3859.19 1162.28
   5  -8  11 1288.64  834.19
  -5   8 -11 1164.74  786.09
   5  -8  1219333.43 2420.51
  -5   8 -1218324.55 2475.87
   5  -8  13 5532.93 1292.40
  -5   8 -13 3253.72 1041.69
   5  -8  14 2807.50  852.54
  -5   8 -14 3892.55 1013.38
   5  -8  15 1461.27  974.84
  -5   8 -15 2526.22  902.62
   5  -8  1616835.11 2732.02
  -5   8 -1610512.81 1779.67
   5  -8  17 -124.05  842.04
   5  -8  17  136.27  425.06
   5  -8  1813063.43 2445.66
   5  -8  1810916.13 1588.31
   5  -8  19 5024.65  982.90
   5  -8  19  681.64  974.89
   5  -8  20 3177.30  990.93
   5  -8  20 6679.18 1522.41
   5  -8  21 -592.34  741.13
   5  -8  21 -398.68  860.59
   5  -8  22 2352.34 1347.12
   5  -8  22 7006.17 1352.26
   5  -8  23  937.64  791.33
   5  -8  23  990.83  895.01
   5  -8  24 2695.47 1167.97
   5  -8  24 1495.42  627.16
   5  -8  25-1513.32  984.81
   5  -8  26 5573.57 1351.92
   5  -8  27  665.06 1093.58
   5  -8  28 2709.74 1373.08
   5  -8  29  854.09 1349.42
   5  -8  30  571.78 1495.89
   5  -8  31 -851.91 1575.50
   5  -9 -30  327.36 1052.33
  -5  -9  30 -949.72 1016.19
   5  -9 -29 -157.07  996.89
  -5  -9  29 -204.17  986.51
   5  -9 -28 2188.61 1025.26
  -5  -9  28   66.03 1125.89
   5  -9 -2710737.15 1775.86
  -5  -9  27 6032.50 2205.87
   5  -9 -26 3141.42 1145.24
  -5  -9  26 -823.45 1011.16
   5  -9 -25  594.03  880.02
  -5  -9  25  882.39 1022.07
   5  -9 -24 1313.12  832.75
  -5  -9  24 -642.02 1015.63
   5  -9 -23 1174.99  806.87
  -5  -9  23 1518.77 1044.11
   5  -9 -22 7995.42 1480.46
  -5  -9  22 7980.96 1620.10
   5  -9 -21 6369.63 1049.26
  -5  -9  21 3484.01 1433.87
   5  -9 -20  185.23  754.51
  -5  -9  20  538.34 1042.70
   5  -9 -19 6653.06 1304.61
  -5  -9  19 3363.47 1441.01
   5  -9 -18 1184.94  815.25
  -5  -9  18 1847.64 1066.76
   5  -9 -17 6458.55 1273.07
  -5  -9  17 6664.97 1400.50
   5  -9 -1610933.44 1860.51
  -5  -9  1611729.75 2237.68
   5  -9 -15 2879.16  906.12
  -5  -9  15 2401.82 1156.61
   5  -9 -14 2009.82  816.96
  -5  -9  14 1493.89  996.37
   5  -9 -13 2134.13  758.50
  -5  -9  13 -541.54  931.46
   5  -9 -1211310.53 1490.01
  -5  -9  12 2434.78 1133.71
   5  -9 -11 2771.84  891.15
  -5  -9  11 3524.28 1059.68
   5  -9 -10  867.32  704.70
  -5  -9  10  530.52 1239.69
   5  -9  -911591.48 1740.59
  -5   9   917236.79 3746.37
  -5  -9   911874.53 2078.32
   5  -9  -8 1114.46  998.25
  -5  -9   8  398.83  822.11
  -5   9   8-2464.06 1864.00
   5  -9  -7   43.62  659.75
  -5   9   7 -488.24 1904.16
  -5  -9   7-1213.10  796.42
   5  -9  -621761.06 2495.28
  -5   9   625280.70 4831.53
  -5  -9   620416.07 2817.92
   5  -9  -5  314.22  754.76
  -5  -9   5 4231.89  908.56
  -5   9   5  812.66 1995.62
   5  -9  -4 1369.17  819.19
  -5   9   4-1028.65 1842.25
  -5  -9   4 1861.24 1032.72
   5  -9  -3 5665.73 1139.15
  -5  -9   3 7466.81 1272.63
  -5   9   3 8523.21 2067.91
   5  -9  -2    3.81  771.39
  -5  -9   2  848.43  631.04
  -5   9   2  690.81 1697.22
   5  -9  -119121.73 2354.49
  -5   9   133726.73 5412.45
  -5  -9   120715.04 2730.56
   5  -9   0 1368.92  741.39
  -5   9   0 1846.77 1462.37
  -5  -9   0  878.91  881.21
   5  -9   1 -790.91  674.92
  -5   9  -1  939.20 1343.82
  -5  -9  -1  527.54  713.28
   5  -9   2 2336.63  894.42
  -5   9  -2 2321.43 1614.11
  -5  -9  -2 3977.62  871.85
   5  -9   3 1798.59  995.64
  -5   9  -3 6068.83 1909.43
  -5  -9  -3 7792.49 1144.17
   5  -9   4 4757.53  965.36
  -5   9  -4 5062.47 1639.89
  -5  -9  -4 5236.05  941.69
   5  -9   511587.50 1560.04
  -5   9  -5 9581.75 2567.47
  -5  -9  -512229.30 1425.13
   5  -9   6 1139.03  776.78
  -5   9  -6 1357.08 1053.86
  -5  -9  -6  397.32  410.09
   5  -9   7 5118.71 1040.74
  -5   9  -7 2582.74 1285.81
   5  -9   817288.41 2220.52
  -5   9  -816708.33 2919.51
   5  -9   912367.02 1988.30
  -5   9  -910966.75 1921.59
   5  -9  10 8326.89 1285.28
  -5   9 -1012527.54 1949.16
   5  -9  11 2761.99 1374.81
  -5   9 -11 2950.52  663.80
   5  -9  12 5461.62 1272.06
  -5   9 -12 5425.00 1404.17
   5  -9  13  235.10  825.22
  -5   9 -13  792.68  772.79
   5  -9  14 -147.51  806.68
  -5   9 -14 1018.52  798.71
   5  -9  15 -728.53  838.45
  -5   9 -15   -2.27  815.27
   5  -9  16 -583.36 1344.73
  -5   9 -16 -310.44  792.72
   5  -9  17 3756.67 1155.15
  -5   9 -17 3544.81 1062.10
   5  -9  18 1046.89 1399.25
  -5   9 -18  311.28  840.64
   5  -9  19 7049.80  935.33
   5  -9  19 7673.65 1517.80
   5  -9  2024475.42 2955.53
   5  -9  2018854.47 2935.10
   5  -9  21 1362.51 1366.86
   5  -9  21 6118.04 1124.92
   5  -9  22 -211.56  811.53
   5  -9  22  247.60  799.52
   5  -9  23 3278.19  980.39
   5  -9  23 2568.58 1059.01
   5  -9  24 2289.98 1331.10
   5  -9  24 6114.66 1446.81
   5  -9  25 3922.27 1004.52
   5  -9  2511210.88 1859.58
   5  -9  26  940.36 1101.47
   5  -9  27   30.61  633.27
   5  -9  28 -238.88 1123.12
   5  -9  29 6761.92 1701.31
   5  -9  30 4651.51 1032.61
   5 -10 -29 2884.11 1616.27
  -5 -10  29  451.84 1047.22
   5 -10 -28 -717.10 1415.80
  -5 -10  28 -718.46 1041.56
   5 -10 -27  227.89  976.16
  -5 -10  27 2571.04 1095.98
   5 -10 -26 5107.53 1304.52
  -5 -10  26 4058.42 1349.67
   5 -10 -25 3646.11 1087.02
  -5 -10  25  462.01 1116.20
   5 -10 -24 2401.09  915.64
  -5 -10  24 1089.66 1136.56
   5 -10 -23 2480.34  891.72
  -5 -10  23 2168.33 1181.41
   5 -10 -22   38.65  746.06
  -5 -10  22  459.35  990.75
   5 -10 -21  178.05 1024.65
  -5 -10  21  658.03 1114.44
   5 -10 -20 1205.08  801.83
  -5 -10  20 1096.44 1124.72
   5 -10 -1916850.07 2120.11
  -5 -10  1910729.29 2378.09
   5 -10 -18  -13.32  706.88
  -5 -10  18  290.89 1365.72
   5 -10 -17  122.68  705.89
  -5 -10  17 -527.83 1004.15
   5 -10 -16 1143.04  761.88
  -5 -10  16   13.47 1394.15
   5 -10 -1519779.55 2524.14
  -5 -10  1514143.32 2553.11
   5 -10 -14 2245.11  908.10
  -5 -10  14 1447.71 1048.73
   5 -10 -13 6953.69 1148.53
  -5 -10  13 2576.46 1181.93
   5 -10 -12 -784.32  715.03
  -5 -10  12 -740.53  883.78
   5 -10 -1113503.75 1745.43
  -5 -10  11 5370.73 1822.59
   5 -10 -10  729.26  763.98
  -5 -10  10-1787.02  859.94
   5 -10  -916288.79 2015.50
  -5 -10   910518.70 1888.01
   5 -10  -8 1563.80  744.14
  -5  10   8 1266.41 2137.54
  -5 -10   8  -60.34  853.18
   5 -10  -7 -294.03  758.91
  -5  10   7-2323.74 1962.94
  -5 -10   7 1031.95  845.68
   5 -10  -6 1007.44  823.24
  -5  10   6 3971.97 2217.95
  -5 -10   6 2239.98 1135.09
   5 -10  -511993.51 1731.98
  -5  10   5 3528.05 3871.60
  -5 -10   520460.20 2746.88
   5 -10  -4 -840.79  716.13
  -5  10   4   16.16 1887.66
  -5 -10   4  365.66  988.59
   5 -10  -3 5907.94 1179.31
  -5  10   3 8114.28 2643.28
  -5 -10   3 6211.55 1243.44
   5 -10  -2-1060.11  910.77
  -5  10   2 -329.52 1795.83
  -5 -10   2 3332.40  792.34
   5 -10  -1 1369.94  849.27
  -5  10   1 6622.58 1971.38
  -5 -10   1 2987.01 1029.41
   5 -10   012305.92 1804.35
  -5  10   012885.20 3494.44
  -5 -10   0 9824.44 1507.83
   5 -10   131007.00 3643.07
  -5  10  -129241.47 4633.17
  -5 -10  -130755.37 3745.19
   5 -10   215175.32 1916.08
  -5  10  -213719.87 3292.50
  -5 -10  -217229.01 2196.62
   5 -10   3 5218.58 1086.26
  -5  10  -3 1171.27 1761.57
  -5 -10  -3 4298.97  921.51
   5 -10   4 1182.75  775.13
  -5 -10  -4  907.81  655.37
  -5  10  -4 3825.20 1568.70
   5 -10   519106.71 2233.53
  -5 -10  -517291.88 1831.56
  -5  10  -5 8622.04 2266.06
   5 -10   618449.36 2596.52
  -5  10  -6 7781.55 2230.31
  -5 -10  -616727.48 1614.98
   5 -10   718508.84 2162.03
  -5  10  -717750.54 3305.80
   5 -10   8 2227.31  961.59
  -5  10  -8 3759.04 1216.33
   5 -10   9  954.67  846.55
  -5  10  -9 1694.70 1129.59
   5 -10  10 4580.70 1150.57
  -5  10 -10 4898.32 1480.31
   5 -10  11 8615.31 1861.50
  -5  10 -11 9311.36 1489.67
   5 -10  12 1790.89  942.54
  -5  10 -12   -4.37  973.15
   5 -10  1321973.55 2814.22
  -5  10 -1323154.27 2934.16
   5 -10  14-1383.91  917.97
   5 -10  1510650.64 2194.44
  -5  10 -15 9012.09 1663.75
   5 -10  16 3128.07 1179.07
  -5  10 -16 3818.25 1006.64
   5 -10  1732863.81 4429.52
  -5  10 -1731317.40 3886.16
   5 -10  18  506.29 1440.42
  -5  10 -18 2410.79 1034.29
   5 -10  19 -801.50 1290.62
  -5  10 -19  711.42  485.92
   5 -10  20 1728.41  580.71
   5 -10  20  424.30 1035.96
   5 -10  21 1858.58 1076.01
   5 -10  21 5022.07 1068.22
   5 -10  22 1813.38 1372.90
   5 -10  22 2533.69  973.67
   5 -10  23 2652.48 1339.32
   5 -10  23 3272.80 1084.98
   5 -10  24 -467.54  823.63
   5 -10  24  814.87 1032.99
   5 -10  25 1138.04  992.84
   5 -10  25 2009.96 1169.69
   5 -10  26 3693.13 1466.60
   5 -10  27 5037.75 1472.12
   5 -10  28 4908.75 1424.65
   5 -10  29 1552.98 1103.38
   5 -11 -28  215.43  961.90
  -5 -11  28 -572.58  983.61
   5 -11 -27  866.41 1038.37
  -5 -11  27 1136.68 1084.20
   5 -11 -26-1180.39  862.08
  -5 -11  26  421.44 1044.09
   5 -11 -25 1940.64 1011.15
  -5 -11  25  632.15 1126.53
   5 -11 -24  672.15  744.79
  -5 -11  24-2130.23 1336.44
   5 -11 -23 3331.70 1051.95
  -5 -11  23 2340.73 1261.26
   5 -11 -22 1484.36 1083.79
  -5 -11  22-1382.79  964.84
   5 -11 -21 9307.56 1465.96
  -5 -11  21 3383.36 1424.86
   5 -11 -20  155.09  754.50
  -5 -11  20-1607.69 1033.45
   5 -11 -19 1529.37  883.92
  -5 -11  19 2081.33 1166.63
   5 -11 -18 4788.55 1049.00
  -5 -11  18 3441.41 1269.16
   5 -11 -1728653.61 3242.24
  -5 -11  1725336.08 3950.12
   5 -11 -16 5707.61 1021.56
  -5 -11  16 1380.89 1206.81
   5 -11 -15  254.51  802.05
  -5 -11  15-1310.64  956.49
   5 -11 -14 2032.97  785.71
  -5 -11  14  139.62  988.44
   5 -11 -13 6320.50 1133.42
  -5 -11  13 2088.72 1162.92
   5 -11 -12 7471.16 1733.79
   5 -11 -1112642.02 1778.68
  -5 -11  1115043.32 2251.64
   5 -11 -10  171.48  762.14
  -5 -11  10  571.39  825.19
   5 -11  -9 1933.27  823.02
  -5 -11   9  181.83  934.23
   5 -11  -811495.88 1776.80
  -5 -11   814057.58 2148.92
  -5  11   812491.67 3841.82
   5 -11  -718545.48 2562.44
  -5  11   719594.61 4697.23
  -5 -11   723908.90 3462.96
   5 -11  -6 6967.44 1424.85
  -5  11   6 5322.71 2883.53
  -5 -11   6 7173.44 1526.99
   5 -11  -510371.88 1615.55
  -5  11   517947.93 4057.40
  -5 -11   513930.42 2346.27
   5 -11  -4 3007.89  883.10
  -5  11   4 -219.56 2365.83
  -5 -11   4 4448.36 1285.44
   5 -11  -3 3687.74  988.90
  -5  11   3 4804.40 2396.11
  -5 -11   3 5397.42 1290.78
   5 -11  -210049.88 1587.91
  -5  11   211722.10 3595.87
  -5 -11   210703.76 1978.73
   5 -11  -110804.09 1762.72
  -5  11   113052.74 3025.31
  -5 -11   1 8469.68 1763.90
   5 -11   0 8583.90 1410.45
  -5 -11   014053.91 1755.95
  -5  11   0 4973.88 2623.73
   5 -11   1 1651.91  877.10
  -5  11  -1 1326.65 1953.65
  -5 -11  -1  814.14  803.31
   5 -11   2 1839.66  798.02
  -5  11  -2 1022.71 1474.35
  -5 -11  -2  424.06  799.22
   5 -11   311281.73 1583.05
  -5  11  -3 3750.27 2047.02
  -5 -11  -3 9472.37 1567.27
   5 -11   4 1421.86 1162.94
  -5  11  -4 1533.05 1510.53
  -5 -11  -4 1782.34  703.06
   5 -11   5 8585.63 1821.63
  -5  11  -5 8035.15 2169.20
  -5 -11  -512179.58 1525.82
   5 -11   6  286.97  744.13
  -5  11  -6 -138.89 1412.61
   5 -11   7  730.48  825.66
  -5  11  -7  426.93  835.15
   5 -11   8 5668.97 1668.48
  -5  11  -8 8305.27 1674.83
   5 -11   945079.06 5995.46
  -5  11  -945702.38 7176.47
   5 -11  10 1587.46 1242.60
  -5  11 -10  752.84 1233.32
   5 -11  1116697.88 2431.33
  -5  11 -1116543.40 3274.06
   5 -11  12 7873.96 1566.65
  -5  11 -12 5869.08 1384.10
   5 -11  13 -778.26  916.75
  -5  11 -13 -702.73  955.25
   5 -11  14 1572.86 1065.74
  -5  11 -14  404.82  959.33
   5 -11  15 3078.89 1202.18
  -5  11 -15 2191.53  990.51
   5 -11  16 1530.02 1143.01
  -5  11 -16 2136.65  950.21
   5 -11  17-2052.72 1391.19
  -5  11 -17 -276.58  791.98
   5 -11  18  586.86 1521.17
  -5  11 -18 2287.63  900.78
   5 -11  1910780.76 1928.82
  -5  11 -1910163.04 1723.95
   5 -11  20 1392.78 1108.84
  -5  11 -20  811.57  915.15
   5 -11  21  329.88  531.84
   5 -11  21 2204.65 1017.67
   5 -11  22  297.77  916.92
   5 -11  22  637.07  937.20
   5 -11  23  807.54  891.75
   5 -11  23  152.32  569.94
   5 -11  24  502.24  901.14
   5 -11  24  845.51  965.36
   5 -11  25 1331.98 1468.38
   5 -11  25 3286.59 1359.86
   5 -11  26 1517.29 1253.14
   5 -11  26 2863.50 1313.13
   5 -11  27  -84.00 1093.54
   5 -11  28 -164.07  970.53
   5 -12 -27 -363.25  876.26
   5 -12 -26  333.24  865.24
  -5 -12  26-1339.98  967.58
   5 -12 -25 3739.73 1058.29
  -5 -12  25  948.81 1245.35
   5 -12 -24 1450.25  932.16
  -5 -12  24 1256.73 1135.73
   5 -12 -23  804.64  811.01
  -5 -12  23  914.86 1458.01
   5 -12 -22  973.94  818.19
  -5 -12  22  868.62 1115.27
   5 -12 -21 1952.76  904.40
  -5 -12  21 1266.91 1219.70
   5 -12 -20  654.94  767.43
  -5 -12  20  619.07 1064.73
   5 -12 -19 4070.33  974.01
  -5 -12  19 3517.11 1292.96
   5 -12 -18 -564.69  808.12
  -5 -12  18 -177.43 1059.75
   5 -12 -17 2230.50 1156.88
  -5 -12  17 1242.76 1080.60
   5 -12 -16 4507.30 1059.83
  -5 -12  16 1970.70 1184.06
   5 -12 -15 8149.36 1385.85
  -5 -12  15 8474.04 1770.59
   5 -12 -14 -198.98  739.34
  -5 -12  14 -331.81  926.38
   5 -12 -13 2931.64  914.69
  -5 -12  13 2942.60 1090.72
   5 -12 -12 5466.55 1132.43
  -5 -12  12 6992.50 1939.87
   5 -12 -11 5676.38 1339.80
  -5 -12  11 6455.77 1310.58
   5 -12 -10  613.64  836.32
  -5 -12  10   92.28  856.72
   5 -12  -9 1317.81  965.88
  -5 -12   9 2743.56  921.18
   5 -12  -811294.04 1621.46
  -5  12   8 9611.04 3319.32
  -5 -12   8 9331.82 1695.11
   5 -12  -7 -339.68  724.19
  -5  12   7  832.22 1989.66
  -5 -12   7   56.94  860.45
   5 -12  -6-1446.78  760.78
  -5  12   6 -553.32 2126.09
  -5 -12   6 -694.18 1041.24
  -5  12   524979.69 6062.07
  -5 -12   529269.21 3988.06
  -5  12   4 4111.92 2816.60
  -5 -12   4 6734.58 1269.88
   5 -12  -332065.86 3835.10
  -5  12   325681.77 5881.74
  -5 -12   334338.72 3783.57
   5 -12  -2  -99.77 1102.27
  -5  12   2 2918.01 2117.70
  -5 -12   2-1394.77  942.00
   5 -12  -1 1129.03  935.24
  -5  12   1-1076.59 1899.17
  -5 -12   1 2188.35  999.50
   5 -12   0  618.31  831.15
  -5  12   0 1813.16 1979.48
  -5 -12   0  983.25 1002.86
   5 -12   135413.43 4291.95
  -5  12  -139874.65 8204.67
  -5 -12  -138997.80 4278.71
   5 -12   225407.13 3142.13
  -5 -12  -225596.50 3085.67
  -5  12  -222879.00 5655.27
   5 -12   3 3103.07 1000.82
  -5  12  -3 1805.14 1641.55
  -5 -12  -3 2522.73  702.42
   5 -12   4  -61.16  787.80
  -5 -12  -4 -139.31  659.10
  -5  12  -4-1959.86 1390.50
   5 -12   5 7646.29 1376.79
  -5  12  -5 5771.64 2045.18
   5 -12   6 7757.38 1445.96
  -5  12  -6 4354.23 2017.77
   5 -12   715029.56 1892.23
  -5  12  -7 5673.61 2179.76
   5 -12   8 3454.68 1080.49
  -5  12  -8 1013.64 1598.04
   5 -12   9 2289.91 1143.59
  -5  12  -9 3440.84 1484.94
   5 -12  10 -727.78  889.67
  -5  12 -10 1185.42 1159.84
   5 -12  11 8653.11 1622.21
  -5  12 -11 7848.37 1897.79
   5 -12  12 2686.50 1068.44
  -5  12 -12 1855.44 1297.54
   5 -12  13 -220.41  921.14
  -5  12 -13 -691.88  966.78
   5 -12  14 1611.95 1255.44
  -5  12 -14 4788.61 1193.75
   5 -12  15  612.72 1104.57
  -5  12 -15 1930.40 1002.78
   5 -12  16 3471.26 1364.68
  -5  12 -16 4168.58 1121.22
   5 -12  17 3398.66 1383.09
  -5  12 -17 5257.08 1073.40
   5 -12  18  100.90 1091.06
  -5  12 -18 1301.26  835.00
   5 -12  19 1093.88 1079.60
  -5  12 -19 1100.45  943.50
   5 -12  20  888.82 1127.36
  -5  12 -20  926.13  911.29
   5 -12  21 3044.44 1377.93
  -5  12 -21 9995.01 1636.76
   5 -12  22 -120.69 1072.16
   5 -12  22  850.31  602.41
  -5  12 -22 1520.35  601.43
   5 -12  23 4096.90 1160.42
   5 -12  23 3759.63 1333.25
   5 -12  24   81.94  887.48
   5 -12  24   51.98 1015.65
   5 -12  25 1113.93  988.22
   5 -12  25  973.85 1038.42
   5 -12  26 1105.73  890.56
   5 -12  26 1764.40 1247.51
   5 -12  27 3624.92 1214.18
   5 -12  27 9756.86 1656.64
   5 -13 -26 1072.94 1284.85
   5 -13 -25  423.08  877.29
  -5 -13  25-1500.48 1059.54
   5 -13 -24 3002.72  989.62
  -5 -13  24  720.25 1205.15
   5 -13 -23 3525.01 1402.41
  -5 -13  23  541.62 1179.36
   5 -13 -22  818.96  909.00
  -5 -13  22  534.05 1143.36
   5 -13 -21 1970.72  940.93
  -5 -13  21  670.05 1189.12
   5 -13 -20 2124.43  867.00
  -5 -13  20  103.83 1109.66
   5 -13 -19  374.05 1086.94
  -5 -13  19  386.37 1087.38
   5 -13 -18 1858.12  884.70
  -5 -13  18 -191.96 1077.88
   5 -13 -1722658.33 2746.84
  -5 -13  1716653.52 2869.02
   5 -13 -16 4963.22 1387.82
  -5 -13  16 2108.80 1190.01
   5 -13 -15 1187.90  866.88
  -5 -13  15 -360.71 1328.21
   5 -13 -14  327.46  839.86
  -5 -13  14 -330.20  966.44
   5 -13 -13 3236.76 1070.71
  -5 -13  13 4679.15 1689.25
   5 -13 -1213092.97 2063.41
  -5 -13  1212843.80 2355.31
   5 -13 -11 6209.38 1403.35
  -5 -13  11 6444.78 1807.77
   5 -13 -10  841.43  900.15
  -5 -13  10 1735.62  967.42
   5 -13  -912979.15 1814.14
  -5 -13   9 9536.55 1814.35
   5 -13  -8 2758.35  909.10
  -5  13   8 1900.79 2191.94
  -5 -13   8 2099.26 1331.08
   5 -13  -713307.59 1978.67
  -5  13   714280.68 3935.00
  -5 -13   715099.88 2339.22
   5 -13  -617636.78 2396.94
  -5  13   621761.88 4897.39
   5 -13  -5 -578.86  818.79
  -5  13   5 1385.05 2291.74
  -5 -13   5 1137.28  781.55
   5 -13  -4 9942.49 1738.96
  -5  13   413137.28 3446.13
  -5 -13   411979.98 2217.64
   5 -13  -329385.48 3603.04
  -5 -13   337455.68 4626.52
  -5  13   330132.89 7282.76
  -5  13   2 6871.93 3205.42
  -5 -13   2 9284.47 1676.11
  -5 -13   1 5305.62 1290.07
  -5  13   1 3572.27 2743.71
   5 -13   0  126.06  783.70
  -5  13   0-1139.15 1871.57
  -5 -13   0  209.13  805.72
   5 -13   1  898.93  893.39
  -5  13  -1 1958.55 2124.00
  -5 -13  -1  236.35  620.79
   5 -13   2  965.74  846.90
  -5  13  -2 2351.65 2057.44
  -5 -13  -2  386.61  594.15
   5 -13   3 2139.07  888.40
  -5  13  -3 1852.32 1728.37
  -5 -13  -3 3158.92  900.25
   5 -13   4 3067.21  952.52
  -5  13  -4 2590.04 1756.16
   5 -13   5 2796.14 1054.26
  -5  13  -5 2192.80 1741.51
   5 -13   6  317.93  846.28
  -5  13  -6 -770.77 1474.65
   5 -13   7  359.24  927.83
  -5  13  -7-1343.58 1423.16
   5 -13   8 1530.84  990.30
  -5  13  -8 1577.05 1526.21
   5 -13   911759.06 1909.74
  -5  13  -9 8559.89 2300.35
   5 -13  10 4410.08 1222.48
  -5  13 -10 3072.88  963.77
   5 -13  11 7933.91 1396.44
  -5  13 -11 7038.16 1790.63
   5 -13  12  224.82  935.11
  -5  13 -12-1587.37  688.61
   5 -13  13 1473.26 1249.68
  -5  13 -13 1332.39 1299.15
   5 -13  14 5529.95 1523.50
  -5  13 -14 5786.35 1034.67
   5 -13  1512141.35 2054.02
  -5  13 -15 5164.68 1338.88
   5 -13  16 3442.94 1721.23
  -5  13 -16  433.23  924.80
   5 -13  17 2052.41 1634.66
  -5  13 -17  746.49  847.96
   5 -13  18 1665.34 1187.02
  -5  13 -18 1349.10  896.79
   5 -13  19 3576.81 1429.78
  -5  13 -19 3119.45 1023.01
   5 -13  20 3367.14 1317.21
  -5  13 -20 3915.08 1148.07
   5 -13  21  209.95  989.62
  -5  13 -21   65.09  902.87
   5 -13  22  706.75 1021.08
  -5  13 -22 -449.69  935.52
   5 -13  23  881.00 1038.14
   5 -13  23 -232.02  586.09
   5 -13  24  804.66 1058.10
   5 -13  24 2106.94 1117.86
   5 -13  25  490.41  975.05
   5 -13  25  305.93  980.89
   5 -14 -24 6771.69 1429.79
  -5 -14  24 2238.65 1374.13
   5 -14 -23  456.65  914.52
  -5 -14  23-1263.12 1050.28
   5 -14 -22  255.87  831.19
  -5 -14  22  706.18 1115.13
   5 -14 -21 3818.56 1361.88
  -5 -14  21  337.37 1170.77
   5 -14 -20 7174.32 1350.00
  -5 -14  20 2767.66 1402.87
   5 -14 -19  789.17  934.99
  -5 -14  19-1780.88 1045.22
   5 -14 -18 2128.97  979.62
  -5 -14  18 2076.16 1150.32
   5 -14 -17 3409.74 1079.23
  -5 -14  17 4696.49 1731.00
   5 -14 -1613411.56 1898.32
  -5 -14  16 4935.47 1549.50
   5 -14 -15 1623.22  996.85
  -5 -14  15 2851.76 1426.62
   5 -14 -1411340.46 1733.39
  -5 -14  14 5724.98 1675.05
   5 -14 -13  590.80  920.31
  -5 -14  13 1893.35 1047.09
   5 -14 -12 9443.64 1656.26
  -5 -14  12 4720.04 1475.03
   5 -14 -11  420.06  813.11
  -5 -14  11  -12.71 1272.04
   5 -14 -10 1940.68  885.50
   5 -14  -9 1271.71  852.65
  -5 -14   9  912.52  875.95
   5 -14  -8 2584.56  957.44
  -5  14   8-1065.73 2271.50
  -5 -14   8 2729.77  909.84
   5 -14  -7 1266.37  890.84
  -5  14   7  105.72 2241.23
  -5 -14   7 1720.75  872.29
  -5  14   615264.53 4352.70
  -5 -14   616291.49 2762.82
  -5  14   528137.55 6747.68
  -5 -14   524974.12 3661.21
   5 -14  -4 4754.38 1121.95
  -5  14   4 3780.49 2898.22
  -5 -14   4 4861.70 1113.11
  -5  14   3 2293.37 2406.66
  -5 -14   3 1193.59  838.47
  -5  14   2 -178.59 2282.26
  -5 -14   2 -176.44  697.92
   5 -14  -1 7189.73 1361.60
  -5  14   1 5985.33 3122.32
  -5 -14   1 6530.01 1158.67
   5 -14   0  380.18  801.10
  -5  14   0-1747.23 2129.93
  -5 -14   0 -960.43  647.16
   5 -14   1 -736.20  794.35
  -5  14  -1  339.98 2019.30
  -5 -14  -1 -955.13  630.03
   5 -14   222583.93 2975.88
  -5  14  -226520.02 6690.28
  -5 -14  -226963.10 3192.11
   5 -14   3  716.77  822.41
  -5  14  -3 -148.60 1206.71
   5 -14   4  304.86 1217.15
  -5  14  -4 -705.32 1574.10
   5 -14   5  322.09  995.84
  -5  14  -5 2823.60 1655.82
   5 -14   622742.67 2672.59
  -5  14  -611084.55 2908.25
   5 -14   7  141.49 1441.94
  -5  14  -7  166.00 1457.74
   5 -14   8 5518.05 1411.05
  -5  14  -8 1071.36 1765.85
   5 -14   9 1437.92 1026.66
  -5  14  -9-1815.61 1399.08
   5 -14  1010451.04 1840.50
  -5  14 -10 4991.99 2049.94
   5 -14  11 3027.60 1202.76
  -5  14 -11  952.54 1383.49
   5 -14  1216060.31 2364.92
  -5  14 -12 6616.90 1177.70
   5 -14  13 1694.44 1270.17
  -5  14 -13 1067.12 1184.55
   5 -14  14  401.44 1222.40
  -5  14 -14  749.94  986.31
   5 -14  15 2465.97 1746.03
  -5  14 -15-1813.02  924.89
   5 -14  16  721.41 1253.57
  -5  14 -16 1543.59  994.86
   5 -14  17 1434.20 1210.64
  -5  14 -17   68.35  956.70
   5 -14  18 2402.84 1277.69
  -5  14 -18 1722.61  946.16
   5 -14  19  966.30 1123.92
  -5  14 -19  593.27  862.75
   5 -14  20  718.99 1560.58
  -5  14 -20  612.40  870.22
   5 -14  21 -529.57 1450.95
  -5  14 -21 -378.08  899.35
   5 -14  22  744.65 1165.12
  -5  14 -22 2707.91 1084.41
   5 -14  23-1122.02  993.77
  -5  14 -23  -34.27  936.32
   5 -14  24-1630.99 1029.39
   5 -15 -22 2348.31 1101.84
  -5 -15  22 1795.08 1296.61
   5 -15 -21  115.92  891.12
  -5 -15  21  588.66 1175.74
   5 -15 -20  -30.20  929.38
  -5 -15  20  611.54 1463.39
   5 -15 -19 2125.94 1017.96
  -5 -15  19  502.19 1096.57
   5 -15 -18 6916.91 1523.34
  -5 -15  18 5958.11 1476.01
   5 -15 -17 1131.57 1024.37
  -5 -15  17 2682.77 1164.21
   5 -15 -16 2252.22  935.87
  -5 -15  16  827.30 1188.55
   5 -15 -15 2628.90 1036.70
  -5 -15  15 2625.87 1596.96
   5 -15 -14  727.55  961.03
  -5 -15  14 1582.28 1059.54
   5 -15 -13 2059.23  981.73
  -5 -15  13 4886.71 1702.92
   5 -15 -12 2952.61  960.50
   5 -15 -11  782.16  869.84
  -5 -15  11  680.99 1205.02
   5 -15 -10  494.27  914.56
  -5 -15  10  295.51  894.20
   5 -15  -9 -242.92  849.51
  -5 -15   9 1664.05  902.06
   5 -15  -8 2083.03  974.08
  -5  15   8 1328.15 2304.11
  -5 -15   8 2795.56 1053.42
   5 -15  -7 1887.98  915.31
  -5  15   7 1343.10 2318.28
  -5 -15   7   88.53  864.59
   5 -15  -6 4792.57 1322.26
  -5  15   6 8087.67 3020.86
  -5 -15   6 6230.31 1504.35
   5 -15  -5 6633.25 1367.25
  -5  15   5 8639.02 3287.83
  -5 -15   5 6426.21 1659.01
   5 -15  -4   43.58  782.67
  -5  15   4-2850.03 2362.11
  -5 -15   4 -241.76  761.77
   5 -15  -3 4690.56 1208.93
  -5  15   3 4341.23 2827.46
  -5 -15   3 4545.48 1042.10
   5 -15  -230127.61 3987.50
  -5 -15   225080.03 3090.97
  -5  15   230163.40 5389.15
   5 -15  -1 -311.19  830.10
  -5 -15   1 1637.09  969.16
  -5  15   1  982.76 2364.37
   5 -15   0 2017.40  981.42
  -5  15   0 4362.95 2445.83
  -5 -15   0 2968.76 1149.65
  -5  15  -1  256.51 2086.50
   5 -15   2  540.67 1319.97
  -5  15  -2 2268.09 2341.05
   5 -15   3  477.70  876.00
  -5  15  -3-1319.81 2056.27
   5 -15   410426.85 1724.47
  -5  15  -4 3102.15 2148.77
   5 -15   5-1073.85  914.15
  -5  15  -5 1926.77 1594.26
   5 -15   6 1050.78 1383.92
  -5  15  -6  -54.87 1601.58
   5 -15   7 3039.66 1270.57
  -5  15  -7 1212.90 1826.59
   5 -15   810971.84 1866.02
  -5  15  -8 4078.10 2244.23
   5 -15   9 -732.00  943.05
  -5  15  -9-1143.84 1525.19
   5 -15  1014168.89 2193.42
  -5  15 -10 7257.97 2349.67
   5 -15  11 2536.95 1105.94
  -5  15 -11  -20.62 1215.61
   5 -15  12 4398.02 1356.78
  -5  15 -12 -178.93 1268.38
   5 -15  13-2276.81 1191.38
  -5  15 -13  341.33 1210.27
   5 -15  1423341.48 3151.38
  -5  15 -1412707.00 1623.13
   5 -15  15 1313.85 1142.77
  -5  15 -15 -213.50  936.44
   5 -15  16  528.80 1206.80
  -5  15 -16  566.43  964.10
   5 -15  17  962.53 1197.91
  -5  15 -17  450.68  939.96
   5 -15  18-2564.56 1479.89
  -5  15 -18  599.37  840.93
   5 -15  19   12.84 1141.91
  -5  15 -19 1465.59  909.54
   5 -15  20 1103.04 1127.70
  -5  15 -20 1959.35  956.84
   5 -15  21 1293.39 1101.77
  -5  15 -21  113.33  528.84
   5 -15  22  509.11 1501.50
   5 -16 -20 3859.83 1062.45
  -5 -16  20 1468.85 1308.55
   5 -16 -19 2143.55  986.10
  -5 -16  19 1913.19 1257.68
   5 -16 -18  233.27  832.37
  -5 -16  18 -314.35 1408.78
   5 -16 -17 2811.01 1046.69
  -5 -16  17 1904.40 1179.94
   5 -16 -16 -486.02 1088.24
  -5 -16  16 1221.94  977.89
   5 -16 -15  635.16  932.73
  -5 -16  15 3451.59 1159.47
   5 -16 -14 2034.65 1055.09
  -5 -16  14 3237.14 1294.26
   5 -16 -13 1008.42  934.70
  -5 -16  13 -448.54  950.91
   5 -16 -12 1628.85 1033.81
  -5 -16  12  958.59  975.30
   5 -16 -11 -268.96 1249.39
  -5 -16  11 1907.88  957.72
   5 -16 -10 7477.66 1481.84
  -5 -16  10 8673.33 1408.51
   5 -16  -9  200.85  863.23
  -5 -16   9 -376.98  905.57
   5 -16  -8 6413.01 1223.97
  -5  16   8 4531.85 2686.87
  -5 -16   8 3643.46 1629.95
   5 -16  -7 -659.37 1204.33
  -5  16   7 1074.65 2095.83
  -5 -16   7 -542.77  890.54
   5 -16  -6 1702.06 1258.79
  -5  16   6 3816.26 2430.87
  -5 -16   6  609.95  858.13
   5 -16  -5 8850.32 1589.27
  -5  16   5 6004.57 3430.25
  -5 -16   5 7000.50 1866.00
   5 -16  -4 5947.42 1270.23
  -5  16   4 8570.17 3025.82
  -5 -16   4 5262.34 1095.16
   5 -16  -3 2626.70 1027.41
  -5  16   3 2246.68 2574.60
  -5 -16   3 1337.92  882.19
  -5  16   2  354.11 2583.85
  -5 -16   2 1976.74  874.18
  -5  16   1 1149.17 2483.49
  -5 -16   1 1163.41 1103.60
   5 -16   0 1787.16  917.02
  -5  16   0 4436.65 2802.06
  -5  16  -1   27.42 2037.95
  -5  16  -2 2563.64 2417.37
   5 -16   3 1184.61  923.40
  -5  16  -3-2521.58 2049.48
   5 -16   4 -605.46 1016.27
  -5  16  -4 -546.55 1620.66
   5 -16   5 1238.37 1041.98
  -5  16  -5  891.20 1762.10
   5 -16   6 5120.93 1274.51
  -5  16  -6 1739.67 1943.22
   5 -16   7 -837.81 1004.39
  -5  16  -7  255.95 1628.82
   5 -16   8 6367.81 1594.15
  -5  16  -8 1482.82 2004.73
   5 -16   9  523.37 1057.89
  -5  16  -9  966.47 1519.49
   5 -16  10 1453.00 1062.62
  -5  16 -10   -6.54 1570.04
   5 -16  11 1302.78 1320.46
  -5  16 -11  115.56 1532.84
   5 -16  12 5637.52 1940.94
  -5  16 -12  413.00 1388.77
   5 -16  13 1748.99 1234.48
  -5  16 -13 -804.58 1249.73
   5 -16  14 -513.34 1137.82
  -5  16 -14 2014.98 1192.96
   5 -16  15 -528.74 1135.04
  -5  16 -15  492.65  930.73
   5 -16  16  716.64 1292.87
  -5  16 -16 1745.74 1073.72
   5 -16  17  292.45 1144.93
  -5  16 -17  197.72  938.13
   5 -16  18 1256.47 1221.18
  -5  16 -18 -111.04  988.26
   5 -16  19 -168.93 1137.07
  -5  16 -19  119.19  857.88
   5 -16  20  207.43 1094.86
   5 -17 -17  524.19  931.27
  -5 -17  17  123.12 1427.08
   5 -17 -16 -834.87  936.01
  -5 -17  16 -226.08 1104.09
   5 -17 -15 1966.01 1026.94
  -5 -17  15  633.32 1146.66
   5 -17 -14 1278.22  982.87
  -5 -17  14 1769.93 1076.60
   5 -17 -13    9.87 1208.38
  -5 -17  13  442.69  962.45
   5 -17 -12 3601.21 1150.68
  -5 -17  12 3031.15 1189.08
   5 -17 -11 1102.23  939.34
  -5 -17  11   43.56  915.47
   5 -17 -10 2034.29  964.12
  -5 -17  10  745.00  982.58
   5 -17  -9  475.74  897.08
  -5 -17   9 -399.54  881.30
   5 -17  -8  704.14 1007.99
  -5  17   8 2505.70 2130.81
  -5 -17   8 1181.41  978.54
   5 -17  -7 3639.56 1256.13
  -5  17   7 3252.30 2535.73
  -5 -17   7 8549.56 1819.53
   5 -17  -611973.76 1846.95
  -5  17   611538.75 3516.15
  -5 -17   611890.00 2010.35
   5 -17  -5 3737.35 1148.48
  -5 -17   5 3768.25 1036.20
  -5  17   5 2972.62 2749.07
   5 -17  -4 1921.75 1011.63
  -5  17   4 2284.08 2378.75
  -5 -17   4 1396.33 1249.56
  -5  17   3 1340.00 2573.67
  -5 -17   3 4474.42 1394.71
  -5  17   2 4020.50 2687.34
   5 -17  -119494.70 2603.35
  -5  17   1 7177.41 3781.18
   5 -17   0 1608.22  954.94
  -5  17   0 2684.95 2470.40
  -5  17  -1 -171.66 2122.39
  -5  17  -2  249.18 2114.01
   5 -17   3 4154.25 1262.53
  -5  17  -3 3199.49 2612.27
   5 -17   4 5706.81 1361.35
  -5  17  -4 2915.94 2811.23
   5 -17   5 1944.79 1494.40
  -5  17  -5 -799.72 1712.03
   5 -17   6 1804.26 1158.18
  -5  17  -6 3151.12 1876.83
   5 -17   7  132.49 1088.90
  -5  17  -7  750.61 1605.76
   5 -17   8 1350.05 1063.45
  -5  17  -8 -496.30 1649.78
   5 -17   910052.50 1831.19
  -5  17  -9 4904.68 2176.88
   5 -17  10 1258.13 1303.91
  -5  17 -10 2330.27 1665.30
   5 -17  11  117.03 1213.65
  -5  17 -11 1087.61 1516.52
   5 -17  12  525.30 1232.87
  -5  17 -12 -376.54  722.56
   5 -17  13 4058.41 1369.91
  -5  17 -13-1879.93 1305.19
   5 -17  14 1963.04 1312.10
  -5  17 -14  358.06 1294.98
   5 -17  15 3759.51 1319.71
  -5  17 -15-1389.96 1243.57
   5 -17  16 1639.48 1272.82
  -5  17 -16 -185.36  968.13
   5 -17  17 -967.42 1601.37
   5 -18 -14  494.97 1280.42
  -5 -18  14  496.10 1038.24
   5 -18 -13 7400.85 1421.25
  -5 -18  13 3415.37 1311.27
   5 -18 -12 1247.40  969.05
  -5 -18  12 -273.87  996.23
   5 -18 -11 1943.48 1020.77
  -5 -18  11 1150.67 1072.89
   5 -18 -10 -332.42  865.28
  -5 -18  10 -161.86 1302.30
   5 -18  -912079.92 1761.44
  -5  18   9 4948.24 2640.72
  -5 -18   9 2966.20 1238.36
   5 -18  -8 4024.77 1668.38
  -5  18   8 6046.06 1602.34
  -5 -18   8 2284.23 1448.93
   5 -18  -7  700.50  968.94
  -5  18   7  204.99 2076.89
  -5 -18   7 -151.26  871.30
   5 -18  -6  923.85  991.92
  -5  18   6 3434.84 2445.86
  -5 -18   6 3165.18 1039.69
   5 -18  -5  369.13 1281.39
  -5  18   5  472.11 1474.31
  -5 -18   5 1104.36 1227.75
   5 -18  -4 1006.63 1302.70
  -5  18   4   -6.10 2305.01
  -5 -18   4  613.78  870.98
   5 -18  -3 2435.50 1094.59
  -5  18   3  319.03 2450.43
   5 -18  -2  364.85  963.93
  -5  18   2  557.93 2225.10
   5 -18  -1 1569.07  942.95
  -5  18   1 -356.03 2407.62
   5 -18   0  192.62  927.22
  -5  18  -1 3694.19 2642.01
  -5  18  -2 1138.32 2270.45
   5 -18   3  779.18 1015.80
  -5  18  -3 -752.08 2163.58
   5 -18   4 -254.76  977.00
  -5  18  -4 2254.94 2203.37
   5 -18   5 1671.39 1088.35
  -5  18  -5 -392.97 1718.55
   5 -18   6  703.22 1071.30
  -5  18  -6  100.08 1654.48
   5 -18   7 9470.29 1928.75
  -5  18  -7 3408.15 2145.46
   5 -18   8 1244.66 1124.55
  -5  18  -8-1265.74 1599.30
   5 -18   9   32.40 1249.59
  -5  18  -9 -939.35 1546.54
   5 -18  10  -57.55 1304.41
  -5  18 -10 1358.53 1062.92
   5 -18  11 4780.61 1627.84
  -5  18 -11 3487.40 1898.21
   5 -18  12  180.16 1169.14
  -5  18 -12  143.10 1202.06
   5 -18  13 1776.04 1828.86
   5 -18  14 -626.54 1279.80
   5 -19  -9 1468.11 1037.38
  -5  19   9 3504.59 2111.24
  -5 -19   9 -312.01  984.78
   5 -19  -8 2362.03 1080.25
  -5  19   8  664.03 2312.91
  -5 -19   8 2140.34 1097.94
   5 -19  -7 1452.25  962.72
  -5  19   7 3406.13 2435.04
  -5 -19   7  828.84  992.11
   5 -19  -6 -331.15  928.32
  -5  19   6 1826.62 2375.68
  -5 -19   6-1721.97 1255.05
   5 -19  -5 1105.58 1038.52
  -5  19   5  419.89 2340.17
  -5  19   5 -450.99 2222.28
   5 -19  -4 1176.29  998.20
  -5  19   4  756.50 2329.68
   5 -19  -3  344.85  992.67
  -5  19   3 -560.87 2257.15
   5 -19  -2 1705.20 1113.16
  -5  19   2  986.56 2428.39
   5 -19  -1 1180.66 1015.16
  -5  19   1 -784.28 2392.95
   5 -19   0-1049.11 1024.34
  -5  19   0-2751.57 2162.28
   5 -19   1 -910.69 1041.44
  -5  19  -1 -226.61 2124.83
   5 -19   2  757.59  997.04
  -5  19  -2  110.29 1294.87
   5 -19   3 5274.58 1357.50
  -5  19  -3 4114.43 2754.37
   5 -19   4 -204.74 1070.46
  -5  19  -4 1968.50 2248.32
   5 -19   5 2399.88 1249.68
  -5  19  -5 1547.40 1914.49
   5 -19   6 1208.10 1067.11
  -5  19  -6 -136.79 1782.22
   5 -19   7  257.73 1066.17
  -5  19  -7 1010.84 1691.30
  -6   0  32  509.07  853.90
  -6   0  31  518.92  836.81
  -6   0  30 2265.66  951.30
  -6   0  29  -13.04  730.62
  -6   0  28 1361.50  846.94
  -6   0  27   88.68  728.37
  -6   0  26 2614.77  908.74
  -6   0  25 1135.44  811.86
  -6   0  24 2465.04 1198.96
  -6   0  23  -94.73  719.03
  -6   0  22 5985.24 1097.15
  -6   0  21-1240.31  751.13
  -6   0  20 8249.03 1634.75
  -6   0  19 -346.10  734.33
  -6   0  18 8530.98 1540.99
  -6   0  17  531.66  779.58
  -6   0  1666254.79 7853.50
  -6   0  15 -153.86  720.26
  -6   0  14 -409.23  721.48
  -6   0  13 1353.59  758.90
  -6   0  12 4597.41 1442.20
  -6   0  11 -581.29  652.46
   6   0 -1043322.36 3699.17
   6   0  -9 -902.32  573.84
   6   0  -8 5507.81  365.87
   6   0  -817483.10 1420.15
   6   0  -7 -188.14  207.06
   6   0  -7  258.32  609.12
   6   0  -6 6986.29  696.36
   6   0  -6 7058.68 1045.00
   6   0  -5 -205.85  340.68
   6   0  -5  336.41  525.20
   6   0  -4 8749.40  961.43
   6   0  -4 9542.47 1195.24
   6   0  -3  325.71  445.09
   6   0  -3 -486.19  658.79
   6   0  -2 3425.40  559.61
   6   0  -2 4405.67  897.60
   6   0  -1  309.44  539.09
   6   0  -1 -621.15  435.16
   6   0   019671.77 2016.21
   6   0   017873.57 1596.67
   6   0   1  844.46  564.94
   6   0   1 -150.67  340.96
   6   0   212148.21 1321.73
   6   0   2 8883.36  858.07
   6   0   3 -332.54  316.09
   6   0   3  -29.87  453.64
   6   0   428537.82 2602.31
   6   0   428820.57 2316.04
   6   0   5  -51.44  502.81
   6   0   5  503.34  415.66
   6   0   6 3384.98  638.99
   6   0   6 2761.94  443.64
   6   0   7  364.30  566.88
   6   0   7 -185.93  354.84
   6   0   8 3759.79  791.09
   6   0   8 3038.35  467.67
   6   0   9 -103.51  682.11
   6   0   9 -171.86  308.71
   6   0  10 6285.78 1072.61
   6   0  10 6196.75  638.40
   6   0  11    6.07  712.27
   6   0  11  441.19  323.20
   6   0  1230250.20 3667.18
   6   0  1231399.33 2463.08
   6   0  13  320.45  742.72
   6   0  1421472.72 2703.72
   6   0  15  -16.82  757.84
   6   0  16 1153.47  928.62
   6   0  17 -470.60  854.82
   6   0  18  530.78  860.67
   6   0  19 -457.00  869.18
   6   0  2015308.27 2189.96
   6   0  21 -207.94  920.70
   6   0  22 3528.51 1183.27
   6   0  23  223.82  983.80
   6   0  24  478.57  950.75
   6   0  25 -652.58  946.25
   6   0  2618788.91 2637.56
   6   0  27 -154.35  926.33
   6   0  28  -46.19 1069.85
   6   0  29  198.98 1093.32
   6   0  30 -530.45 1066.40
   6   0  31 -711.51 1105.05
   6  -1 -32 1147.66  582.84
  -6  -1  32 1072.35  922.47
   6  -1 -31  347.75  524.26
  -6  -1  31 1054.14 1176.17
  -6  -1  30  123.06  888.44
  -6   1  30 -556.86  808.01
  -6  -1  29 1535.77  931.64
  -6   1  29  340.71  821.96
  -6  -1  28  795.66 1119.74
  -6   1  28 -144.50  754.59
  -6  -1  27 -119.25  799.21
  -6   1  27  524.67  781.31
  -6  -1  26 -259.77  791.46
  -6   1  26 1053.10 1035.07
  -6  -1  25 2586.88  904.69
  -6   1  25 1824.05  834.01
  -6  -1  24 7976.30 1595.91
  -6   1  24 9341.24 1655.43
  -6  -1  2320446.14 2669.58
  -6   1  2316362.09 2558.93
  -6  -1  2213574.08 2326.19
  -6   1  22 8903.57 1672.45
  -6  -1  21 1547.23 1249.76
  -6   1  21 2222.57 1128.98
  -6  -1  20 4110.39 1398.09
  -6   1  20 4883.55 1206.87
  -6  -1  19 7502.35 1528.29
  -6   1  19 6965.78 1218.22
  -6  -1  18 4832.19 1013.09
  -6   1  18 5349.33 1122.71
  -6  -1  1716104.80 2551.33
  -6   1  1716380.87 2461.35
   6  -1 -16 -107.28  468.93
  -6  -1  16-1123.15  799.35
   6  -1 -15  521.35  427.41
  -6  -1  15 -167.58 1050.13
   6  -1 -1418270.48 2263.27
  -6  -1  1417069.58 2348.42
   6  -1 -13 8681.41 1554.99
  -6  -1  13 7623.84 1271.59
   6  -1 -1213381.74 1767.06
  -6  -1  1212545.59 1929.83
   6  -1 -11 5949.94 1057.31
  -6  -1  11 5272.91 1104.36
   6  -1 -10 6410.12 1149.57
  -6  -1  10 6548.12 1061.55
   6  -1  -9  387.45  621.08
  -6  -1   9 1993.10  666.49
   6  -1  -818703.24 1307.76
   6  -1  -822881.62 2383.79
  -6  -1   822089.03 2382.75
   6  -1  -7 9032.66  772.88
   6   1  -7 6668.79  591.57
   6  -1  -7 9007.26 1231.91
  -6  -1   7 9230.67 1272.70
   6  -1  -610859.03 1030.30
   6   1  -612066.36 1304.10
   6   1  -6 9795.53  934.62
   6  -1  -613069.92 1515.46
   6  -1  -5 3344.21  493.77
   6   1  -5 3569.55  641.29
   6  -1  -5 3481.70  725.33
   6   1  -5 2773.47  693.07
   6  -1  -4   51.03  391.53
   6   1  -4  676.38  327.44
   6   1  -4 1520.80  751.70
   6  -1  -4 1099.85  548.87
   6  -1  -3 1012.58  502.68
   6   1  -3 2150.80  541.64
   6  -1  -3 2857.63  608.67
   6   1  -3 2436.53  568.64
   6  -1  -2 4428.63  773.32
   6   1  -2 4315.87  638.48
   6   1  -2 3949.45  671.46
   6  -1  -2 4157.01  714.05
   6  -1  -1  724.60  405.27
   6   1  -1  343.44  411.67
   6  -1  -1  576.54  478.70
   6   1  -1 -314.34  563.03
   6  -1   0 1556.18  432.06
   6   1   0 1063.54  630.33
   6  -1   0 3136.52  783.40
   6   1   0 2129.85  419.14
   6  -1   1 1568.56  654.77
   6   1   1 1962.94  490.55
   6   1   1 2627.88  550.63
   6  -1   1 2222.80  545.23
   6  -1   2 1830.50  470.32
   6  -1   2 2509.98  477.33
   6   1   2  907.71  595.67
   6   1   2 2935.67  573.15
   6  -1   319665.78 1759.18
   6   1   317551.84 1720.04
   6  -1   317789.49 1463.06
   6   1   322179.87 1763.22
   6  -1   412367.17 1348.10
   6   1   412278.70 1203.41
   6   1   411719.13 1308.66
   6  -1   412993.38 1303.44
   6  -1   5 3977.42  844.95
   6   1   5 2956.89  638.84
   6   1   5 3079.08  503.89
   6  -1   5 1886.54  545.42
   6  -1   6  337.01  533.37
   6   1   6  269.62  527.55
   6   1   6  833.97  367.73
   6  -1   6  745.47  403.83
   6  -1   710709.89 1394.07
   6   1   710161.77 1253.73
   6   1   7 9377.57  904.02
   6  -1   710725.79 1007.44
   6  -1   8 6764.15 1090.58
   6   1   8 8136.45 1192.96
   6   1   8 7577.26  753.58
   6  -1   8 8455.61  838.69
   6   1   912498.54 1071.01
   6  -1   912143.47 1626.86
   6   1   913680.78 1734.71
   6  -1   913640.48 1233.86
   6  -1  10 7738.66 1035.82
   6   1  10 5040.46 1076.46
   6   1  10 5764.94  603.02
   6  -1  10 6329.85  607.23
   6  -1  11  862.49  734.74
   6   1  11 -144.72  758.77
   6  -1  11 1469.43  399.65
   6   1  11  407.07  255.34
   6  -1  1213045.54 1781.27
   6   1  1213880.71 1996.05
   6  -1  1213557.36 1273.49
   6  -1  13 5309.59 1198.67
   6   1  13 3133.49  988.20
   6  -1  13 3477.85  633.15
   6  -1  14 3273.96  946.69
   6   1  14 2038.62  956.40
   6  -1  15 4814.26 1149.81
   6   1  15 5626.17 1347.90
   6  -1  1610540.79 1708.05
   6   1  16 7906.25 1514.58
   6  -1  17 1376.93  908.47
   6   1  17 -291.08  896.59
   6  -1  1815475.91 2244.13
   6   1  1816397.08 2536.91
   6  -1  19 7986.00 1560.05
   6   1  19 8061.34 1585.90
   6  -1  20  458.35  982.58
   6   1  20  776.70 1025.79
   6  -1  21 4875.61 1263.24
   6   1  21 3883.69 1165.13
   6  -1  22 2133.57 1088.00
   6   1  22  869.12 1060.06
   6  -1  23  162.03  551.89
   6   1  23 -596.97  981.21
   6  -1  2415851.17 2306.33
   6   1  2419216.57 2940.18
   6  -1  25  846.61 1058.72
   6   1  25  246.60 1114.79
   6  -1  26 1081.79 1048.62
   6   1  26 -446.16 1166.90
   6  -1  27 2119.38  996.58
   6   1  27 -547.78  647.62
   6  -1  28 7135.42 1337.55
   6   1  28 -131.68 1350.80
   6  -1  29 3052.82 1023.12
   6   1  29  -83.95 1085.19
   6  -1  30 2092.62 1071.34
   6   1  30 2543.41 1097.46
   6  -1  31 -676.19 1389.71
   6   1  31  575.40 1161.19
   6  -2 -32 1188.04 1360.84
   6  -2 -31 3613.37 1132.40
  -6  -2  31 3234.38 1069.15
   6  -2 -30 1246.42  935.45
  -6  -2  30  861.92  878.62
   6  -2 -29  184.19  875.51
  -6  -2  29  830.48  844.16
   6  -2 -28 1572.94  934.23
  -6  -2  28 2060.99  903.95
   6  -2 -27 1530.67 1174.77
  -6  -2  27  708.67  867.05
   6  -2 -26  610.13  794.02
  -6  -2  26  984.31  817.72
   6  -2 -25 3119.31  940.73
  -6  -2  25 2216.23  941.29
   6  -2 -24 1557.73  920.08
  -6  -2  24 2506.55  930.72
   6  -2 -23 -196.77  804.46
  -6  -2  23-2013.44  838.38
   6  -2 -22 2348.45 1168.25
  -6  -2  22 2323.31 1040.66
   6  -2 -21 6514.23 1289.07
  -6  -2  21 6643.27 1329.80
   6  -2 -20 5870.89 1164.69
  -6  -2  20 6475.59 1543.18
   6  -2 -1921180.29 2752.72
  -6  -2  1922803.05 3072.60
   6  -2 -18 1938.99  748.69
  -6  -2  18  367.32  829.55
   6  -2 -17 -740.81  713.36
  -6  -2  17 1354.67  842.59
   6  -2 -1661727.90 7010.66
  -6  -2  1657209.24 7713.04
   6  -2 -1542172.88 4522.32
  -6  -2  1538741.84 5097.65
   6  -2 -14 6862.29 1032.21
  -6  -2  14 4261.34 1050.58
   6  -2 -13 3381.58  867.42
  -6  -2  13 3351.69 1016.24
   6  -2 -1210336.79 1539.38
  -6  -2  12 8464.44 1936.57
   6  -2 -11 6107.68 1122.19
  -6  -2  11 4913.14 1090.87
   6  -2 -10 3973.35  946.69
  -6  -2  10 3933.81  933.97
   6  -2  -917586.98 1973.64
   6  -2  -913589.55 1034.55
  -6  -2   914473.86 2190.12
   6  -2  -8   -2.42  637.52
   6  -2  -8 -115.28  234.92
  -6  -2   8 -929.34  675.99
   6  -2  -7  923.33  341.60
   6  -2  -7  470.42  609.84
  -6  -2   7  202.93  595.28
   6  -2  -6  629.87  642.31
   6   2  -6 1140.34  828.77
   6  -2  -6 1229.95  375.63
  -6  -2   6 1411.94  833.63
   6   2  -515480.49 1624.34
   6  -2  -516973.99 1801.06
   6  -2  -514216.83 1234.42
  -6  -2   512608.13 1526.20
   6   2  -422217.39 2073.23
   6  -2  -420738.45 2049.81
   6  -2  -419341.45 1608.22
  -6  -2   417417.81 1896.09
   6   2  -3  575.89  659.12
   6   2  -3  -25.54  455.56
   6  -2  -3  461.70  552.50
   6  -2  -3  284.44  432.01
   6   2  -2 3944.49  551.18
   6  -2  -2 4057.69  690.26
   6   2  -2 3016.26  547.67
   6  -2  -2 2863.67  480.77
   6   2  -1  884.02  738.01
   6   2  -1  724.18  375.89
   6  -2  -1  698.42  586.66
   6  -2  -1  689.08  412.62
   6  -2   010958.89 1538.52
   6   2   013882.91 1486.59
   6   2   0 9798.43 1090.58
   6  -2   013056.83 1538.26
   6  -2   122625.85 2064.29
   6   2   126836.56 2356.24
   6   2   121439.23 1578.99
   6  -2   122518.95 2115.86
   6   2   2 6844.41  672.07
   6   2   2 6935.68 1116.25
   6  -2   2 6401.30 1057.97
   6  -2   2 7058.19  871.02
   6   2   3 -216.54  387.33
   6   2   3 -175.60  429.16
   6  -2   3 -526.56  583.71
   6  -2   3  623.17  606.95
   6   2   4 9325.44 1312.27
   6  -2   410507.91 1046.96
   6   2   410377.57  876.84
   6  -2   410675.80 1192.50
   6   2   5  600.55  398.24
   6   2   5  126.07  520.57
   6  -2   5 -478.21  379.16
   6  -2   5  450.33  470.00
   6   2   6 8947.39 1210.46
   6   2   610313.69  912.25
   6  -2   610109.33 1110.39
   6  -2   6 9365.89 1289.75
   6   2   7 1865.75  782.49
   6   2   7 1636.72  337.91
   6  -2   7 1515.65  486.97
   6  -2   7 1348.42  651.81
   6  -2   8 1256.35  630.05
   6  -2   8  389.69  341.69
   6   2   8 -163.99  639.94
   6   2   8  193.78  303.07
   6  -2   9 1060.97  671.52
   6   2   9 -265.15  733.44
   6  -2   9  382.21  321.24
   6   2   9  460.02  214.42
   6  -2  1013628.19 1802.25
   6   2  1011039.33 1602.75
   6  -2  1014502.93 1369.87
   6  -2  11 9974.85 1658.23
   6   2  1110389.84 1591.75
   6  -2  1112442.83 1234.86
   6  -2  1256074.65 6506.76
   6   2  1247522.43 5753.94
   6  -2  1258638.43 5461.20
   6  -2  13 2115.54  774.48
   6   2  13 -800.30  488.57
   6  -2  13  891.34  543.95
   6  -2  14 1228.03  858.35
   6   2  14 -358.36  817.71
   6  -2  14 1022.84  581.77
   6  -2  1540404.38 4882.63
   6   2  1539713.99 4816.71
   6  -2  16 7816.22 1472.91
   6   2  16 8899.34 1212.38
   6  -2  17 2244.41 1063.75
   6   2  17 2050.57 1020.52
   6  -2  18 4348.49 1257.44
   6   2  18 7653.19 1649.97
   6  -2  19 7832.05 1579.91
   6   2  19 7934.36 1803.49
   6  -2  20 7079.69 1394.03
   6   2  20 5396.70 1614.70
   6  -2  21 1342.09  960.67
   6   2  21  951.83 1290.96
   6  -2  22  727.77  904.63
   6   2  22 1112.69 1133.26
   6  -2  23  838.64  592.16
   6   2  23 1622.58 1187.82
   6  -2  24 1161.21  893.49
   6   2  24  382.46  722.12
   6  -2  25  767.88  869.17
   6   2  25 -510.57 1082.55
   6  -2  26 3098.24 1024.88
   6   2  26  207.00 1247.06
   6  -2  27 2804.38 1008.64
   6   2  27 -542.87 1461.95
   6  -2  28 4292.77 1257.80
   6   2  28 -771.81 1399.25
   6  -2  29-1578.44  988.68
   6   2  29   88.37 1294.16
   6  -2  30 1125.31 1157.08
   6   2  30  588.08 1283.57
   6  -2  31 -495.86 1113.07
   6   2  31 2032.68 1263.57
   6  -3 -31   47.80  966.36
  -6  -3  31  392.68  889.76
   6  -3 -30  747.10  932.06
  -6  -3  30 -123.89  871.55
   6  -3 -29  811.92  949.04
  -6  -3  29 1501.29  906.23
   6  -3 -28  400.37 1123.96
  -6  -3  28 -274.83  798.73
   6  -3 -27  171.14  873.35
  -6  -3  27 1815.59  873.43
   6  -3 -26 -541.35  793.04
  -6  -3  26 -523.91  814.30
   6  -3 -25  846.01  878.20
  -6  -3  25 1130.24  840.08
   6  -3 -24 1756.30  917.96
  -6  -3  24 2281.41  908.54
   6  -3 -2318000.00 2976.81
  -6  -3  2314202.87 2413.64
   6  -3 -22  838.40  783.44
  -6  -3  22  725.62  893.28
   6  -3 -21 7789.08 1366.98
  -6  -3  21 5715.37 1139.39
   6  -3 -2010687.62 1772.16
  -6  -3  20 9573.03 1607.67
   6  -3 -1913282.39 1935.18
  -6  -3  1911105.20 1907.56
   6  -3 -18 -230.77  734.43
  -6  -3  18 1240.25  865.34
   6  -3 -1751388.35 6046.66
  -6  -3  1741529.12 5740.74
   6  -3 -16 9002.51 1498.89
  -6  -3  16 9482.36 1420.06
   6  -3 -15  289.42  769.11
  -6  -3  15 -354.92  788.06
   6  -3 -14 1816.13  816.39
  -6  -3  14 3701.46  897.35
   6  -3 -1319930.16 2300.08
  -6  -3  1314664.33 2141.27
   6  -3 -12 2312.16 1183.16
  -6  -3  12 2222.04  931.01
   6  -3 -11  691.63  681.85
  -6   3  11  264.51  334.01
  -6  -3  11 -468.86 1069.37
   6  -3 -10  821.78  701.58
  -6   3  10  679.76  337.70
  -6  -3  10 1243.26  736.21
   6  -3  -912862.62 1960.09
  -6   3   911373.23 1042.63
  -6  -3   914416.33 1877.16
   6  -3  -8  718.54  631.43
  -6  -3   8  742.92  949.40
  -6   3   8  213.46  360.26
   6  -3  -739643.83 3925.99
  -6   3   733573.65 2872.03
  -6  -3   741331.47 4633.79
   6  -3  -6 4769.00 1223.95
  -6   3   6 5032.98  766.20
  -6  -3   6 5358.50 1192.55
   6  -3  -5 1367.57  609.24
  -6   3   5   68.07  495.89
  -6  -3   5 1262.95  657.87
   6  -3  -4 3329.17  655.35
   6   3  -4 1412.58 1249.96
  -6  -3   4 1863.18  638.69
  -6   3   4  997.09  594.74
   6   3  -3 9730.79 1897.35
   6  -3  -3 5571.93 1001.26
  -6   3   3 4869.28  944.97
  -6  -3   3 5553.89 1069.01
   6   3  -2 6631.31 1002.84
   6  -3  -2 6051.88 1035.58
  -6   3   2 6369.84  962.33
  -6  -3   2 6679.78 1131.63
   6   3  -112442.33 1025.03
   6  -3  -113864.35 1499.85
   6   3  -114453.07 1584.60
  -6   3   110334.42 1267.40
   6   3   0 1823.28  654.36
   6  -3   0 1685.57  590.73
   6   3   0 1861.18  518.02
   6  -3   0 1948.44  332.40
   6   3   1 -102.78  771.14
   6  -3   1  201.34  671.18
   6  -3   1  398.21  374.29
   6   3   1   37.54  395.32
   6   3   2 6223.36 1163.59
   6  -3   2 3579.50  667.49
   6   3   2 4211.45  530.13
   6  -3   2 3811.03  602.77
   6   3   326690.17 3214.34
   6  -3   323102.56 2123.51
   6  -3   325099.85 2233.78
   6   3   325181.57 2070.98
   6   3   4 2658.37  721.74
   6   3   4 2248.23  479.81
   6  -3   4 2073.85  511.41
   6  -3   4 2467.15  567.99
   6   3   512701.71 1585.98
   6   3   512569.36 1085.34
   6  -3   514611.04 1373.26
   6  -3   512614.28 1541.65
   6   3   6 2653.49  470.26
   6   3   6 3473.95  927.72
   6  -3   6 2390.51  688.90
   6  -3   6 3544.09  747.77
   6  -3   710745.26 1296.65
   6   3   712543.55 1618.38
   6   3   712331.77  951.13
   6  -3   711878.90 1628.63
   6  -3   8  712.61  395.71
   6   3   8 1012.81  895.54
   6   3   8  151.99  234.86
   6  -3   8  676.60  685.40
   6   3   934794.54 4321.34
   6  -3   936333.28 3045.73
   6  -3   938179.28 4219.81
   6   3  10  847.18  939.33
   6  -3  10  731.89  599.83
   6  -3  10  639.30  720.98
   6   3  11 7027.42 1489.70
   6  -3  11 5784.77  904.88
   6  -3  11 5136.19 1020.56
   6   3  12 1063.68 1068.02
   6  -3  12 1283.10  629.60
   6  -3  12  764.84  797.86
   6  -3  1330325.64 3686.76
   6   3  1335069.57 4676.57
   6  -3  1338348.06 3740.18
   6  -3  1421292.19 2865.09
   6   3  1417318.54 2623.35
   6  -3  1420123.90 2208.57
   6  -3  15 6958.49 1416.42
   6   3  1510862.02 1954.27
   6  -3  15 5381.62 1048.68
   6  -3  1619666.10 2562.05
   6   3  1621542.52 2525.77
   6  -3  1616708.64 2146.71
   6  -3  1733051.33 4193.08
   6   3  1730747.64 4198.36
   6  -3  18 8370.12 1328.81
   6   3  18 8665.31 1914.68
   6  -3  1957643.80 6521.62
   6   3  1951313.69 6481.12
   6  -3  20 1578.59  892.26
   6   3  20  650.47 1272.35
   6  -3  21 1484.09  892.26
   6   3  21  -64.01 1399.76
   6  -3  22 6863.74 1488.74
   6   3  22 9926.36 2324.73
   6  -3  23  862.24  883.95
   6   3  23 2116.69 1511.95
   6  -3  24 1027.93  841.44
   6   3  24  490.56 1413.32
   6  -3  25 3774.21  707.51
   6   3  25 -449.52 1503.46
   6  -3  26 2254.47  592.99
   6   3  26  315.35 1535.12
   6  -3  27 -768.97  495.74
   6   3  27 -220.14 1260.66
   6  -3  28  396.15  581.16
   6   3  28 -403.74 1211.51
   6  -3  29 6673.90 1070.53
   6   3  29 5701.59 1103.80
   6  -3  30  935.45 1042.17
   6   3  30  195.62 1444.25
   6  -3  31  543.91 1150.68
   6   3  31 1283.73 1497.89
   6  -4 -31 3629.31 1323.72
  -6  -4  31 3306.78 1123.91
   6  -4 -30 1634.98  988.52
  -6  -4  30 -533.39  839.20
   6  -4 -29 -566.07 1297.55
  -6  -4  29 1376.67  891.42
   6  -4 -28 1441.34  985.50
  -6  -4  28   83.92  879.08
   6  -4 -27 1041.56  921.48
  -6  -4  27  704.13  876.24
   6  -4 -26  -73.65  846.15
  -6  -4  26 -425.06  776.58
   6  -4 -25 1989.69  998.21
  -6  -4  25 3363.14 1004.38
   6  -4 -24  754.70  847.38
  -6  -4  24  760.51  884.45
   6  -4 -23 -300.29  821.88
  -6  -4  23 -600.12  889.80
   6  -4 -22 2556.05  984.46
  -6  -4  22 1729.03 1495.04
   6  -4 -2129397.10 4078.68
  -6  -4  2132187.83 4507.47
   6  -4 -20 1223.65  822.77
  -6  -4  20  194.89  924.06
   6  -4 -19 6329.06 1250.02
  -6  -4  19 4043.46 1308.86
   6  -4 -18 3918.77  911.84
  -6  -4  18 2155.87 1070.45
   6  -4 -17 -356.04  929.55
  -6  -4  17  769.17  902.01
   6  -4 -16 1132.35  780.94
  -6  -4  16  -17.47  858.98
   6  -4 -15 8562.31 1385.50
  -6  -4  15 4841.23 1306.41
   6  -4 -14 7727.30 1515.26
  -6  -4  14 7438.52 1492.15
   6  -4 -13 7818.99 1275.46
  -6  -4  13 9069.86 1895.01
   6  -4 -12  734.46  705.23
  -6   4  12-1061.71  645.81
  -6  -4  12 -419.83  818.42
   6  -4 -1129379.53 3198.46
  -6   4  1124907.41 2762.61
  -6  -4  1123718.97 3118.10
   6  -4 -10 2075.11  807.15
  -6   4  10  927.27  672.88
  -6  -4  10 1935.40  778.83
   6  -4  -9 5777.96 1129.13
  -6   4   9 4779.90 1028.50
  -6  -4   9 4617.26 1053.55
   6  -4  -8 1769.26  909.39
  -6   4   8  769.43  529.45
  -6  -4   8  950.02  732.65
   6  -4  -7  421.53  661.77
  -6   4   7 2176.25  647.35
  -6  -4   7 1214.59  699.34
   6  -4  -6 5621.86 1119.66
  -6   4   6 7146.67 1310.31
  -6  -4   6 7858.54 1498.24
   6  -4  -511941.61 1601.65
  -6   4   512148.51 1738.57
  -6  -4   512285.87 1485.06
   6  -4  -4 2050.49  731.66
  -6   4   4 2599.59  513.39
  -6  -4   4 1352.78  678.37
   6  -4  -3 4838.63 1101.70
  -6   4   3 3538.35  717.58
  -6  -4   3 6285.30 1144.78
   6  -4  -2 1749.09  906.87
  -6   4   2 2855.43  775.30
  -6  -4   2 1867.47  614.51
   6   4  -1  734.62 1400.95
   6  -4  -1  425.30  800.19
  -6   4   1 -219.85  472.22
  -6  -4   1  970.46  486.58
   6   4   0  999.52 1634.50
   6  -4   0 3890.86  721.86
  -6   4   0 1845.24  603.41
  -6  -4   0 1793.01  550.12
   6   4   174566.25 6407.02
   6   4   174034.28 8923.52
   6  -4   184566.57 8416.53
  -6   4  -183475.86 9227.88
   6   4   2 1426.53  805.02
   6   4   2   71.79  405.12
   6  -4   2  608.86  728.71
  -6   4  -2 1392.13  660.94
   6   4   3  836.88  409.90
   6   4   3  689.26  867.71
   6  -4   3  228.27  526.17
  -6   4  -3  727.03  632.48
   6   4   4 3592.88 1289.31
   6   4   4 5212.15  585.40
   6  -4   4 5090.51  816.17
   6   4   4 5093.73  666.11
   6   4   519717.77 2486.80
   6   4   522359.76 1811.53
   6  -4   521169.99 2022.77
   6  -4   523329.72 2379.35
   6   4   6 1443.12  952.06
   6   4   6  218.91  273.89
   6  -4   6  837.60  593.79
   6  -4   6  166.98  515.77
   6  -4   7 6991.45  863.51
   6   4   7 5702.16  543.99
   6   4   7 7150.04 1494.78
   6  -4   7 6235.61 1101.02
   6  -4   8  986.32  497.34
   6   4   8 1594.82 1125.85
   6  -4   8 2217.80  736.22
   6   4   917231.91 2547.54
   6  -4   915289.81 1762.73
   6  -4   914959.17 1954.21
   6   4  10 7321.27 1638.85
   6  -4  10 4637.74  803.07
   6  -4  10 6227.15 1014.30
   6  -4  1139784.97 4151.47
   6   4  1145415.87 5672.09
   6  -4  1142034.41 5241.60
   6   4  1210056.73 1898.56
   6  -4  12 7022.81  978.42
   6  -4  12 6919.24 1281.63
   6   4  13 3083.40 1468.25
   6  -4  13 3217.77  959.68
   6  -4  13 2060.80  958.79
   6   4  14  671.01 1411.10
   6  -4  14  544.91  558.31
   6  -4  14  311.26  473.81
   6   4  1533426.37 4773.56
   6  -4  1528538.11 3356.21
   6  -4  1532385.08 3699.72
   6  -4  16 5431.38 1129.71
   6   4  16 7031.22 1174.61
   6  -4  16 3816.94 1176.00
   6  -4  17 8080.83 1396.53
   6   4  17 8909.57 1909.20
   6  -4  17 6019.22 1266.89
   6  -4  18 9591.58 1538.72
   6   4  1812845.51 2501.58
   6  -4  19 5474.20 1178.36
   6   4  19 4506.09 1756.48
   6  -4  20  769.22  855.63
   6   4  20 1103.14 1405.75
   6  -4  2123755.10 3001.97
   6   4  2133757.11 4729.96
   6  -4  22 6152.72 1103.62
   6   4  22 4087.20 1888.43
   6  -4  23 6535.39 1345.26
   6   4  2314792.81 2033.95
   6  -4  24 2864.20  876.91
   6   4  24-1548.28 1466.30
   6  -4  25 8904.05 1518.28
   6   4  2510374.45 2413.47
   6  -4  26  -70.82  804.89
   6   4  26 -828.90 1540.94
   6  -4  27 4218.35 1213.89
   6   4  27 6387.49 1985.35
   6  -4  28   17.81  839.72
   6   4  28 -139.59 1438.54
   6   4  29-2890.56 1364.90
   6  -4  29   21.47  943.66
   6  -4  30 -322.84  978.76
   6   4  30 1008.43 1389.66
   6  -5 -31 2488.67 1268.93
   6  -5 -30 3411.54 1592.61
  -6  -5  30 1225.54  964.48
   6  -5 -29 2107.09 1085.23
  -6  -5  29 1461.19 1034.59
   6  -5 -28  934.63  955.76
  -6  -5  28-1240.88  848.69
   6  -5 -27  981.88  901.90
  -6  -5  27 -282.82  852.56
   6  -5 -26 -692.53  892.06
  -6  -5  26 -141.40  866.83
   6  -5 -25 -181.65  856.15
  -6  -5  25  736.81  897.27
   6  -5 -24 2203.22 1311.07
  -6  -5  24  974.83  956.79
   6  -5 -23  575.88  861.73
  -6  -5  23 1235.38  924.83
   6  -5 -22  267.31  819.40
  -6  -5  22 -879.36  870.13
   6  -5 -21 1342.13  876.95
  -6  -5  21 -585.60  913.98
   6  -5 -20 2826.37  906.75
  -6  -5  20  594.47 1031.96
   6  -5 -19 2158.02  943.55
  -6  -5  19 1643.89 1421.35
   6  -5 -18  539.39  876.39
  -6  -5  18  751.92  894.11
   6  -5 -17 2482.84 1034.52
  -6  -5  17 4284.20 1124.02
   6  -5 -16 3738.50 1215.32
  -6  -5  16 3292.88 1165.04
   6  -5 -15 -288.64  725.34
  -6  -5  15-1288.78  842.65
   6  -5 -14   50.76  730.16
  -6  -5  14 2185.15  893.11
   6  -5 -13 8907.68 1494.66
  -6   5  13 8523.84 1469.77
  -6  -5  13 8260.15 1987.76
   6  -5 -12 5802.62 1082.76
  -6   5  12 7087.36 1323.02
  -6  -5  12 5205.57 1170.17
   6  -5 -1123434.28 2779.70
  -6   5  1123676.46 2965.95
  -6  -5  1117136.68 2657.97
   6  -5 -10  453.28  761.14
  -6   5  10 1236.03  992.03
  -6  -5  10  142.11 1148.46
   6  -5  -9 2681.09  914.84
  -6   5   9 4218.48  910.46
  -6  -5   9 2238.94 1002.61
   6  -5  -819560.68 2437.85
  -6   5   823439.78 3003.30
  -6  -5   820325.12 2970.59
   6  -5  -719313.93 2534.84
  -6   5   713885.44 2171.26
  -6  -5   712493.82 1757.93
   6  -5  -6 5871.99 1179.77
  -6   5   6 8056.20 1214.82
  -6  -5   6 7389.25 1271.22
   6  -5  -5  232.88  888.76
  -6   5   5  287.24  901.36
  -6  -5   5  272.09  627.96
   6  -5  -4  921.78  639.93
  -6  -5   4 1282.16  673.84
  -6   5   4 1278.52  773.89
   6  -5  -3  782.01  766.15
  -6   5   3 3854.96  775.52
  -6  -5   3 4277.01  760.29
   6  -5  -2 8610.74 1232.29
  -6   5   2 9594.94 1690.20
  -6  -5   212308.85 1530.91
   6  -5  -115399.27 1842.23
  -6   5   116511.47 2229.65
  -6  -5   116485.54 1881.31
   6  -5   0  278.34  568.49
  -6   5   0   49.40  554.62
  -6  -5   0  582.72  639.05
   6  -5   1 1240.63  613.16
  -6   5  -1   -5.55  794.83
  -6  -5  -1  769.52  555.54
   6   5   216016.12 4089.60
   6  -5   219534.48 1956.17
  -6   5  -217323.96 2048.83
  -6  -5  -219090.41 1555.53
   6   5   329711.41 5319.78
   6   5   325531.51 2113.35
   6  -5   328601.23 2932.59
  -6   5  -325694.41 3135.64
   6   5   4 1383.42 1812.85
   6   5   4 1124.55  380.44
   6  -5   4 2180.58  648.67
  -6   5  -4  704.78  749.04
   6   5   5 3382.29 2277.61
   6   5   5 2691.79  427.33
   6  -5   5 2322.58  884.01
  -6   5  -5 1433.15  739.63
   6  -5   6 5178.82  791.18
   6   5   6 4792.94  482.31
   6   5   6 5156.78 1526.75
  -6   5  -6 3207.73  973.77
   6  -5   7 2882.52  638.78
   6   5   7 1334.29 1341.29
  -6   5  -7 2754.72  874.47
   6  -5   8 5528.32  811.98
   6   5   8 4753.15 1610.58
   6  -5   8 3840.90  592.63
   6   5   9  850.06 1320.96
   6  -5   9  780.77  552.88
   6  -5   9 1873.20  464.38
   6   5  10 1716.62 1542.42
   6  -5  10 4001.76  804.72
   6  -5  10 4555.83  965.20
   6   5  11 1166.10 1553.42
   6  -5  11 3144.32  887.00
   6  -5  11 3350.62  932.65
   6   5  12 2413.47 1591.88
   6  -5  12 3337.20  930.62
   6  -5  12 1434.75  890.75
   6   5  13 6367.90 1969.43
   6  -5  13 6392.87  983.03
   6  -5  13 6760.25 1351.03
   6   5  14-1619.02 1484.31
   6  -5  14  826.15  601.55
   6  -5  14 1126.93  788.88
   6   5  15 -480.91 1449.86
   6  -5  15 -248.20  788.68
   6  -5  15 -335.68  749.36
   6   5  16 2099.54 1770.49
   6  -5  16 2703.28 1108.14
   6  -5  16 2704.70  616.60
   6   5  17 4165.35 1145.73
   6  -5  17 3009.02  853.48
   6  -5  17 3992.55 1056.23
   6   5  18  253.24 1538.96
   6  -5  18  -83.54  911.01
   6  -5  18 -231.61  751.09
   6  -5  19 4352.33 1087.37
   6   5  19 3182.98 1899.23
   6  -5  20  408.42  714.53
   6   5  20  618.32 1589.22
   6  -5  21 1711.23  925.21
   6   5  21   81.67 1787.11
   6  -5  22  798.99  812.00
   6   5  22  824.13 1704.16
   6  -5  23 1511.72  855.08
   6   5  23 3252.85 1805.94
   6  -5  24 -249.58  740.99
   6   5  24  -46.29 1561.37
   6  -5  25 -401.67  446.52
   6   5  25 -599.95  917.77
   6  -5  26    9.32  566.67
   6   5  26 -929.00 1437.75
   6  -5  27 -464.80  918.52
   6   5  27  408.02 1564.00
   6  -5  28 1126.12 1108.60
   6   5  28 4138.19 1726.64
   6  -5  29 4148.57 1414.48
   6   5  29-2649.95 3271.25
   6  -5  30  656.75 1265.85
   6   5  30-6971.58 2679.43
   6  -6 -30 2822.85 1232.64
  -6  -6  30 1726.78 1071.49
   6  -6 -29 1080.81 1024.58
  -6  -6  29  434.84  925.50
   6  -6 -28  664.06  909.73
  -6  -6  28 -788.29  859.94
   6  -6 -27 1412.52 1015.97
  -6  -6  27 1315.44  951.49
   6  -6 -26 2507.68  999.98
  -6  -6  26 1758.31 1015.15
   6  -6 -25 7348.60 1580.45
  -6  -6  25 2974.45 1142.61
   6  -6 -24 2047.92  869.72
  -6  -6  24 -764.05 1330.73
   6  -6 -23 3179.75  959.37
  -6  -6  23 1941.33 1055.93
   6  -6 -22 1495.40  858.34
  -6  -6  22 1885.36 1075.52
   6  -6 -21 1859.53  947.46
  -6  -6  21 1015.91 1440.49
   6  -6 -20 4217.41 1112.12
  -6  -6  20 4966.32 1298.53
   6  -6 -19 1387.54  858.30
  -6  -6  19   48.65 1030.35
   6  -6 -18 1745.46  921.86
  -6  -6  18 3503.82 1172.58
   6  -6 -17 2090.94  829.31
  -6  -6  17  987.60 1114.72
   6  -6 -1612166.80 1788.65
  -6  -6  1612541.58 2318.23
   6  -6 -15  562.34  711.22
  -6  -6  15 -814.47  846.67
   6  -6 -14 6722.91 1405.09
  -6  -6  14 9003.93 1802.09
   6  -6 -13 -970.81  656.06
  -6   6  13 1542.75 1390.31
  -6  -6  13  602.10  856.83
   6  -6 -12 1020.49  789.76
  -6   6  12-1161.56  991.11
  -6  -6  12 -554.60  842.02
   6  -6 -11  559.99  838.01
  -6   6  11  688.42 1114.91
  -6  -6  11 1177.53  925.35
   6  -6 -10 3843.92 1090.30
  -6   6  10 1179.38  956.45
  -6  -6  10 4908.84 1080.46
   6  -6  -9 1639.15  901.95
  -6   6   9 1799.12 1219.91
  -6  -6   9 1345.64  860.98
   6  -6  -8 3968.17 1014.22
  -6   6   8 1768.38 1060.12
  -6  -6   8 6784.39 1217.23
   6  -6  -7 3103.55  775.91
  -6   6   7 2982.79 1032.88
  -6  -6   7  857.54  872.38
   6  -6  -6 3261.59 1260.80
  -6   6   6 4898.86 1277.17
  -6  -6   6 5593.98 1393.07
   6  -6  -519852.47 2501.08
  -6   6   528942.34 4045.55
  -6  -6   523809.87 2825.25
   6  -6  -4 2951.77  818.66
  -6   6   4 4091.33 1337.05
  -6  -6   4 4197.85  849.32
   6  -6  -3-1538.25  620.71
  -6   6   3  257.04  799.78
  -6  -6   3  984.95  573.96
   6  -6  -2  708.84  671.34
  -6   6   2-1613.59 1182.22
  -6  -6   2  539.17  793.08
   6  -6  -1 7425.75 1216.83
  -6   6   1 9846.24 1898.77
  -6  -6   1 8134.50 1156.83
   6  -6   0 4839.41  931.28
  -6   6   0 6297.40 1074.60
  -6  -6   0 6112.14 1061.69
   6  -6   1 2265.32 1043.27
  -6   6  -1 3465.89  851.29
  -6  -6  -1 2220.72  616.93
   6  -6   231279.59 3088.53
  -6   6  -233835.90 3884.91
  -6  -6  -231162.89 2908.64
   6  -6   3 1783.18  626.32
  -6   6  -3 -845.53  646.50
  -6  -6  -3  432.01  345.89
   6  -6   4 2383.80  886.96
  -6   6  -4 1286.94  737.21
   6  -6   5 4953.11  795.73
   6   6   5 4483.70  572.62
  -6   6  -5 4773.71  943.38
   6  -6   612557.22 1697.47
  -6   6  -610724.50 1684.60
   6  -6   7 6198.44  962.47
   6   6   7 7831.16 3246.88
  -6   6  -7 9815.86 1615.22
   6  -6   8  701.34  556.66
   6   6   8 1230.67 2474.13
  -6   6  -8  878.89  797.31
   6  -6   9 1477.63  567.51
   6   6   9 2024.53 2707.44
  -6   6  -9 1586.83  868.08
   6   6  1012293.66 4339.00
   6  -6  1016829.38 2081.97
  -6   6 -1015472.08 2271.59
   6  -6  11 4066.61 1082.07
   6   6  11 8725.99 3198.53
   6  -6  11 2829.18  894.36
   6   6  1215847.26 4441.21
   6  -6  1212280.45 1850.89
   6  -6  1218770.34 2356.94
   6   6  13  851.53 2793.36
   6  -6  13  644.53  945.62
   6  -6  13  646.99  727.50
   6   6  14-1817.34 2641.32
   6  -6  14  750.27  891.06
   6  -6  14-1218.69  742.01
   6   6  1512725.41 4404.85
   6  -6  1514074.78 1988.29
   6  -6  1510035.26 1290.88
   6   6  16 4484.13 3560.46
   6  -6  16 3997.05 1289.58
   6  -6  16 4478.38 1052.44
   6   6  17 5674.18 3553.50
   6  -6  17 5133.80 1310.17
   6  -6  17 2794.04 1015.64
   6   6  18 3097.18 3338.27
   6  -6  18 3340.19 1236.37
   6  -6  18 2206.99  963.82
   6   6  19  918.60 2955.02
   6  -6  19 -235.95  964.28
   6  -6  19  664.39  779.77
   6   6  20 -421.55 1672.69
   6  -6  20    9.73  739.59
   6  -6  21 1590.72  936.12
   6   6  21 4754.57 3300.77
   6  -6  22 5638.31 1181.38
   6   6  22 5700.74 3795.79
   6  -6  23 1686.92  968.16
   6   6  23 2615.52 3371.28
   6  -6  24 1334.85  846.55
   6   6  24-2362.54 3054.21
   6  -6  25 2312.93  991.13
   6   6  25 -258.35 3272.58
   6  -6  26 4370.64 1133.75
   6   6  26-6148.55 3508.14
   6  -6  27   77.29  932.91
   6   6  27   40.59 2737.69
   6  -6  28 -230.50  679.25
   6   6  28  -41.08 2725.95
   6  -6  29  112.35 1210.41
   6   6  29  445.12 2710.80
   6  -6  30 5846.92 1994.48
   6  -7 -30  282.03  796.68
   6  -7 -29 -860.09  776.60
  -6  -7  29  127.84  877.58
   6  -7 -28 1914.40  898.08
  -6  -7  28 1249.74  988.68
   6  -7 -27  272.40  774.81
  -6  -7  27  348.85 1007.81
   6  -7 -26 1284.17 1135.08
  -6  -7  26  583.81 1048.44
   6  -7 -25 1113.84  766.34
  -6  -7  25 -410.73  948.16
   6  -7 -24 1630.69  874.57
  -6  -7  24 3739.38 1520.38
   6  -7 -23  401.35  802.56
  -6  -7  23 1382.28 1018.42
   6  -7 -22 1906.05  831.03
  -6  -7  22 1466.52 1086.60
   6  -7 -21  880.28  835.40
  -6  -7  21 2430.68 1125.22
   6  -7 -20 2060.37 1019.48
  -6  -7  20 2895.51 1170.60
   6  -7 -19 9215.51 1779.46
  -6  -7  19 5284.86 1376.75
   6  -7 -18 5331.47 1308.97
  -6  -7  18 7332.15 1790.03
   6  -7 -17  347.31  700.02
  -6  -7  17-1779.86 1041.90
   6  -7 -16 1880.27  919.85
  -6  -7  16 2870.62 1138.80
   6  -7 -15 2470.87 1059.61
  -6  -7  15 4357.92 1204.95
   6  -7 -14 8228.37 1520.17
  -6   7  14 4128.45 2333.24
  -6  -7  14 5329.91 1592.74
   6  -7 -13  624.92  811.53
  -6   7  13 1053.56 1830.12
  -6  -7  13 -505.27  889.28
   6  -7 -12 5567.61 1367.99
  -6   7  12 4822.10 1582.55
  -6  -7  12 4629.50 1513.04
   6  -7 -11 8636.54 1524.34
  -6   7  11 4152.11 1677.23
  -6  -7  11 9069.30 1752.99
   6  -7 -10  679.78  767.88
  -6   7  10 -888.90 1717.01
  -6  -7  10 2013.72 1177.90
   6  -7  -9 1149.14  869.13
  -6   7   9 2219.73 1383.56
  -6  -7   9 4528.37 1007.37
   6  -7  -826837.36 2931.17
  -6   7   813198.33 2876.32
  -6  -7   823431.24 2922.22
   6  -7  -7 1014.70  722.29
  -6   7   7 -284.28 1008.33
  -6  -7   7 1245.24 1137.16
   6  -7  -6 3058.69  970.45
  -6   7   6 3124.30 1194.92
  -6  -7   6 2134.84  958.80
   6  -7  -5  603.39  679.49
  -6   7   5  456.57 1059.01
  -6  -7   5 -915.02  715.91
   6  -7  -411168.44 1596.47
  -6   7   413693.24 2465.27
  -6  -7   413719.94 2279.13
   6  -7  -3 2824.04  807.45
  -6   7   3 1810.29 1206.85
  -6  -7   3 2950.06 1082.61
   6  -7  -222903.00 2608.03
  -6   7   224890.48 3452.31
  -6  -7   227371.53 3128.40
   6  -7  -1 1820.93  697.00
  -6   7   1 1153.18 1340.25
  -6  -7   1   59.76  591.97
   6  -7   0 2655.66  805.43
  -6   7   0 2074.25 1077.75
  -6  -7   0 2227.42  874.54
   6  -7   1  821.53  691.59
  -6   7  -1 2366.16 1039.94
  -6  -7  -1  153.54  667.07
   6  -7   216126.11 2238.85
  -6   7  -216380.39 2517.02
  -6  -7  -220587.57 1967.92
   6  -7   3 4587.65  968.84
  -6   7  -3 1982.82  941.30
  -6  -7  -3 2601.74  632.33
   6  -7   438114.57 3858.01
  -6   7  -440384.26 4783.55
  -6  -7  -440475.09 3512.39
   6  -7   5   42.61  597.93
  -6   7  -5 1744.88  892.23
  -6  -7  -5  126.88  343.89
   6  -7   6 5284.35  932.98
  -6   7  -6 6705.03 1145.08
   6  -7   7 4937.69  842.77
  -6   7  -7 3861.97  962.72
   6  -7   8 2398.24  658.45
  -6   7  -8  779.15  918.00
   6  -7   9 2708.17  679.38
  -6   7  -9 1637.89  990.64
   6  -7  10  136.64  649.56
  -6   7 -10  -23.12  858.43
   6  -7  11  438.10  946.10
  -6   7 -11 -474.06  790.86
   6  -7  12 4559.32 1269.12
  -6   7 -12 3151.99 1104.89
   6  -7  13-1125.93  728.21
   6  -7  13 1103.31  461.17
   6   7  14 5421.29 3662.01
   6  -7  14 6451.05 1147.04
   6  -7  14 7443.19 1164.31
   6   7  15 1734.00 2905.45
   6  -7  15  721.99 1014.85
   6  -7  15  719.91  772.91
   6   7  16 6959.85 2982.99
   6  -7  16 -558.95 1081.23
   6  -7  16  368.87  699.15
   6   7  17  894.49 3250.22
   6  -7  17 2698.04 1020.36
   6  -7  17 2684.51  920.45
   6   7  18 7724.35 4008.30
   6  -7  18 5337.41 1352.58
   6  -7  18 7565.05 1300.36
   6   7  19  266.29 2971.63
   6  -7  19  578.89 1070.55
   6  -7  19 -278.93  787.17
   6   7  20 5333.60 3132.97
   6  -7  20  443.61 1054.15
   6  -7  20  494.54  854.02
   6   7  21-5134.97 3008.42
   6  -7  21-1010.55  854.23
   6   7  22 2021.92 3490.38
   6  -7  22 3336.99 1039.23
   6  -7  23 1618.01  936.90
   6   7  23 -634.79 3288.38
   6  -7  2417747.71 2630.93
   6   7  2413832.78 3431.29
   6  -7  25 -504.53  904.01
   6   7  25-2168.04 3013.71
   6  -7  26 -833.55  952.45
   6  -7  27 -581.78  962.29
   6  -7  28  678.09  990.99
   6  -7  29  827.48  898.39
   6  -8 -29  508.05  938.94
   6  -8 -28   54.51  801.14
  -6  -8  28  441.38 1369.41
   6  -8 -27 -607.71  741.47
  -6  -8  27 -401.05  973.51
   6  -8 -26 4501.51 1274.89
  -6  -8  26 3431.93 1669.22
   6  -8 -25 1011.42  728.49
  -6  -8  25 -752.68  946.19
   6  -8 -24 2853.20  817.46
  -6  -8  24 1676.53 1145.99
   6  -8 -23  353.14  810.38
  -6  -8  23 1035.08 1064.97
   6  -8 -22   32.38 1063.57
  -6  -8  22 1020.52 1019.29
   6  -8 -21 2556.21  938.16
  -6  -8  21 2812.11 1217.98
   6  -8 -20 7109.22 1396.39
  -6  -8  20 7093.32 1551.97
   6  -8 -19 2802.97  981.87
  -6  -8  19 1350.57 1231.16
   6  -8 -18  218.54  850.54
  -6  -8  18  944.96 1052.91
   6  -8 -17 -585.54  846.39
  -6  -8  17 -249.69 1067.69
   6  -8 -16 7712.15 1369.87
  -6  -8  16 4587.29 1431.84
   6  -8 -15 3347.49 1025.37
  -6   8  15 3035.51 2028.62
  -6  -8  15 3099.01 1204.97
   6  -8 -14 4810.64 1025.56
  -6  -8  14 4693.92 1483.07
  -6   8  14 4195.98 1991.40
   6  -8 -13  909.58  811.63
  -6   8  13  642.39 1551.62
  -6  -8  13  900.89 1015.86
   6  -8 -12  109.79  734.53
  -6   8  12 1874.09 2108.14
  -6  -8  12  332.94  880.22
   6  -8 -11 -605.52  788.64
  -6   8  11-1753.40 1481.77
  -6  -8  11 1182.54  914.55
   6  -8 -10 9703.00 1554.93
  -6   8  10 4836.42 2039.95
  -6  -8  10 7989.29 1392.63
   6  -8  -9 1741.84  878.66
  -6   8   9  355.72 2095.06
  -6  -8   9 2653.47 1001.81
   6  -8  -8 6173.81 1047.42
  -6   8   8 1308.96 1716.90
  -6  -8   8 3060.33 1090.15
   6  -8  -7 4749.81 1104.98
  -6  -8   7 3912.13 1442.24
  -6   8   7 2629.98 1325.44
   6  -8  -6 8380.99 1332.28
  -6   8   6 3737.71 2059.32
  -6  -8   6 5605.86 1404.14
   6  -8  -5 7004.08 1312.52
  -6   8   5 8121.32 1852.24
  -6  -8   5 7155.96 1709.71
   6  -8  -422340.04 2853.13
  -6   8   424625.41 4230.66
  -6  -8   425977.18 2992.00
   6  -8  -3   90.23  705.18
  -6   8   3    9.00 1114.32
  -6  -8   3  297.62  628.15
   6  -8  -2 -967.13  930.04
  -6   8   2  921.52 1158.29
  -6  -8   2  248.22  608.10
   6  -8  -1  220.47  735.76
  -6   8   1  501.41 1208.29
  -6  -8   1 1703.12  864.61
   6  -8   026540.08 2908.71
  -6  -8   027337.35 3057.60
  -6   8   020797.90 3577.46
   6  -8   1 9850.43 1426.73
  -6   8  -1 9796.16 2394.85
  -6  -8  -1 8371.16 1429.77
   6  -8   2 1954.23  722.51
  -6   8  -2 3737.01 1285.38
  -6  -8  -2 1352.77  797.56
   6  -8   3  220.88  655.24
  -6   8  -3   96.95 1047.64
  -6  -8  -3  338.21  542.94
   6  -8   4 8860.50 1243.34
  -6   8  -410146.86 1820.97
  -6  -8  -410210.07 1113.52
   6  -8   514563.25 2010.36
  -6   8  -514305.55 2337.11
  -6  -8  -513936.27 1423.79
   6  -8   6 3654.88  803.82
  -6   8  -6 4557.74 1236.74
   6  -8   7 1865.26  729.23
  -6   8  -7 2095.80 1005.39
   6  -8   8 5409.40 1184.32
  -6   8  -8 3289.97  998.82
   6  -8   9 1022.89  616.89
  -6   8  -9 -326.24  758.92
   6  -8  10 6439.50 1115.79
  -6   8 -10 6943.25 1399.81
   6  -8  11 1260.69  747.97
  -6   8 -11 2884.43 1060.25
   6  -8  1215303.54 2575.23
  -6   8 -1216029.45 2430.01
   6  -8  13 8779.90 1491.41
  -6   8 -13 7246.35 1561.98
   6  -8  14 4726.40 1362.85
  -6   8 -14 4057.04 1136.33
   6  -8  15  410.55  860.05
   6  -8  15 4186.14  637.30
   6  -8  1613338.41 2448.17
   6  -8  1614204.80 1932.94
   6  -8  17 4550.50 1189.47
   6  -8  17 2744.31 1029.29
   6  -8  18 -817.64  914.97
   6  -8  18  993.06  769.06
   6  -8  19 2239.01 1258.84
   6  -8  19 -618.98  470.31
   6  -8  2010551.47 1758.01
   6  -8  2010357.22 1700.25
   6  -8  21  333.26  902.91
   6  -8  22 7617.66 1549.17
   6  -8  23 -786.52  525.95
   6  -8  24 1138.92  967.55
   6  -8  25 -141.16  960.38
   6  -8  26 3173.57 1155.86
   6  -8  27  563.24  905.88
   6  -8  28-1001.97  466.12
   6  -9 -28 4492.20 1463.09
   6  -9 -27 3427.11 1200.00
  -6  -9  27  765.99 1144.74
   6  -9 -26 1061.14 1296.92
  -6  -9  26  640.74 1043.63
   6  -9 -25  700.84  820.71
  -6  -9  25  399.05 1037.38
   6  -9 -24   60.14  846.19
  -6  -9  24 2141.78 1096.51
   6  -9 -23 1710.02  859.71
  -6  -9  23  233.97 1114.30
   6  -9 -22 2565.57  935.06
  -6  -9  22 1881.66 1168.76
   6  -9 -21 1275.09  775.27
  -6  -9  21 -292.28 1496.33
   6  -9 -20 1192.22 1125.70
  -6  -9  20  404.05 1080.05
   6  -9 -19 3381.20  997.23
  -6  -9  19 5224.94 1368.92
   6  -9 -1812527.33 2337.31
  -6  -9  1811887.27 2980.27
   6  -9 -17 2876.69 1028.02
  -6  -9  17 2107.28 1236.12
   6  -9 -16 5467.39 1205.64
  -6  -9  16 5059.55 1406.44
   6  -9 -15  811.86  796.11
  -6   9  15 2241.98 2031.77
  -6  -9  15 2364.43 1137.07
   6  -9 -14 4594.54 1073.15
  -6   9  14 8138.58 2422.29
  -6  -9  14 5685.21 1904.51
   6  -9 -13  345.72  816.09
  -6   9  13 1986.17 2405.48
  -6  -9  13 1538.67 1405.26
   6  -9 -1223585.73 3027.83
  -6   9  1218825.06 3790.86
  -6  -9  1226809.23 3571.95
   6  -9 -11  301.45  764.51
  -6   9  11  959.80 1788.71
  -6  -9  11 1358.33 1028.13
   6  -9 -10 3384.55 1003.12
  -6   9  10 1417.12 1992.08
  -6  -9  10 2278.13 1479.98
   6  -9  -9 -697.70  785.21
  -6   9   9 1661.18 2142.67
  -6  -9   9 1706.81 1255.27
   6  -9  -820669.12 2627.88
  -6   9   810342.25 2929.73
  -6  -9   820083.16 2753.09
   6  -9  -716435.22 2110.69
  -6   9   7 9423.76 2811.39
  -6  -9   717080.38 2389.62
   6  -9  -6 -709.88  746.55
  -6  -9   6  -13.66  787.18
   6  -9  -5 3837.36  997.21
  -6   9   5 4265.73 1530.62
  -6  -9   5 5238.04 1382.67
   6  -9  -4 1046.88  757.81
  -6   9   4 -742.31 1336.78
  -6  -9   4 -259.65  807.42
   6  -9  -3    9.19  733.66
  -6   9   3 5343.65 1391.82
  -6  -9   3  853.62  796.99
   6  -9  -2 5554.24 1086.66
  -6   9   2 8364.50 2015.72
  -6  -9   2 7008.51 1470.71
   6  -9  -111839.40 1637.05
  -6   9   111783.09 2589.87
  -6  -9   117727.26 2232.48
   6  -9   0  465.98  669.86
  -6   9   0  -14.37 1389.73
  -6  -9   0  756.85  618.66
   6  -9   1 -827.71  722.50
  -6   9  -1 1360.58 1298.27
  -6  -9  -1   51.46  760.36
   6  -9   2 9678.13 1896.64
  -6   9  -210349.99 2272.45
  -6  -9  -211742.41 1402.93
   6  -9   313364.14 2242.69
  -6   9  -316699.89 3073.55
  -6  -9  -316290.82 1863.44
   6  -9   4 5475.50 1460.86
  -6   9  -4 8148.36 1559.15
  -6  -9  -4 6745.90 1095.76
   6  -9   5 -305.19  645.26
  -6   9  -5 2355.56 1162.11
   6  -9   6 1961.75  814.24
  -6   9  -6 2756.97 1044.75
   6  -9   7  227.47  640.92
  -6   9  -7  977.68  610.97
   6  -9   810432.03 1351.37
  -6   9  -812599.56 2244.72
   6  -9   9 1731.97 1116.18
  -6   9  -9 1521.07  888.56
   6  -9  10 -430.93  716.02
  -6   9 -10  330.03  801.27
   6  -9  11  226.99  896.56
  -6   9 -11 1373.12  859.62
   6  -9  12 3865.89 1419.64
  -6   9 -12 3641.92 1044.16
   6  -9  13  903.50  920.93
  -6   9 -13 1112.31  942.94
   6  -9  14 5937.04 1193.47
  -6   9 -14 4899.49 1313.19
   6  -9  15  429.67 1177.05
  -6   9 -15-1792.81  906.41
   6  -9  16 -871.17  949.55
   6  -9  16  585.87  438.09
   6  -9  17 3744.38 1549.99
   6  -9  17 1714.79  898.59
   6  -9  18 4892.60 1274.76
   6  -9  18 5197.65 1123.03
   6  -9  19  491.73 1006.31
   6  -9  19  327.32  501.35
   6  -9  20 1888.19 1216.02
   6  -9  20 -306.05  832.97
   6  -9  21 -216.94  880.30
   6  -9  21 -595.61  903.40
   6  -9  22 1389.88  970.56
   6  -9  23 4641.02  846.02
   6  -9  24 7150.46 1562.57
   6  -9  25 1179.31  997.89
   6  -9  26 -764.69  868.14
   6  -9  27 -584.29  767.32
   6 -10 -27 2306.04 1538.49
   6 -10 -26 5712.61 1351.28
  -6 -10  26 2393.55 1284.60
   6 -10 -25 1119.23  938.31
  -6 -10  25 -215.74 1078.95
   6 -10 -24  725.44  881.59
  -6 -10  24 -228.67 1023.13
   6 -10 -23  555.58  820.47
  -6 -10  23 1414.54 1089.81
   6 -10 -22 -219.06  757.94
  -6 -10  22 1276.63 1072.32
   6 -10 -2112523.79 1804.05
  -6 -10  21 5548.69 1626.88
   6 -10 -20 1315.02  835.49
  -6 -10  20  488.66 1518.35
   6 -10 -19 8832.38 1251.87
  -6 -10  19 3676.38 1454.88
   6 -10 -18 -127.03  754.31
  -6 -10  18-1174.17 1026.54
   6 -10 -17 1350.96  855.69
  -6 -10  17 2705.01 1267.61
   6 -10 -1610365.24 1669.20
  -6 -10  16 6312.72 1664.17
   6 -10 -1513902.13 1928.99
  -6  10  15 9458.89 3306.35
  -6 -10  15 9786.75 2011.28
   6 -10 -14 2104.25  908.06
  -6  10  14 1137.08 2188.76
  -6 -10  14 3443.66 1300.16
   6 -10 -13  309.70  787.12
  -6 -10  13  470.94 1378.66
  -6  10  13 -114.40 1987.76
   6 -10 -12 7080.33 1233.62
  -6  10  12 4684.23 3335.98
  -6 -10  12 4608.03 1454.86
   6 -10 -11 6938.30 1158.91
  -6  10  11 7270.06 3532.15
  -6 -10  11 6958.73 1607.21
   6 -10 -10 3985.08 1155.30
  -6  10  10 4063.25 2361.40
  -6 -10  10 3134.05 1239.29
   6 -10  -9 4401.38 1320.08
  -6  10   9 1695.48 2181.65
  -6 -10   9 1427.26 1012.40
   6 -10  -8  127.45  835.29
  -6  10   8 1305.11 1677.60
  -6 -10   8 -182.75 1160.97
   6 -10  -7-1048.80  752.16
  -6  10   7 4517.66 2477.22
  -6 -10   7 -125.18 1192.04
   6 -10  -6  588.58  815.59
  -6  10   6 2539.77 1880.43
  -6 -10   6 1389.20  941.66
   6 -10  -536656.29 4555.73
  -6  10   554356.79 9272.75
  -6 -10   537425.87 4703.83
  -6  10   4 -346.29 1441.38
  -6 -10   4 -233.94 1061.52
  -6  10   3 3234.38 1703.44
  -6 -10   3 2956.54 1049.61
   6 -10  -2 1061.56  751.87
  -6  10   2 2156.47 1404.28
  -6 -10   2-1175.61 1034.80
   6 -10  -1 3584.68  972.73
  -6  10   1 4455.13 1774.70
  -6 -10   1 6906.62 1291.59
   6 -10   0 3955.22  983.82
  -6  10   0 2871.56 1625.90
  -6 -10   0 6177.26 1205.34
   6 -10   1 6951.43 1192.40
  -6  10  -1 3089.15 1895.80
  -6 -10  -1 8525.89 1443.69
   6 -10   2 2074.91  809.37
  -6 -10  -2 2238.51  959.43
  -6  10  -2  818.91 1442.21
   6 -10   3 3253.60  894.25
  -6  10  -3 -149.78 1525.47
  -6 -10  -3 2122.48  806.36
   6 -10   4  106.99  744.53
  -6  10  -4-3367.12 1173.41
   6 -10   517087.68 2017.62
  -6  10  -515458.37 3107.00
   6 -10   6 4529.09 1014.23
  -6  10  -6 6460.58 1661.32
   6 -10   7 4276.45  913.63
  -6  10  -7 4920.64  868.99
   6 -10   8  -48.30  690.82
  -6  10  -8 1918.27  984.41
   6 -10   9  444.29  803.23
  -6  10  -9 -840.98  885.38
   6 -10  10  850.21  818.45
  -6  10 -10 1250.58 1023.73
   6 -10  11 2559.59 1023.52
  -6  10 -11 1141.76  940.63
   6 -10  12 2654.78 1306.44
  -6  10 -12  847.35  909.81
   6 -10  13 1201.87  921.50
  -6  10 -13  476.87  918.16
   6 -10  14 -247.29  867.88
  -6  10 -14  365.12  854.48
   6 -10  1524974.72 3273.54
  -6  10 -1516195.03 2318.04
   6 -10  16 -112.65 1374.15
  -6  10 -16 1262.81  937.70
   6 -10  1711153.39 1831.45
  -6  10 -17 4918.61 1244.76
   6 -10  18 1334.34 1031.34
   6 -10  18  554.60  487.82
   6 -10  19  623.12  960.09
   6 -10  19 -127.20  812.90
   6 -10  20  187.88  880.11
   6 -10  20 3417.30 1422.01
   6 -10  21 6262.35 1237.10
   6 -10  21 5422.94 1394.23
   6 -10  22  883.17  984.73
   6 -10  22 2860.87 1071.20
   6 -10  23 -400.09  978.71
   6 -10  24  596.73 1059.39
   6 -10  25 -311.25  905.15
   6 -10  26  793.77  537.78
   6 -11 -26 -886.02  999.00
   6 -11 -25 1295.88 1077.71
  -6 -11  25 2550.48 1266.07
   6 -11 -24  534.37  863.30
  -6 -11  24 -751.59 1071.17
   6 -11 -23 7756.90 1598.03
  -6 -11  23 1301.90 1310.75
   6 -11 -22  204.41  907.60
  -6 -11  22 -666.02 1092.62
   6 -11 -21 1601.77  904.40
  -6 -11  21 1280.80 1186.37
   6 -11 -20 2146.22  902.85
  -6 -11  20 2128.48 1230.11
   6 -11 -19 7022.49 1153.17
  -6 -11  19 4778.82 2025.15
   6 -11 -18 -572.44  729.04
  -6 -11  18  865.22 1028.20
   6 -11 -1722125.46 3298.75
  -6 -11  1720888.35 3694.19
   6 -11 -16 3912.03 1035.03
  -6  11  16 2226.90 2504.97
  -6 -11  16 6569.05 1858.05
   6 -11 -15  214.44  812.94
  -6  11  15  860.41 2047.10
  -6 -11  15   78.81 1024.68
   6 -11 -14  955.10  826.13
  -6  11  14 1584.26 2319.13
  -6 -11  14 1359.33 1221.22
   6 -11 -1314367.19 2090.40
  -6  11  1310839.79 3429.70
  -6 -11  13 8117.94 1884.28
   6 -11 -12  546.88 1087.09
  -6  11  12 1171.78 2177.09
  -6 -11  12 -744.64 1392.14
   6 -11 -11 5612.33 1128.13
  -6  11  11 3866.73 3582.87
  -6 -11  11 7248.69 1355.41
   6 -11 -10 3287.71  991.47
  -6  11  10 2186.45 2298.53
  -6 -11  10 2591.74 1141.38
   6 -11  -9 -256.15  917.54
  -6 -11   9  -80.21  925.62
  -6  11   9 -557.71 1900.00
   6 -11  -8 1417.11  896.68
  -6 -11   8  767.22  974.41
  -6  11   8 -499.00 2085.49
   6 -11  -721765.02 2976.81
  -6  11   713352.30 3583.84
  -6 -11   725534.26 3684.48
  -6  11   6 1483.93 1826.00
  -6 -11   6   71.64 1155.01
  -6 -11   5 4304.62 1165.06
  -6  11   5  656.67 2089.84
   6 -11  -4  466.08  794.81
  -6  11   4 -960.53 1958.19
  -6 -11   4 1432.98  852.96
   6 -11  -3 7317.80 1429.36
  -6  11   3 6013.74 2023.07
  -6 -11   311181.21 2074.05
   6 -11  -2 5986.19 1101.69
  -6  11   2 1188.13 1810.20
  -6 -11   2 7413.37 1237.13
   6 -11  -118160.60 2253.35
  -6  11   1 8063.35 2601.38
  -6 -11   117627.22 2567.84
   6 -11   0  822.07  857.13
  -6  11   0 1423.63 1500.70
  -6 -11   0  614.94  975.33
   6 -11   1 1048.61  803.96
  -6  11  -1 1801.13 1465.58
  -6 -11  -1 -518.88  870.62
   6 -11   2  823.39  857.87
  -6  11  -2  385.50 1485.63
  -6 -11  -2  539.76  744.20
   6 -11   314706.60 1796.69
  -6  11  -3 3242.54 2066.23
   6 -11   4 1238.52  834.09
  -6  11  -4  945.88 1543.14
   6 -11   5 -252.75  723.85
  -6  11  -5 -260.00 1233.69
   6 -11   6 2513.48 1118.49
  -6  11  -6 2156.12 1326.09
   6 -11   7 1076.67 1042.47
  -6  11  -7  906.68 1243.00
   6 -11   8 1090.05 1142.82
  -6  11  -8 1628.07  981.41
   6 -11   9  438.07 1174.85
  -6  11  -9  707.09  613.63
   6 -11  10 2571.59 1523.77
  -6  11 -10 3564.39 1176.78
   6 -11  11 2110.16 1291.12
  -6  11 -11 1175.42 1139.72
   6 -11  12  708.96 1326.95
  -6  11 -12-1105.80  849.23
   6 -11  13 2243.96 1031.06
  -6  11 -13  385.67  927.62
   6 -11  14  312.48  988.80
  -6  11 -14 2851.24  923.64
   6 -11  15 9976.89 1961.51
  -6  11 -1511258.57 1885.28
   6 -11  16 1021.67 1125.92
  -6  11 -16  520.25  914.09
   6 -11  17 3639.07 1435.79
  -6  11 -17 4214.31 1121.22
   6 -11  18 -294.99 1077.18
  -6  11 -18 -334.84  843.48
   6 -11  1920513.81 2878.37
   6 -11  19 5659.24  833.36
   6 -11  20  451.93  823.35
   6 -11  20 -578.98 1347.44
   6 -11  21   -7.20  530.29
   6 -11  21 -317.72  962.59
   6 -11  22 -327.70  873.98
   6 -11  22 -286.73  892.75
   6 -11  23 2896.36 1194.17
   6 -11  24 1372.86 1122.21
   6 -11  25 6359.32 1328.59
   6 -12 -24 1375.59  942.15
  -6 -12  24 1514.17 1643.43
   6 -12 -23 1290.44 1262.40
  -6 -12  23 2446.85 1302.54
   6 -12 -22 -479.17  827.68
  -6 -12  22 -646.23 1564.83
   6 -12 -21 7337.20 1318.03
  -6 -12  21 2953.97 1500.84
   6 -12 -20  822.32  817.14
  -6 -12  20-2739.49 1478.33
   6 -12 -19 8267.07 1467.16
  -6 -12  19 3431.61 1495.00
   6 -12 -18  760.23  882.63
  -6 -12  18-1741.25 1031.09
   6 -12 -17 6715.57 1439.45
  -6 -12  17  785.76 1244.30
   6 -12 -16 1730.07  830.80
  -6 -12  16-1861.83 1032.25
   6 -12 -1512308.87 1984.62
  -6  12  1511891.89 3494.96
  -6 -12  1510602.08 2314.40
   6 -12 -14  914.81  781.47
  -6  12  14-2889.79 2139.24
  -6 -12  14  307.22 1080.20
   6 -12 -13 1045.52  807.56
  -6  12  13  380.65 2289.30
  -6 -12  13  740.19 1095.83
   6 -12 -12 1769.62  890.17
  -6  12  12-1136.03 2384.86
  -6 -12  12 -354.25 1108.63
   6 -12 -11 3087.45  998.33
  -6  12  11-1011.05 2500.69
  -6 -12  11 3006.87 1265.68
   6 -12 -1014869.79 2374.44
  -6  12  1012422.69 3641.98
  -6 -12  1012305.59 2866.30
   6 -12  -9 6329.35 1637.31
  -6  12   9 7957.19 2854.61
  -6 -12   9 3625.52 1922.30
   6 -12  -8 5798.24 1336.62
  -6  12   8 3919.85 2820.90
  -6 -12   8 6974.59 1870.89
   6 -12  -7 -105.11  863.41
  -6  12   7 1729.20 2227.26
  -6 -12   7  -26.71 1244.58
   6 -12  -6  952.37  985.32
  -6  12   6 2881.76 2967.30
  -6 -12   6 3977.96 1352.68
   6 -12  -5 9238.38 1689.39
  -6  12   5 4571.14 2907.28
  -6 -12   511790.38 1646.06
   6 -12  -4 7115.11 1557.64
  -6  12   4 1293.00 2607.72
  -6 -12   4 4340.61 1362.39
   6 -12  -3 2473.15 1072.24
  -6  12   3 2859.59 2459.47
  -6 -12   310623.65 1547.44
   6 -12  -2  227.07  839.13
  -6 -12   2   73.41  757.09
  -6  12   2 1184.04 1494.61
   6 -12  -1 3041.74  945.39
  -6 -12   1  970.60 1096.14
  -6  12   1 -226.81 1638.99
   6 -12   0 -381.77  801.38
  -6  12   0   54.63 1530.90
  -6 -12   0-1843.61  704.46
   6 -12   1 4358.00 1151.85
  -6  12  -1 3720.55 1875.79
   6 -12   2 -364.05 1125.13
  -6  12  -2-1893.83 1460.55
   6 -12   3  917.63  857.96
  -6  12  -3  591.86 1506.78
   6 -12   413754.51 1842.40
  -6  12  -4 4680.05 2215.82
   6 -12   5 1009.22  828.17
  -6  12  -5  105.94 1507.82
   6 -12   6 3458.31  929.60
  -6  12  -6 1788.17 1585.08
   6 -12   7   86.54  874.87
  -6  12  -7 2156.57 1345.81
   6 -12   8 8259.48 1499.01
  -6  12  -8 6717.42 1913.02
   6 -12   9  373.06  910.99
  -6  12  -9 1309.53 1244.56
   6 -12  10  706.05  983.08
  -6  12 -10  -88.64  976.77
   6 -12  11 2939.01 1093.60
  -6  12 -11  518.35 1135.27
   6 -12  1212054.56 1965.17
  -6  12 -12 9602.94 2132.31
   6 -12  13 1719.12 1033.04
  -6  12 -13  334.73  854.11
   6 -12  14 -201.84  975.18
  -6  12 -14  -73.86  806.31
   6 -12  15 3561.36 1479.21
  -6  12 -15 4189.87 1125.42
   6 -12  16 1153.21 1155.18
  -6  12 -16  363.53  863.43
   6 -12  17 1683.40 1105.05
  -6  12 -17 -539.25  824.69
   6 -12  18  -43.86 1107.87
  -6  12 -18 1719.89  916.72
   6 -12  19  628.88 1084.95
  -6  12 -19 -474.89  830.81
   6 -12  20 -902.67  521.02
   6 -12  20 1382.15 1078.15
   6 -12  21 -469.75  957.61
   6 -12  21 1478.43 1084.13
   6 -12  22  955.38  910.15
   6 -12  22  821.33 1006.23
   6 -12  23 -473.38  988.73
   6 -12  23 -231.91  868.15
   6 -13 -23 2075.24 1251.24
  -6 -13  23  366.82 1259.74
   6 -13 -22 -407.27  914.43
  -6 -13  22 1573.05 1221.06
   6 -13 -21 2245.22  926.17
  -6 -13  21 -347.79 1164.33
   6 -13 -20  810.84  879.68
  -6 -13  20  322.79 1167.92
   6 -13 -19 4610.77 1133.58
  -6 -13  19 3354.14 1445.46
   6 -13 -18 6544.05 1350.16
  -6 -13  18 2075.60 1994.00
   6 -13 -17 5035.06 1429.09
  -6 -13  17 2422.87 1387.33
   6 -13 -16 1485.82  849.08
  -6 -13  16   -6.40 1174.13
   6 -13 -15  620.23  907.53
  -6  13  15  228.86 2139.84
  -6 -13  15 1495.96 1153.65
   6 -13 -14 5226.37 1182.50
  -6  13  14  690.91 3465.78
  -6 -13  14 1127.96 1234.15
   6 -13 -13 1161.82 1270.99
  -6  13  13-1854.60 2269.66
  -6 -13  13  253.29 1025.59
   6 -13 -1224493.73 2896.77
  -6  13  1213382.22 4144.22
  -6 -13  12 8573.49 2417.98
   6 -13 -11 4043.85 1077.09
  -6  13  11  351.17 2637.09
  -6 -13  11  168.89 1120.67
   6 -13 -10 4934.07 1242.49
  -6  13  10 2821.71 2546.92
  -6 -13  10 1045.54 1134.72
   6 -13  -9 1672.22  894.70
  -6  13   9-1729.78 3191.82
  -6 -13   9  -47.55  938.40
   6 -13  -8 7839.94 1527.58
  -6  13   8 5082.30 2841.80
  -6 -13   8 5742.85 1573.42
   6 -13  -7 1113.25 1186.61
  -6  13   7 2999.61 2391.37
  -6 -13   7  887.94 1025.79
   6 -13  -6 7560.98 1599.26
  -6  13   6 9771.50 3486.65
  -6 -13   6 4677.19 1462.65
   6 -13  -5 2403.29  865.01
  -6  13   5-1144.08 2243.29
  -6 -13   5 1578.50  988.62
   6 -13  -4  122.11  835.20
  -6  13   4 -571.79 2026.13
  -6 -13   4  167.28  822.62
   6 -13  -3 8064.82 1377.06
  -6  13   3 4481.31 2756.43
  -6 -13   3 6650.61 1721.99
   6 -13  -2 4401.53 1025.35
  -6  13   2 1986.66 2477.51
  -6 -13   2 2473.54  928.90
   6 -13  -1 5639.29 1139.68
  -6  13   1 1509.91 1971.79
  -6 -13   1 6150.86 1470.74
   6 -13   0 4809.51 1189.94
  -6  13   0 1887.54 1916.13
   6 -13   1 1105.47  884.77
  -6  13  -1 1804.75 1644.41
   6 -13   219713.77 2350.08
  -6  13  -2 6115.30 2640.99
   6 -13   3  969.83  861.80
  -6  13  -3 1370.68 1702.00
   6 -13   4  403.05  787.12
  -6  13  -4 -280.92 1500.18
   6 -13   5  774.38 1181.12
  -6  13  -5 1096.37 1536.08
   6 -13   6 9640.45 1668.54
  -6  13  -6 5417.07 2207.93
   6 -13   7  169.84  947.80
  -6  13  -7 1073.32 1388.08
   6 -13   8 1807.89 1014.48
  -6  13  -8 1396.63 1352.07
   6 -13   9 5315.80 1780.00
  -6  13  -9 3422.89 1505.11
   6 -13  1014847.12 2021.29
  -6  13 -10 5628.57 1388.73
   6 -13  11 1005.61 1091.06
  -6  13 -11-1262.86  920.53
   6 -13  12  112.36 1097.36
  -6  13 -12 1358.94 1002.59
   6 -13  13 7767.95 1494.96
  -6  13 -13 3780.88 1272.11
   6 -13  14 5099.38 1613.25
  -6  13 -14 3903.53 1110.67
   6 -13  15 6607.42 1906.72
  -6  13 -15 1813.48 1042.31
   6 -13  16-1129.59 1582.90
  -6  13 -16 1030.12  876.54
   6 -13  17 3656.34 1301.74
  -6  13 -17  673.23  913.66
   6 -13  18  104.21 1066.67
  -6  13 -18  225.56  860.74
   6 -13  19 2106.14 1203.27
  -6  13 -19 2462.47 1008.70
   6 -13  20  753.65 1178.05
  -6  13 -20 1316.26  924.04
   6 -13  21  -71.41  512.44
   6 -13  21 -317.77 1021.34
   6 -13  22 1105.48  988.38
   6 -13  22 -485.40  828.05
   6 -14 -21    7.72  844.04
  -6 -14  21 -183.83 1103.21
   6 -14 -20 4992.46 1108.14
  -6 -14  20 1397.76 1477.97
   6 -14 -19  854.23  975.22
  -6 -14  19 1934.66 1259.18
   6 -14 -18  506.29  939.05
  -6 -14  18  458.75 1163.23
   6 -14 -17  828.24 1276.47
  -6 -14  17 1443.77 1145.46
   6 -14 -1611833.67 1805.22
  -6 -14  16 5875.60 2266.09
   6 -14 -15 1883.40  980.47
  -6  14  15 1150.80 2387.62
  -6 -14  15 2111.20 1241.39
   6 -14 -14 4187.66 1165.12
  -6  14  14 1223.35 2573.19
  -6 -14  14 1733.57 1276.37
   6 -14 -13 2415.34  992.35
  -6  14  13 1109.00 2521.81
  -6 -14  13 -365.59 1535.20
   6 -14 -12 1129.88  894.39
  -6  14  12  178.43 2385.13
  -6 -14  12 1057.59 1130.51
   6 -14 -11 2005.83 1035.27
  -6  14  11 3357.45 2627.52
  -6 -14  11  -74.47 1168.65
   6 -14 -1018470.87 2776.29
  -6  14  1014608.45 4124.84
  -6 -14  1015740.58 2759.32
   6 -14  -9 -529.59  863.86
  -6  14   9  695.26 2319.47
  -6 -14   9 1448.67 1409.97
   6 -14  -811298.50 1996.01
  -6  14   810016.47 3649.93
  -6 -14   811418.16 2722.10
   6 -14  -7  764.15  862.43
  -6  14   7-1210.54 2384.66
  -6 -14   7  255.89 1331.38
   6 -14  -619905.87 2779.02
  -6  14   621955.49 5397.54
  -6 -14   617247.62 3464.69
   6 -14  -5 2069.87  937.19
  -6  14   5  -70.35 2244.80
  -6 -14   5 2851.18 1412.65
   6 -14  -4 7885.76 1589.41
  -6  14   4 4281.75 2953.06
  -6 -14   4 8207.70 1743.93
   6 -14  -3  546.78  833.77
  -6  14   3  630.31 2132.63
  -6 -14   3 1381.72  909.01
   6 -14  -2 1981.09  985.17
  -6  14   2 -983.83 2145.73
  -6 -14   2  984.43  863.65
   6 -14  -110953.42 1686.03
  -6  14   1 6532.20 2474.70
   6 -14   0  270.05  901.28
  -6  14   0 -933.65 1554.90
   6 -14   1 1747.09  878.39
  -6  14  -1  -31.03  990.99
   6 -14   2 2273.08  959.65
  -6  14  -2 4676.72 1900.23
   6 -14   3  261.26  873.12
  -6  14  -3 1890.44 1651.85
   6 -14   4 6481.26 1238.04
  -6  14  -4 -376.60 1973.25
   6 -14   5  976.30  936.88
  -6  14  -5 -640.38 1606.44
   6 -14   625075.50 3220.89
  -6  14  -611579.04 3117.16
   6 -14   7 -446.50  967.43
  -6  14  -7  477.41 1243.05
   6 -14   8-1151.44 1097.22
  -6  14  -8 -600.23 1267.93
   6 -14   9  484.57 1019.58
  -6  14  -9 -550.37 1238.13
   6 -14  1012594.69 1810.43
  -6  14 -10-1368.47 1667.39
   6 -14  11 1258.26 1067.75
  -6  14 -11  990.47 1108.65
   6 -14  12  969.32 1093.62
  -6  14 -12 1792.29 1105.97
   6 -14  13 1803.18 1110.24
  -6  14 -13  658.53 1035.79
   6 -14  14-1352.98 1173.61
  -6  14 -14  270.00  995.79
   6 -14  15 1393.29 1670.74
  -6  14 -15  -71.55  903.72
   6 -14  16  958.20 1275.28
  -6  14 -16 1430.92  916.50
   6 -14  17   24.10 1159.76
  -6  14 -17 -691.29  828.82
   6 -14  18  711.05 1232.88
  -6  14 -18 1208.62  543.59
   6 -14  19 -491.87 1121.83
  -6  14 -19 -385.86  837.13
   6 -14  20 2133.46 1713.81
  -6  14 -20 1223.71  951.89
   6 -14  21 1641.36 1673.60
   6 -15 -19  394.50 1013.28
  -6 -15  19 1535.86 1242.45
   6 -15 -18 1775.91 1052.32
  -6 -15  18 1268.20 1740.23
   6 -15 -17 6840.93 1360.75
  -6 -15  17 2615.45 1472.75
   6 -15 -16 2874.44 1238.08
  -6 -15  16 2645.67 1839.54
   6 -15 -15 -131.92  865.35
  -6  15  15-1789.28 2135.03
  -6 -15  15  -73.85 1127.83
   6 -15 -14 1426.63  942.11
  -6  15  14 1149.26 3108.83
  -6 -15  14  178.10 1196.67
   6 -15 -13 1833.87 1045.03
  -6  15  13 2915.75 2517.61
  -6 -15  13  453.67 1609.84
   6 -15 -12 1669.26 1137.49
  -6  15  12 5030.55 2790.64
  -6 -15  12 2250.39 1316.93
   6 -15 -11 -581.48  863.52
  -6  15  11 2103.59 2482.61
  -6 -15  11 -228.89 1116.67
   6 -15 -10  558.96  900.53
  -6  15  10  586.47 2310.44
  -6 -15  10  218.21 1129.86
   6 -15  -9-1001.67  904.84
  -6  15   9 -149.68 2364.60
  -6 -15   9  450.36 1526.14
   6 -15  -8 5070.04 1416.63
  -6  15   8 6127.93 3156.35
  -6 -15   8 7378.89 2179.21
   6 -15  -7 6992.33 1556.28
  -6  15   7 7251.14 3372.55
  -6 -15   7 8306.94 1576.99
   6 -15  -611790.27 1800.34
  -6  15   6 7599.10 3875.83
  -6 -15   610512.66 2151.51
   6 -15  -5  257.22  953.16
  -6  15   5 2671.71 2300.16
  -6 -15   5 2011.27 1062.17
   6 -15  -4 6064.72 1148.16
  -6  15   4 4572.91 2893.55
  -6 -15   4 6524.61 1759.31
   6 -15  -3-1162.97  918.64
  -6  15   3 1464.33 2332.73
   6 -15  -214139.85 2003.08
  -6  15   2 5716.09 3586.81
   6 -15  -1  551.83  827.53
  -6  15   1  227.19 2185.73
  -6  15   0 2328.58 1847.52
  -6  15  -1 -959.46 1700.08
   6 -15   2 3718.55 1091.70
  -6  15  -2  400.63 1981.15
   6 -15   3 1118.43  969.05
  -6  15  -3   -4.65 1684.83
   6 -15   413326.89 2163.48
  -6  15  -4 6562.88 2550.62
   6 -15   5  553.45 1019.84
  -6  15  -5  501.94 1721.68
   6 -15   6 3266.99 1299.83
  -6  15  -6 6680.66 2064.69
   6 -15   7 1463.13 1076.63
  -6  15  -7-1235.18 1635.13
   6 -15   813346.18 1908.46
  -6  15  -8-1905.35 1713.99
   6 -15   9 1777.71 1419.89
  -6  15  -9-1234.24 1256.53
   6 -15  10  446.17  992.59
  -6  15 -10 -683.27 1338.20
   6 -15  11 -609.72 1003.46
  -6  15 -11  617.75 1196.57
   6 -15  12 1656.21 1112.23
  -6  15 -12 1818.49 1131.06
   6 -15  13  959.63 1300.67
  -6  15 -13  729.89 1013.14
   6 -15  14 5107.79 1608.81
  -6  15 -14 2658.00 1194.40
   6 -15  15 1732.79 1789.52
  -6  15 -15 -696.16  923.65
   6 -15  16 2212.02 1293.43
  -6  15 -16-1815.54  821.73
   6 -15  17 1995.02 1194.14
  -6  15 -17 -717.75  826.40
   6 -15  18 3921.99 1555.53
   6 -16 -16  583.43  922.27
  -6  16  16  298.65 2068.97
  -6 -16  16  206.06 1167.18
   6 -16 -15 3663.50 1189.06
  -6  16  15 2678.43 2478.09
  -6 -16  15  920.97 1345.31
   6 -16 -14 1489.20  982.87
  -6  16  14 1481.28 2414.34
  -6 -16  14 1218.53 1266.51
   6 -16 -13  826.87  949.30
  -6  16  13  422.02 2462.19
  -6 -16  13  795.44 1625.86
   6 -16 -12 -896.77  971.17
  -6  16  12 1124.78 2413.83
  -6 -16  12 -448.31 1129.19
   6 -16 -11 1055.07 1406.68
  -6  16  11 2042.31 2693.49
  -6 -16  11 1665.25 1224.84
   6 -16 -10 8136.65 1602.77
  -6  16  10 8361.26 3218.39
  -6 -16  10 4924.10 1534.26
   6 -16  -9  963.85 1031.08
  -6  16   9 -795.19 2429.87
  -6 -16   9 3473.09 1658.34
   6 -16  -8 1136.28 1260.18
  -6  16   8 2751.16 2573.35
  -6 -16   8 3014.37 1591.25
   6 -16  -7 -394.76  877.84
  -6  16   7-2517.57 2427.25
  -6 -16   7  630.41 1046.04
   6 -16  -6 6824.01 1543.24
  -6  16   6 3594.23 3256.76
  -6 -16   6 6523.52 1620.93
   6 -16  -5 3894.93 1135.76
  -6  16   5 4247.20 3031.43
  -6 -16   5 5238.26 1441.39
   6 -16  -4 5623.29 1588.28
  -6  16   4 1294.05 2713.80
   6 -16  -3 1187.30  921.60
  -6  16   3-3554.31 2227.79
   6 -16  -2  178.57  880.45
  -6  16   2 -423.89 2157.46
   6 -16  -1  500.82  896.25
  -6  16   1  187.77 2259.15
   6 -16   0 4561.75 1274.87
  -6  16   0 6036.71 2342.48
   6 -16   1  691.38  897.49
  -6  16  -1 -255.67 1000.75
   6 -16   2 1405.80  987.14
  -6  16  -2 -384.39 1794.75
   6 -16   3-1156.71  978.55
  -6  16  -3  729.33 1789.78
   6 -16   4  136.19  952.43
  -6  16  -4 -363.03 1671.00
   6 -16   5   25.38 1121.37
  -6  16  -5  138.82 1627.74
   6 -16   6 8064.02 2020.83
  -6  16  -6 3475.99 1324.33
   6 -16   7 3296.53 1297.18
  -6  16  -7   88.57 1817.49
   6 -16   8 1500.13 1590.87
  -6  16  -8 2192.73 1779.98
   6 -16   9  880.98 1095.11
  -6  16  -9  844.90 1326.98
   6 -16  10 6938.41 1793.97
  -6  16 -10 -544.76 1603.41
   6 -16  11 1794.33 1127.11
  -6  16 -11 -393.70 1322.52
   6 -16  12 7165.30 1793.96
  -6  16 -12  670.76 1456.85
   6 -16  13  147.16 1202.97
  -6  16 -13  -35.90 1017.22
   6 -16  14 1166.55 1412.41
  -6  16 -14  912.89  669.83
   6 -16  15  161.22 1623.54
  -6  16 -15  -45.92  975.77
   6 -16  16 2936.43 1462.69
  -6  17  13 1230.88 2354.79
  -6 -17  13 -521.57 1181.86
   6 -17 -12 3142.86 1225.80
  -6  17  12 3977.62 2778.35
  -6 -17  12  168.30 1821.34
   6 -17 -11  131.94  991.96
  -6  17  11-2608.21 2503.93
  -6 -17  11  527.25 1098.75
   6 -17 -10  282.72  993.32
  -6  17  10 1829.92 2391.73
  -6 -17  10  148.44 1114.76
   6 -17  -9 2859.35 1245.90
  -6  17   9-2087.61 2616.90
  -6 -17   9 1862.48 1148.41
   6 -17  -8 2229.84 1031.12
  -6  17   8  303.48 2637.20
  -6 -17   8  991.57 1114.79
   6 -17  -720888.32 2556.08
  -6  17   7 8361.42 3957.93
  -6 -17   7 6235.75 2213.02
   6 -17  -6 3967.02 1132.92
  -6  17   6 1883.44 3004.08
   6 -17  -5  122.86  950.16
  -6  17   5 2252.27 2611.57
   6 -17  -4  856.49  955.81
  -6  17   4 1500.66 2399.19
   6 -17  -3 1912.43 1034.10
  -6  17   3 3795.02 2551.92
   6 -17  -2  282.34  952.79
  -6  17   2-3770.22 2228.37
   6 -17  -1 2578.96 1098.19
  -6  17   1 5212.54 2774.75
   6 -17   0  259.59  956.09
  -6  17   0-1440.03 1737.25
   6 -17   1 3657.69 1270.99
  -6  17  -1 2462.34 2115.09
   6 -17   2   92.59  989.56
  -6  17  -2 1604.98 1793.63
   6 -17   3 4921.91 1278.87
  -6  17  -3 2718.93 2163.39
   6 -17   4 1001.50 1586.96
  -6  17  -4 1851.52 1894.69
   6 -17   5 2640.66 1252.72
  -6  17  -5 1451.20 1924.72
   6 -17   6  954.94 1161.29
  -6  17  -6 2453.61 1804.51
   6 -17   7  -95.49 1157.39
  -6  17  -7 2336.23 1719.30
   6 -17   8 1345.37 1152.84
  -6  17  -8  561.76 1051.76
   6 -17   9 3417.48 1638.10
  -6  17  -9 -230.04 1499.00
   6 -17  10  324.24 1057.17
  -6  17 -10 -121.10 1225.21
   6 -17  11 3542.05 1947.63
  -6  17 -11 -170.42 1416.30
   6 -17  12   29.51 1192.91
  -6  18   7-3830.84 2942.65
  -6  18   6 1643.33 2777.35
   6 -18  -513030.03 1945.22
  -6  18   5 3925.20 3473.65
   6 -18  -4 1423.37 1010.47
  -6  18   4  445.66 2447.28
   6 -18  -3 1505.42 1010.96
  -6  18   3 3382.75 2608.47
   6 -18  -2 1222.18 1030.12
  -6  18   2 -678.26 2451.19
   6 -18  -1 8867.57 1732.98
  -6  18   1 2033.04 3090.96
   6 -18   0 1753.58 1363.71
  -6  18   0 -659.81 1861.89
   6 -18   1 3769.91 1225.95
  -6  18  -1 -164.69 2108.93
   6 -18   2  -64.57  975.38
  -6  18  -2-2119.99 1807.18
   6 -18   3-1318.90 1105.90
  -6  18  -3-2015.51 1969.35
   6 -18   4 -576.30 1157.44
  -6  18  -4 1963.28 1161.73
   6 -18   5 6827.65 1612.08
  -6  18  -5 4611.36 2394.04
   6 -18   6  723.25 1136.66
  -6  18  -6 -603.70 1724.17
   7   0 -29  510.41  509.31
   7   0 -28  801.20  493.65
  -7   0  27 -590.62  750.85
  -7   0  26 3479.70  926.72
  -7   0  25-1139.41  723.59
  -7   0  24-1453.15  745.00
  -7   0  23  211.55  734.97
  -7   0  22  112.98  732.41
  -7   0  21   41.23  748.56
   7   0 -20  119.03  449.57
   7   0 -19  234.55  430.41
   7   0 -18 3638.42  701.29
   7   0 -17   22.82  439.59
   7   0 -1648194.44 5689.01
   7   0 -15  892.79  775.13
   7   0 -14 1056.39  753.35
   7   0 -13 -125.27  716.82
   7   0 -12 2303.57  906.23
   7   0 -11  -38.36  614.98
   7   0 -1043771.68 4272.64
   7   0  -9  898.67  896.10
   7   0  -829567.93 3285.11
   7   0  -7  422.37  633.04
   7   0  -612392.95 1459.20
   7   0  -5  552.85  779.16
   7   0  -414289.12 1554.72
   7   0  -411971.53 1262.21
   7   0  -3 -516.81  482.02
   7   0  -3  148.59  536.44
   7   0  -2 3242.23  555.18
   7   0  -2 5551.11  984.69
   7   0  -1  776.50  593.33
   7   0  -1 -170.77  659.63
   7   0   0 1323.90  588.17
   7   0   0 3725.95  611.57
   7   0   1 -121.22  604.46
   7   0   1  -64.44  402.10
   7   0   2  -55.79  381.87
   7   0   2   36.64  626.70
   7   0   3  340.68  570.19
   7   0   3   66.34  460.65
   7   0   4 6560.66 1085.47
   7   0   4 8787.78 1009.95
   7   0   5   -2.53  653.63
   7   0   5 -400.06  294.19
   7   0   6 1694.92  614.79
   7   0   6 1498.14  481.15
   7   0   7-1052.20  594.90
   7   0   7 -782.55  424.46
   7   0   8 -342.63  685.45
   7   0   8  874.07  394.92
   7   0   9 -663.15  927.87
   7   0  1034863.98 4153.07
   7   0  11 1073.93  865.88
   7   0  12 1166.13  874.75
   7   0  13 -535.62  761.21
   7   0  14 7649.03 1469.10
   7   0  15  484.57  816.49
   7   0  1615924.33 2215.68
   7   0  17 1265.76  980.01
   7   0  18 2674.26 1111.10
   7   0  19 1156.07 1058.45
   7   0  20  958.59 1014.09
   7   0  21 -353.35  995.26
   7   0  22 4918.79 1309.98
   7   0  23 -224.95  982.72
   7   0  24  510.71  986.26
   7   0  25-1164.63 1057.56
   7   0  27  -68.60 1104.79
   7   0  28 -122.62 1178.17
   7  -1 -29 1380.73  886.22
  -7  -1  29 1330.84  859.65
   7  -1 -28 1191.62  851.43
  -7  -1  28  490.19  789.54
   7  -1 -27  750.47  787.84
  -7  -1  27 -474.43  711.12
   7  -1 -26 1254.09  855.94
  -7  -1  26  153.57  747.01
   7  -1 -25  623.08  770.35
  -7  -1  25 -297.27  702.30
   7  -1 -24 2322.41  860.60
  -7  -1  24 1216.99  836.48
   7  -1 -23 -391.89  763.49
  -7  -1  23-1148.05  722.38
   7  -1 -22 -119.37  754.93
  -7  -1  22  852.61  757.58
   7  -1 -21 -438.68  725.45
  -7  -1  21  480.33  731.26
   7  -1 -20 1104.78  780.04
  -7  -1  20-1044.25  761.92
   7  -1 -19 2436.52  863.39
  -7  -1  19  273.62  934.78
   7  -1 -18 7984.87 1441.87
  -7  -1  18 5655.81 1287.73
   7  -1 -17-1259.73  787.04
  -7  -1  17 2473.37  872.32
   7  -1 -16-1980.57  767.97
  -7  -1  16 -261.90  785.34
   7  -1 -15  803.78  783.52
  -7  -1  15  246.95  791.40
   7  -1 -1420745.52 2768.42
  -7  -1  1421363.77 2583.80
   7  -1 -13   55.98 1025.29
  -7  -1  13 -156.37  733.28
   7  -1 -1234433.20 2840.31
   7   1 -12 7455.01 1152.39
   7  -1 -11  979.36  736.13
   7   1 -11 1707.70  672.90
   7  -1 -10 3472.90  828.95
   7   1 -10 3555.39  853.66
   7  -1  -9 2198.75  734.91
   7   1  -9  172.15  633.39
   7   1  -8 2005.08  685.94
   7  -1  -8 2447.58  802.70
   7   1  -7  606.25  567.43
   7  -1  -7  -64.10  639.50
   7   1  -6 1842.06  817.86
   7  -1  -6  454.30  867.58
   7   1  -5 7028.34 1031.82
   7  -1  -5 4143.15  919.94
   7  -1  -414388.73 1409.38
   7  -1  -415516.50 1970.54
   7   1  -415157.35 1892.76
   7  -1  -3  -90.20  344.11
   7   1  -3  680.74  460.59
   7  -1  -3  681.77  537.60
   7   1  -3 -276.71  503.90
   7  -1  -214713.74 1619.39
   7   1  -215573.08 1679.34
   7  -1  -218169.86 1830.81
   7   1  -219898.52 1755.86
   7  -1  -1 1472.53  559.42
   7   1  -1 -122.76  609.75
   7   1  -1  615.08  406.63
   7  -1  -1  565.90  575.67
   7  -1   0 2046.87  734.27
   7   1   0 2993.76  633.99
   7   1   0 2853.15  505.63
   7  -1   0 4041.82  749.95
   7  -1   1 7472.28 1185.75
   7  -1   1 7328.50 1116.61
   7   1   1 7293.76 1018.43
   7   1   1 7550.90  889.75
   7  -1   2 1986.31  502.85
   7   1   2 1785.11  701.04
   7  -1   2 2515.16  528.34
   7   1   2 1388.09  561.31
   7  -1   3 1136.17  464.48
   7   1   3  956.71  416.07
   7   1   3  980.31  536.96
   7  -1   3 1502.34  442.23
   7  -1   4 5868.62  807.47
   7   1   4 6349.90  848.27
   7   1   4 6549.61  825.25
   7  -1   4 5696.94  679.81
   7  -1   5  908.42  481.54
   7   1   5 1036.37  494.68
   7   1   5  541.57  426.78
   7  -1   5  595.88  363.81
   7  -1   6 7699.38 1072.01
   7   1   6 8425.12 1164.75
   7   1   6 8350.13  936.30
   7  -1   610395.72 1103.51
   7  -1   7 3214.92  748.34
   7   1   7 4090.57  811.57
   7   1   7 3022.13  537.71
   7  -1   7 3128.02  606.40
   7  -1   829292.76 2475.03
   7  -1   829546.88 3085.33
   7   1   827127.93 3031.25
   7  -1   9 2194.85  771.76
   7  -1   9 1834.08  484.94
   7   1   9  824.42  772.90
   7  -1  10 -710.12  702.19
   7   1  10 -469.47  787.18
   7  -1  10  314.79  409.23
   7  -1  11  689.66  823.01
   7   1  11 2000.22  878.07
   7  -1  12 4941.63 1171.02
   7   1  12 5544.08 1193.24
   7  -1  13 6440.22 1235.61
   7   1  13 5505.11 1218.00
   7  -1  14 6750.51 1334.93
   7   1  14 8602.33 1563.04
   7  -1  15 1422.43  513.82
   7   1  15  290.64  896.61
   7  -1  16 3640.79 1088.06
   7   1  16 3379.65 1125.65
   7  -1  17-1766.07  834.87
   7   1  17 1021.44  950.49
   7  -1  18 2615.94  606.99
   7   1  18  117.46  998.71
   7  -1  19 1082.82  918.18
   7   1  19  -58.46  944.98
   7  -1  20 1316.69  896.70
   7   1  20 -934.25  911.74
   7  -1  21  659.11  907.42
   7   1  21  631.20 1014.42
   7  -1  22 3072.04 1035.66
   7   1  22 -811.45 1350.23
   7  -1  23   78.98  976.94
   7   1  23 -171.32 1121.12
   7  -1  2413519.03 2054.51
   7   1  24 8954.88 1344.00
   7  -1  25  536.36 1001.36
   7   1  25   14.29 1136.96
   7  -1  26 3336.01 1115.55
   7   1  26  -15.38 1292.91
   7  -1  27  712.33  969.90
   7   1  27 -557.54 1179.76
   7  -1  28 2321.92 1090.73
   7   1  28  252.29 1244.69
   7  -2 -28 -295.85  863.01
  -7  -2  28-1100.28  807.32
   7  -2 -27 2735.78  978.95
  -7  -2  27 2789.86  977.14
   7  -2 -26 6061.27 1150.74
  -7  -2  26 3531.65 1399.71
   7  -2 -25  612.78  795.27
  -7  -2  25 -426.80  775.41
   7  -2 -24 2138.28  917.77
  -7  -2  24 2318.00  942.70
   7  -2 -23  -22.76  748.98
  -7  -2  23  520.42  820.93
   7  -2 -22 1281.06  845.46
  -7  -2  22 1763.04  922.85
  -7  -2  21 -757.06  775.46
   7  -2 -20 5465.34 1098.83
  -7  -2  20 3538.18 1168.15
   7  -2 -19 1415.13 1140.18
  -7  -2  19 1156.33  896.47
   7  -2 -18 2082.81  889.20
  -7  -2  18 1364.79  905.28
   7  -2 -17  210.94  789.16
  -7  -2  17 -780.84  861.33
   7  -2 -1621651.16 2903.94
  -7  -2  1620334.33 2948.33
   7  -2 -1513588.09 2009.40
  -7  -2  15 9570.81 1663.14
   7  -2 -14  948.88  803.57
  -7  -2  14  398.34  798.82
   7  -2 -13 2644.45  961.69
  -7  -2  13 1974.80  864.92
   7  -2 -1237069.32 4196.36
  -7  -2  1232802.05 4012.55
   7  -2 -1158602.17 6816.10
  -7  -2  1155841.97 6801.05
   7  -2 -10 2653.01  750.32
  -7  -2  10  -81.96  815.70
   7  -2  -925093.22 2799.15
  -7  -2   925434.30 3043.06
   7  -2  -8 6019.66  960.54
   7   2  -8 2672.14  465.95
   7  -2  -7  696.17  889.38
   7   2  -7  260.84  524.06
   7  -2  -6 3015.41  733.38
   7   2  -6 2264.13  617.72
   7   2  -5 5968.86 1097.98
   7  -2  -5 7390.10 1323.57
   7  -2  -5 5242.70  739.19
   7  -2  -4 -575.25  575.53
   7   2  -4 -122.23  493.95
   7  -2  -4  101.78  447.14
   7   2  -3 4990.88  928.68
   7   2  -3 5341.02 1072.49
   7  -2  -3 6456.82 1103.63
   7  -2  -3 4440.00  737.57
   7   2  -2 1273.12  835.56
   7   2  -2  491.14  432.47
   7  -2  -2  570.91  844.40
   7  -2  -2  644.50  391.43
   7  -2  -122607.71 2027.07
   7  -2  -128420.24 3130.86
   7   2  -121943.88 2247.28
   7   2  -126114.21 2348.49
   7  -2   0  719.47  617.43
   7   2   0 1708.92  575.87
   7  -2   0  896.49  737.95
   7   2   0 -415.75  756.89
   7  -2   1 2362.49  516.85
   7   2   1 2066.31  792.54
   7  -2   1 1746.94  599.02
   7   2   1 1968.87  456.25
   7  -2   2   48.99  389.82
   7   2   2  363.26  562.76
   7  -2   2 -114.55  671.80
   7   2   2  802.50  452.79
   7  -2   3  -93.03  577.68
   7   2   3  147.03  549.01
   7  -2   3  351.47  431.45
   7   2   3  494.03  481.98
   7  -2   4 4785.87  774.03
   7   2   4 5430.94  917.30
   7  -2   4 4932.77  720.14
   7   2   4 6242.84  844.15
   7  -2   5 7896.27 1058.45
   7   2   5 8780.49 1195.83
   7   2   5 7684.87  917.67
   7  -2   5 7388.89 1008.34
   7  -2   6 6572.89 1152.01
   7   2   6 8508.00  962.88
   7  -2   6 9679.99  951.52
   7  -2   7 3484.47  745.73
   7   2   7 4658.93  917.24
   7  -2   7 3623.89  510.51
   7  -2   8 4245.67  870.24
   7  -2   8 3464.72  640.68
   7   2   8 3630.46  861.96
   7  -2   913702.22 1959.91
   7   2   914228.51 1824.70
   7  -2   915951.54 1349.85
   7  -2  10 5712.53 1021.45
   7   2  10 5214.19 1089.31
   7  -2  10 3575.33  661.64
   7  -2  11 4974.40 1086.58
   7   2  11 5763.02 1115.61
   7  -2  11 4211.30  712.71
   7  -2  12 1523.37  805.99
   7   2  12  978.29  838.02
   7  -2  13 5957.75 1061.79
   7   2  13 5527.09 1413.30
   7  -2  14 6894.67 1372.49
   7   2  14 7774.87 1649.09
   7  -2  1522947.37 3154.36
   7   2  1527062.70 3644.15
   7  -2  16 7321.15 1349.94
   7   2  16 4436.05 1625.84
   7  -2  17 1251.81  577.48
   7   2  17 -187.93 1144.90
   7  -2  18 1103.26  886.90
   7   2  18-1200.14 1194.53
   7  -2  19 2699.43 1086.48
   7   2  19 2472.24 1340.37
   7  -2  20 9322.13 1695.08
   7   2  20 9746.81 1571.62
   7  -2  21 2280.76 1051.75
   7   2  21 1449.24 1243.94
   7  -2  22  114.76  876.04
   7   2  22  183.47 1110.44
   7  -2  23 1877.19  952.98
   7   2  23   26.90 1187.13
   7  -2  24  116.77  907.18
   7   2  24  665.41  707.55
   7  -2  25 2579.64  994.52
   7   2  25 -110.17 1630.87
   7  -2  26 1509.59  953.32
   7   2  26 -824.08 1352.73
   7  -2  27 1889.76 1177.33
   7   2  27   55.68 1449.53
   7  -2  28 -111.52  939.74
   7   2  28 -581.48 1347.55
   7  -3 -28 -943.46  882.92
  -7  -3  28 -979.78  794.92
   7  -3 -27  788.90  945.38
  -7  -3  27 2054.52  920.83
   7  -3 -26 -703.87  809.66
  -7  -3  26  650.07  809.42
   7  -3 -25   70.81  844.73
  -7  -3  25 1136.97  852.04
   7  -3 -24  799.95  855.69
  -7  -3  24   86.45  830.91
   7  -3 -23 2405.71 1199.94
  -7  -3  23  757.09  902.15
   7  -3 -22 3198.92  984.60
  -7  -3  22 3192.05 1005.25
   7  -3 -21  392.54  746.25
  -7  -3  21 -387.08  828.32
   7  -3 -20 1274.64  875.80
  -7  -3  20 2018.96  929.89
   7  -3 -19 6345.56 1667.51
  -7  -3  19 4190.66 1196.30
   7  -3 -18  -11.90  758.78
  -7  -3  18  464.23  864.27
   7  -3 -17 6444.10 1353.60
  -7  -3  17 6243.50 1340.08
   7  -3 -16 4175.00 1048.20
  -7  -3  16 3093.56 1017.48
   7  -3 -15  679.21  812.33
  -7  -3  15  -96.66  849.68
   7  -3 -14 2078.82  900.05
  -7  -3  14 3272.99 1009.41
   7  -3 -1320902.18 2602.55
  -7  -3  1317202.07 2537.93
   7  -3 -12  410.59  739.74
  -7  -3  12  536.49  842.22
   7  -3 -11 9802.90 1719.06
  -7  -3  11 7756.26 1305.24
   7  -3 -10 8284.25 1486.86
  -7  -3  10 6805.07 1334.02
   7  -3  -9 8213.39 1666.55
  -7  -3   9 9666.63 1461.25
   7  -3  -8 1469.98  707.10
  -7  -3   8  582.61  994.42
   7  -3  -7 3847.51  951.19
  -7  -3   7 6184.38 1316.27
   7  -3  -620318.92 2285.61
  -7  -3   620954.56 2624.59
   7  -3  -514251.12 1799.71
   7  -3  -512322.42 1301.38
   7   3  -4  912.56  671.26
   7  -3  -4  241.34  735.67
   7  -3  -4  550.93  345.43
   7  -3  -326091.75 2711.61
   7  -3  -322862.08 2253.85
   7   3  -323914.26 2190.46
   7  -3  -2 1433.40  655.85
   7   3  -2  913.11  942.77
   7   3  -2  721.59  547.87
   7  -3  -2   88.64  445.16
   7   3  -1 2578.53  612.26
   7  -3  -1 1749.66  664.47
   7   3  -1 3008.82  787.75
   7  -3  -1 1491.71  536.94
   7   3   0 3026.25 1163.05
   7  -3   0 3755.01  784.84
   7   3   0 5506.84  757.40
   7  -3   0 3660.12  727.50
   7   3   112512.44 1403.78
   7  -3   110253.84 1263.78
   7  -3   110723.08 1405.46
   7   3   1 9757.67  915.44
   7   3   2   22.92  579.30
   7   3   2  325.17  434.05
   7  -3   2  301.95  732.93
   7  -3   2  174.68  441.98
   7   3   3 2126.49  793.60
   7   3   3 2189.31  543.97
   7  -3   3 1478.15  607.29
   7  -3   3 2770.40  684.49
   7   3   4 2424.00  897.31
   7  -3   4  261.76  690.84
   7   3   4 2552.96  575.37
   7  -3   4 1864.79  583.32
   7   3   5 1977.41  835.62
   7  -3   5   56.44  657.18
   7  -3   5  -83.73  499.57
   7   3   5  122.36  429.54
   7   3   6   62.27  876.45
   7  -3   6 1285.16  468.84
   7  -3   6  637.66  575.65
   7  -3   723311.10 2351.87
   7   3   719171.25 2493.19
   7  -3   721031.75 2168.88
   7  -3   8 4250.73  906.52
   7  -3   8 5882.56  852.77
   7   3   8 3967.42 1429.97
   7  -3   912012.89 1705.02
   7   3   9 7985.04 1639.44
   7  -3   912226.48 1436.77
   7  -3  10 -243.11  732.03
   7   3  10 1003.36  918.78
   7  -3  10  695.49  422.32
   7  -3  11  -72.03  713.26
   7   3  11 -447.01  920.48
   7  -3  11  739.89  573.71
   7  -3  12 2157.91  873.19
   7   3  12  887.68 1010.05
   7  -3  12  877.56  601.28
   7  -3  1319443.92 2521.73
   7   3  1320850.75 2767.63
   7  -3  14  993.96  810.59
   7   3  14 1220.41 1133.73
   7  -3  15 -406.75  797.37
   7   3  15 1586.78 1056.44
   7  -3  16 -620.55  800.34
   7   3  16  850.02 1098.63
   7  -3  17 7831.65 1327.81
   7   3  17 5350.82 1495.75
   7  -3  18   12.38  839.43
   7   3  18  213.00 1289.02
   7  -3  19 7924.72 1532.52
   7   3  19 7792.36 1275.31
   7  -3  20 -985.97  880.01
   7   3  20  771.44 1375.74
   7  -3  21 3784.36 1302.98
   7   3  21 5527.48 1794.10
   7  -3  22 5017.87 1352.40
   7   3  22 -160.80 1811.76
   7  -3  23 8251.62 1089.92
   7   3  23  437.17 1950.28
   7  -3  24  561.45  921.09
   7   3  24   10.27  830.62
   7  -3  25 1053.05  980.76
   7   3  25  765.91 1427.25
   7  -3  26 -449.42  948.99
   7   3  26 -877.85  906.85
   7  -3  27  330.87  925.48
   7   3  27 -506.71 1349.92
   7  -3  28 1890.72 1012.13
   7   3  28  211.38 1517.95
   7  -4 -28  604.96  962.90
  -7  -4  28  818.73 1141.23
   7  -4 -27 2944.32 1075.74
  -7  -4  27 3291.10 1025.82
   7  -4 -26  -10.62  854.88
  -7  -4  26 -840.73  810.45
   7  -4 -25  865.72  828.71
  -7  -4  25 -446.78  821.31
   7  -4 -24  830.23  906.41
  -7  -4  24  548.60 1188.68
   7  -4 -23 -366.63  808.83
  -7  -4  23  270.31  797.30
   7  -4 -22 -217.98 1060.93
  -7  -4  22 -193.75  861.24
   7  -4 -21 4470.11 1052.46
  -7  -4  21 2976.76 1073.87
   7  -4 -20  331.75  781.63
  -7  -4  20 1796.46  906.81
   7  -4 -19  180.54  747.59
  -7  -4  19 -900.77  860.27
   7  -4 -18  348.43  796.39
  -7  -4  18  851.65  911.57
   7  -4 -17 8057.96 1540.70
  -7  -4  17 8717.87 1729.81
   7  -4 -16 -338.09  851.56
  -7  -4  16  793.24 1203.32
   7  -4 -15 2760.73 1284.69
  -7  -4  15 1793.65  954.07
   7  -4 -14 -275.18  792.41
  -7  -4  14 1470.38  834.01
   7  -4 -13  440.35  798.02
  -7  -4  13 1377.19  848.63
   7  -4 -12 1804.72  847.30
  -7  -4  12 -543.34  763.83
   7  -4 -1134406.61 3727.01
  -7  -4  1134534.22 4144.72
   7  -4 -10 8320.68 1385.31
  -7  -4  10 8579.10 1506.98
   7  -4  -9 1277.45  738.48
  -7  -4   9 1714.69 1119.31
   7  -4  -8 2780.79  883.04
  -7  -4   8 4959.10  935.60
  -7   4   8 1451.15  549.21
   7  -4  -722372.44 2603.56
  -7  -4   718679.40 2260.88
   7  -4  -6 -389.32  916.35
  -7   4   6  -88.73  563.70
  -7  -4   6 -123.57  616.90
   7  -4  -5 5630.01 1191.73
  -7   4   5 5367.30  700.00
  -7  -4   5 5515.24 1329.20
   7  -4  -4 2784.68  759.02
  -7   4   4 1043.75  523.69
  -7  -4   4 1116.32  632.22
   7  -4  -3  896.33  689.91
  -7  -4   3  991.09  552.04
   7  -4  -2 1242.56  659.52
   7   4  -2  594.21  392.11
   7  -4  -2  465.79  247.88
   7   4  -138820.21 6084.62
   7  -4  -151651.38 5080.62
   7  -4  -151576.55 4704.19
   7   4  -156094.98 4509.45
   7   4   0 -633.65 1164.19
   7  -4   0 -246.22  583.21
   7   4   0  162.73  366.54
   7  -4   0 -594.11  446.49
   7   4   1 2357.62 2217.11
   7   4   1 3998.86  623.95
   7  -4   1 2651.18  719.31
   7  -4   1 2236.34  538.76
   7   4   2  914.38  920.37
   7  -4   2 4481.99 1003.66
   7   4   2 3665.40  629.37
   7  -4   2 2812.33  745.52
   7   4   3 7543.99  893.80
   7   4   3 8291.83 1333.27
   7  -4   3 6516.95 1056.27
   7  -4   3 6568.13  882.84
   7   4   4  780.54 1032.74
   7   4   4 1276.37  485.43
   7  -4   4 3005.00  687.38
   7  -4   4 3349.94  636.33
   7   4   526840.43 3394.79
   7  -4   522947.85 2469.88
   7  -4   521721.88 2474.19
   7  -4   6 2590.48  805.43
   7   4   6 2169.55 1205.43
   7  -4   6 5492.89  840.24
   7  -4   7 1029.11  694.55
   7   4   7 -825.18  908.88
   7  -4   7    0.95  623.18
   7  -4   8 5693.24  942.46
   7   4   8 6599.93 1391.58
   7  -4   8 4031.95  991.17
   7   4   923104.62 3199.67
   7  -4   918159.59 2066.36
   7  -4   918635.79 2381.33
   7   4  10 1538.40 1335.84
   7  -4  10 4157.57  820.17
   7  -4  10 3236.95  921.77
   7   4  11 4604.10 1625.72
   7  -4  11 4250.99  864.36
   7  -4  11 6907.18 1127.37
   7   4  12 1353.28 1179.59
   7  -4  12  434.72  483.02
   7  -4  12 1120.05  806.63
   7  -4  1310370.51 1643.36
   7   4  1311383.59 2074.60
   7  -4  13 7183.88 1116.57
   7  -4  14 5497.23 1190.25
   7   4  14 5164.94 1605.37
   7  -4  15 6632.87 1379.69
   7   4  1511482.70 2096.92
   7  -4  16  950.87  862.11
   7   4  16  920.01 1283.46
   7  -4  17 -353.61  506.63
   7   4  17  954.98  788.19
   7  -4  18 2368.21  987.51
   7   4  18  353.95 1501.79
   7  -4  19  866.13  976.58
   7   4  19 1145.61 1395.16
   7  -4  20 2614.07 1007.23
   7   4  20 3584.61 1599.57
   7  -4  21 8474.97 1776.31
   7   4  21 8329.92 2076.23
   7  -4  22 4178.77 1478.78
   7   4  22 5107.00 1764.57
   7  -4  23  192.45 1099.75
   7   4  23 1536.03 1727.44
   7  -4  24  480.63 1040.01
   7   4  24  758.62 1003.27
   7  -4  2511714.83 2024.34
   7   4  2511160.27 2725.48
   7  -4  26 1710.40 1055.52
   7   4  26 -395.24 1725.02
   7  -4  27 1338.27 1031.89
   7   4  27 2255.21 1827.68
   7  -4  28 1307.11 1010.33
   7   4  28 3731.12 1882.98
   7  -5 -27 2693.13 1111.48
  -7  -5  27 1754.55  999.90
   7  -5 -26  755.42  910.01
  -7  -5  26 -168.59  850.91
   7  -5 -25 1477.44 1007.74
  -7  -5  25 1071.79  921.69
   7  -5 -24 1916.50  953.52
  -7  -5  24  998.38  911.81
   7  -5 -23 1863.66  977.99
  -7  -5  23 1260.62  966.37
   7  -5 -22 -853.42  817.82
  -7  -5  22  457.52  889.52
   7  -5 -21  628.75  834.53
  -7  -5  21 1266.09  922.80
   7  -5 -20  997.58  874.66
  -7  -5  20 1716.90  954.96
   7  -5 -19 1866.92  897.25
  -7  -5  19 2478.75 1047.68
   7  -5 -18 2680.12 1051.16
  -7  -5  18 4810.40 1167.33
   7  -5 -17 4451.73 1060.29
  -7  -5  17 6113.72 1342.64
   7  -5 -16  664.45  801.04
  -7  -5  16 1088.15  930.21
   7  -5 -15 1883.40  927.20
  -7  -5  15 1943.19 1009.87
   7  -5 -14 1732.09  790.09
  -7  -5  14  975.17  938.90
   7  -5 -1333842.50 4014.16
  -7  -5  1328045.90 3666.85
   7  -5 -12 5562.81 1306.08
  -7  -5  12 3571.97 1158.75
   7  -5 -11 -165.94  678.01
  -7  -5  11-1896.93 1184.95
   7  -5 -1013482.04 1882.59
  -7  -5  1012886.12 1906.89
   7  -5  -9 2966.74 1051.49
  -7  -5   9 2453.05 1229.79
   7  -5  -8 1151.44  816.74
  -7   5   8 1740.21  634.14
  -7  -5   8 1446.79  804.13
   7  -5  -7110766.712761.43
  -7   5   789990.8810070.48
  -7  -5   7106812.012631.05
   7  -5  -6 6669.38 1132.40
  -7   5   6 5442.73  863.37
  -7  -5   6 6978.40 1161.19
   7  -5  -5  924.56  715.37
  -7   5   5 1740.28  525.34
  -7  -5   5  955.70  686.77
   7  -5  -421146.78 2496.61
  -7   5   418247.20 1974.48
  -7  -5   421928.95 2675.18
   7  -5  -319461.31 2646.95
  -7   5   319660.03 2239.53
  -7  -5   321182.92 2400.47
   7  -5  -225702.20 2861.13
  -7   5   224125.19 2889.79
  -7  -5   228370.59 2896.66
   7  -5  -1 5476.37  981.25
  -7   5   1 5852.82 1259.92
  -7  -5   1 5704.97  872.04
   7   5   0  390.33  319.31
   7  -5   0 -433.93  619.35
  -7   5   0 -972.25  842.29
   7   5   1 4420.50  691.54
   7  -5   1 2350.17  740.80
  -7   5  -1 4424.42  942.40
   7   5   2 6741.20  771.15
   7   5   2-1907.67 1953.80
   7  -5   2 6034.31 1034.02
  -7   5  -2 7325.41 1060.92
   7   5   312586.22 3879.55
   7   5   317568.69 1581.03
   7  -5   318800.78 2290.47
   7  -5   313576.79 1224.46
   7   5   4 1957.70 1901.15
   7  -5   4  893.87  646.05
   7  -5   4 1188.65  584.61
   7  -5   5 -239.43  577.67
   7   5   5 -962.00 1888.14
   7  -5   5 -775.86  559.08
   7  -5   6 2975.49  643.00
   7   5   6 5596.61 2436.69
   7  -5   6 2082.29  685.69
   7  -5   7 3238.74  998.27
   7   5   7 3218.62 1345.56
   7  -5   7 1896.81  804.45
   7  -5   8  997.09  578.32
   7   5   8 -558.94 1324.16
   7  -5   8 -175.06  809.76
   7   5   9 1909.25 1879.97
   7  -5   9  756.42  518.62
   7  -5   9  813.21  817.29
   7   5  10 1610.53 1636.12
   7  -5  10 5132.20  815.32
   7  -5  10 3442.98 1033.26
   7   5  11 -804.71 1331.19
   7  -5  11  460.21  502.51
   7  -5  11 -550.39  729.70
   7   5  12 2510.66 1554.09
   7  -5  12 2089.12  668.47
   7  -5  12 1891.58  925.46
   7   5  13 5097.54 1736.01
   7  -5  13 2182.22  751.32
   7  -5  13 5332.29 1113.61
   7   5  14 -530.89 1406.91
   7  -5  14  957.36  594.84
   7  -5  14 -623.61  798.93
   7   5  15  184.13 1445.34
   7  -5  15  179.87  794.35
   7  -5  16 3388.89 1120.01
   7   5  16 4370.93 1855.26
   7  -5  17 -108.26  864.61
   7   5  17 -244.65 1474.46
   7  -5  18  424.48  891.17
   7   5  18  203.37 1539.91
   7  -5  19 1775.17  927.55
   7   5  19 -396.35 1630.38
   7  -5  20-1184.60  856.12
   7   5  20 2360.22  996.24
   7  -5  21-1915.10  854.76
   7   5  21 2218.47 1739.09
   7  -5  22 -694.37  864.16
   7   5  22 1941.68 1630.63
   7  -5  23  305.72  507.03
   7   5  23 1364.23 1700.71
   7  -5  24 3527.38  825.03
   7   5  24 4480.95 2055.60
   7  -5  25  862.62  976.03
   7   5  25 -261.86 1690.72
   7  -5  26  719.33  986.73
   7   5  26  550.06 1699.52
   7  -5  27  632.24  942.14
   7   5  27-1646.37 1649.65
   7  -6 -27  986.88 1046.38
  -7  -6  27 -329.80  917.03
   7  -6 -26 9696.09 2001.26
  -7  -6  26 5510.53 1322.68
   7  -6 -25 2402.37 1011.74
  -7  -6  25  912.95  996.84
   7  -6 -24 1073.71  938.81
  -7  -6  24  961.39 1003.43
   7  -6 -23 -306.33  816.87
  -7  -6  23  364.98  886.59
   7  -6 -22 1863.57 1004.93
  -7  -6  22 4647.14 1217.98
   7  -6 -21  640.96  867.72
  -7  -6  21 1981.18 1015.93
   7  -6 -20 1043.99  864.67
  -7  -6  20 1754.86 1040.59
   7  -6 -19 1478.73  872.89
  -7  -6  19 -694.67 1333.61
   7  -6 -18  423.89  823.37
  -7  -6  18-1543.54 1304.87
   7  -6 -17 -450.88  813.71
  -7  -6  17-1061.19 1319.22
   7  -6 -16 8221.79 1433.08
  -7  -6  16 7341.05 2163.13
   7  -6 -15 1554.79  840.50
  -7  -6  15 1227.80 1056.44
   7  -6 -14 2796.30 1047.95
  -7  -6  14  940.23 1020.93
   7  -6 -13 3015.17 1035.23
  -7  -6  13 2120.58 1090.54
   7  -6 -12 1739.80  969.44
  -7  -6  12 1894.06  987.56
   7  -6 -11 -160.55  759.98
  -7  -6  11 1444.46  920.37
   7  -6 -10 3773.14 1122.74
  -7  -6  10 5464.94 1188.83
   7  -6  -9   37.40  709.07
  -7   6   9 -974.69  808.64
  -7  -6   9  486.23  766.75
   7  -6  -815772.25 2193.39
  -7   6   815429.14 2180.13
  -7  -6   816696.42 2093.17
   7  -6  -7 5514.71 1391.68
  -7   6   7 6152.14 1112.25
  -7  -6   7 3383.81 1074.35
   7  -6  -6 1902.75  881.14
  -7   6   6 2101.50  950.19
  -7  -6   6 2103.34  815.43
   7  -6  -512753.33 1850.15
  -7   6   511421.15 1971.91
  -7  -6   511243.41 1509.94
   7  -6  -4   23.88  684.55
  -7   6   4 2406.88  917.58
  -7  -6   4 -175.29  697.93
   7  -6  -3 2070.45 1056.31
  -7   6   3  943.82  880.07
  -7  -6   3 1987.67  917.23
   7  -6  -211618.86 1554.03
  -7   6   2 8768.27 1669.77
  -7  -6   210977.80 1598.80
   7  -6  -120950.77 2414.83
  -7   6   119788.67 2724.68
  -7  -6   120826.04 2281.80
   7  -6   013574.30 1608.37
  -7   6   0 9710.69 1731.13
  -7  -6   014028.98 1595.11
   7  -6   1  327.40  673.68
  -7   6  -1 1294.14  875.63
   7  -6   2 5026.56  982.15
   7   6   2 4806.49  617.80
  -7   6  -2 6519.97 1261.89
   7  -6   3  398.28  631.89
  -7   6  -3   54.29  693.23
   7  -6   413379.63 1644.66
  -7   6  -412536.03 1794.13
   7  -6   5 1690.92  809.25
  -7   6  -5  -74.32  744.09
   7  -6   616479.05 1881.37
   7  -6   7  229.35  787.06
   7   6   7  484.67 2135.21
   7  -6   7 -170.86  678.06
   7  -6   8 1975.09  687.17
   7   6   8 4995.83 2816.02
   7  -6   8 4251.68  924.71
   7   6   914233.08 4010.28
   7  -6   914736.82 1904.00
   7  -6   911840.11 1735.63
   7   6  10 4111.85 3099.01
   7  -6  10 7672.61 1012.36
   7  -6  10 5769.27 1082.92
   7   6  11-2219.01 2583.10
   7  -6  11 -128.84  577.04
   7  -6  11 -516.86  756.07
   7   6  12  254.43 2891.68
   7  -6  12 2548.03  683.06
   7  -6  12 1345.84  982.13
   7   6  13-3812.52 2601.73
   7  -6  13 -357.57  858.09
   7  -6  13  258.25  835.10
   7   6  14-1054.52 2615.78
   7  -6  14 -156.65  839.82
   7  -6  14  788.71  892.62
   7   6  15 2180.56 2795.62
   7  -6  15  525.14  839.75
   7  -6  15  163.49  877.47
   7   6  16 8598.80 3304.43
   7  -6  16 1812.78 1025.47
   7   6  17-1398.88 2734.82
   7  -6  17  486.77  878.95
   7  -6  18 1068.31  915.61
   7   6  18 3575.60 3164.21
   7  -6  19-1363.73  905.97
   7   6  19 3164.11 3155.00
   7  -6  20 3847.85 1113.92
   7   6  20 6988.24 3605.93
   7  -6  21 2041.55  983.01
   7   6  21 7348.41 3583.75
   7  -6  22 1199.81  892.23
   7   6  22 1938.71 3440.24
   7  -6  23   30.68  821.30
   7   6  23  178.08 3117.84
   7  -6  24 1586.95  932.66
   7   6  24 -192.04 3422.64
   7  -6  25 3321.04 1070.14
   7   6  25 1435.28 3765.48
   7  -6  26   30.51 1038.92
   7   6  26  499.31 3031.87
   7   6  27 1704.85 3347.47
   7  -7 -26 -670.32 1023.61
  -7  -7  26  264.87  980.64
   7  -7 -25 -332.92 1335.02
  -7  -7  25 -227.15  930.29
   7  -7 -24 5473.83 1207.04
  -7  -7  24 2508.57 1624.84
   7  -7 -23 1354.14  968.34
  -7  -7  23 1721.40 1069.80
   7  -7 -22 -585.55  813.12
  -7  -7  22  679.97  949.18
   7  -7 -21-1088.44 1127.85
  -7  -7  21 -436.66  996.40
   7  -7 -20  690.53  844.96
  -7  -7  20  -75.76  989.94
   7  -7 -19  360.87  914.90
  -7  -7  19 1160.60 1396.86
   7  -7 -18  747.16  973.19
  -7  -7  18 4218.43 1227.22
   7  -7 -17  409.68 1154.52
  -7  -7  17   99.63  936.96
   7  -7 -16 1627.83 1009.43
  -7  -7  16 1525.51 1105.92
   7  -7 -15  786.39  923.47
  -7  -7  15 1172.62 1012.76
   7  -7 -14 6183.00 1835.94
  -7  -7  14 7003.69 1907.08
   7  -7 -13 -798.67  874.40
  -7  -7  13 -261.47  994.87
   7  -7 -1213078.52 2007.55
  -7  -7  1210831.00 1980.60
   7  -7 -11 2430.66  932.50
  -7  -7  11 4687.89 1197.27
   7  -7 -10 6209.02 1248.89
  -7  -7  10 7616.58 1810.61
   7  -7  -9 -199.64  768.83
  -7   7   9 1450.66  976.00
  -7  -7   9 -425.48  815.89
   7  -7  -812167.69 1758.66
  -7   7   8 5012.56 1546.24
  -7  -7   811267.39 2030.74
   7  -7  -7  644.22  735.43
  -7   7   7 1549.09 1129.77
  -7  -7   7 1024.51  770.01
   7  -7  -6 8540.42 1350.58
  -7   7   6 3973.07 1463.47
  -7  -7   6 4989.25 1247.89
   7  -7  -5 4447.27  911.48
  -7   7   5 2435.72  993.15
  -7  -7   5 2991.79  878.35
   7  -7  -4 6658.16 1217.06
  -7   7   4 4587.11  992.62
  -7  -7   4 4371.02 1046.64
   7  -7  -3 4192.80  903.01
  -7   7   3 2774.75  932.01
  -7  -7   3 1706.75  824.98
   7  -7  -213015.36 1590.73
  -7   7   2 4539.39 1356.46
  -7  -7   2 9613.36 1559.16
   7  -7  -1  769.98  704.71
  -7   7   1 -151.39  741.28
  -7  -7   1  576.46  586.88
   7  -7   0 -186.53  930.49
  -7   7   0  341.47  704.49
  -7  -7   0  420.63  689.13
   7  -7   1 -434.74  942.36
  -7   7  -1  523.44  689.57
  -7  -7  -1  -78.09  586.00
   7  -7   2 2868.14  880.01
  -7   7  -2 3480.22  920.67
  -7  -7  -2 2284.28  530.05
   7  -7   3 3347.85  843.49
  -7   7  -3 1624.45  910.54
   7  -7   4 4608.30 1121.33
  -7   7  -4 3170.02 1215.70
   7  -7   5  415.22  671.23
  -7   7  -5 -140.52  758.43
   7  -7   614239.09 1671.59
  -7   7  -610972.63 1938.51
   7  -7   7 -913.28  619.96
  -7   7  -7  -17.21  773.16
   7  -7   8 2024.22  921.40
  -7   7  -8  494.39  908.06
   7  -7   9-1355.78  614.42
   7  -7   9   78.42  465.97
   7  -7  10 1294.97  855.79
   7  -7  10 1006.98  859.51
   7  -7  11 1409.56  671.15
   7  -7  11 -122.77  821.13
   7  -7  12 6604.59 1104.95
   7  -7  12 9163.14 1388.83
   7  -7  13 2511.92 1094.80
   7  -7  13 2355.80  997.35
   7   7  14 -855.01 2872.31
   7  -7  14  375.27  714.56
   7  -7  14  972.96  897.08
   7   7  15 1390.62 2792.78
   7  -7  15 -939.90  911.35
   7  -7  15 -512.58  488.46
   7   7  16 6491.87 3882.51
   7  -7  16 5240.97 1346.85
   7  -7  16 7283.23 1322.44
   7   7  17-2803.74 2898.92
   7  -7  17  872.89  862.14
   7   7  18 3411.97 3806.46
   7  -7  18 5643.03 1275.34
   7   7  19 2508.77 3149.84
   7  -7  19 1014.10  909.93
   7   7  20  428.66 3410.13
   7  -7  20 2359.98 1006.77
   7  -7  21  763.53  873.71
   7   7  21-1341.03 3112.19
   7  -7  22  158.87  910.98
   7   7  22 2608.17 3263.60
   7  -7  23 -946.39  827.53
   7   7  23 9726.86 3351.43
   7  -7  24 4480.87 1184.76
   7   7  24 9133.43 4008.59
   7  -7  25 -599.16  845.42
   7   7  25 -684.49 3268.28
   7  -7  26  771.68  869.83
   7  -8 -25 -568.32  893.16
  -7  -8  25 2017.51 1039.07
   7  -8 -24-1781.13 1281.03
  -7  -8  24-1752.84 1057.62
   7  -8 -23 -278.61  889.50
  -7  -8  23-1268.11  998.15
   7  -8 -22 4938.83 1161.82
  -7  -8  22 4223.74 1363.16
   7  -8 -21 2486.10 1338.96
  -7  -8  21 1870.99 1166.23
   7  -8 -20 2356.34 1021.20
  -7  -8  20 2741.95 1184.42
   7  -8 -19  395.80  856.62
  -7  -8  19 -473.56 1301.02
   7  -8 -18 1547.08  890.29
  -7  -8  18  893.31 1045.75
   7  -8 -17 -304.23  758.84
  -7  -8  17 1008.80  998.76
   7  -8 -16 7467.94 1281.28
  -7  -8  1613968.15 2257.74
   7  -8 -15 -256.99  761.71
  -7  -8  15  -90.82  984.60
   7  -8 -14 -195.54 1110.42
  -7  -8  14 2863.63 1107.28
   7  -8 -13 1735.12  874.76
  -7  -8  13 2150.97 1541.64
   7  -8 -12 -491.92  774.02
  -7  -8  12 -164.22 1236.78
   7  -8 -11 1595.04  880.03
  -7  -8  11 1610.94 1003.48
   7  -8 -1013559.58 2076.15
  -7   8  1012832.40 2994.25
  -7  -8  1013752.48 2358.26
   7  -8  -9 2332.74  926.22
  -7   8   9  659.69 1508.81
  -7  -8   9  114.59 1250.47
   7  -8  -8  721.60  793.03
  -7   8   8 -883.53 1436.69
  -7  -8   8  319.54  864.54
   7  -8  -7 5487.48 1010.62
  -7   8   7 4509.17 1860.57
  -7  -8   7 4111.97 1435.55
   7  -8  -619696.14 2437.90
  -7  -8   626022.42 2851.14
  -7   8   6 8036.69 2165.44
   7  -8  -5 2095.84  915.25
  -7   8   5 1953.10  976.88
  -7  -8   5  795.18  915.19
   7  -8  -4 5896.22 1065.07
  -7   8   4 1891.83 1148.79
  -7  -8   4 6331.91 1131.08
   7  -8  -3 2721.22  922.24
  -7  -8   3 2579.90  825.94
  -7   8   3  833.69 1055.39
   7  -8  -2 1331.51  822.71
  -7   8   2 1572.72 1020.38
  -7  -8   2 1643.84  714.79
   7  -8  -1 1469.75 1155.83
  -7   8   1 1404.54  826.83
  -7  -8   1 1939.37  929.28
   7  -8   012395.80 1820.58
  -7   8   011501.97 2224.45
  -7  -8   011596.46 1601.32
   7  -8   1  830.55  715.76
  -7   8  -1  -86.47  805.20
  -7  -8  -1   66.63  462.98
   7  -8   2 1847.86  764.24
  -7   8  -2 1884.82 1003.38
   7  -8   3 2496.35  813.33
  -7   8  -3 1045.49  875.82
   7  -8   416041.50 1953.06
  -7   8  -411885.16 1987.24
   7  -8   5 -164.89  704.62
  -7   8  -5  609.94  784.94
   7  -8   6 2024.49  863.04
  -7   8  -6 1079.22  915.35
   7  -8   7 1257.88  708.80
  -7   8  -7  -33.64  825.98
   7  -8   8 -642.81  857.34
  -7   8  -8  100.11  809.45
   7  -8   9 2046.91  995.44
  -7   8  -9 3393.57  978.49
   7  -8  10 8204.25 1180.21
  -7   8 -10 7241.09 1381.86
   7  -8  11 -187.30  896.75
   7  -8  11  -49.28  497.89
   7  -8  12 1350.85  718.59
   7  -8  12 2731.22  991.69
   7  -8  13  955.47  721.42
   7  -8  13  744.13  935.44
   7  -8  14 5923.95 1097.86
   7  -8  14 5020.23 1112.33
   7  -8  15 1822.77  772.23
   7  -8  15 1855.89  920.38
   7  -8  16 5864.72 1071.31
   7  -8  16 4987.34 1325.39
   7  -8  17  223.17 1116.51
   7  -8  17  209.94  875.53
   7  -8  18 1362.12  590.84
   7  -8  19    0.61  862.51
   7  -8  20 8122.16 1536.13
   7  -8  21 -316.85  924.65
   7  -8  22 1751.46 1036.69
   7  -8  23 -640.63  880.37
   7  -8  24 1878.44  978.04
   7  -8  25 1834.80  914.44
   7  -9 -24 1316.86  903.80
  -7  -9  24  415.92 1064.70
   7  -9 -23 2550.08  931.71
  -7  -9  23 3141.83 1278.32
   7  -9 -22 2283.04  870.28
  -7  -9  22  839.69 1173.58
   7  -9 -21  862.52  721.99
  -7  -9  21 -768.85 1024.82
   7  -9 -20 5207.95 1216.63
  -7  -9  20 2756.68 1311.62
   7  -9 -19 7132.03 1331.61
  -7  -9  19 4720.92 1492.88
   7  -9 -18 4453.18 1091.84
  -7  -9  18 4295.85 1810.95
   7  -9 -17-1231.30  773.69
  -7  -9  17 1386.10 1028.22
   7  -9 -16 1019.56  759.58
  -7  -9  16 -626.96 1047.35
   7  -9 -15 1777.30  931.10
  -7  -9  15 2839.87 1178.75
   7  -9 -14 3161.74 1384.57
  -7  -9  14 4535.51 1489.79
   7  -9 -13 7394.67 1513.53
  -7  -9  13 6324.45 1809.52
   7  -9 -12 5041.74 1223.90
  -7  -9  12 4269.17 1696.01
   7  -9 -11 1870.29  878.91
  -7  -9  11 1006.09 1442.85
   7  -9 -10 2583.68  893.76
  -7   9  10  725.44 1322.19
  -7  -9  10 1047.19 1020.92
   7  -9  -911984.05 1804.66
  -7   9   9 2627.60 1736.40
  -7  -9   912048.67 1986.77
   7  -9  -8 1244.30  890.45
  -7   9   8 2340.77 1290.92
  -7  -9   8 1013.42 1323.49
   7  -9  -7 8207.94 1559.56
  -7   9   7 1532.44 1589.35
  -7  -9   7 5706.04 1135.13
   7  -9  -6  183.82  822.99
  -7   9   6  778.77 1219.71
  -7  -9   6  383.31 1091.60
   7  -9  -5 1214.66  810.20
  -7   9   5 -796.18 1219.57
  -7  -9   5 -295.45 1029.87
   7  -9  -4 4998.57 1549.54
  -7   9   4 1071.72 1157.77
  -7  -9   4 6539.34 1104.81
   7  -9  -3 1613.55  975.46
  -7   9   3  410.29 1099.21
  -7  -9   3 4419.39  902.43
   7  -9  -2  696.09 1219.83
  -7   9   2 2831.86 1104.48
  -7  -9   2 1497.06  999.20
   7  -9  -1  -36.64  800.39
  -7   9   1 1919.67 1136.65
  -7  -9   1 1807.21  888.63
   7  -9   0 7216.75 1341.20
  -7   9   0 9177.57 2108.93
  -7  -9   010437.51 1391.68
   7  -9   1 4867.62  996.82
  -7   9  -1 2450.59 1171.09
   7  -9   2 7873.30 1269.77
  -7   9  -2 8233.16 1658.14
   7  -9   3 3499.99 1007.81
  -7   9  -3 4413.92 1211.47
   7  -9   4 2606.07  893.66
  -7   9  -4 2654.87 1061.09
   7  -9   5  521.61  729.70
  -7   9  -5  259.79  809.71
   7  -9   6 6270.68 1142.70
  -7   9  -6 4041.09 1139.66
   7  -9   7 3723.66 1042.19
  -7   9  -7 4601.38 1115.16
   7  -9   8 2192.36  802.70
  -7   9  -8  901.54  906.51
   7  -9   9 1249.26  721.23
  -7   9  -9 1356.13  976.83
   7  -9  10 1033.73  974.07
  -7   9 -10 -127.17  906.54
   7  -9  11 -526.44  964.66
  -7   9 -11  674.80  551.99
   7  -9  12 1692.97  839.29
  -7   9 -12 2024.02  990.86
   7  -9  1310891.59 1302.62
   7  -9  13  908.45  595.20
   7  -9  14 8836.33 1693.12
   7  -9  14 8151.27 1501.63
   7  -9  15  928.79  756.37
   7  -9  15 -609.38  774.02
   7  -9  16 1794.23  987.94
   7  -9  16 -357.36  860.22
   7  -9  17  941.13 1214.11
   7  -9  17 -312.73  792.22
   7  -9  18 9276.20 1287.80
   7  -9  19 1332.52  979.81
   7  -9  20  958.14  944.31
   7  -9  21-1185.90  947.61
   7  -9  22 1678.07  999.25
   7  -9  23 5995.26 1296.08
   7  -9  24 4637.13 1136.27
   7 -10 -23 1444.50 1191.64
  -7 -10  23 -672.10 1122.06
   7 -10 -22  755.65  794.31
  -7 -10  22  268.69 1109.74
   7 -10 -2118099.49 2349.91
  -7 -10  21 8855.17 2546.88
   7 -10 -20  493.29  818.71
  -7 -10  20  -33.02 1089.76
   7 -10 -19  354.51  801.81
  -7 -10  19 -909.11 1057.66
   7 -10 -18  606.65  791.25
  -7 -10  18 -634.84 1054.87
   7 -10 -17 5741.95 1230.01
  -7 -10  17 1764.82 1310.79
   7 -10 -16 -241.37  760.29
  -7 -10  16 -474.25 1478.27
   7 -10 -15  706.67  839.24
  -7 -10  15 1548.47 1562.22
   7 -10 -14  145.14  809.20
  -7 -10  14  743.62 1073.71
   7 -10 -13 -454.24  729.27
  -7 -10  13 1014.83 1403.34
   7 -10 -12 -260.88  765.19
  -7 -10  12  351.97 1368.80
   7 -10 -11 1976.57  903.04
  -7  10  11  713.71 1480.86
  -7 -10  11 4654.57 1563.59
   7 -10 -10  838.02  844.05
  -7  10  10  455.94 1265.29
  -7 -10  10 1658.13 1047.01
   7 -10  -9  355.21  791.21
  -7  10   9  590.85 1302.14
  -7 -10   9 -914.60  894.65
   7 -10  -8 4931.83 1088.79
  -7  10   8 3779.96 1701.98
  -7 -10   8 4733.21 1675.09
   7 -10  -7 7162.59 1323.56
  -7  10   7 2221.14 1769.28
  -7 -10   7 7756.65 1448.27
   7 -10  -6 -315.27 1127.25
  -7  10   6  778.64 1313.45
  -7 -10   6 1101.66  890.92
   7 -10  -510278.35 1734.12
  -7  10   5 6436.65 1998.61
  -7 -10   510222.96 1695.79
   7 -10  -4 6164.45 1166.92
  -7  10   4 2963.60 1705.99
  -7 -10   4 7460.58 1649.93
   7 -10  -3 2254.00 1208.69
  -7  10   3  -87.25 1401.81
  -7 -10   3 1942.51 1051.90
   7 -10  -2 -737.16  734.10
  -7  10   2  576.10 1064.03
  -7 -10   2  701.92  895.77
   7 -10  -118304.11 2841.61
  -7  10   114661.08 3702.80
  -7 -10   120413.54 2648.15
   7 -10   0 6690.07 1172.96
  -7  10   0 6500.87 1656.11
   7 -10   1 4682.14 1204.92
  -7  10  -1 5562.10 1494.68
   7 -10   2  848.66 1098.84
  -7  10  -2 -428.03 1154.77
   7 -10   3  261.52  822.31
  -7  10  -3 4232.10 1136.58
   7 -10   4 1750.67  814.01
  -7  10  -4  401.52 1035.38
   7 -10   510862.80 1627.50
  -7  10  -510355.31 2173.62
   7 -10   6  554.41  776.02
  -7  10  -6  992.92 1066.54
   7 -10   7 4036.37  949.11
  -7  10  -7  941.19 1058.21
   7 -10   8 -472.58  708.22
  -7  10  -8 -204.19  828.50
   7 -10   9 2420.86  884.88
  -7  10  -9  916.28  930.22
   7 -10  10 2877.92  905.65
  -7  10 -10 1191.53  990.29
   7 -10  11  932.62  909.70
  -7  10 -11 3810.70  774.59
   7 -10  12  342.37  824.24
  -7  10 -12   59.22  927.68
   7 -10  13 -948.27  782.83
  -7  10 -13 1472.33  941.79
   7 -10  14 3072.60 1282.64
  -7  10 -14 1701.88  983.73
   7 -10  1514636.62 2389.73
   7 -10  1512632.27 1220.24
   7 -10  16 3788.44 1089.93
   7 -10  16   75.30 1019.82
   7 -10  17 3431.97 1012.41
   7 -10  17 -359.87  575.65
   7 -10  18  649.34 1352.58
   7 -10  18 -342.48  905.84
   7 -10  19 -632.93  921.02
   7 -10  20  290.89  974.86
   7 -10  21 4763.80 1234.58
   7 -10  22 1455.19 1013.32
   7 -10  23  684.94  952.46
   7 -11 -22 2760.48 1010.35
  -7 -11  22 -278.97 1190.61
   7 -11 -21  839.07  830.61
  -7 -11  21 -150.07 1140.99
   7 -11 -20 2095.83  916.50
  -7 -11  20 2329.62 1280.35
   7 -11 -19 4916.32 1127.96
  -7 -11  19 4340.93 1959.92
   7 -11 -18 2190.64  935.43
  -7 -11  18 1162.81 1202.17
   7 -11 -17  354.84  810.69
  -7 -11  17 1901.53 1174.26
   7 -11 -16 -636.31  814.20
  -7 -11  16 1079.65 1087.23
   7 -11 -1512946.54 2397.31
  -7 -11  15 5552.06 1560.29
   7 -11 -14 1082.94  889.60
  -7 -11  14  859.57 1160.01
   7 -11 -13 1923.32  937.48
  -7 -11  13 2299.32 1224.77
   7 -11 -12   22.75  776.40
  -7 -11  12 2292.66 1108.26
   7 -11 -11  590.37  842.35
  -7  11  11 1358.18 1949.00
  -7 -11  11 1793.85 1089.86
   7 -11 -10  480.82  816.29
  -7  11  10 1004.55 1568.52
  -7 -11  10 3372.07 1112.36
   7 -11  -9 3177.34  910.32
  -7  11   9-1349.10 1522.52
  -7 -11   9 1501.21 1151.03
   7 -11  -8 1032.49  917.00
  -7  11   8  882.84 1493.31
  -7 -11   8  975.16 1329.79
   7 -11  -7 4677.13 1295.12
  -7  11   7 3427.66 1824.41
  -7 -11   7 4522.88 1643.00
   7 -11  -6 -142.43  867.55
  -7  11   6-1425.34 1425.71
  -7 -11   6 -747.22  863.93
   7 -11  -5  523.22 1176.43
  -7  11   5  550.76 1387.80
  -7 -11   5 -245.42 1191.62
   7 -11  -4 2816.00 1058.39
  -7  11   4 2099.75 1664.61
  -7 -11   4 2578.05 1396.49
   7 -11  -316714.70 2243.81
  -7  11   3 7646.13 3199.08
  -7 -11   315301.34 2271.84
   7 -11  -2 2137.37 1146.67
  -7  11   2 1326.62 1531.50
  -7 -11   2 1527.60  824.19
   7 -11  -1 2404.58  894.13
  -7  11   1 1137.59 1574.98
   7 -11   0 7569.56 1561.20
  -7  11   0 3990.34 1537.75
   7 -11   129960.60 3601.40
  -7  11  -117951.61 3727.23
   7 -11   2 2174.12  896.33
  -7  11  -2 2057.63 1448.13
   7 -11   316320.99 2392.98
  -7  11  -316290.45 3121.09
   7 -11   4  128.40  848.91
  -7  11  -4 -416.88 1015.64
   7 -11   5 1823.29  916.17
  -7  11  -5 2388.12 1119.07
   7 -11   6  163.83 1007.55
  -7  11  -6  -14.83 1040.24
   7 -11   714782.21 2401.57
  -7  11  -718158.74 2869.06
   7 -11   8 1811.54  967.23
  -7  11  -8 1667.89 1015.14
   7 -11   9 -133.25  762.48
  -7  11  -9 1027.48  863.81
   7 -11  10  276.75  794.60
  -7  11 -10  391.11  878.49
   7 -11  11 6534.01 1243.66
  -7  11 -11 1473.55 1051.66
   7 -11  12 -269.98  851.70
  -7  11 -12  877.84  926.93
   7 -11  13 7792.96 1413.01
  -7  11 -13 6889.62 1343.10
   7 -11  14  704.77  829.03
  -7  11 -14 -547.04  910.30
   7 -11  15  750.72 1150.92
  -7  11 -15 -624.90  540.84
   7 -11  16  705.64 1340.98
   7 -11  16  404.48  533.07
   7 -11  17 3392.07 1503.52
   7 -11  17 -266.43 1003.47
   7 -11  18  160.00 1063.02
   7 -11  18   74.23  932.98
   7 -11  19 3004.16 1331.12
   7 -11  19   91.55 1011.89
   7 -11  20 -116.59  869.48
   7 -11  21 1094.29  685.81
   7 -12 -20  345.97  815.00
  -7 -12  20  947.70 1196.17
   7 -12 -19-1069.42  828.11
  -7 -12  19  275.09 1160.87
   7 -12 -18 3206.32 1290.64
  -7 -12  18  179.23 1226.95
   7 -12 -1710141.37 1826.88
  -7 -12  17 5367.64 1671.21
   7 -12 -16 2445.32  992.02
  -7 -12  16 2508.27 1763.56
   7 -12 -15 3477.93  995.35
  -7 -12  15  259.87 1215.72
   7 -12 -14 1844.86  902.71
  -7 -12  14  672.35 1161.45
   7 -12 -13 1488.90  914.63
  -7 -12  13 2897.08 1327.44
   7 -12 -12 1139.82  858.17
  -7 -12  12 2882.31 1254.39
   7 -12 -1125760.97 3296.96
  -7  12  1116571.80 4183.81
  -7 -12  1122532.57 3841.52
   7 -12 -10-1728.11  822.93
  -7  12  10  358.70 2124.63
  -7 -12  10  128.24 1057.78
   7 -12  -9 2158.64  901.93
  -7  12   9 1892.09 2188.94
  -7 -12   9 2181.07 1180.42
   7 -12  -8  891.90  894.77
  -7  12   8 2284.34 1592.61
  -7 -12   8-2908.47 1359.39
   7 -12  -710342.24 1409.87
  -7  12   7 3733.76 2144.45
  -7 -12   7 6023.28 1478.79
   7 -12  -6  943.15  910.63
  -7  12   6 2176.59 1630.16
  -7 -12   6 1037.90  995.57
   7 -12  -5 4842.45 1182.60
  -7  12   5 3005.89 1905.08
  -7 -12   5 8312.02 1819.22
   7 -12  -4 9293.63 1587.98
  -7  12   4 4953.28 2181.59
  -7 -12   4 8941.11 1666.59
   7 -12  -3 6667.11 1318.27
  -7  12   3 1884.72 2000.87
   7 -12  -2 1564.23 1016.08
  -7  12   2 1265.07 1598.10
   7 -12  -1 3109.18 1011.41
  -7  12   1  162.13 1587.09
   7 -12   0 4310.67 1161.59
  -7  12   0 1853.65 1813.63
   7 -12   120335.94 2536.98
  -7  12  -114491.23 3263.96
   7 -12   2  764.76  923.36
  -7  12  -2 3162.93 1437.55
   7 -12   3 1873.97  927.84
  -7  12  -3 1362.37 1360.74
   7 -12   4 -300.99  832.53
  -7  12  -4    3.44 1296.84
   7 -12   524192.08 3010.39
  -7  12  -520096.23 3509.66
   7 -12   6   26.70  845.41
  -7  12  -6 1875.44 1134.73
   7 -12   7  237.55  839.40
  -7  12  -7 -380.05  956.99
   7 -12   8 1997.71 1000.52
  -7  12  -8 2367.05 1131.46
   7 -12   9  371.14  865.38
  -7  12  -9 1853.97 1072.70
   7 -12  10  391.51 1241.21
  -7  12 -10  898.10  945.05
   7 -12  11  337.94 1308.88
  -7  12 -11  721.65  898.99
   7 -12  12 1906.19 1387.36
  -7  12 -12 1228.34  975.98
   7 -12  13 -558.87  862.98
  -7  12 -13  -82.05  901.29
   7 -12  14 1568.09  979.44
  -7  12 -14 2019.19 1011.86
   7 -12  15 4109.40 1355.39
  -7  12 -15 5266.80 1270.16
   7 -12  16  610.23 1070.25
  -7  12 -16 1209.86 1000.12
   7 -12  17 2124.35 1282.01
  -7  12 -17 3137.99 1091.99
   7 -12  18  890.69 1095.75
   7 -12  18  -41.45  898.86
   7 -12  19  911.20 1168.83
   7 -12  19   21.79  906.51
   7 -12  20 -171.40  882.06
  -7 -13  19  869.43 1270.10
   7 -13 -18 5482.60 1199.61
  -7 -13  18 1627.19 1404.88
   7 -13 -17  284.02  910.79
  -7 -13  17-1039.24 1147.71
   7 -13 -16 1467.94 1307.73
  -7 -13  16 1337.72 1219.34
   7 -13 -15 2236.87 1050.94
  -7 -13  15 1393.74 1308.41
   7 -13 -14-1021.51  917.86
  -7 -13  14 -264.58 1150.71
   7 -13 -13 -280.07  873.78
  -7 -13  13  671.94 1106.86
   7 -13 -12 1818.16 1187.86
  -7 -13  12 -851.12 1546.66
   7 -13 -11 3757.90 1018.21
  -7  13  11 4794.29 2596.11
  -7 -13  11 1819.57 1733.56
   7 -13 -10 1528.50  837.69
  -7  13  10-2424.04 2133.55
  -7 -13  10-1179.05 1494.52
   7 -13  -9 3971.73 1103.77
  -7  13   9  719.08 2581.50
  -7 -13   9 5509.08 1484.46
   7 -13  -8 1496.12  891.56
  -7  13   8-1468.78 2149.25
  -7 -13   8 -501.81 1009.77
   7 -13  -7 1527.47  879.65
  -7  13   7 3128.18 1713.79
  -7 -13   7  701.80 1051.62
   7 -13  -6 -671.55  854.60
  -7  13   6 1975.56 1667.02
  -7 -13   6 1019.50 1313.17
   7 -13  -5 5003.16 1617.84
  -7  13   5 2762.72 2074.14
  -7 -13   5 6062.76 1271.75
   7 -13  -4 1091.23  974.19
  -7  13   4-1103.77 1623.16
   7 -13  -3 1103.45  952.90
  -7  13   3 1939.29 1754.05
   7 -13  -2 8720.62 1552.65
  -7  13   2 5420.98 2294.82
   7 -13  -1 1954.36  974.61
  -7  13   1 -583.60 1680.03
  -7  13   0-2107.39 1686.39
  -7  13  -1  477.93 1584.78
   7 -13   214742.02 2133.08
  -7  13  -211737.12 2498.50
   7 -13   315075.72 2558.87
  -7  13  -313732.72 2945.18
   7 -13   4  513.60  916.23
  -7  13  -4  926.37 1358.40
   7 -13   5  252.52 1122.25
  -7  13  -5  480.60 1302.01
   7 -13   6  993.43  953.93
  -7  13  -6 2170.89 1166.52
   7 -13   7 3481.02 1151.54
  -7  13  -7  299.52 1124.40
   7 -13   8 1665.07 1368.88
  -7  13  -8 2200.86 1165.86
   7 -13   9 5306.72 1227.29
  -7  13  -9 2448.61  798.96
   7 -13  10 -976.67  935.47
  -7  13 -10 -226.99 1047.77
   7 -13  11  391.75  971.95
  -7  13 -11  449.80  930.14
   7 -13  12 1446.96 1334.84
  -7  13 -12 1182.98  973.79
   7 -13  13 3890.51 1646.01
  -7  13 -13 4342.94 1179.97
   7 -13  14 1365.47 1030.01
  -7  13 -14 1779.28 1023.96
   7 -13  15 1698.26 1156.46
  -7  13 -15 1369.50 1020.71
   7 -13  16  205.45 1061.59
  -7  13 -16  644.60  942.81
   7 -13  17  419.82 1266.58
  -7  13 -17 2321.22 1039.36
   7 -13  18  479.82 1248.70
  -7  13 -18 1757.59  995.93
  -7 -14  16 5468.56 1672.81
   7 -14 -15 -318.49  920.20
  -7 -14  15 1204.06 1178.48
   7 -14 -14  981.10  869.66
  -7 -14  14-1123.59 1628.44
   7 -14 -13 4816.16 1136.22
  -7 -14  13  642.54 1944.70
   7 -14 -12 1783.27  884.39
  -7 -14  12 1919.38 1666.86
   7 -14 -11 2093.41  929.82
  -7  14  11 4762.23 2638.15
  -7 -14  11  560.76 1259.59
   7 -14 -10 2431.44 1021.05
  -7  14  10 1693.47 3488.61
  -7 -14  10 3283.36 1766.68
   7 -14  -9 2829.62  960.70
  -7  14   9 3835.54 2691.96
  -7 -14   9 5492.69 1879.31
   7 -14  -8 1031.72  853.72
  -7  14   8 1111.69 2300.45
  -7 -14   8 1988.94 1514.63
   7 -14  -7 1775.41  879.33
  -7  14   7 -406.10 1841.36
  -7 -14   7 2838.33 1093.77
   7 -14  -6 4300.68 1108.53
  -7  14   6  891.35 2066.26
   7 -14  -5 1143.43  903.60
  -7  14   5 1192.92 1870.69
   7 -14  -4  640.74  987.86
  -7  14   4 1952.62 1788.26
   7 -14  -3 7749.21 1416.07
  -7  14   3 4138.87 2344.27
   7 -14  -2 2425.02  986.95
  -7  14   2  204.61 1820.37
   7 -14  -1   34.22  884.54
  -7  14   1   60.95 1638.89
   7 -14   0 -403.12  862.37
  -7  14   0 1143.90 1639.10
   7 -14   1 1516.00  940.41
  -7  14  -1  820.08 1761.92
   7 -14   2  -63.19  931.50
  -7  14  -2-2512.74 1638.44
   7 -14   3 1738.30 1231.88
  -7  14  -3 -567.58 1358.59
   7 -14   4 3509.65 1126.83
  -7  14  -4 3166.95 1606.37
   7 -14   5 1529.06 1434.20
  -7  14  -5  659.15 1359.05
   7 -14   611889.45 1908.50
  -7  14  -6 7032.94 1992.69
   7 -14   7 1239.15 1284.73
  -7  14  -7-2703.15 1081.44
   7 -14   8 2639.36 1182.13
  -7  14  -8  861.02 1163.85
   7 -14   9 -646.94 1030.64
  -7  14  -9 1268.83 1089.39
   7 -14  10 8871.69 2084.78
  -7  14 -10 2336.24 1423.46
   7 -14  11-1249.98  908.58
  -7  14 -11 2226.07 1108.11
   7 -14  12  401.40 1054.82
  -7  14 -12 2347.05 1005.10
   7 -14  13 -999.40 1321.58
  -7  14 -13 1448.67  957.13
   7 -14  14  405.96 1163.48
  -7  14 -14 -872.61  867.56
   7 -14  15 1183.49 1161.10
  -7  14 -15 1011.88  562.33
   7 -14  16 2234.10 1283.63
  -7 -15  13  510.52 1639.35
   7 -15 -12 1154.42  896.86
  -7 -15  12 1479.46 1253.59
   7 -15 -11  863.09  821.46
  -7  15  11  400.52 2416.99
  -7 -15  11 -487.54 1151.54
   7 -15 -10   80.69 1093.11
  -7  15  10-4056.70 2321.92
  -7 -15  10 1820.73 1162.78
   7 -15  -9  793.90  873.91
  -7  15   9 -912.38 2504.32
  -7 -15   9  880.37 1162.66
   7 -15  -8 5638.60 1308.82
  -7  15   8 4801.87 3154.60
  -7 -15   8 6019.45 2309.63
   7 -15  -7  251.11  865.21
  -7  15   7  465.68 2356.12
   7 -15  -6 3994.35 1072.73
  -7  15   6  -12.02 2118.68
   7 -15  -5 -143.72  884.64
  -7  15   5 4063.79 2512.93
   7 -15  -4 4858.69 1535.28
  -7  15   4 1617.05 2179.23
   7 -15  -3 1480.13  940.07
  -7  15   3 1211.84 1949.28
   7 -15  -212018.96 1970.89
  -7  15   2 7630.34 2827.30
   7 -15  -1 4685.64 1179.72
  -7  15   1  555.80 2147.50
   7 -15   0 1930.28 1016.07
  -7  15   0 2528.48 1950.83
   7 -15   1 1645.26 1124.10
  -7  15  -1 3441.55 1889.45
   7 -15   211938.39 1795.56
  -7  15  -2 1768.93 2339.90
   7 -15   3  665.83  931.24
  -7  15  -3 2179.45 1840.38
   7 -15   4 1680.34 1078.94
  -7  15  -4 1168.08 1476.96
   7 -15   5 1212.39 1026.99
  -7  15  -5 1313.37 1415.44
   7 -15   6 2647.75 1231.57
  -7  15  -6 2620.47 1584.44
   7 -15   7 2172.91 1201.62
  -7  15  -7   64.50 1459.65
   7 -15   8 5013.43 1442.89
  -7  15  -8 1906.39 1312.87
   7 -15   9 -161.81 1172.68
  -7  15  -9-2502.66 1109.99
   7 -15  10 -517.42 1032.23
  -7  15 -10 1911.65 1142.67
   7 -15  11 1121.68 1422.92
  -7  15 -11  -38.20 1120.89
   7 -15  12 2200.97 1200.43
  -7  15 -12 2864.05 1271.03
   7 -15  13 1633.58 1058.56
  -7  15 -13  312.03  955.16
  -7  16   9-1061.48 2639.93
  -7  16   8 -276.74 2488.37
   7 -16  -7 1454.14  954.79
  -7  16   7 5923.72 2746.58
   7 -16  -6 9032.39 1401.32
  -7  16   6 3686.61 2658.85
   7 -16  -5 2540.90  995.12
  -7  16   5 1004.11 2124.21
   7 -16  -4  753.22 1062.65
  -7  16   4 1876.36 2018.15
   7 -16  -3  946.44  989.29
  -7  16   3-2094.05 1809.32
   7 -16  -2 4085.75 1241.20
  -7  16   2 2875.58 2278.82
   7 -16  -1  169.62  911.61
  -7  16   1 3182.19 1968.92
   7 -16   0 2802.12 1303.26
  -7  16   0-3196.07 1887.32
   7 -16   1  -95.84  958.67
  -7  16  -1 3013.34 1868.35
   7 -16   2 1246.42 1000.55
  -7  16  -2-1833.11 1757.23
   7 -16   3 -373.17  951.17
  -7  16  -3 1372.74 1710.92
   7 -16   4 8534.64 1601.27
  -7  16  -4 2269.53 1856.27
   7 -16   5 2307.50 1099.71
  -7  16  -5  641.36 1533.19
   7 -16   6 2940.35 1688.84
  -7  16  -6 2111.12 1626.12
   7 -16   7 1255.18 1182.84
  -7  16  -7 1159.71 1478.66
   7 -16   8 1499.09 1128.64
  -7  16  -8-2321.54 1362.21
   7 -16   9 1595.89 1155.46
  -7  16  -9-1051.43 1164.90
   8   0 -25  175.08  820.37
   8   0 -24 3651.02 1094.22
   8   0 -23 2108.52  948.40
   8   0 -22 1777.77  944.84
   8   0 -21   87.90  843.76
   8   0 -20 2018.06  912.57
   8   0 -19  330.09  810.68
   8   0 -18 1710.76  896.79
   8   0 -17-2209.50 1239.57
   8   0 -1635027.12 4397.22
   8   0 -15  -25.29  779.33
   8   0 -14 -946.04  817.41
   8   0 -13  651.85  789.72
   8   0 -12 7106.49 1318.89
   8   0 -11  524.83  678.70
   8   0 -1010029.68 1586.54
   8   0  -9  218.58  641.38
   8   0  -8  179.43  693.59
   8   0  -7 -183.99  610.67
   8   0  -6 7981.02 1189.64
   8   0  -5 -555.26  611.92
   8   0  -4 1155.11  626.92
   8   0  -3 1766.98  626.87
   8   0  -2  768.62  797.60
   8   0  -1  519.41  789.98
   8   0   0  589.14  711.84
   8   0   1   91.26  603.91
   8   0   1  101.53  470.86
   8   0   2  135.55  512.85
   8   0   2  760.65  395.78
   8   0   3 -119.11  608.28
   8   0   3  110.22  484.45
   8   0   4 2500.74  631.38
   8   0   4 3659.66  647.37
   8   0   5   12.86  502.98
   8   0   5  172.73  445.92
   8   0   6 -220.25  519.13
   8   0   7 -359.54  580.84
   8   0   812765.22 1888.05
   8   0   9 -127.80  710.85
   8   0  1010236.92 1570.92
   8   0  11  550.20  781.77
   8   0  12 2201.73  908.58
   8   0  13 -982.01  851.95
   8   0  14 3540.05 1148.20
   8   0  15  480.31  937.30
   8   0  16  291.47  920.73
   8   0  17  899.17  975.21
   8   0  18 4360.53 1223.92
   8   0  19  239.72  556.07
   8   0  20 5494.76 1247.85
   8   0  21 -714.38  962.31
   8   0  22  661.69  984.06
   8   0  23  509.98  986.68
   8   0  24 6731.65 1708.52
   8   0  25 -219.92 1123.69
   8  -1 -25 3622.15 1052.70
   8   1 -25 3463.78 1040.16
   8  -1 -24 2777.99 1362.43
   8   1 -24 1980.18  989.80
   8  -1 -23 1859.65 1209.52
   8   1 -23 -342.09  809.20
   8  -1 -22 -416.93  867.73
   8   1 -22 -465.54  797.66
   8  -1 -21 -655.79  808.05
   8   1 -21  714.90  798.31
   8  -1 -20 3356.63 1033.86
   8   1 -20 1636.50  989.80
   8  -1 -19 -874.46  805.52
   8   1 -19 -127.37  790.66
   8  -1 -18 2714.91 1034.33
   8   1 -18 3722.74  956.49
   8  -1 -17 1542.85  880.25
   8   1 -17  -50.00  803.89
   8  -1 -16 3639.49 1133.47
   8   1 -16 4403.19 1121.47
   8  -1 -15 2420.71  902.12
   8   1 -15  -48.90  851.58
   8   1 -14 9796.85 1749.64
   8  -1 -1411306.01 1863.49
   8   1 -13 1277.42  839.70
   8  -1 -13  515.82  850.87
   8   1 -1215370.07 2310.05
   8  -1 -1214607.39 2089.24
   8   1 -11 5910.55 1002.55
   8  -1 -11 2727.86  993.97
   8  -1 -10 5509.36 1267.70
   8   1 -10 8368.94 1389.83
   8  -1  -9 2238.58  790.26
   8   1  -9 2830.18  852.13
   8  -1  -8  522.05  677.79
   8   1  -8 1991.12  724.77
   8  -1  -7 1592.97  793.00
   8   1  -7 2142.22  704.55
   8  -1  -6 3245.30  788.28
   8   1  -6 3758.47  846.00
   8   1  -5 2322.08  759.92
   8  -1  -5 2415.92  824.22
   8   1  -417194.89 1901.42
   8  -1  -416159.69 1966.32
   8   1  -3 1220.73  595.27
   8  -1  -3 1425.93  682.50
   8   1  -2   64.65  664.03
   8  -1  -2  331.02  817.44
   8  -1  -1 -956.15  758.77
   8   1  -1  185.05  585.88
   8  -1   0  933.04  536.82
   8  -1   0 1342.38  748.82
   8   1   0 1789.52  683.14
   8  -1   1  285.73  698.90
   8  -1   1  411.54  680.74
   8   1   1   38.63  569.47
   8  -1   2 5937.62 1132.88
   8   1   2 7136.36  828.19
   8   1   2 5341.67  863.56
   8  -1   2 8680.65 1029.52
   8  -1   3 4886.41  939.37
   8   1   3 3693.47  721.30
   8   1   3 6731.54  877.22
   8  -1   3 7052.89  986.64
   8  -1   4 2830.90  763.27
   8   1   4 2698.53  885.50
   8   1   4 2718.91  592.35
   8  -1   4 3400.67  546.92
   8  -1   5 -232.81  525.90
   8   1   5 -750.76  524.50
   8  -1   5  -73.10  352.86
   8  -1   6 5956.07  989.63
   8   1   6 6730.94 1027.18
   8  -1   6 6697.19  779.83
   8  -1   7 1478.66  685.11
   8   1   7  764.44  668.70
   8  -1   8 9876.28 1359.80
   8   1   811903.28 1522.90
   8  -1   9 1494.60  754.91
   8   1   9 2576.84  851.50
   8  -1  10-1006.31  730.89
   8   1  10 1815.91  801.45
   8  -1  11 2247.40  947.72
   8   1  11 3697.11  968.51
   8  -1  12 3948.66 1123.82
   8   1  12 3504.56 1043.68
   8  -1  13  -67.92  920.56
   8   1  13  740.24  901.14
   8  -1  14  -40.09  858.73
   8   1  14  724.74  894.15
   8  -1  15  466.39  856.54
   8   1  15 -153.63  870.55
   8  -1  16  997.52  986.99
   8   1  16 2058.16 1016.56
   8  -1  17 -828.71  952.82
   8   1  17  -95.62  929.86
   8  -1  18 4427.22 1205.46
   8   1  18 7585.79 1608.03
   8  -1  19  427.10  936.73
   8   1  19 1380.95 1212.09
   8  -1  20 2779.71 1118.09
   8   1  20   11.44 1193.59
   8  -1  21 -634.03  996.99
   8   1  21 -310.48  691.64
   8  -1  22 4863.50 1313.55
   8   1  22 5289.12 1535.89
   8  -1  23 -488.83 1016.40
   8   1  23-1877.65 1171.34
   8  -1  24 1886.69 1070.20
   8   1  24 1208.49 1272.32
   8  -1  25 1721.33 1018.70
   8   1  25  570.25 1232.39
   8  -2 -25  130.08  856.53
  -8  -2  25 -699.17  782.80
   8  -2 -24  225.65  868.23
  -8  -2  24  -98.23  799.81
   8  -2 -23 4868.85 1191.45
  -8  -2  23 5296.55 1151.75
   8  -2 -22  353.92  924.27
  -8  -2  22 1867.26  913.17
   8  -2 -21 3041.37 1054.58
  -8  -2  21 1747.20 1275.70
   8  -2 -20  778.05  888.22
  -8  -2  20  228.73  811.55
   8  -2 -19 1370.43  944.31
  -8  -2  19  363.30  844.48
   8  -2 -18  681.10  815.60
  -8  -2  18 -963.70  804.92
   8  -2 -17 1137.43  932.88
  -8  -2  17 1382.69  858.91
   8   2 -16  596.73  492.40
   8  -2 -16 5516.52 1019.74
   8   2 -15 4252.32  768.54
   8  -2 -15 3865.66 1419.56
   8  -2 -14 3891.43 1623.50
   8   2 -14 7601.37 1385.19
   8  -2 -13 7926.38 1482.63
   8   2 -13 6677.02 1235.80
   8  -2 -12 3562.58 1066.44
   8   2 -12 4310.77  900.02
   8   2 -1118735.37 2655.79
   8  -2 -1125479.11 2963.74
   8  -2 -10 2823.95  852.16
   8   2 -10 2291.50  827.87
   8  -2  -9  488.96  716.61
   8   2  -9  478.32  672.53
   8   2  -8 2901.04  766.04
   8  -2  -8  937.12  774.46
   8   2  -713572.23 1753.82
   8  -2  -713064.78 1790.86
   8   2  -6 1986.25  686.92
   8  -2  -6  729.06  703.90
   8   2  -5 4458.62 1081.01
   8  -2  -5 5526.12 1116.88
   8   2  -4 3062.53  678.34
   8  -2  -4 2024.44  815.51
   8  -2  -3  447.89  681.26
   8   2  -3  291.93  698.70
   8  -2  -2 2150.32  979.66
   8   2  -2 2354.96  763.80
   8  -2  -118365.83 2496.62
   8   2  -117335.71 1818.77
   8  -2   0 1106.14  515.17
   8  -2   0 1727.66  637.78
   8   2   0  656.66  579.38
   8  -2   1 -878.04  489.39
   8  -2   1 -338.08  746.01
   8   2   1  -81.11  516.37
   8  -2   2 2971.43  910.40
   8   2   2 3146.90  764.10
   8  -2   2 4560.62  916.29
   8   2   2 4158.78  627.62
   8  -2   3 4811.24  703.86
   8   2   3 4946.48  865.51
   8   2   3 8342.22 1075.96
   8  -2   3 2238.57  739.23
   8  -2   4 3899.55  696.94
   8   2   4 4562.84 1214.81
   8  -2   4 3723.12  874.19
   8  -2   5  633.64  542.43
   8   2   5 1215.65  683.35
   8  -2   5  746.20  480.63
   8  -2   6 2028.32  817.00
   8   2   6 3267.84  870.47
   8  -2   6 2164.77  578.85
   8  -2   712486.39 1658.63
   8   2   717645.05 2104.71
   8  -2   715789.37 1525.61
   8  -2   8 5112.94  887.11
   8   2   8 3740.66 1110.14
   8  -2   917009.55 2064.07
   8   2   913203.82 2104.79
   8  -2  1022333.15 2663.33
   8   2  1026623.41 3141.27
   8  -2  11   70.69  825.76
   8   2  11 2782.98 1120.25
   8  -2  12 2577.64 1106.45
   8   2  12 5457.96 1352.66
   8  -2  1317233.99 2397.80
   8   2  1319995.26 2880.37
   8  -2  14 4978.99 1430.82
   8   2  14 7301.76 1624.76
   8  -2  15 1476.58  969.84
   8   2  15 1460.43 1154.28
   8  -2  16 1706.48 1079.10
   8   2  16 1472.77 1225.20
   8  -2  17  380.60  984.33
   8   2  17 1391.56 1169.07
   8  -2  18 2848.42 1118.61
   8   2  18 3344.44 1311.27
   8  -2  19 1169.35  997.09
   8   2  19 1810.90 1215.01
   8  -2  20  520.17 1027.46
   8   2  20 1593.17 1189.47
   8  -2  21 4132.54 1244.67
   8   2  21 4573.00  916.71
   8  -2  22  753.29  973.76
   8   2  22-1034.12 1069.30
   8  -2  23  247.26  956.36
   8   2  23  525.84 1431.26
   8  -2  24  235.56 1041.70
   8   2  24  843.27 1447.60
   8  -2  25 2558.46 1268.49
   8   2  25 4267.30 1780.29
  -8  -3  25 3768.25 1049.76
   8  -3 -24  116.63 1215.60
  -8  -3  24-1007.01  821.34
   8  -3 -23 4494.56 1120.44
  -8  -3  23 3965.36 1083.73
   8  -3 -22 2153.30  969.03
  -8  -3  22  286.14  830.56
   8  -3 -21 1255.91  907.93
  -8  -3  21  141.71  818.78
   8  -3 -20  534.81  935.55
  -8  -3  20 1297.67  895.81
   8  -3 -19 2143.77 1003.23
  -8  -3  19 1285.37  870.50
   8  -3 -18  -41.87  919.28
  -8  -3  18 1307.26  860.58
   8  -3 -17 1408.54  881.82
  -8  -3  17 -180.39  797.48
   8  -3 -16  214.96  840.62
  -8  -3  16   42.64  819.33
   8  -3 -15 6017.07 1270.67
  -8  -3  1511343.79 2029.77
   8  -3 -14  799.83  929.09
  -8  -3  14 2448.36  957.28
   8  -3 -13 4285.55 1031.22
  -8  -3  13 3527.00 1337.80
   8  -3 -12 -902.91  759.36
  -8  -3  12-1262.74  808.94
   8  -3 -11  248.96  728.76
   8   3 -11 -721.00  374.41
   8   3 -10  375.24  691.93
   8  -3 -10  741.30  693.16
   8   3  -9 2548.58  711.64
   8  -3  -9 2981.29  878.78
   8   3  -8 9840.20 1417.17
   8  -3  -813549.09 1773.40
   8   3  -7 3207.14  754.17
   8  -3  -7  324.91  951.73
   8   3  -6  493.39  762.30
   8  -3  -6  350.28  802.21
   8  -3  -5 6389.22 1226.61
   8   3  -5 4058.63 1097.75
   8  -3  -4 9703.05 1385.53
   8   3  -410521.19 1334.80
   8  -3  -316533.39 2087.07
   8   3  -317868.98 1962.09
   8  -3  -2   26.35  931.39
   8   3  -2  453.05  555.81
   8  -3  -1  881.13  470.41
   8   3  -1   72.75  387.26
   8  -3  -1  303.99  573.22
   8  -3   0  560.31  521.09
   8   3   0 1602.22  529.62
   8  -3   0  309.01  624.12
   8  -3   113468.18 1709.31
   8   3   112731.57 1367.62
   8  -3   114347.04 1733.42
   8  -3   2 -313.22  485.14
   8  -3   2 -328.24  578.60
   8  -3   3 2710.86  576.21
   8   3   3 2309.12 1084.69
   8  -3   3 2360.34  844.91
   8  -3   4 1520.07  768.13
   8   3   4 1890.41  868.34
   8  -3   4 1649.61  595.08
   8  -3   5  888.76  532.29
   8   3   5 1575.88  874.33
   8  -3   5  597.71  756.54
   8  -3   617852.28 2319.71
   8   3   624477.84 3342.51
   8  -3   626418.37 2411.50
   8  -3   715882.78 1866.23
   8  -3   716387.52 1564.00
   8   3   712856.76 2074.25
   8  -3   8 6686.03 1226.98
   8  -3   8 7271.80  976.63
   8   3   8 8718.88 1577.66
   8  -3   9 6252.54 1095.05
   8   3   9 5904.97 1485.23
   8  -3  10 3855.21  948.90
   8   3  10 4817.70 1539.55
   8  -3  1122729.82 2798.04
   8   3  1124874.01 3529.93
   8  -3  12 2042.58  960.54
   8   3  12 5917.17 1583.60
   8  -3  13 1801.84  998.42
   8   3  13 2746.02 1504.77
   8  -3  14-1097.84  887.89
   8   3  14 -983.07 1329.01
   8  -3  15 2351.26 1030.53
   8   3  15 1049.55 1413.89
   8  -3  16  186.05  968.94
   8   3  16 2840.18 1430.63
   8  -3  17 5159.40 1405.08
   8   3  17 9494.76 1417.47
   8  -3  18 -399.73  902.11
   8   3  18  173.74 1307.18
   8  -3  19 2737.08 1120.10
   8   3  19 2570.85 1537.00
   8  -3  20  703.64  622.28
   8   3  20 2440.05 1416.99
   8  -3  21 4153.92 1284.67
   8   3  21 5789.44 1761.52
   8  -3  22 4885.15 1286.01
   8   3  22 1483.28 1694.54
   8  -3  23 -195.65 1022.46
   8   3  23  209.56 1402.20
   8  -3  24 -841.83 1017.23
   8   3  24 -499.96 1457.14
   8  -3  25-1401.43 1020.33
   8   3  25   62.40 1495.82
   8  -4 -24-1422.76  810.69
  -8  -4  24 1727.67  897.85
   8  -4 -23 2396.10 1027.17
  -8  -4  23 2391.90 1040.01
   8  -4 -22  -90.80  854.34
  -8  -4  22  395.27  874.61
   8  -4 -21 4419.51 1195.47
  -8  -4  21 6078.98 1287.31
   8  -4 -20 -889.21  844.31
  -8  -4  20  213.74  912.84
   8  -4 -19  787.83  872.59
  -8  -4  19 -823.86  835.56
   8  -4 -18  532.10  867.06
  -8  -4  18  408.64  900.33
   8  -4 -17 4131.44 1173.85
  -8  -4  17 4424.31 1489.99
   8  -4 -16 -744.33  795.69
  -8  -4  16  602.59  834.91
   8  -4 -1510810.73 2106.00
  -8  -4  15 8076.72 1545.02
   8  -4 -14 1895.17  870.61
  -8  -4  14 1334.23 1217.91
   8  -4 -1310937.67 1754.91
  -8  -4  13 9892.99 1688.88
   8  -4 -1210468.09 1610.14
  -8  -4  12 8195.89 1595.75
   8  -4 -11 1612.93  780.85
  -8  -4  11 1054.42  797.79
   8  -4 -10 2357.79 1150.11
  -8  -4  10  329.72  777.30
   8  -4  -9  653.92 1052.33
  -8  -4   9-2156.94  996.13
   8  -4  -8 1128.82  813.68
  -8  -4   8 2011.67  820.74
   8   4  -7 6041.11 1031.05
   8  -4  -7 3791.28 1129.23
   8  -4  -6  174.29  735.37
   8   4  -6  639.91  736.13
   8   4  -5 8492.13 1142.53
   8  -4  -511268.80 1915.29
   8  -4  -4 1807.26  922.84
   8   4  -4 3910.07  712.74
   8   4  -3  440.74  604.99
   8  -4  -3  597.76  933.29
   8   4  -2 1465.68  435.19
   8  -4  -2 -411.70  701.36
   8  -4  -124495.15 2669.77
   8   4  -124985.93 2104.57
   8  -4  -117570.41 2038.84
   8   4   0 -502.35  363.58
   8  -4   0  -78.87  642.29
   8  -4   0  300.26  736.81
   8  -4   1  729.77  647.01
   8  -4   1 1450.66  618.00
   8  -4   2  702.44  594.23
   8  -4   2  175.22  472.12
   8   4   3 4504.99 1143.19
   8  -4   3 3693.50  874.29
   8  -4   3 6389.17  950.92
   8   4   4   49.51  857.32
   8  -4   4 -474.30  824.48
   8  -4   4  423.91  629.08
   8   4   5 5267.56 1320.23
   8  -4   5 6603.47 1279.67
   8  -4   5 5318.02  905.45
   8  -4   6 2597.91  681.33
   8   4   6 2202.96 1158.74
   8  -4   6 1183.41  678.87
   8  -4   7 6821.24 1133.75
   8  -4   7 9594.88 1229.53
   8   4   7 6165.65 2282.76
   8  -4   8 -458.54  650.34
   8  -4   8  238.37  694.50
   8   4   8  582.24 1170.03
   8  -4   9 1661.64  831.00
   8   4   9 3666.15 1420.76
   8  -4   9 3080.11  863.03
   8  -4  10  573.26  769.84
   8   4  10 -712.45 1276.31
   8  -4  11 4055.89 1094.36
   8   4  11 6615.45 1787.28
   8  -4  12 3913.27 1041.10
   8   4  12 2825.67 1404.67
   8  -4  13 1988.66  891.16
   8   4  13 1741.47 1351.17
   8  -4  14 1772.47  940.12
   8   4  14  402.25 1294.55
   8  -4  15 1029.13 1010.56
   8   4  15 4719.82 1523.63
   8  -4  16 -809.55  948.38
   8   4  16 -385.09 1306.76
   8  -4  17  590.70  513.54
   8   4  17 -292.53 1342.74
   8  -4  18  423.14 1024.59
   8   4  18 3088.93 1689.28
   8  -4  19 6901.19 1440.87
   8   4  19 8226.06 2312.09
   8  -4  20 4130.54 1272.72
   8   4  20 4281.69 2073.09
   8  -4  21 -696.59 1005.14
   8   4  21 4248.99 1694.87
   8  -4  22  -30.96  579.26
   8   4  22 -313.10 1574.82
   8  -4  23  302.92 1030.93
   8   4  23 2122.11 1745.10
   8  -4  24  318.80 1073.96
   8   4  24-1505.13 1666.24
  -8  -5  24 -550.89  945.92
   8  -5 -23 3427.53 1059.41
  -8  -5  23  543.16 1004.50
   8  -5 -22 1370.64  962.67
  -8  -5  22 -781.91  874.83
   8  -5 -21 1785.40 1027.18
  -8  -5  21 1049.14  986.85
   8  -5 -20  647.63  879.43
  -8  -5  20  747.28  920.90
   8  -5 -19 3768.79 1035.94
  -8  -5  19 1768.90 1070.14
   8  -5 -18 3001.64 1009.98
  -8  -5  18 1093.02  970.33
   8  -5 -17  971.45  844.17
  -8  -5  17 -406.20  893.78
   8  -5 -16  115.66  865.37
  -8  -5  16   -5.42 1207.03
   8  -5 -1516908.76 2360.21
  -8  -5  1514267.22 2414.78
   8  -5 -14 7414.84 1404.55
  -8  -5  14 3652.14 1203.65
   8  -5 -13 2216.74 1038.44
  -8  -5  13 3681.40 1397.19
   8  -5 -12 1739.19 1219.52
  -8  -5  12 2433.34 1025.07
   8  -5 -11 1651.13 1181.98
  -8  -5  11  731.72 1207.81
   8  -5 -10  863.81  882.35
  -8  -5  10-2024.31  721.07
   8  -5  -916887.21 2326.12
  -8  -5   914092.69 1987.31
   8  -5  -8 -712.02  966.59
  -8  -5   8  478.18  948.94
   8  -5  -710175.23 1512.61
  -8  -5   710481.89 1770.45
   8  -5  -6 -164.60  722.96
  -8  -5   6  216.26  848.56
   8  -5  -5 4329.83  923.22
   8   5  -5  519.12  397.40
   8  -5  -4 4866.44  926.80
   8   5  -4 3695.20  678.90
   8   5  -314620.96 1506.36
   8  -5  -313295.17 1948.06
   8  -5  -2  638.04  684.12
   8   5  -2 -166.14  345.47
   8  -5  -2  456.56  457.02
   8   5  -1  339.67  420.48
   8  -5  -1 -115.94  698.66
   8  -5  -1 1119.03  528.82
   8  -5   0 -560.31  946.53
   8  -5   0  649.14  519.18
   8  -5   1 8468.65 1224.22
   8  -5   1 7958.14 1013.78
   8  -5   2 9658.47 1399.91
   8  -5   2 8719.03 1308.30
   8  -5   3 -723.28  883.22
   8  -5   3   92.12  496.81
   8   5   4 3351.03 2065.70
   8  -5   4 3765.68  991.58
   8  -5   4 2268.67  727.14
   8  -5   5 7894.32 1120.98
   8   5   5 5903.54 2549.36
   8  -5   5 6472.07 1306.47
   8  -5   6 4924.70  788.90
   8   5   6 4615.71 2272.71
   8  -5   6 1225.20  784.18
   8  -5   712465.25 1937.42
   8   5   714062.61 3428.88
   8  -5   711602.08 1659.09
   8  -5   8 -193.51  541.18
   8   5   8 1250.42 3063.51
   8  -5   8  736.39  749.03
   8   5   9 -292.62 1325.20
   8  -5   9 1292.93  584.58
   8  -5   9 1509.81 1053.01
   8   5  10  217.85 1806.70
   8  -5  10   74.64  757.04
   8  -5  10-1231.05  759.22
   8  -5  1120042.15 2555.87
   8   5  1113834.49 2610.65
   8  -5  12 -110.20  813.95
   8   5  12  540.36 1393.06
   8  -5  13 4302.86 1080.03
   8   5  13 2684.28 1732.02
   8  -5  14 3521.25 1069.50
   8   5  14 3266.80 1787.71
   8  -5  15 -476.98  884.16
   8   5  15 -412.09 1516.88
   8  -5  16 1318.64  970.67
   8   5  16 1936.91 1614.79
   8  -5  17 2249.58 1024.10
   8   5  17 2188.28 1775.45
   8  -5  18 2821.55 1094.68
   8   5  18 3443.13 1865.41
   8  -5  19 -505.53  945.10
   8   5  19 3504.57 1651.57
   8  -5  20 1017.16  954.07
   8   5  20   30.62 1627.61
   8  -5  21 6316.10 1467.55
   8   5  21 6135.04 2293.11
   8  -5  22-1347.87  969.62
   8   5  22 2410.55 1793.24
   8  -5  23 -286.40 1011.21
   8   5  23    2.12 1675.80
   8  -5  24   74.32 1105.81
   8   5  24 1539.20 1784.15
   8  -6 -23  486.30  874.97
  -8  -6  23   74.75  944.32
   8  -6 -22 4412.69 1133.90
  -8  -6  22  455.95 1039.82
   8  -6 -21 1065.46  874.49
  -8  -6  21 1855.23 1013.01
   8  -6 -20 1178.59  914.75
  -8  -6  20 -354.25  945.23
   8  -6 -19 -767.74  886.46
  -8  -6  19  153.74  948.90
   8  -6 -18-1773.05  927.19
  -8  -6  18-1166.12  922.05
   8  -6 -17  597.56  952.70
  -8  -6  17  727.10  928.41
   8  -6 -16 2808.29 1090.46
  -8  -6  16 2409.36 1076.75
   8  -6 -15 1179.43  852.97
  -8  -6  15 2086.72 1358.53
   8  -6 -14 1466.83  899.14
  -8  -6  14 1194.00 1020.10
   8  -6 -13 1091.62 1157.50
  -8  -6  13 1260.11  917.16
   8  -6 -12 6782.99 1236.45
  -8  -6  1210847.24 2097.07
   8  -6 -11  479.07  830.31
  -8  -6  11 1115.48  957.30
   8  -6 -10  753.91  937.33
  -8  -6  10 1815.42 1175.22
   8  -6  -9 -656.66  744.03
  -8  -6   9 1084.10  785.59
   8  -6  -8 1180.30  826.50
  -8  -6   8 1276.84  847.09
   8  -6  -7 2078.22 1232.68
  -8  -6   7 1924.92  841.72
   8  -6  -6 6178.14 1186.81
  -8  -6   6 3949.55  877.78
   8  -6  -5 1568.86  869.42
  -8  -6   5 1755.24  695.95
   8  -6  -4 -945.56  963.05
  -8   6   4 -417.18  536.48
  -8  -6   4  862.39  581.75
   8  -6  -3 1334.63  783.64
  -8   6   3 2009.11  911.68
   8   6  -2 5967.35  926.33
   8  -6  -2 4458.46 1387.90
  -8   6   2 5386.63 1011.78
   8  -6  -1 8918.74 1135.02
   8  -6  -1  426.47  321.42
   8  -6   013323.87 1818.05
   8  -6   011485.97 1225.42
   8  -6   1  958.31  759.25
   8  -6   1  513.67  501.14
   8  -6   2  196.21  675.62
   8  -6   2  920.57  502.80
   8  -6   3  572.64  503.07
   8  -6   3  883.03  673.61
   8  -6   421982.67 2489.24
   8  -6   417675.14 2133.76
   8  -6   5  317.82  670.96
   8  -6   5  886.98  598.66
   8  -6   6 1576.75  708.67
   8  -6   6  -64.40  771.47
   8  -6   7 -238.41  878.42
   8  -6   7 1267.38  727.39
   8  -6   8  536.28  583.03
   8   6   8-1760.91 2304.34
   8  -6   8 -107.43  739.56
   8   6   9-1134.24 2440.58
   8  -6   9  336.57  821.78
   8  -6   9 1270.44  853.07
   8   6  1014346.66 4743.56
   8  -6  1019122.34 2106.70
   8  -6  1021133.68 2401.57
   8   6  11 -269.43 2770.88
   8  -6  11 2181.48  867.67
   8  -6  11 1788.54  975.65
   8   6  12-2584.78 2721.34
   8  -6  12 -686.72  818.00
   8   6  13 3298.78 2964.44
   8  -6  13 1401.78  886.13
   8   6  14 3179.15 2731.40
   8  -6  14 -364.43  821.73
   8  -6  15   99.11  875.80
   8   6  15 1084.27 2823.15
   8  -6  16 1510.25  958.77
   8   6  16 3337.72 3164.88
   8  -6  17 1314.39  983.82
   8   6  17 -149.45 3131.08
   8  -6  18   57.42  901.25
   8   6  18 2013.57 2926.58
   8  -6  19 1577.03 1072.70
   8   6  19 6718.21 3470.17
   8  -6  20 3140.54 1159.96
   8   6  20 7109.95 3717.14
   8  -6  21 -735.42  949.87
   8   6  21  760.21 3151.16
   8  -6  22 1959.78 1075.42
   8   6  22 5656.20 3617.30
   8  -6  23 1520.62 1022.07
   8   6  23 -247.46 3366.63
  -8  -7  23  -95.34  973.84
   8  -7 -22 -472.32  909.76
  -8  -7  22  989.09  921.85
   8  -7 -21  583.50  896.11
  -8  -7  21   16.47  971.86
   8  -7 -20 2578.20 1032.58
  -8  -7  20 3979.83 1221.19
   8  -7 -19 1493.82 1254.85
  -8  -7  19 -123.15  964.56
   8  -7 -18  346.06  932.65
  -8  -7  18 1374.78  973.49
   8  -7 -17  809.75  904.72
  -8  -7  17 -911.03  875.71
   8  -7 -16 2145.81  960.85
  -8  -7  16  151.46  972.06
   8  -7 -15  524.74  843.90
  -8  -7  15  451.40  916.94
   8  -7 -14 2203.86 1228.13
  -8  -7  14 3746.17 1491.19
   8  -7 -13  940.26  849.00
  -8  -7  13 3198.64 1125.75
   8  -7 -12 1541.96  852.07
  -8  -7  12  912.40  929.37
   8  -7 -11  264.18  719.73
  -8  -7  11 -303.20  862.03
   8  -7 -10 8632.44 1604.20
  -8  -7  1011339.81 1726.70
   8  -7  -9 -164.01  738.69
  -8  -7   9  -55.58  815.59
   8  -7  -810644.75 1785.37
  -8  -7   8 9595.59 1910.44
   8  -7  -7  848.72  787.89
  -8  -7   7  341.01 1047.08
   8  -7  -6 1056.51 1070.31
  -8  -7   6   76.61  728.52
   8  -7  -5 -778.31  788.00
  -8  -7   5 -853.87  696.04
   8  -7  -411403.00 1805.89
  -8   7   4 7743.12 1296.66
  -8  -7   410341.32 1599.34
   8  -7  -3  486.32  788.65
  -8   7   3  513.73  610.39
  -8  -7   3  116.26  832.53
   8  -7  -2 7579.26 1179.99
  -8   7   2 5331.18 1308.52
  -8  -7   2 4758.22  886.02
   8  -7  -1 -669.95  726.62
  -8   7   1  171.26  678.54
   8  -7   0   58.39 1049.78
  -8   7   0  633.41  696.80
   8  -7   1 -526.18  720.34
  -8   7  -1   76.06  698.47
   8  -7   2 3319.09  851.66
  -8   7  -2 1513.22  826.16
   8  -7   3 1698.68  669.54
   8  -7   3 -261.16  320.81
   8  -7   4 2967.78  829.74
   8  -7   4 1892.85  470.20
   8  -7   5 -943.60  669.61
   8  -7   5  416.73  689.45
   8  -7   6 1867.82  821.68
   8  -7   6 4941.83  877.30
   8  -7   7   31.23  637.52
   8  -7   7  651.05  694.32
   8  -7   8 6005.42 1257.14
   8  -7   8 6408.73 1270.08
   8  -7   9   20.68  605.01
   8  -7   9    9.64  778.61
   8  -7  10 4238.11  817.78
   8  -7  10 2488.48 1045.66
   8  -7  11  959.18  967.15
   8  -7  11 1169.25  922.89
   8  -7  12 5029.91  960.95
   8  -7  12 4865.19  866.04
   8  -7  13 -629.06  941.95
   8  -7  14   95.80  933.40
   8  -7  15  947.05  930.35
   8  -7  16 1911.65 1017.02
   8  -7  17 1583.06  990.34
   8  -7  18 5384.68 1197.09
   8  -7  19    6.73  854.72
   8  -7  20 -414.95  854.03
   8  -7  21  816.83  900.77
   8  -7  22 4529.56 1149.36
  -8  -8  22 6850.27 1492.46
   8  -8 -21 1853.53  992.42
  -8  -8  21 -238.74 1051.14
   8  -8 -20 -703.00  884.94
  -8  -8  20  782.69  963.35
   8  -8 -19   72.05  814.06
  -8  -8  19 -116.54  940.55
   8  -8 -18 1777.59  952.16
  -8  -8  18 2172.91 1134.37
   8  -8 -17 -871.65  787.03
  -8  -8  17 1093.11  961.22
   8  -8 -16  451.39  913.16
  -8  -8  16 4782.56 1150.64
   8  -8 -15  876.01  819.12
  -8  -8  15   75.53  925.96
   8  -8 -14 -583.00  745.81
  -8  -8  14   17.96 1272.24
   8  -8 -13 -653.21  779.98
  -8  -8  13  185.40  958.06
   8  -8 -12  990.23  950.79
  -8  -8  12 3675.96 1262.14
   8  -8 -11  974.76  847.08
  -8  -8  11  102.61 1220.80
   8  -8 -10 2216.36  909.93
  -8  -8  10 2796.52  983.52
   8  -8  -9 -951.55  775.22
  -8  -8   9  121.51 1145.55
   8  -8  -8   86.84  773.44
  -8  -8   8 -237.55  767.23
   8  -8  -7  -42.77  792.65
   8  -8  -7 -701.96  824.46
  -8  -8   7  926.43  766.60
   8  -8  -623568.72 3260.50
  -8  -8   621184.04 2597.80
   8  -8  -5  -33.18 1053.34
  -8   8   5 -125.05  685.09
  -8  -8   5  107.20  967.00
   8  -8  -4 -193.03  726.75
  -8   8   4 -531.31  632.51
  -8  -8   4 1167.15  699.02
   8  -8  -3 -446.43  849.73
  -8   8   3 -770.03  919.94
  -8  -8   3  676.12  699.25
   8  -8  -226113.15 2813.81
  -8   8   212803.53 2254.95
   8  -8  -1 -137.75  815.84
  -8   8   1  652.32  747.08
   8  -8   0 3632.33 1054.79
  -8   8   0 6043.43 1159.54
   8  -8   1 -184.48 1039.25
  -8   8  -1  253.80  757.73
   8  -8   2  337.06  707.38
  -8   8  -2  263.50  760.67
   8  -8   3 -341.79  757.76
  -8   8  -3 -479.81  794.21
   8  -8   421417.48 2330.06
  -8   8  -411643.02 1692.56
   8  -8   5  392.36  759.00
  -8   8  -5 1330.42  870.30
   8  -8   6  -70.91  655.80
   8  -8   6  295.27  428.83
   8  -8   7 3188.74  886.64
   8  -8   7 3993.49  680.85
   8  -8   8  428.66  713.86
   8  -8   8  319.10  870.74
   8  -8   9 2282.28  768.05
   8  -8   9 1448.62  958.22
   8  -8  10 3986.52 1134.78
   8  -8  10 4383.08 1170.41
   8  -8  11  609.72  745.32
   8  -8  11  601.90  922.07
   8  -8  12  849.14  756.57
   8  -8  12 2049.77 1025.64
   8  -8  13  811.29 1051.25
   8  -8  13   12.68  874.51
   8  -8  14 6207.16 1316.29
   8  -8  15  886.18  947.47
   8  -8  16 2907.99 1085.67
   8  -8  17  127.54  869.41
   8  -8  18 2077.11  942.92
   8  -8  19  486.92  888.69
   8  -8  20 4861.97 1156.36
   8  -8  21  237.08  869.15
  -8  -9  20 5755.06 1999.01
   8  -9 -19  678.19  952.25
  -8  -9  19 1893.31 1513.66
   8  -9 -18 1624.30 1279.77
  -8  -9  18 1866.30 1173.55
   8  -9 -17  877.36  804.51
  -8  -9  17-1431.87  968.81
   8  -9 -16 1185.20  838.22
  -8  -9  16  170.65 1496.22
   8  -9 -15 3183.89  990.12
  -8  -9  15 3937.89 1664.08
   8  -9 -14 1516.14  895.46
  -8  -9  14  761.74 1061.16
   8  -9 -13  875.72  864.68
  -8  -9  13  519.05 1012.81
   8  -9 -12  448.78  801.43
  -8  -9  12 -367.94  904.88
   8  -9 -11 3817.46 1447.81
  -8  -9  11 5401.55 1607.15
   8  -9 -10 3946.25 1409.77
  -8  -9  10 3072.54 1092.70
   8  -9  -9 4680.06 1512.47
  -8  -9   9 6082.53 1566.26
   8  -9  -8 -548.21 1222.10
  -8  -9   8 1979.36  895.33
   8  -9  -7 2401.37  980.55
  -8  -9   7 4507.23 1350.80
   8  -9  -6 -102.10  785.56
  -8  -9   6  248.39 1019.37
   8  -9  -5 9198.67 1497.40
  -8   9   5 3106.28 1058.98
  -8  -9   5 4165.16 1321.02
   8  -9  -4 7742.00 1423.15
  -8   9   4 2114.89 1018.31
  -8  -9   4 5253.59 1357.23
   8  -9  -3 4008.36 1416.36
  -8   9   3 1904.80  984.72
   8  -9  -2  587.21  830.89
  -8   9   2 -838.00  796.12
   8  -9  -1 -101.45  821.91
  -8   9   1 -237.14  737.33
   8  -9   0 3111.79  930.15
  -8   9   0 1356.20  924.04
   8  -9   1 5969.76 1227.49
  -8   9  -1 5027.96 1432.99
   8  -9   2 1949.54 1276.63
  -8   9  -2  127.28  816.19
   8  -9   3 -643.54  845.13
  -8   9  -3  252.57  825.80
   8  -9   4  539.33  775.37
  -8   9  -4 -216.49  825.56
   8  -9   5  510.02  745.43
  -8   9  -5 -276.04  887.40
   8  -9   6 1036.26  801.58
  -8   9  -6 3282.60  978.15
   8  -9   7 1299.66  790.69
  -8   9  -7   78.93  934.44
   8  -9   8 6644.92 1081.33
  -8   9  -8 3801.22 1321.94
   8  -9   9 1573.82  817.93
   8  -9   9 1966.47  645.04
   8  -9  10  470.36  761.80
   8  -9  10  261.25  846.23
   8  -9  11 6397.38 1202.72
   8  -9  11 5629.08 1374.86
   8  -9  12 2083.93  920.00
   8  -9  12 1193.18  937.20
   8  -9  13 3623.27 1403.23
   8  -9  13 3782.43 1176.89
   8  -9  14 1029.38  947.58
   8  -9  15 -309.06  859.94
   8  -9  16 2259.37 1023.87
   8  -9  17  961.23  941.46
   8  -9  18 4091.87 1123.27
   8  -9  19  298.62  893.78
   8  -9  20  464.48  866.69
  -8 -10  19 -234.96 1062.63
   8 -10 -18  690.87  904.97
  -8 -10  18 2267.33 1247.08
   8 -10 -17 2467.84  943.33
  -8 -10  17 2386.75 1246.19
   8 -10 -16 1511.16  898.41
  -8 -10  16 2108.91 1214.92
   8 -10 -15 1650.39  965.17
  -8 -10  15 2453.52 1231.48
   8 -10 -14 -682.24  855.23
  -8 -10  14-1896.92 1031.52
   8 -10 -13 2387.18 1322.60
  -8 -10  13 2561.02 1192.84
   8 -10 -12 3192.83 1066.62
  -8 -10  12 3105.93 1206.52
   8 -10 -11 2434.23 1037.47
  -8 -10  11 2497.63 1566.73
   8 -10 -10  577.31  919.01
  -8 -10  10 1350.64  986.05
   8 -10  -9 -165.90  874.62
  -8 -10   9 1194.39 1265.02
   8 -10  -8 -763.15  818.73
  -8 -10   8 -976.87  897.93
   8 -10  -7 9801.69 1467.28
  -8 -10   7 4364.44 1513.15
   8 -10  -6 1616.95  968.24
  -8 -10   6  623.00  826.97
   8 -10  -5 -576.61  871.31
  -8  10   5  253.30 1025.04
  -8 -10   5 -278.02  722.23
   8 -10  -4-1028.49  850.68
  -8  10   4  987.39  869.74
   8 -10  -3 3071.38 1036.27
  -8  10   3  841.08  991.93
   8 -10  -2 1231.20 1155.42
  -8  10   2 -195.10 1226.51
   8 -10  -116471.89 1959.55
  -8  10   1 4029.12 1354.88
   8 -10   0 1898.31 1227.57
  -8  10   0 1862.35 1027.62
   8 -10   1  121.73  902.18
  -8  10  -1 1345.62  879.56
   8 -10   2  457.12  850.10
  -8  10  -2 -347.51  801.53
   8 -10   3 4460.72 1278.11
  -8  10  -3 3451.68 1121.24
   8 -10   4 1705.20  945.03
  -8  10  -4  970.79  956.12
   8 -10   5 1844.54  850.87
  -8  10  -5  171.36  875.69
   8 -10   6  964.16 1131.42
  -8  10  -6 1547.75  983.85
   8 -10   7 1658.87 1174.42
  -8  10  -7 2175.97 1074.09
   8 -10   8 6148.14 1051.86
  -8  10  -8 2909.13 1175.12
   8 -10   9 7690.23 1299.23
  -8  10  -9 3404.11 1220.10
   8 -10  10  349.74  833.35
  -8  10 -10  949.62  952.36
   8 -10  11  777.63  852.17
   8 -10  11 1153.80  573.17
   8 -10  12  730.32 1210.46
   8 -10  12 -207.44  838.12
   8 -10  13 6771.99 1865.34
   8 -10  13 8129.75 1526.02
   8 -10  14 3824.34 1521.32
   8 -10  14 5207.57 1263.12
   8 -10  1511270.01 1872.61
   8 -10  16  658.52  946.81
   8 -10  17  -65.87  913.00
   8 -10  18  797.70  932.83
   8 -10  19 2135.14 1072.78
  -8 -11  17 1165.72 1195.84
   8 -11 -16  298.96  755.49
  -8 -11  16  621.83 1104.89
   8 -11 -15 1025.44  789.73
  -8 -11  15-1162.59 1025.81
   8 -11 -14 1460.46  894.70
  -8 -11  14 1980.09 1178.33
   8 -11 -13 1660.04  934.40
  -8 -11  13 1449.20 1560.97
   8 -11 -12  764.91  854.27
  -8 -11  12-1275.41 1344.00
   8 -11 -11 1518.14  935.96
  -8 -11  11  719.62 1052.41
   8 -11 -10 -502.66  877.93
  -8 -11  10 -354.04  991.87
   8 -11  -9 4763.52 1272.12
  -8 -11   9 3395.51 1596.38
   8 -11  -8  500.11  935.29
  -8 -11   8  215.19  948.67
   8 -11  -7 3189.73 1090.41
  -8 -11   7  804.43 1332.77
   8 -11  -6  399.34  977.78
  -8  11   6 -315.05 1100.32
   8 -11  -5  989.38  976.16
  -8  11   5 -744.65 1114.49
   8 -11  -4 1397.24  978.56
  -8  11   4  674.35 1197.49
   8 -11  -3 7781.57 1666.33
  -8  11   3 3305.32 1565.46
   8 -11  -2  832.56  932.64
  -8  11   2   92.98  912.92
   8 -11  -1 -377.61  880.77
  -8  11   1 -829.00 1362.85
   8 -11   0  411.44  865.26
  -8  11   0  187.76  984.53
   8 -11   1  369.28  909.48
  -8  11  -1  792.98 1031.45
   8 -11   2  438.98  888.84
  -8  11  -2  990.50 1003.53
   8 -11   3  316.87  868.27
  -8  11  -3  608.77  887.12
   8 -11   4 -551.30  816.72
  -8  11  -4 1064.60  943.42
   8 -11   5 3255.29  994.64
  -8  11  -5 1450.81  988.11
   8 -11   6  901.48  817.29
  -8  11  -6 -112.06  909.45
   8 -11   7 1020.07  842.53
  -8  11  -7  210.22  911.01
   8 -11   8  158.77  773.62
  -8  11  -8 1192.14  929.83
   8 -11   9  553.55  836.32
  -8  11  -9  418.52  957.58
   8 -11  10 -652.02  812.49
  -8  11 -10  381.82  958.59
   8 -11  11 6497.35 1647.64
  -8  11 -11 4199.32 1288.84
   8 -11  12  615.02 1304.24
  -8  11 -12  785.99 1003.82
   8 -11  13  -40.88 1301.02
   8 -11  13 1188.68  606.91
   8 -11  14 1082.07 1188.41
   8 -11  14  109.38  534.57
   8 -11  15 -502.41 1208.83
   8 -11  15 1116.70  551.45
   8 -11  16   23.15  854.58
   8 -11  17 1537.88  992.48
  -8 -12  15  -54.62 1166.76
   8 -12 -14  439.57  816.55
  -8 -12  14   61.78 1134.90
   8 -12 -13  985.94  843.54
  -8 -12  13  295.21 1167.66
   8 -12 -12 5183.87 1223.90
  -8 -12  12 2259.80 1243.76
   8 -12 -11 6798.40 1367.79
  -8 -12  11 4233.46 1396.87
   8 -12 -10 1097.63  971.13
  -8 -12  10 1820.28 1455.92
   8 -12  -9  257.63  934.79
  -8 -12   9 -961.87  945.00
   8 -12  -8 1729.49 1112.47
  -8 -12   8 2952.11 1460.61
   8 -12  -7 6844.41 1517.55
   8 -12  -6 -391.84  913.85
  -8  12   6  627.88 1638.17
   8 -12  -5 3131.49 1537.45
  -8  12   5 4174.66 1535.13
   8 -12  -4 -515.34  911.79
  -8  12   4 -484.94 1260.88
   8 -12  -3 2917.46 1027.14
  -8  12   3 1022.69 1392.14
   8 -12  -2 2619.43 1195.94
  -8  12   2 1444.19 1423.05
   8 -12  -1 1294.87 1371.75
  -8  12   1   74.35 1260.35
   8 -12   0  744.31  947.44
  -8  12   0  269.07 1012.35
   8 -12   1 -199.17  922.49
  -8  12  -1 -791.35 1020.98
   8 -12   2  971.98  954.68
  -8  12  -2 1260.73 1129.86
   8 -12   3  849.56  959.72
  -8  12  -3 1764.86 1121.13
   8 -12   4 -505.57  839.53
  -8  12  -4  671.94 1025.05
   8 -12   5  267.59 1261.65
  -8  12  -5-1326.41  916.30
   8 -12   6-1111.16  855.71
  -8  12  -6  319.61  954.64
   8 -12   7 1291.35  905.45
  -8  12  -7 -162.85  967.02
   8 -12   8 1509.23 1275.39
  -8  12  -8  472.60  972.05
   8 -12   9 1542.59  966.73
  -8  12  -9  800.69  985.13
   8 -12  10-1220.83 1024.90
  -8  12 -10-1239.87  983.59
   8 -12  11 1210.19 1012.00
  -8  12 -11  227.76  970.67
   8 -12  12 -340.91  999.68
  -8  12 -12 2368.64 1102.49
   8 -12  13 1572.84 1434.09
  -8  12 -13 2504.48 1123.76
   8 -12  14 -465.72 1289.49
   8 -12  14 1412.85  619.72
   8 -12  15 6416.69 1924.30
   8 -12  1512787.16 1954.73
  -8 -13  12 -160.51 1093.13
   8 -13 -11 -433.88  874.45
  -8 -13  11 -565.79 1087.72
   8 -13 -10  122.43  888.26
  -8 -13  10  373.43 1113.41
   8 -13  -9 3410.60 1243.31
   8 -13  -8 1443.77  989.74
   8 -13  -7  -63.86  911.89
   8 -13  -6 -285.03  924.51
  -8  13   6-1413.72 1601.05
   8 -13  -5  650.15  932.14
  -8  13   5 -208.06 1656.40
   8 -13  -4  470.75 1028.18
  -8  13   4 1206.70 1391.58
   8 -13  -3  274.21  938.65
  -8  13   3 1328.12 1349.60
   8 -13  -2   11.69  923.25
  -8  13   2 -426.84 1287.96
   8 -13  -1  667.27  999.02
  -8  13   1 1817.87 1925.69
   8 -13   0 4967.72 1347.90
  -8  13   0 4314.93 1716.86
   8 -13   1 1711.71  965.45
  -8  13  -1 -381.53 1059.22
   8 -13   2 3013.14 1114.92
  -8  13  -2  337.68 1190.87
   8 -13   3 3978.81 1146.96
  -8  13  -3 1389.75 1257.55
   8 -13   4  732.17  938.85
  -8  13  -4 -178.70 1097.35
   8 -13   5 -137.07  895.97
  -8  13  -5  899.62 1104.74
   8 -13   6 1849.21  983.54
  -8  13  -6 -305.63  957.98
   8 -13   7 2411.85 1514.56
  -8  13  -7 1532.20 1045.36
   8 -13   8 1997.77  985.41
  -8  13  -8 -782.56  929.39
   8 -13   9 -110.00  889.75
  -8  13  -9 1321.20  985.11
   8 -13  10  433.33 1452.33
  -8  13 -10-1279.10  945.26
   8 -13  11 2940.89 1199.85
  -8  13 -11 2017.93  718.74
   8 -13  12 3095.61 1156.67
  -8  13 -12 1222.84 1117.20
   8 -14  -7 3587.71 1208.14
   8 -14  -6 2252.97 1114.20
  -8  14   6 3104.91 2000.78
   8 -14  -5-1007.54  946.91
  -8  14   5  369.60 1801.35
   8 -14  -4-1294.66 1017.97
  -8  14   4 -808.32 1735.27
   8 -14  -3 1160.15 1070.26
  -8  14   3 1592.01 1506.72
   8 -14  -2  824.16 1014.32
  -8  14   2 -935.31 1916.13
   8 -14  -1  131.98  901.78
  -8  14   1   93.97 1304.79
   8 -14   0  796.34  940.86
  -8  14   0-1398.28 1378.96
   8 -14   1  148.50 1248.00
  -8  14  -1  136.32 1344.86
   8 -14   2 5322.25 1240.35
  -8  14  -2 1134.52 1368.11
   8 -14   3 1570.57  957.54
  -8  14  -3 -713.92 1137.20
   8 -14   4 6441.28 1394.85
  -8  14  -4 2918.02 1450.92
   8 -14   5  594.04 1004.35
  -8  14  -5   99.72 1156.85
   8 -14   6  309.46 1388.73
  -8  14  -6 -102.36 1128.48
   8 -14   7 -874.91 1027.88
  -8  14  -7-1515.03 1021.57
   8 -14   8 1860.43 1138.46
  -8  14  -8 1057.39 1060.19
   9   0 -21 1384.49 1061.44
   9   0 -20 -355.53 1002.04
   9   0 -19 -524.73 1014.04
   9   0 -1834280.37 4971.99
   9   0 -17 -872.89 1050.73
   9   0 -16 5103.34 1354.28
   9   0 -15  -34.86  934.34
   9   0 -14  797.69  908.45
   9   0 -13  969.58  883.15
   9   0 -12 2977.34 1319.82
   9   0 -11  828.12  793.34
   9   0 -10  677.65  863.59
   9   0  -9  459.89  787.08
   9   0  -8 1022.81  780.27
   9   0  -7 -691.75  922.38
   9   0  -6 2645.54 1095.01
   9   0  -5 -287.01  611.16
   9   0  -4  -63.27  926.20
   9   0  -3 -151.19  632.69
   9   0  -222672.95 2792.04
   9   0  -1 -418.47  734.39
   9   0   0 2483.15  678.17
   9   0   1  161.94  630.04
   9   0   6  981.74  639.64
   9   0   7 -104.50  622.87
   9   0   8 9065.52 1377.39
   9   0   9 -664.42  762.29
   9   0  10 1525.44  863.42
   9   0  11  192.30  803.63
   9   0  12  186.91  881.46
   9   0  13  451.43  986.63
   9   0  14 3800.93 1298.26
   9   0  15 -274.30  942.09
   9   0  16  362.15  995.59
   9   0  17-1284.23 1002.15
   9   0  18 1235.49 1113.49
   9   0  19  401.25 1007.81
   9   0  20 3590.72 1607.18
   9   0  21 -566.18 1313.44
   9   1 -21-1142.03 1082.40
   9  -1 -21 -663.19  959.14
   9   1 -20 8527.44 1851.22
   9  -1 -2012613.49 2249.92
   9   1 -19  120.62 1022.01
   9  -1 -19 1002.24  992.31
   9   1 -18 -743.21  977.89
   9  -1 -18  571.30  970.45
   9  -1 -17 -638.16  948.31
   9   1 -17  674.21  938.91
   9  -1 -16 2487.28 1655.62
   9   1 -16 6652.98 1439.51
   9  -1 -15 1599.28 1035.21
   9   1 -15 1612.69  995.98
   9  -1 -14 3504.39 1142.71
   9   1 -14 5813.81 1335.09
   9  -1 -13  704.15  875.53
   9   1 -13 1747.29  963.97
   9  -1 -12 1174.74  815.75
   9   1 -12   39.50  802.49
   9  -1 -11  557.69  785.29
   9   1 -11  -80.32  810.15
   9  -1 -1020883.53 2712.97
   9   1 -1019245.04 2468.61
   9   1  -9 1984.27 1024.28
   9  -1  -9 -591.12  712.80
   9   1  -8 1705.14 1092.66
   9  -1  -8  305.02  797.66
   9   1  -7 1077.94  810.04
   9  -1  -7 1100.39  750.34
   9   1  -6 4119.07 1002.72
   9  -1  -6 3662.39  976.40
   9   1  -5  903.16  680.30
   9  -1  -5 2409.33 1127.49
   9   1  -4 1358.75  648.21
   9  -1  -4 -244.04  696.91
   9  -1  -3 5681.21 1282.01
   9   1  -3 3712.79  749.80
   9  -1  -2  554.34  695.48
   9   1  -2  -19.06  595.37
   9  -1  -1 5606.90  979.53
   9   1  -1 4090.78  773.29
   9   1   0  720.47  637.88
   9  -1   0  944.06  641.63
   9  -1   1 1971.16  617.78
   9  -1   2 6952.65 1021.85
   9  -1   6 1325.08  689.18
   9  -1   7 7336.83 1171.08
   9   1   7 5322.76 1265.53
   9  -1   8 2129.64  777.90
   9   1   8 2041.83  951.72
   9  -1   9 -633.79  699.21
   9   1   9 -535.33  936.84
   9  -1  10 4145.79  991.89
   9   1  10  933.09 1192.04
   9  -1  11 1511.50  842.10
   9   1  11 -961.06 1023.97
   9  -1  12 2927.40 1029.38
   9   1  12 2458.45 1332.70
   9  -1  13 -254.16  898.58
   9   1  13  689.75 1141.48
   9  -1  14  515.93  964.14
   9   1  14 1384.48 1245.84
   9  -1  15 -602.51  995.82
   9   1  15 1292.43 1214.53
   9  -1  16 6980.47 1539.14
   9   1  16 7605.17 1775.37
   9  -1  17  786.16 1101.38
   9   1  17  292.19 1277.29
   9  -1  18 2091.08 1209.63
   9   1  18 1154.32 1369.23
   9  -1  19 -432.86 1100.16
   9   1  19  945.48 1223.42
   9  -1  20 2251.82 1292.75
   9   1  20 3058.52 1513.62
   9  -1  21  -13.08 1114.40
   9   1  21   54.37 1205.64
   9  -2 -20  284.15  952.83
   9   2 -20   80.08  918.94
   9  -2 -19 -264.66 1001.11
   9   2 -19 1697.13 1036.56
   9  -2 -18 5942.36 1538.04
   9   2 -1814929.81 2118.41
   9  -2 -17 1225.62 1417.06
   9   2 -17  942.05 1012.20
   9  -2 -16 1482.25 1000.63
   9   2 -16-1182.30 1201.85
   9  -2 -15 2023.54 1208.59
   9   2 -15 -623.44  924.83
   9   2 -14  -86.59  905.93
   9  -2 -14  742.46  916.78
   9   2 -13  389.58  829.60
   9  -2 -13  364.03  879.98
   9   2 -12 6226.80 1228.42
   9  -2 -12 3132.66 1173.45
   9   2 -11 8499.03 1506.29
   9  -2 -11 6351.14 1805.55
   9   2 -10 2212.07  896.84
   9  -2 -10 1867.74 1179.65
   9   2  -9 1825.69  894.17
   9  -2  -9 2804.94  872.64
   9  -2  -8 2104.92 1280.05
   9   2  -8 2784.92  836.01
   9   2  -7 4662.07  980.85
   9  -2  -7 5366.76 1584.86
   9   2  -6 -153.47  925.75
   9  -2  -6 1320.50  772.98
   9  -2  -5 4576.24 1065.02
   9   2  -5 3073.74 1187.72
   9  -2  -4  179.14  964.67
   9   2  -4 -358.84  548.78
   9  -2  -3 4110.55  864.46
   9   2  -3  110.21  780.16
   9  -2  -2 5698.54 1049.58
   9   2  -2 4046.02  885.27
   9  -2  -1 2816.19  986.28
   9  -2   0 2968.44  723.19
   9  -2   1  522.65  559.08
   9  -2   2 -141.37  729.11
   9  -2   3 2312.65  861.82
   9  -2   5 3158.11  749.07
   9  -2   6 1317.14  643.02
   9  -2   7 4478.81  908.51
   9  -2   8  173.64  946.18
   9   2   8 1147.47 1093.47
   9  -2   9 6749.81 1184.15
   9   2   9 3492.05 1173.79
   9  -2  10 4428.05 1040.17
   9   2  10 3579.39 1223.85
   9  -2  11 1057.75 1173.36
   9   2  11  524.13 1042.14
   9  -2  12  494.28  877.98
   9   2  12 -177.49 1016.73
   9  -2  13 5559.77 1298.10
   9   2  13 3477.51 1448.28
   9  -2  14 4580.91 1268.42
   9   2  14 6079.88 1559.01
   9  -2  15  645.73  930.11
   9   2  15 -492.92 1390.24
   9  -2  16  243.84  964.09
   9   2  16 -586.98 1355.76
   9  -2  17  415.47 1006.33
   9   2  17 -275.97 1396.84
   9  -2  18 2479.67 1245.99
   9   2  18 2783.17 1620.05
   9  -2  19  232.30 1076.40
   9   2  19 1174.48 1493.88
   9  -2  20  676.33 1153.06
   9   2  20 4548.81 1657.73
   9  -3 -20 -194.44 1025.86
   9   3 -20 1940.59  966.23
   9  -3 -19 1466.89 1100.75
   9   3 -19 2348.09 1154.92
   9  -3 -18 1200.00 1439.69
   9   3 -18  233.40 1269.41
   9  -3 -17  761.27 1118.60
   9   3 -17 3447.08 1178.28
   9   3 -16 1760.52  945.84
   9  -3 -16-1134.47 1331.49
   9   3 -1518926.13 2744.10
   9  -3 -1516683.33 2604.20
   9   3 -14 1187.33  932.52
   9  -3 -14  683.98  951.58
   9   3 -13 -324.33  825.01
   9  -3 -13 -855.62 1185.43
   9  -3 -12 1115.61  780.31
   9   3 -12  549.01  757.34
   9   3 -1111649.13 1752.14
   9  -3 -1111943.50 1976.64
   9   3 -10 -568.48  756.96
   9  -3 -10 -723.15  844.43
   9   3  -9 6395.20 1475.56
   9  -3  -9 1408.63 1247.93
   9  -3  -8 1707.38  914.82
   9   3  -8 1004.95 1071.05
   9  -3  -7 1409.36  857.52
   9   3  -7  959.77 1021.75
   9  -3  -6-1260.46  980.15
   9   3  -6 -133.06  664.37
   9   3  -5 5040.89  930.28
   9  -3  -5 5257.80 1191.96
   9   3  -4  496.85  778.32
   9  -3  -4 1731.36  796.09
   9  -3  -3 6940.00 1549.41
   9   3  -3 5471.60  915.36
   9  -3  -2  198.69  653.34
   9  -3  -1 2872.76  872.60
   9  -3   0  350.00  611.20
   9  -3   1 4232.94 1034.70
   9  -3   2 1881.57  911.53
   9  -3   3 2355.11  709.85
   9  -3   4 -285.60  563.04
   9  -3   5 7567.10 1085.08
   9  -3   6   98.55  609.71
   9  -3   717115.43 1954.59
   9  -3   8 -262.14  722.65
   9   3   8 -277.25 1004.74
   9  -3   9 1573.63  820.58
   9   3   9 -107.38 1116.68
   9  -3  10 -545.92  815.64
   9   3  10 -200.39 1107.02
   9  -3  11 5893.65 1333.03
   9   3  11 5299.82 2246.94
   9  -3  12  517.05  975.28
   9   3  12 1578.70 1317.76
   9  -3  13  148.27  918.46
   9   3  13 1720.57 1362.97
   9  -3  14  747.90 1021.67
   9   3  14  412.24 1325.67
   9  -3  15 4639.97 1350.04
   9   3  15 6869.97 1823.56
   9  -3  16-1074.94  990.10
   9   3  16  502.87 1355.17
   9  -3  17 4484.27  891.28
   9   3  17 6225.76 1852.74
   9  -3  18  424.00 1078.14
   9   3  18  649.78 1454.88
   9  -3  19   65.34 1076.54
   9   3  19  735.12 1391.27
   9  -3  20 2080.82 1225.93
   9   3  20  856.90 1514.85
  -9  -4  20    6.70  845.16
   9  -4 -19 4144.55 1495.76
  -9  -4  19  597.65  961.58
   9  -4 -18  669.03 1013.08
  -9  -4  18 -691.79  836.59
   9   4 -17 -885.82  515.85
   9  -4 -1719577.57 2234.12
   9   4 -16 -759.42  548.99
   9  -4 -16 -141.36  939.92
   9   4 -15 1926.98 1008.53
   9  -4 -15 1484.54  958.79
   9   4 -14 3246.00 1081.97
   9  -4 -14 4135.99 1273.45
   9   4 -13 9406.88 1356.44
   9  -4 -1317296.99 2414.62
   9   4 -12 -586.09  708.91
   9  -4 -12 -298.81  859.81
   9   4 -11 1567.88  825.46
   9  -4 -11 3433.37 1037.46
   9  -4 -10 2804.88 1251.84
   9   4 -10 1020.66 1077.01
   9  -4  -9 1977.01 1253.02
   9   4  -9 1826.66  796.17
   9   4  -8    9.72  731.59
   9  -4  -8 1248.85  826.52
   9  -4  -710236.58 1698.90
   9   4  -711082.51 1658.67
   9  -4  -6   44.66  735.63
   9   4  -6 1429.78  696.53
   9  -4  -5  -33.29  689.66
   9   4  -5  246.91  769.96
   9  -4  -4  644.66  697.21
   9   4  -4  121.79  516.51
   9  -4  -3 4523.39  985.96
   9  -4  -2 -523.59  679.74
   9  -4  -1 5989.81 1354.81
   9  -4   0 -796.65  641.50
   9  -4   1  883.05  682.23
   9  -4   2 -399.72  628.52
   9  -4   3 1175.32  702.75
   9  -4   4  297.53  552.17
   9  -4   4 1524.00  601.92
   9  -4   5 1076.64  642.40
   9  -4   5  904.48  607.90
   9  -4   6  478.00  662.94
   9  -4   7  389.74  650.23
   9  -4   8 1975.53  786.43
   9  -4   9 7625.89 1228.03
   9   4   9 3163.28 1818.96
   9  -4  10  -42.55  747.88
   9   4  10  302.31 1248.54
   9  -4  11   57.42  826.40
   9   4  11  332.51 1400.25
   9  -4  12 1090.53  932.87
   9   4  12 2043.43 1570.92
   9  -4  13 2579.91 1131.28
   9   4  13 2132.28 1720.70
   9  -4  14  753.70  943.98
   9   4  14-1312.58 1480.07
   9  -4  15 1747.92 1106.20
   9   4  15 2054.01 1743.35
   9  -4  16  150.24  989.52
   9   4  16-1118.99 1586.77
   9  -4  17  665.50 1055.36
   9   4  17  271.67 1667.04
   9  -4  18   88.55  629.44
   9   4  18 1019.32 1671.82
   9  -4  19 5192.04 1408.78
   9   4  19 4385.53 2153.43
  -9  -5  19   -2.32  870.35
   9  -5 -18 1184.03 1497.23
  -9  -5  18  226.69  884.36
   9  -5 -17 -216.15  985.44
  -9  -5  17 -554.11 1182.42
   9  -5 -16 2112.05 1429.08
  -9  -5  16 1669.96  960.96
   9  -5 -15 5717.14 1394.41
  -9  -5  15 3893.49 1100.03
   9  -5 -14 -123.56  891.70
  -9  -5  14  476.23 1109.10
   9  -5 -13 1922.44 1292.75
  -9  -5  13  435.26  804.05
   9  -5 -12 6889.30 1095.98
   9   5 -12 -531.90  392.31
   9  -5 -11 1894.92  868.13
   9   5 -11 2066.43  826.42
   9  -5 -10 1587.51  835.84
   9   5 -10  709.84  707.76
   9  -5  -9  210.00  753.87
   9   5  -9 2126.98  760.79
   9   5  -8  791.16  653.61
   9  -5  -8  -48.62  728.80
   9  -5  -7 2971.85  944.41
   9   5  -7 4897.47 1005.56
   9  -5  -6  -94.72  990.53
   9   5  -6  191.68  604.18
   9   5  -5 3210.67  881.44
   9  -5  -5 6702.56 1115.69
   9  -5  -410031.56 1541.24
   9  -5  -3 3926.46 1225.98
   9  -5  -2  205.47  677.06
   9  -5  -1  831.69  710.67
   9  -5   0 2258.55 1054.65
   9  -5   1 2591.48  803.27
   9  -5   2 1031.77  685.75
   9  -5   3 -263.32  616.57
   9  -5   4  503.96  534.21
   9  -5   4  305.44  582.69
   9  -5   5 5248.63 1018.61
   9  -5   5 5335.00  938.66
   9  -5   6 4260.71  951.30
   9  -5   6 4474.44 1050.71
   9  -5   7 -218.06  657.56
   9  -5   8  731.08  719.84
   9  -5   9    9.03  731.29
   9  -5  10  160.17  818.99
   9   5  10  761.05 3444.18
   9  -5  11 1246.86  906.03
   9   5  11 -741.78 2496.89
   9  -5  12 1079.67  913.37
   9   5  12 -400.46 2837.32
   9  -5  13 1555.47  973.54
   9   5  13 2932.02 4068.28
   9  -5  14  450.42  907.12
   9   5  14-1693.56 2688.58
   9  -5  15  -43.97  944.57
   9   5  15 2114.58 2964.66
   9  -5  16 2777.48 1138.54
   9   5  16  908.37 3352.60
   9  -5  17 1955.80 1166.87
   9   5  17 1411.45 3195.34
   9  -5  18  548.45 1081.05
   9   5  18 -574.78 3079.73
   9  -5  19  636.00 1108.93
   9   5  19 2301.42 3318.41
   9  -6 -18  463.30 1002.04
  -9  -6  18 1590.06  968.55
   9  -6 -17  956.75 1311.18
  -9  -6  17  703.20 1235.82
   9  -6 -16  427.19  898.17
  -9  -6  16  219.45  861.57
   9  -6 -15 -558.28  902.39
  -9  -6  15 -507.03  861.50
   9  -6 -14 2207.97  904.15
  -9  -6  14  -53.62 1200.57
   9  -6 -13  681.48  824.90
  -9  -6  13  292.12  861.82
   9  -6 -12  403.10  821.98
  -9  -6  12 3084.04 1219.16
   9  -6 -11 2547.83  929.31
  -9  -6  11 2000.16  904.32
   9  -6 -10  -84.59  696.42
  -9  -6  10  126.97  757.77
   9  -6  -9  112.63  698.01
   9  -6  -8 3741.67  995.97
   9   6  -8 5911.19 1056.97
   9  -6  -7 3038.16  901.53
   9   6  -7 4687.58 1136.60
   9  -6  -6 3590.03  914.59
   9  -6  -5 -459.82  689.33
   9  -6  -4  997.36  761.38
   9  -6  -3  834.89  740.90
   9  -6  -212457.27 2102.77
   9  -6  -1  549.23  801.26
   9  -6   0  757.46  718.96
   9  -6   1 1549.16 1066.30
   9  -6   2 5200.32 1021.59
   9  -6   3 2359.97  804.70
   9  -6   3 2430.33  685.84
   9  -6   4  662.43  694.81
   9  -6   4 1610.55  681.08
   9  -6   5   68.23  690.67
   9  -6   5  670.47  712.54
   9  -6   6  789.86  695.66
   9  -6   6  402.83  679.98
   9  -6   7 -386.21  872.07
   9  -6   7  657.70  708.91
   9  -6   8 3763.86 1026.94
   9  -6   9  835.33  874.56
   9  -6  10 -267.01  844.71
   9  -6  11  266.86  859.83
   9   6  11 1688.41 2706.22
   9  -6  12 1627.26  964.65
   9   6  12 4570.55 2996.18
   9  -6  13  349.67  894.77
   9   6  13-1474.95 2812.00
   9  -6  14   98.01  941.81
   9   6  14 5306.45 3060.10
   9  -6  15  539.55  563.48
   9   6  15-3433.45 2838.01
   9  -6  16  122.43  963.00
   9   6  16 2584.44 3024.97
   9  -6  17 -491.63  942.57
   9   6  17  643.59 3088.72
   9  -6  18 2185.59 1114.39
   9   6  18 3605.65 3393.17
  -9  -7  17  405.46 1010.39
   9  -7 -16  560.06 1172.07
  -9  -7  16  959.81  989.23
   9  -7 -15  397.94  820.86
  -9  -7  15  462.75  927.29
   9  -7 -14 1200.91  842.38
  -9  -7  14 1705.91 1344.76
   9  -7 -13 -472.08  739.60
  -9  -7  13  393.53  893.91
   9  -7 -12  900.88  788.22
  -9  -7  12  522.37 1125.47
   9  -7 -11 -252.13  697.40
  -9  -7  11 -303.18  781.99
   9  -7 -10 2170.10  855.97
  -9  -7  10 3397.01 1348.74
   9  -7  -9  521.16  717.08
  -9  -7   9 -320.76  776.75
   9  -7  -8 1967.17  822.76
  -9  -7   8 1093.40  830.52
   9  -7  -7 -451.07  700.87
  -9  -7   7   13.11  721.63
   9  -7  -6 1718.79 1093.47
   9  -7  -5  698.49  726.23
   9  -7  -4 3766.27  925.28
   9  -7  -3 -257.35  980.15
   9  -7  -2  993.01  826.84
   9  -7  -1  136.23 1004.66
   9  -7   0 2566.53 1005.19
   9  -7   1  298.48  932.95
   9  -7   2 1667.31  773.09
   9  -7   3    0.46  713.22
   9  -7   3 1651.30  656.24
   9  -7   4 -242.16  777.20
   9  -7   4  256.18  636.96
   9  -7   5 1042.53  777.44
   9  -7   5  888.20  725.25
   9  -7   6 -480.82  731.77
   9  -7   6 -356.32 1005.81
   9  -7   7 -271.29  659.30
   9  -7   7 1375.20  748.31
   9  -7   8 2498.74  987.76
   9  -7   9 1120.19  955.17
   9  -7  10 2301.98  957.62
   9  -7  11  934.99  896.38
   9  -7  12  793.70  940.93
   9  -7  13 1903.27 1030.14
   9  -7  14  574.48  936.97
   9  -7  15 1792.88 1001.86
   9  -7  16 3307.90 1191.15
   9  -7  17 1377.04 1044.72
  -9  -8  16 -907.89 1013.53
   9  -8 -15 -243.11  704.47
  -9  -8  15  131.38  970.28
   9  -8 -14  338.67 1022.34
  -9  -8  14 1495.79 1003.83
   9  -8 -13  504.82  708.72
  -9  -8  13 -318.42  913.41
   9  -8 -12 3673.64  960.91
  -9  -8  12 6750.87 1631.85
   9  -8 -11  -31.61  744.24
  -9  -8  11  941.30  891.98
   9  -8 -10  191.62  725.04
  -9  -8  10 -126.19 1175.58
   9  -8  -9  670.47  759.71
  -9  -8   9  650.97  842.64
   9  -8  -8 1581.16  841.82
  -9  -8   8 1715.77  867.53
   9  -8  -7  395.02  764.50
  -9  -8   7  390.85  714.14
   9  -8  -6 3098.89  944.76
   9  -8  -5-1091.41  737.94
   9  -8  -4 1006.99 1140.53
   9  -8  -3  -55.57  780.04
   9  -8  -2 4911.60 1069.32
   9  -8  -1 2694.62  975.46
   9  -8   0  397.33  721.12
   9  -8   1  -70.85  709.52
   9  -8   2 5718.38 1449.04
   9  -8   3  956.36  867.33
   9  -8   3  553.61  611.11
   9  -8   4 2124.49  977.09
   9  -8   4 2645.68  797.71
   9  -8   5 2112.71  909.16
   9  -8   5 2563.35  747.40
   9  -8   6  791.68  756.75
   9  -8   6 1382.70  878.92
   9  -8   7  682.47 1007.54
   9  -8   7  258.48  824.58
   9  -8   810786.20 1780.31
   9  -8   8 7625.14 1412.85
   9  -8   9  451.63  901.11
   9  -8  10-1124.32  912.86
   9  -8  11  164.71  929.10
   9  -8  12 3677.49 1196.32
   9  -8  13  488.39  929.02
   9  -8  14 3006.74 1164.78
   9  -8  15  752.59 1006.33
  -9  -9  14 3319.69 1201.20
   9  -9 -13  929.54  719.38
  -9  -9  13-1291.39  909.60
   9  -9 -12  758.49 1051.65
  -9  -9  12-1377.53  895.25
   9  -9 -11 2115.05  933.00
  -9  -9  11 4150.86 1157.37
   9  -9 -10 1312.37  837.90
  -9  -9  10  872.97 1273.58
   9  -9  -9  652.76  880.55
  -9  -9   9 2557.28  983.75
   9  -9  -8 1103.82  854.26
   9  -9  -7 2083.32  925.44
   9  -9  -6 2588.63 1012.50
   9  -9  -5 1256.02 1241.62
   9  -9  -4 1521.70  929.98
   9  -9  -3  198.14  841.61
   9  -9  -2  461.42 1131.97
   9  -9  -1 2134.08  916.41
   9  -9   0 1923.53  937.46
   9  -9   1  367.11  767.98
  -9   9  -1   99.57  842.33
   9  -9   2 4980.16 1314.73
   9  -9   2  679.25  426.36
   9  -9   3 1078.89  792.65
   9  -9   3 -230.18  402.06
   9  -9   4 -333.67  775.20
   9  -9   4  -25.74  718.17
   9  -9   5 1118.07 1065.99
   9  -9   5 -753.98  695.71
   9  -9   6 3931.31 1274.59
   9  -9   6 2335.70  912.36
   9  -9   7 2109.10  889.10
   9  -9   7 1546.72  896.97
   9  -9   8 -739.06  705.91
   9  -9   8  237.82  818.04
   9  -9   9  200.33  745.63
   9  -9   9  595.48  964.42
   9  -9  10 2493.37 1106.63
   9  -9  11 5100.15 1319.54
   9  -9  12 2744.91 1163.84
   9  -9  13 1141.02 1054.00
   9  -9  14  631.06 1007.61
  -9 -10  12 1447.38 1076.30
   9 -10 -11 2771.85 1034.32
  -9 -10  11 1324.96 1419.70
   9 -10 -10  210.29  888.31
  -9 -10  10 1139.31  970.68
   9 -10  -9  375.38  893.02
   9 -10  -8 -510.35  894.79
   9 -10  -7 3299.27 1176.79
   9 -10  -6 2237.93 1100.98
   9 -10  -5-1253.03  921.22
   9 -10  -4 1814.84  959.60
   9 -10  -3 4721.94 1220.56
   9 -10  -2 2439.67 1053.00
   9 -10  -110217.03 1834.54
   9 -10   0  236.01 1257.01
  -9  10   0  435.32  842.65
   9 -10   1 1873.19  997.99
  -9  10  -1 1284.84  935.69
   9 -10   2-1511.83 1167.14
  -9  10  -2 1230.04 1234.08
   9 -10   3 3137.80 1057.38
  -9  10  -3 2735.22 1042.71
   9 -10   4  161.35  828.95
  -9  10  -4  426.49  907.27
   9 -10   5 4958.08 1045.65
   9 -10   5 1047.36  557.21
   9 -10   6  805.61  800.58
   9 -10   6-1066.19  763.60
   9 -10   7 1656.44  929.03
   9 -10   7 1855.80  962.15
   9 -10   8  935.08  846.12
   9 -10   8 1493.79  945.29
   9 -10   9 3886.68 1426.65
   9 -10   9 2909.54 1115.07
   9 -10  10  238.97 1147.77
   9 -10  10  401.63  870.81
   9 -10  11  395.14  864.52
   9 -11  -8 1472.91 1110.65
   9 -11  -7-1423.64 1055.39
   9 -11  -6  747.14  994.27
   9 -11  -5 6178.57 1516.23
   9 -11  -4 -162.83  954.55
   9 -11  -311073.99 2410.06
   9 -11  -2 1310.42 1029.59
   9 -11  -1 3039.10 1212.71
   9 -11   0 -203.53 1318.95
  -9  11   0  620.98  905.20
   9 -11   110350.51 1625.29
  -9  11  -1 5711.89 1336.73
   9 -11   2 -534.71 1244.82
  -9  11  -2 -546.40 1280.97
   9 -11   3 1107.64  946.05
  -9  11  -3  881.17 1009.93
   9 -11   4 -601.93 1242.84
  -9  11  -4 -479.22  970.88
   9 -11   5 2973.26 1060.31
  -9  11  -5  890.07 1015.35
   9 -11   6  303.90  882.09
  -9  11  -6   68.18  937.34
   9 -11   7 -129.90 1151.79
   9 -11   7   93.07  505.66
   9 -11   8  914.54  936.80
   9 -11   8  -62.23  520.46
   9 -12  -3 4037.18 1401.04
   9 -12  -2 2865.45 1261.13
   9 -12  -1 3508.49 1285.37
   9 -12   0 1272.53 1457.69
  -9  12   0  458.25  935.02
   9 -12   1  670.02 1046.48
  -9  12  -1  799.11  944.87
   9 -12   2 2057.53 1091.44
  -9  12  -2  934.74 1006.77
   9 -12   3 1749.61 1060.18
  -9  12  -3 1425.96 1020.99
  10   0 -14 1327.82 1361.07
  10   0 -13 1288.84  932.02
  10   0 -12 2261.99  998.40
  10   0 -11 -209.22  800.01
  10   0 -10 -162.19 1096.09
  10   0  -9   68.70 1044.59
  10   0  -8  877.29 1064.30
  10   0  -7  227.53  782.01
  10   0  -6 4375.27 1053.81
  10   0  -5  393.27  747.19
  10   0  -4 -432.67 1022.94
  10   0  13-1206.50 1249.19
  10   1 -14 1062.62  929.04
  10  -1 -14  526.96  930.58
  10   1 -13 1387.72  946.32
  10  -1 -13   18.75  844.82
  10   1 -12  321.08  870.45
  10  -1 -12  707.38  856.02
  10   1 -11  310.81 1153.84
  10  -1 -11 -725.10  823.56
  10   1 -10  629.80  824.02
  10  -1 -10  296.52  827.78
  10   1  -9 -565.66  774.81
  10  -1  -9  144.18  832.08
  10   1  -8  148.56  748.89
  10  -1  -8  170.90  800.70
  10   1  -7 1074.70 1007.07
  10  -1  -7 -689.10  756.01
  10  -1  -6 1946.30  992.47
  10   1  -6 5017.18 1204.11
  10  -1  -5  757.08  989.93
  10   1  -5 1998.21  813.11
  10  -1  -4   23.32  664.99
  10  -1  -3 1209.14  700.46
  10  -1  13  900.22 1048.25
  10  -2 -13  798.63  843.54
  10   2 -13  -88.86  897.24
  10   2 -12 1340.97 1264.27
  10  -2 -12 1011.71 1381.14
  10   2 -11  136.06  827.95
  10  -2 -11  -64.56  868.40
  10   2 -10  298.67  809.05
  10  -2 -10  -31.23  867.52
  10  -2  -9  980.82  899.89
  10   2  -9  550.66  835.46
  10  -2  -8  582.56  863.94
  10   2  -8  750.25  771.68
  10  -2  -7 1637.93  795.27
  10   2  -7  336.05  772.24
  10  -2  -6  402.97 1054.27
  10   2  -6  916.29  959.43
  10  -2  -5  891.84  758.05
  10  -2  -4  469.41  732.61
  10  -2  -3  424.87  945.42
  10  -2  -2 1248.00  731.84
  10  -2  12  987.72  979.73
  10  -2  13 2546.00 1223.64
  10   3 -13  -68.70 1296.57
  10  -3 -13  710.73  947.58
  10   3 -12  103.66  861.88
  10  -3 -12-1047.47  867.55
  10  -3 -11 2959.55 1451.98
  10   3 -11 1764.66  987.78
  10  -3 -10  848.70 1240.67
  10   3 -10 2402.60  914.27
  10   3  -9 1950.69  916.22
  10  -3  -9 1203.99 1148.25
  10   3  -8  810.23  755.75
  10  -3  -8 -803.15 1045.62
  10  -3  -7  234.50 1069.57
  10  -3  -6  562.47  741.03
  10  -3  -5 6422.45 1065.70
  10  -3  -4 -426.15  945.94
  10  -3  -3  549.99  660.31
  10  -3  -2  322.75  687.30
  10  -3  -1 1764.35  794.97
  10  -3  11 2000.22 1077.05
  10  -3  12-1156.61  969.42
  10  -4 -12  285.91  807.63
  10   4 -12  -34.82  867.84
  10  -4 -11  523.94  815.00
  10   4 -11  545.18  854.63
  10  -4 -10  700.48  787.04
  10   4 -10 -111.40  805.72
  10  -4  -9 1995.65  878.14
  10   4  -9 2476.58 1249.79
  10  -4  -8  105.48  735.11
  10  -4  -7 6217.84 1121.87
  10  -4  -6  638.07  725.91
  10  -4  -5  134.60  676.22
  10  -4  -4 -676.79  911.17
  10  -4  -3 3774.90  875.28
  10  -4  -2  813.78  912.73
  10  -4  -1  135.93  657.23
  10  -4   0  541.89  641.44
  10  -4  11  698.50 1237.69
  10  -4  12  347.76  955.13
  10   5 -11 2272.21  982.46
  10  -5 -11 2221.60  925.39
  10   5 -10 -182.81  808.23
  10  -5 -10 -551.08  735.41
  10  -5  -9 2212.72  890.25
  10  -5  -8  383.21  732.04
  10  -5  -7    1.42  701.42
  10  -5  -6  509.77  735.08
  10  -5  -5 1416.73 1020.22
  10  -5  -4 2325.05  803.37
  10  -5  -3  911.29  702.87
  10  -5  -2  641.97  694.66
  10  -5  -1 1613.96  783.26
  10  -5   0  961.41  704.92
  10  -5   1  279.97  889.34
  10  -5  10 1532.98  969.46
  10  -6  -9  256.75  720.54
  10  -6  -8 1444.15  789.51
  10  -6  -7  329.58  932.53
  10  -6  -6  750.14  710.50
  10  -6  -5   97.12  678.19
  10  -6  -4  680.78  700.53
  10  -6  -3 -394.90  879.30
  10  -6  -2  821.41  744.30
  10  -6  -1  581.53  695.20
  10  -6   0 -605.78  710.36
  10  -6   1  812.39  940.84
  10  -6   2 1542.93  760.39
  10  -7  -7  628.83  685.44
  10  -7  -6 3177.09  856.36
  10  -7  -5   45.93  625.33
  10  -7  -4 2179.42  817.70
  10  -7  -3  580.57  990.80
  10  -7  -2  169.17  694.92
  10  -7  -1 1269.01 1042.85
  10  -7   0 1697.87  790.06
  10  -7   1  831.45  979.61
  10  -7   2  -10.35  656.66
  10  -7   3 -441.76  695.17
  10  -8  -1   -8.68  930.08
  10  -8   0 -195.50  683.45
  10  -8   1 -393.83  982.77
   0   0   0    0.00    0.00
;
_shelx_hkl_checksum              39088
loop_
_space_group_symop_operation_xyz
'x, y, z'
'-x, y+1/2, -z+1/2'
'-x, -y, -z'
'x, -y-1/2, z-1/2'
loop_
_atom_site_label
_atom_site_type_symbol
_atom_site_fract_x
_atom_site_fract_y
_atom_site_fract_z
_atom_site_U_iso_or_equiv
_atom_site_adp_type
_atom_site_occupancy
_atom_site_site_symmetry_order
_atom_site_calc_flag
_atom_site_refinement_flags_posn
_atom_site_refinement_flags_adp
_atom_site_refinement_flags_occupancy
_atom_site_disorder_assembly
_atom_site_disorder_group
C3 C 0.4192(9) 0.7105(5) 0.2640(3) 0.0352(19) Uani 1 1 d . . . . .
C5 C 0.4516(8) 0.5800(4) 0.2803(2) 0.0301(18) Uani 1 1 d . . . . .
F10 F 0.3979(5) 0.4441(2) 0.43935(14) 0.0394(11) Uani 1 1 d . . . . .
F12 F 1.1785(5) 0.7085(3) 0.53272(15) 0.0494(13) Uani 1 1 d . . . . .
Pd1 Pd 0.57635(6) 0.68172(3) 0.34623(2) 0.0320(2) Uani 1 1 d . . . . .
C16 C 0.8005(8) 0.8527(5) 0.4076(2) 0.0359(19) Uani 1 1 d . . . . .
H16 H 0.8679 0.8712 0.4278 0.043 Uiso 1 1 calc R U . . .
F1 F 0.1104(5) 0.6298(3) 0.22610(14) 0.0432(12) Uani 1 1 d . . . . .
C15 C 0.7431(8) 0.7811(4) 0.4058(2) 0.0337(19) Uani 1 1 d . . . . .
C23 C 0.1754(9) 0.5964(4) 0.1593(3) 0.039(2) Uani 1 1 d . . . . .
C27 C 0.5818(8) 0.4277(4) 0.3874(2) 0.0322(18) Uani 1 1 d . . . . .
C31 C 0.4886(9) 0.3280(4) 0.4291(3) 0.036(2) Uani 1 1 d . . . . .
C34 C 0.9746(9) 0.7186(5) 0.4864(2) 0.0362(19) Uani 1 1 d . . . . .
F4 F 0.5362(6) 0.5644(3) 0.11348(15) 0.0529(13) Uani 1 1 d . . . . .
F6 F 0.7660(5) 0.3976(2) 0.33777(13) 0.0381(11) Uani 1 1 d . . . . .
C21 C 0.3673(8) 0.6162(4) 0.2114(3) 0.0347(19) Uani 1 1 d . . . . .
C28 C 0.6715(8) 0.3763(4) 0.3679(2) 0.0322(18) Uani 1 1 d . . . . .
F7 F 0.7638(5) 0.2589(3) 0.35875(14) 0.0442(12) Uani 1 1 d . . . . .
C14 C 0.7644(8) 0.7264(4) 0.4347(2) 0.0304(18) Uani 1 1 d . . . . .
F5 F 0.6185(5) 0.5984(3) 0.19045(14) 0.0461(12) Uani 1 1 d . . . . .
C10 C 0.6338(8) 0.5543(5) 0.4035(2) 0.0343(19) Uani 1 1 d . . . . .
F8 F 0.5781(6) 0.2106(3) 0.41945(14) 0.0470(12) Uani 1 1 d . . . . .
F9 F 0.3986(5) 0.3048(3) 0.45962(14) 0.0456(12) Uani 1 1 d . . . . .
C9 C 0.5785(8) 0.5039(4) 0.3750(2) 0.0281(17) Uani 1 1 d . . . . .
F3 F 0.2414(6) 0.5634(3) 0.09137(14) 0.0497(13) Uani 1 1 d . . . . .
C33 C 0.8396(8) 0.7484(4) 0.4738(2) 0.0343(19) Uani 1 1 d . . . . .
F2 F 0.0280(5) 0.5956(3) 0.14895(15) 0.0511(13) Uani 1 1 d . . . . .
F11 F 1.0358(5) 0.6662(3) 0.46415(14) 0.0436(12) Uani 1 1 d . . . . .
C32 C 0.4900(8) 0.3996(4) 0.4188(2) 0.0349(19) Uani 1 1 d . . . . .
F13 F 1.0522(6) 0.8090(3) 0.58215(15) 0.0552(14) Uani 1 1 d . . . . .
C4 C 0.4138(8) 0.6359(5) 0.2539(2) 0.0327(19) Uani 1 1 d . . . . .
C13 C 0.7190(8) 0.6559(4) 0.4306(2) 0.0298(17) Uani 1 1 d . . . . .
C17 C 0.7412(9) 0.8897(5) 0.3751(3) 0.039(2) Uani 1 1 d . . . . .
H17 H 0.7601 0.9386 0.3683 0.047 Uiso 1 1 calc R U . . .
F14 F 0.7856(6) 0.8705(3) 0.56092(16) 0.0570(14) Uani 1 1 d . . . . .
F15 F 0.6451(5) 0.8306(3) 0.49101(14) 0.0435(12) Uani 1 1 d . . . . .
N1 N 0.6559(6) 0.6269(3) 0.39526(19) 0.0290(15) Uani 1 1 d . . . . .
N2 N 0.5059(7) 0.5878(4) 0.31999(19) 0.0328(16) Uani 1 1 d . . . . .
N3 N 0.4883(6) 0.7374(4) 0.2987(2) 0.0317(15) Uani 1 1 d . . . . .
N4 N 0.6553(7) 0.7745(4) 0.3710(2) 0.0398(17) Uani 1 1 d . . . . .
O1 O 0.5281(6) 0.9304(3) 0.31461(17) 0.0427(14) Uani 1 1 d . . . . .
C22 C 0.2178(9) 0.6130(5) 0.1986(3) 0.037(2) Uani 1 1 d . . . . .
C44 C 0.8339(9) 0.5807(5) 0.2798(3) 0.038(2) Uani 1 1 d . . . . .
H44 H 0.7712 0.5456 0.2671 0.046 Uiso 1 1 calc R U . . .
C55 C 1.0073(8) 0.6820(5) 0.3187(2) 0.0330(18) Uani 1 1 d . . . . .
C57 C 1.0917(9) 0.7349(4) 0.3399(3) 0.036(2) Uani 1 1 d . . . . .
N5 N 1.1233(7) 0.5905(4) 0.3601(2) 0.0373(16) Uani 1 1 d . . . . .
N6 N 0.8981(7) 0.7754(4) 0.2750(2) 0.0376(17) Uani 1 1 d . . . . .
N7 N 1.2507(8) 0.8405(4) 0.3827(2) 0.0404(17) Uani 1 1 d . . . . .
C2 C 0.3584(8) 0.7662(4) 0.2399(2) 0.0330(18) Uani 1 1 d . . . . .
H2 H 0.3054 0.7609 0.2146 0.040 Uiso 1 1 calc R U . . .
C1 C 0.3896(8) 0.8296(4) 0.2597(2) 0.0356(19) Uani 1 1 d . . . . .
H1 H 0.3614 0.8766 0.2510 0.043 Uiso 1 1 calc R U . . .
C6 C 0.4345(9) 0.5056(5) 0.2709(2) 0.0368(19) Uani 1 1 d . . . . .
H6 H 0.4012 0.4856 0.2454 0.044 Uiso 1 1 calc R U . . .
C7 C 0.4754(8) 0.4688(4) 0.3055(2) 0.0343(19) Uani 1 1 d . . . . .
H7 H 0.4730 0.4180 0.3090 0.041 Uiso 1 1 calc R U . . .
C8 C 0.5230(8) 0.5209(4) 0.3360(2) 0.0302(18) Uani 1 1 d . . . . .
C11 C 0.6828(8) 0.5387(5) 0.4452(2) 0.0361(19) Uani 1 1 d . . . . .
H11 H 0.6805 0.4931 0.4584 0.043 Uiso 1 1 calc R U . . .
C12 C 0.7325(8) 0.6012(4) 0.4618(2) 0.0335(18) Uani 1 1 d . . . . .
H12 H 0.7695 0.6078 0.4891 0.040 Uiso 1 1 calc R U . . .
C18 C 0.6459(9) 0.8415(4) 0.3534(2) 0.0356(19) Uani 1 1 d . . . . .
C19 C 0.5462(9) 0.8631(5) 0.3208(3) 0.040(2) Uani 1 1 d . . . . .
C20 C 0.4724(9) 0.8112(4) 0.2955(2) 0.0327(18) Uani 1 1 d . . . . .
C24 C 0.2831(9) 0.5805(4) 0.1298(3) 0.0362(19) Uani 1 1 d . . . . .
C25 C 0.4318(10) 0.5812(4) 0.1413(3) 0.040(2) Uani 1 1 d . . . . .
C26 C 0.4705(9) 0.5996(5) 0.1812(3) 0.0365(19) Uani 1 1 d . . . . .
C29 C 0.6694(9) 0.3047(5) 0.3776(2) 0.0341(19) Uani 1 1 d . . . . .
C30 C 0.5790(9) 0.2803(4) 0.4093(3) 0.0364(19) Uani 1 1 d . . . . .
C35 C 1.0459(9) 0.7397(5) 0.5218(3) 0.040(2) Uani 1 1 d . . . . .
C36 C 0.9827(10) 0.7915(5) 0.5470(3) 0.041(2) Uani 1 1 d . . . . .
C37 C 0.8493(10) 0.8206(5) 0.5360(3) 0.043(2) Uani 1 1 d . . . . .
C38 C 0.7793(9) 0.8002(4) 0.5001(3) 0.036(2) Uani 1 1 d . . . . .
C39 C 1.0649(10) 0.9499(5) 0.3029(3) 0.046(2) Uani 1 1 d . . . . .
H39 H 1.0624 0.9985 0.2936 0.055 Uiso 1 1 calc R U . . .
C40 C 0.9806(9) 0.8986(5) 0.2815(3) 0.044(2) Uani 1 1 d . . . . .
H40 H 0.9217 0.9124 0.2583 0.052 Uiso 1 1 calc R U . . .
C41 C 0.9835(9) 0.8277(5) 0.2942(3) 0.039(2) Uani 1 1 d . . . . .
C42 C 0.9061(9) 0.7031(4) 0.2863(3) 0.0355(19) Uani 1 1 d . . . . .
C43 C 0.8191(9) 0.6503(5) 0.2666(3) 0.041(2) Uani 1 1 d . . . . .
H43 H 0.7520 0.6625 0.2448 0.050 Uiso 1 1 calc R U . . .
C45 C 0.9308(9) 0.5574(5) 0.3095(3) 0.039(2) Uani 1 1 d . . . . .
H45 H 0.9371 0.5079 0.3166 0.047 Uiso 1 1 calc R U . . .
C46 C 1.0217(9) 0.6094(5) 0.3295(3) 0.040(2) Uani 1 1 d . . . . .
C47 C 1.1980(9) 0.6407(5) 0.3835(3) 0.038(2) Uani 1 1 d . . . . .
C48 C 1.2880(9) 0.6227(5) 0.4170(3) 0.040(2) Uani 1 1 d . . . . .
H48 H 1.3036 0.5736 0.4241 0.048 Uiso 1 1 calc R U . . .
C49 C 1.3555(9) 0.6775(5) 0.4400(3) 0.044(2) Uani 1 1 d . . . . .
H49 H 1.4126 0.6645 0.4637 0.052 Uiso 1 1 calc R U . . .
C50 C 1.3436(9) 0.7491(5) 0.4302(3) 0.045(2) Uani 1 1 d . . . . .
H50 H 1.3917 0.7845 0.4468 0.054 Uiso 1 1 calc R U . . .
C51 C 1.2603(9) 0.7693(5) 0.3958(3) 0.038(2) Uani 1 1 d . . . . .
C52 C 1.1616(9) 0.8620(5) 0.3500(3) 0.040(2) Uani 1 1 d . . . . .
C53 C 1.1531(10) 0.9329(5) 0.3376(3) 0.046(2) Uani 1 1 d . . . . .
H53 H 1.2058 0.9695 0.3522 0.055 Uiso 1 1 calc R U . . .
C54 C 1.0769(9) 0.8082(5) 0.3276(3) 0.037(2) Uani 1 1 d . . . . .
C56 C 1.1835(9) 0.7155(5) 0.3728(3) 0.0363(19) Uani 1 1 d . . . . .
C58 C 0.7961(10) 0.7943(5) 0.2408(3) 0.044(2) Uani 1 1 d . . . . .
H58 H 0.7671 0.8456 0.2431 0.053 Uiso 1 1 calc R U . . .
H58A H 0.7036 0.7649 0.2427 0.053 Uiso 1 1 calc R U . . .
C59 C 0.8696(9) 0.7816(5) 0.1992(2) 0.045(2) Uani 1 1 d . . . . .
H59 H 0.9148 0.7329 0.1989 0.054 Uiso 1 1 calc R U . . .
H59A H 0.9513 0.8171 0.1953 0.054 Uiso 1 1 calc R U . . .
C60 C 0.7560(10) 0.7882(6) 0.1635(3) 0.058(3) Uani 1 1 d . . . . .
H60 H 0.6710 0.7558 0.1685 0.086 Uiso 1 1 calc R U . . .
H60A H 0.8049 0.7751 0.1375 0.086 Uiso 1 1 calc R U . . .
H60B H 0.7197 0.8380 0.1618 0.086 Uiso 1 1 calc R U . . .
C61 C 1.1422(9) 0.5133(4) 0.3707(3) 0.042(2) Uani 1 1 d . . . . .
H61 H 1.2452 0.5050 0.3813 0.051 Uiso 1 1 calc R U . . .
H61A H 1.1284 0.4836 0.3456 0.051 Uiso 1 1 calc R U . . .
C62 C 1.0295(9) 0.4915(5) 0.4027(3) 0.045(2) Uani 1 1 d . . . . .
H62 H 0.9275 0.5046 0.3930 0.054 Uiso 1 1 calc R U . . .
H62A H 1.0497 0.5182 0.4285 0.054 Uiso 1 1 calc R U . . .
C63 C 1.0348(10) 0.4105(5) 0.4116(3) 0.057(3) Uani 1 1 d . . . . .
H63 H 1.0180 0.3838 0.3859 0.086 Uiso 1 1 calc R U . . .
H63A H 0.9564 0.3981 0.4315 0.086 Uiso 1 1 calc R U . . .
H63B H 1.1335 0.3979 0.4230 0.086 Uiso 1 1 calc R U . . .
C64 C 1.3335(10) 0.8952(5) 0.4065(3) 0.045(2) Uani 1 1 d . . . . .
H64 H 1.3593 0.9359 0.3881 0.054 Uiso 1 1 calc R U . . .
H64A H 1.4284 0.8741 0.4169 0.054 Uiso 1 1 calc R U . . .
C65 C 1.2412(11) 0.9230(6) 0.4428(3) 0.061(3) Uani 1 1 d . . . . .
H65 H 1.1588 0.9539 0.4323 0.073 Uiso 1 1 calc R U . . .
H65A H 1.1955 0.8818 0.4575 0.073 Uiso 1 1 calc R U . . .
C66 C 1.3381(12) 0.9661(6) 0.4728(3) 0.069(3) Uani 1 1 d . . . . .
H66 H 1.4264 0.9376 0.4806 0.104 Uiso 1 1 calc R U . . .
H66A H 1.2795 0.9775 0.4975 0.104 Uiso 1 1 calc R U . . .
H66B H 1.3706 1.0109 0.4595 0.104 Uiso 1 1 calc R U . . .
loop_
_atom_site_aniso_label
_atom_site_aniso_U_11
_atom_site_aniso_U_22
_atom_site_aniso_U_33
_atom_site_aniso_U_23
_atom_site_aniso_U_13
_atom_site_aniso_U_12
C3 0.033(4) 0.030(5) 0.042(5) 0.008(4) 0.008(4) 0.005(4)
C5 0.023(4) 0.027(4) 0.040(5) 0.001(3) -0.007(3) 0.001(3)
F10 0.035(2) 0.030(3) 0.054(3) -0.003(2) 0.009(2) 0.001(2)
F12 0.038(3) 0.050(3) 0.060(3) 0.006(3) -0.008(2) -0.005(2)
Pd1 0.0313(3) 0.0262(3) 0.0384(4) 0.0004(3) 0.0012(3) 0.0001(3)
C16 0.030(4) 0.036(5) 0.041(5) -0.005(4) -0.010(4) -0.005(4)
F1 0.032(2) 0.052(3) 0.045(3) 0.000(2) 0.004(2) 0.001(2)
C15 0.029(4) 0.027(5) 0.045(5) 0.000(4) 0.001(4) -0.002(4)
C23 0.036(5) 0.028(5) 0.051(5) 0.009(4) -0.008(4) -0.007(4)
C27 0.033(4) 0.027(5) 0.037(5) -0.001(3) -0.007(4) -0.002(4)
C31 0.033(4) 0.034(5) 0.042(5) 0.003(4) -0.003(4) -0.003(4)
C34 0.036(4) 0.037(5) 0.035(5) -0.001(4) -0.001(4) -0.004(4)
F4 0.062(3) 0.049(3) 0.047(3) -0.003(2) 0.006(3) 0.010(3)
F6 0.037(2) 0.033(3) 0.044(3) -0.001(2) 0.008(2) 0.002(2)
C21 0.030(4) 0.026(5) 0.048(5) 0.002(4) -0.005(4) -0.001(4)
C28 0.032(4) 0.030(5) 0.035(4) 0.004(3) 0.001(4) 0.003(4)
F7 0.054(3) 0.032(3) 0.046(3) -0.005(2) -0.001(2) 0.011(2)
C14 0.022(4) 0.035(5) 0.035(4) 0.004(3) 0.003(3) 0.010(3)
F5 0.038(3) 0.050(3) 0.051(3) -0.007(2) 0.001(2) 0.007(2)
C10 0.030(4) 0.033(5) 0.039(5) -0.001(4) 0.004(4) 0.001(4)
F8 0.066(3) 0.025(3) 0.050(3) 0.002(2) -0.002(3) -0.003(2)
F9 0.047(3) 0.037(3) 0.053(3) 0.009(2) 0.013(2) -0.004(2)
C9 0.031(4) 0.019(4) 0.034(4) -0.003(3) 0.002(3) 0.007(3)
F3 0.069(3) 0.038(3) 0.042(3) -0.001(2) -0.016(3) -0.001(3)
C33 0.026(4) 0.034(5) 0.042(5) 0.003(4) 0.002(4) -0.008(4)
F2 0.044(3) 0.057(4) 0.053(3) 0.005(3) -0.010(2) -0.010(3)
F11 0.036(2) 0.044(3) 0.050(3) -0.007(2) 0.002(2) 0.005(2)
C32 0.031(4) 0.028(5) 0.045(5) -0.004(4) 0.002(4) 0.002(4)
F13 0.066(3) 0.054(4) 0.046(3) -0.003(3) -0.016(3) -0.001(3)
C4 0.025(4) 0.037(5) 0.036(5) 0.002(4) -0.004(3) 0.004(4)
C13 0.026(4) 0.029(4) 0.034(4) 0.000(3) 0.001(3) 0.002(3)
C17 0.040(5) 0.024(5) 0.052(5) -0.007(4) 0.000(4) -0.006(4)
F14 0.071(3) 0.043(3) 0.057(3) -0.015(3) -0.005(3) 0.009(3)
F15 0.041(3) 0.037(3) 0.053(3) -0.004(2) 0.002(2) 0.007(2)
N1 0.022(3) 0.028(4) 0.038(4) -0.010(3) 0.002(3) 0.000(3)
N2 0.027(3) 0.040(4) 0.031(4) 0.000(3) -0.002(3) 0.000(3)
N3 0.026(3) 0.027(4) 0.043(4) -0.006(3) -0.001(3) -0.004(3)
N4 0.032(4) 0.042(5) 0.046(4) 0.003(3) 0.000(3) -0.003(3)
O1 0.054(4) 0.027(3) 0.047(4) -0.003(3) -0.003(3) 0.000(3)
C22 0.031(4) 0.035(5) 0.046(5) -0.005(4) 0.003(4) 0.000(4)
C44 0.029(4) 0.033(5) 0.053(5) -0.005(4) 0.002(4) -0.007(4)
C55 0.022(4) 0.035(5) 0.042(5) -0.003(4) 0.003(3) -0.005(4)
C57 0.034(4) 0.027(5) 0.048(5) -0.007(4) 0.004(4) 0.000(4)
N5 0.032(3) 0.034(4) 0.046(4) 0.005(3) 0.009(3) 0.001(3)
N6 0.036(4) 0.033(4) 0.044(4) -0.001(3) -0.001(3) 0.003(3)
N7 0.039(4) 0.035(4) 0.046(4) -0.002(3) -0.002(3) -0.002(3)
C2 0.036(4) 0.023(4) 0.040(5) 0.001(3) -0.006(4) -0.003(4)
C1 0.036(4) 0.025(5) 0.046(5) 0.001(4) 0.000(4) 0.001(4)
C6 0.041(5) 0.032(5) 0.038(5) -0.004(4) -0.002(4) -0.007(4)
C7 0.034(4) 0.022(4) 0.047(5) -0.001(4) -0.001(4) -0.008(4)
C8 0.025(4) 0.024(4) 0.041(5) 0.001(3) 0.000(3) -0.001(3)
C11 0.037(4) 0.036(5) 0.036(5) -0.001(4) 0.002(4) 0.003(4)
C12 0.031(4) 0.029(5) 0.041(5) -0.007(4) 0.001(4) 0.003(4)
C18 0.037(4) 0.028(5) 0.042(5) 0.003(4) 0.005(4) 0.002(4)
C19 0.045(5) 0.034(5) 0.041(5) 0.006(4) -0.004(4) 0.000(4)
C20 0.037(4) 0.031(5) 0.030(4) -0.001(3) 0.004(4) 0.004(4)
C24 0.042(5) 0.024(4) 0.042(5) 0.005(4) -0.004(4) 0.000(4)
C25 0.052(5) 0.024(4) 0.043(5) -0.004(4) 0.008(4) 0.008(4)
C26 0.032(4) 0.035(5) 0.043(5) 0.004(4) 0.001(4) -0.002(4)
C29 0.031(4) 0.041(5) 0.031(4) -0.003(4) -0.002(3) 0.001(4)
C30 0.037(4) 0.028(5) 0.044(5) 0.007(4) 0.002(4) 0.000(4)
C35 0.039(5) 0.037(5) 0.043(5) 0.002(4) -0.007(4) 0.004(4)
C36 0.045(5) 0.041(5) 0.035(5) 0.003(4) -0.009(4) -0.006(4)
C37 0.054(5) 0.037(5) 0.038(5) -0.005(4) -0.001(4) 0.008(4)
C38 0.034(4) 0.027(5) 0.049(5) -0.005(4) -0.003(4) 0.001(4)
C39 0.053(5) 0.029(5) 0.055(6) -0.002(4) 0.011(5) -0.002(4)
C40 0.043(5) 0.034(5) 0.054(6) -0.001(4) 0.003(4) 0.001(4)
C41 0.042(5) 0.032(5) 0.044(5) -0.004(4) 0.001(4) 0.001(4)
C42 0.030(4) 0.032(5) 0.045(5) 0.001(4) 0.009(4) 0.001(4)
C43 0.028(4) 0.053(6) 0.044(5) -0.003(4) 0.003(4) -0.010(4)
C45 0.033(4) 0.031(5) 0.053(5) -0.002(4) 0.008(4) -0.003(4)
C46 0.030(4) 0.040(5) 0.049(5) 0.000(4) 0.006(4) -0.002(4)
C47 0.031(4) 0.040(5) 0.043(5) -0.002(4) 0.002(4) -0.002(4)
C48 0.037(4) 0.031(5) 0.051(5) 0.001(4) 0.006(4) 0.003(4)
C49 0.033(4) 0.058(6) 0.040(5) 0.003(4) -0.001(4) 0.003(4)
C50 0.034(4) 0.042(6) 0.058(6) -0.008(4) 0.004(4) -0.005(4)
C51 0.037(4) 0.038(5) 0.040(5) -0.007(4) 0.002(4) -0.007(4)
C52 0.035(5) 0.035(5) 0.049(5) -0.007(4) 0.010(4) -0.004(4)
C53 0.046(5) 0.035(5) 0.057(6) -0.011(4) 0.011(5) -0.002(4)
C54 0.034(4) 0.036(5) 0.042(5) -0.002(4) 0.005(4) -0.004(4)
C56 0.032(4) 0.035(5) 0.042(5) -0.001(4) 0.001(4) 0.006(4)
C58 0.041(5) 0.038(5) 0.055(6) 0.006(4) 0.002(4) 0.003(4)
C59 0.043(5) 0.050(6) 0.042(5) -0.002(4) 0.002(4) -0.005(4)
C60 0.046(5) 0.066(7) 0.061(6) 0.003(5) 0.003(5) 0.006(5)
C61 0.032(4) 0.026(5) 0.069(6) 0.013(4) 0.003(4) 0.004(4)
C62 0.035(4) 0.036(5) 0.064(6) 0.007(4) 0.006(4) 0.004(4)
C63 0.044(5) 0.046(6) 0.081(7) 0.022(5) -0.004(5) -0.009(5)
C64 0.053(5) 0.036(5) 0.047(5) 0.000(4) -0.006(4) -0.015(4)
C65 0.060(6) 0.050(7) 0.073(7) -0.022(5) -0.001(5) -0.006(5)
C66 0.076(7) 0.057(7) 0.074(7) -0.005(6) -0.005(6) -0.006(6)
loop_
_atom_type_symbol
_atom_type_description
_atom_type_scat_dispersion_real
_atom_type_scat_dispersion_imag
_atom_type_scat_source
C C 0.0041 0.0020 'International Tables Vol C Tables 4.2.6.8 and 6.1.1.4'
H H 0.0000 0.0000 'International Tables Vol C Tables 4.2.6.8 and 6.1.1.4'
F F 0.0215 0.0127 'International Tables Vol C Tables 4.2.6.8 and 6.1.1.4'
N N 0.0078 0.0041 'International Tables Vol C Tables 4.2.6.8 and 6.1.1.4'
O O 0.0135 0.0075 'International Tables Vol C Tables 4.2.6.8 and 6.1.1.4'
Pd Pd -0.7734 1.2009 'International Tables Vol C Tables 4.2.6.8 and 6.1.1.4'
loop_
_geom_angle_atom_site_label_1
_geom_angle_atom_site_label_2
_geom_angle_atom_site_label_3
_geom_angle
_geom_angle_site_symmetry_1
_geom_angle_site_symmetry_3
_geom_angle_publ_flag
N3 C3 C2 111.0(7) . . ?
N3 C3 C4 123.8(7) . . ?
C2 C3 C4 125.2(8) . . ?
N2 C5 C4 125.4(7) . . ?
N2 C5 C6 109.9(7) . . ?
C4 C5 C6 124.7(7) . . ?
N3 Pd1 N1 177.4(2) . . ?
N3 Pd1 N4 90.0(3) . . ?
N1 Pd1 N4 89.8(3) . . ?
N3 Pd1 N2 90.1(2) . . ?
N1 Pd1 N2 90.2(2) . . ?
N4 Pd1 N2 177.4(3) . . ?
C17 C16 C15 107.6(7) . . ?
C17 C16 H16 126.2 . . ?
C15 C16 H16 126.2 . . ?
N4 C15 C14 124.1(7) . . ?
N4 C15 C16 108.6(7) . . ?
C14 C15 C16 127.2(7) . . ?
F2 C23 C22 120.0(8) . . ?
F2 C23 C24 119.8(7) . . ?
C22 C23 C24 120.2(7) . . ?
C28 C27 C32 114.1(7) . . ?
C28 C27 C9 123.1(7) . . ?
C32 C27 C9 122.8(7) . . ?
F9 C31 C30 119.5(8) . . ?
F9 C31 C32 119.7(7) . . ?
C30 C31 C32 120.8(8) . . ?
F11 C34 C35 118.4(7) . . ?
F11 C34 C33 119.2(7) . . ?
C35 C34 C33 122.3(8) . . ?
C26 C21 C22 114.7(7) . . ?
C26 C21 C4 122.0(7) . . ?
C22 C21 C4 123.3(8) . . ?
F6 C28 C29 117.4(7) . . ?
F6 C28 C27 119.0(7) . . ?
C29 C28 C27 123.6(7) . . ?
C13 C14 C15 126.0(7) . . ?
C13 C14 C33 118.5(7) . . ?
C15 C14 C33 115.5(7) . . ?
N1 C10 C9 125.0(7) . . ?
N1 C10 C11 109.3(7) . . ?
C9 C10 C11 125.6(8) . . ?
C8 C9 C10 124.6(7) . . ?
C8 C9 C27 118.2(7) . . ?
C10 C9 C27 117.3(7) . . ?
C34 C33 C38 115.5(7) . . ?
C34 C33 C14 122.1(7) . . ?
C38 C33 C14 122.5(7) . . ?
F10 C32 C31 118.1(7) . . ?
F10 C32 C27 119.2(7) . . ?
C31 C32 C27 122.7(8) . . ?
C5 C4 C3 125.4(7) . . ?
C5 C4 C21 117.0(7) . . ?
C3 C4 C21 117.5(7) . . ?
C14 C13 N1 124.8(7) . . ?
C14 C13 C12 125.3(7) . . ?
N1 C13 C12 109.9(7) . . ?
C16 C17 C18 107.1(8) . . ?
C16 C17 H17 126.5 . . ?
C18 C17 H17 126.5 . . ?
C13 N1 C10 106.1(6) . . ?
C13 N1 Pd1 126.6(5) . . ?
C10 N1 Pd1 126.3(5) . . ?
C8 N2 C5 107.4(7) . . ?
C8 N2 Pd1 126.2(5) . . ?
C5 N2 Pd1 125.8(5) . . ?
C3 N3 C20 104.7(6) . . ?
C3 N3 Pd1 127.7(5) . . ?
C20 N3 Pd1 127.3(5) . . ?
C18 N4 C15 107.0(7) . . ?
C18 N4 Pd1 125.9(6) . . ?
C15 N4 Pd1 126.7(6) . . ?
F1 C22 C23 118.4(7) . . ?
F1 C22 C21 118.2(7) . . ?
C23 C22 C21 123.3(8) . . ?
C45 C44 C43 125.6(8) . . ?
C45 C44 H44 117.2 . . ?
C43 C44 H44 117.2 . . ?
C46 C55 C57 120.1(7) . . ?
C46 C55 C42 120.1(7) . . ?
C57 C55 C42 119.7(8) . . ?
C56 C57 C55 120.2(8) . . ?
C56 C57 C54 121.2(8) . . ?
C55 C57 C54 118.6(8) . . ?
C47 N5 C46 122.5(7) . . ?
C47 N5 C61 118.4(7) . . ?
C46 N5 C61 118.9(7) . . ?
C41 N6 C42 122.2(7) . . ?
C41 N6 C58 120.6(7) . . ?
C42 N6 C58 117.3(7) . . ?
C52 N7 C51 122.9(7) . . ?
C52 N7 C64 119.1(7) . . ?
C51 N7 C64 117.9(7) . . ?
C1 C2 C3 107.2(7) . . ?
C1 C2 H2 126.4 . . ?
C3 C2 H2 126.4 . . ?
C2 C1 C20 106.3(7) . . ?
C2 C1 H1 126.9 . . ?
C20 C1 H1 126.9 . . ?
C7 C6 C5 106.3(7) . . ?
C7 C6 H6 126.8 . . ?
C5 C6 H6 126.8 . . ?
C6 C7 C8 107.7(7) . . ?
C6 C7 H7 126.1 . . ?
C8 C7 H7 126.1 . . ?
N2 C8 C9 126.5(7) . . ?
N2 C8 C7 108.6(7) . . ?
C9 C8 C7 124.9(7) . . ?
C12 C11 C10 107.2(8) . . ?
C12 C11 H11 126.4 . . ?
C10 C11 H11 126.4 . . ?
C11 C12 C13 107.4(7) . . ?
C11 C12 H12 126.3 . . ?
C13 C12 H12 126.3 . . ?
N4 C18 C17 109.3(7) . . ?
N4 C18 C19 126.7(8) . . ?
C17 C18 C19 123.8(8) . . ?
O1 C19 C20 121.0(7) . . ?
O1 C19 C18 117.8(8) . . ?
C20 C19 C18 121.1(8) . . ?
N3 C20 C1 110.7(7) . . ?
N3 C20 C19 125.6(7) . . ?
C1 C20 C19 123.1(7) . . ?
F3 C24 C25 121.3(8) . . ?
F3 C24 C23 120.2(7) . . ?
C25 C24 C23 118.5(8) . . ?
F4 C25 C24 119.1(7) . . ?
F4 C25 C26 121.3(7) . . ?
C24 C25 C26 119.6(8) . . ?
F5 C26 C21 119.9(7) . . ?
F5 C26 C25 116.3(7) . . ?
C21 C26 C25 123.7(7) . . ?
F7 C29 C28 120.1(7) . . ?
F7 C29 C30 119.8(8) . . ?
C28 C29 C30 119.9(8) . . ?
F8 C30 C31 120.8(7) . . ?
F8 C30 C29 120.3(7) . . ?
C31 C30 C29 118.9(8) . . ?
F12 C35 C34 119.7(8) . . ?
F12 C35 C36 119.8(7) . . ?
C34 C35 C36 120.4(7) . . ?
F13 C36 C37 122.1(8) . . ?
F13 C36 C35 119.1(7) . . ?
C37 C36 C35 118.8(8) . . ?
C36 C37 F14 119.0(8) . . ?
C36 C37 C38 120.6(8) . . ?
F14 C37 C38 120.3(7) . . ?
F15 C38 C37 117.9(7) . . ?
F15 C38 C33 119.8(7) . . ?
C37 C38 C33 122.3(7) . . ?
C40 C39 C53 122.8(9) . . ?
C40 C39 H39 118.6 . . ?
C53 C39 H39 118.6 . . ?
C41 C40 C39 119.5(8) . . ?
C41 C40 H40 120.2 . . ?
C39 C40 H40 120.2 . . ?
N6 C41 C40 121.8(8) . . ?
N6 C41 C54 119.2(8) . . ?
C40 C41 C54 119.0(8) . . ?
N6 C42 C43 121.8(8) . . ?
N6 C42 C55 119.1(7) . . ?
C43 C42 C55 119.1(8) . . ?
C44 C43 C42 117.7(8) . . ?
C44 C43 H43 121.1 . . ?
C42 C43 H43 121.1 . . ?
C44 C45 C46 117.8(8) . . ?
C44 C45 H45 121.1 . . ?
C46 C45 H45 121.1 . . ?
N5 C46 C55 118.8(8) . . ?
N5 C46 C45 121.7(8) . . ?
C55 C46 C45 119.5(8) . . ?
N5 C47 C48 123.0(8) . . ?
N5 C47 C56 118.7(7) . . ?
C48 C47 C56 118.3(8) . . ?
C47 C48 C49 119.2(8) . . ?
C47 C48 H48 120.4 . . ?
C49 C48 H48 120.4 . . ?
C50 C49 C48 123.4(8) . . ?
C50 C49 H49 118.3 . . ?
C48 C49 H49 118.3 . . ?
C49 C50 C51 119.3(8) . . ?
C49 C50 H50 120.4 . . ?
C51 C50 H50 120.4 . . ?
C50 C51 N7 122.2(8) . . ?
C50 C51 C56 119.1(8) . . ?
N7 C51 C56 118.7(7) . . ?
C53 C52 N7 122.1(8) . . ?
C53 C52 C54 119.0(8) . . ?
N7 C52 C54 118.9(8) . . ?
C52 C53 C39 118.5(8) . . ?
C52 C53 H53 120.7 . . ?
C39 C53 H53 120.7 . . ?
C41 C54 C57 121.0(8) . . ?
C41 C54 C52 121.0(8) . . ?
C57 C54 C52 118.0(8) . . ?
C57 C56 C51 120.1(8) . . ?
C57 C56 C47 119.2(8) . . ?
C51 C56 C47 120.7(7) . . ?
N6 C58 C59 111.4(7) . . ?
N6 C58 H58 109.4 . . ?
C59 C58 H58 109.4 . . ?
N6 C58 H58A 109.4 . . ?
C59 C58 H58A 109.4 . . ?
H58 C58 H58A 108.0 . . ?
C58 C59 C60 111.7(7) . . ?
C58 C59 H59 109.3 . . ?
C60 C59 H59 109.3 . . ?
C58 C59 H59A 109.3 . . ?
C60 C59 H59A 109.3 . . ?
H59 C59 H59A 107.9 . . ?
C59 C60 H60 109.5 . . ?
C59 C60 H60A 109.5 . . ?
H60 C60 H60A 109.5 . . ?
C59 C60 H60B 109.5 . . ?
H60 C60 H60B 109.5 . . ?
H60A C60 H60B 109.5 . . ?
N5 C61 C62 110.2(7) . . ?
N5 C61 H61 109.6 . . ?
C62 C61 H61 109.6 . . ?
N5 C61 H61A 109.6 . . ?
C62 C61 H61A 109.6 . . ?
H61 C61 H61A 108.1 . . ?
C61 C62 C63 112.0(8) . . ?
C61 C62 H62 109.2 . . ?
C63 C62 H62 109.2 . . ?
C61 C62 H62A 109.2 . . ?
C63 C62 H62A 109.2 . . ?
H62 C62 H62A 107.9 . . ?
C62 C63 H63 109.5 . . ?
C62 C63 H63A 109.5 . . ?
H63 C63 H63A 109.5 . . ?
C62 C63 H63B 109.5 . . ?
H63 C63 H63B 109.5 . . ?
H63A C63 H63B 109.5 . . ?
N7 C64 C65 111.5(7) . . ?
N7 C64 H64 109.3 . . ?
C65 C64 H64 109.3 . . ?
N7 C64 H64A 109.3 . . ?
C65 C64 H64A 109.3 . . ?
H64 C64 H64A 108.0 . . ?
C66 C65 C64 111.4(8) . . ?
C66 C65 H65 109.4 . . ?
C64 C65 H65 109.4 . . ?
C66 C65 H65A 109.4 . . ?
C64 C65 H65A 109.4 . . ?
H65 C65 H65A 108.0 . . ?
C65 C66 H66 109.5 . . ?
C65 C66 H66A 109.5 . . ?
H66 C66 H66A 109.5 . . ?
C65 C66 H66B 109.5 . . ?
H66 C66 H66B 109.5 . . ?
H66A C66 H66B 109.5 . . ?
loop_
_geom_bond_atom_site_label_1
_geom_bond_atom_site_label_2
_geom_bond_distance
_geom_bond_site_symmetry_2
_geom_bond_publ_flag
C3 N3 1.372(10) . ?
C3 C2 1.404(11) . ?
C3 C4 1.424(12) . ?
C5 N2 1.379(9) . ?
C5 C4 1.386(11) . ?
C5 C6 1.422(11) . ?
F10 C32 1.342(9) . ?
F12 C35 1.360(9) . ?
Pd1 N3 2.011(6) . ?
Pd1 N1 2.013(6) . ?
Pd1 N4 2.025(7) . ?
Pd1 N2 2.038(7) . ?
C16 C17 1.360(11) . ?
C16 C15 1.425(11) . ?
C16 H16 0.9500 . ?
F1 C22 1.345(9) . ?
C15 N4 1.374(10) . ?
C15 C14 1.395(11) . ?
C23 F2 1.353(9) . ?
C23 C22 1.362(11) . ?
C23 C24 1.389(12) . ?
C27 C28 1.397(11) . ?
C27 C32 1.407(11) . ?
C27 C9 1.471(11) . ?
C31 F9 1.346(9) . ?
C31 C30 1.359(12) . ?
C31 C32 1.371(11) . ?
C34 F11 1.329(9) . ?
C34 C35 1.366(11) . ?
C34 C33 1.383(11) . ?
F4 C25 1.334(9) . ?
F6 C28 1.351(8) . ?
C21 C26 1.379(11) . ?
C21 C22 1.393(10) . ?
C21 C4 1.483(11) . ?
C28 C29 1.366(11) . ?
F7 C29 1.344(9) . ?
C14 C13 1.376(11) . ?
C14 C33 1.485(11) . ?
F5 C26 1.349(9) . ?
C10 N1 1.388(10) . ?
C10 C9 1.402(11) . ?
C10 C11 1.449(11) . ?
F8 C30 1.335(9) . ?
C9 C8 1.391(10) . ?
F3 C24 1.335(9) . ?
C33 C38 1.395(11) . ?
F13 C36 1.333(9) . ?
C13 N1 1.381(9) . ?
C13 C12 1.440(11) . ?
C17 C18 1.418(11) . ?
C17 H17 0.9500 . ?
F14 C37 1.355(10) . ?
F15 C38 1.352(9) . ?
N2 C8 1.356(10) . ?
N3 C20 1.383(10) . ?
N4 C18 1.372(11) . ?
O1 C19 1.276(10) . ?
C44 C45 1.360(11) . ?
C44 C43 1.368(12) . ?
C44 H44 0.9500 . ?
C55 C46 1.398(12) . ?
C55 C57 1.414(11) . ?
C55 C42 1.436(11) . ?
C57 C56 1.387(11) . ?
C57 C54 1.425(12) . ?
N5 C47 1.373(10) . ?
N5 C46 1.385(10) . ?
N5 C61 1.482(10) . ?
N6 C41 1.380(10) . ?
N6 C42 1.394(11) . ?
N6 C58 1.473(10) . ?
N7 C52 1.380(11) . ?
N7 C51 1.391(11) . ?
N7 C64 1.470(10) . ?
C2 C1 1.369(11) . ?
C2 H2 0.9500 . ?
C1 C20 1.415(11) . ?
C1 H1 0.9500 . ?
C6 C7 1.363(11) . ?
C6 H6 0.9500 . ?
C7 C8 1.445(11) . ?
C7 H7 0.9500 . ?
C11 C12 1.353(11) . ?
C11 H11 0.9500 . ?
C12 H12 0.9500 . ?
C18 C19 1.435(11) . ?
C19 C20 1.423(11) . ?
C24 C25 1.374(11) . ?
C25 C26 1.380(11) . ?
C29 C30 1.383(11) . ?
C35 C36 1.382(12) . ?
C36 C37 1.351(12) . ?
C37 C38 1.371(11) . ?
C39 C40 1.396(12) . ?
C39 C53 1.405(12) . ?
C39 H39 0.9500 . ?
C40 C41 1.381(12) . ?
C40 H40 0.9500 . ?
C41 C54 1.407(11) . ?
C42 C43 1.401(11) . ?
C43 H43 0.9500 . ?
C45 C46 1.414(11) . ?
C45 H45 0.9500 . ?
C47 C48 1.386(11) . ?
C47 C56 1.438(12) . ?
C48 C49 1.396(12) . ?
C48 H48 0.9500 . ?
C49 C50 1.371(13) . ?
C49 H49 0.9500 . ?
C50 C51 1.388(12) . ?
C50 H50 0.9500 . ?
C51 C56 1.419(11) . ?
C52 C53 1.380(12) . ?
C52 C54 1.446(12) . ?
C53 H53 0.9500 . ?
C58 C59 1.516(11) . ?
C58 H58 0.9900 . ?
C58 H58A 0.9900 . ?
C59 C60 1.538(11) . ?
C59 H59 0.9900 . ?
C59 H59A 0.9900 . ?
C60 H60 0.9800 . ?
C60 H60A 0.9800 . ?
C60 H60B 0.9800 . ?
C61 C62 1.502(11) . ?
C61 H61 0.9900 . ?
C61 H61A 0.9900 . ?
C62 C63 1.531(12) . ?
C62 H62 0.9900 . ?
C62 H62A 0.9900 . ?
C63 H63 0.9800 . ?
C63 H63A 0.9800 . ?
C63 H63B 0.9800 . ?
C64 C65 1.527(13) . ?
C64 H64 0.9900 . ?
C64 H64A 0.9900 . ?
C65 C66 1.524(13) . ?
C65 H65 0.9900 . ?
C65 H65A 0.9900 . ?
C66 H66 0.9800 . ?
C66 H66A 0.9800 . ?
C66 H66B 0.9800 . ?
loop_
_geom_torsion_atom_site_label_1
_geom_torsion_atom_site_label_2
_geom_torsion_atom_site_label_3
_geom_torsion_atom_site_label_4
_geom_torsion
_geom_torsion_site_symmetry_1
_geom_torsion_site_symmetry_2
_geom_torsion_site_symmetry_3
_geom_torsion_site_symmetry_4
_geom_torsion_publ_flag
C17 C16 C15 N4 3.0(9) . . . . ?
C17 C16 C15 C14 -174.5(8) . . . . ?
C32 C27 C28 F6 -178.8(6) . . . . ?
C9 C27 C28 F6 3.6(11) . . . . ?
C32 C27 C28 C29 1.3(11) . . . . ?
C9 C27 C28 C29 -176.3(7) . . . . ?
N4 C15 C14 C13 9.1(13) . . . . ?
C16 C15 C14 C13 -173.8(8) . . . . ?
N4 C15 C14 C33 -169.1(7) . . . . ?
C16 C15 C14 C33 8.0(11) . . . . ?
N1 C10 C9 C8 -7.2(12) . . . . ?
C11 C10 C9 C8 175.6(7) . . . . ?
N1 C10 C9 C27 171.9(7) . . . . ?
C11 C10 C9 C27 -5.2(11) . . . . ?
C28 C27 C9 C8 65.1(10) . . . . ?
C32 C27 C9 C8 -112.2(8) . . . . ?
C28 C27 C9 C10 -114.1(8) . . . . ?
C32 C27 C9 C10 68.6(10) . . . . ?
F11 C34 C33 C38 176.5(7) . . . . ?
C35 C34 C33 C38 -1.5(12) . . . . ?
F11 C34 C33 C14 -3.4(12) . . . . ?
C35 C34 C33 C14 178.6(8) . . . . ?
C13 C14 C33 C34 62.0(10) . . . . ?
C15 C14 C33 C34 -119.6(8) . . . . ?
C13 C14 C33 C38 -117.9(9) . . . . ?
C15 C14 C33 C38 60.5(10) . . . . ?
F9 C31 C32 F10 -1.4(11) . . . . ?
C30 C31 C32 F10 179.8(7) . . . . ?
F9 C31 C32 C27 179.7(7) . . . . ?
C30 C31 C32 C27 0.8(13) . . . . ?
C28 C27 C32 F10 -179.3(6) . . . . ?
C9 C27 C32 F10 -1.8(11) . . . . ?
C28 C27 C32 C31 -0.4(11) . . . . ?
C9 C27 C32 C31 177.2(7) . . . . ?
N2 C5 C4 C3 -2.6(13) . . . . ?
C6 C5 C4 C3 174.9(8) . . . . ?
N2 C5 C4 C21 175.9(7) . . . . ?
C6 C5 C4 C21 -6.7(11) . . . . ?
N3 C3 C4 C5 12.3(13) . . . . ?
C2 C3 C4 C5 -169.1(8) . . . . ?
N3 C3 C4 C21 -166.2(7) . . . . ?
C2 C3 C4 C21 12.5(12) . . . . ?
C26 C21 C4 C5 -79.9(10) . . . . ?
C22 C21 C4 C5 100.1(9) . . . . ?
C26 C21 C4 C3 98.6(9) . . . . ?
C22 C21 C4 C3 -81.3(10) . . . . ?
C15 C14 C13 N1 5.8(12) . . . . ?
C33 C14 C13 N1 -176.0(6) . . . . ?
C15 C14 C13 C12 -175.4(7) . . . . ?
C33 C14 C13 C12 2.8(11) . . . . ?
C15 C16 C17 C18 0.6(9) . . . . ?
C14 C13 N1 C10 177.2(7) . . . . ?
C12 C13 N1 C10 -1.8(8) . . . . ?
C14 C13 N1 Pd1 -13.2(10) . . . . ?
C12 C13 N1 Pd1 167.8(5) . . . . ?
C9 C10 N1 C13 -176.7(7) . . . . ?
C11 C10 N1 C13 0.9(8) . . . . ?
C9 C10 N1 Pd1 13.7(11) . . . . ?
C11 C10 N1 Pd1 -168.8(5) . . . . ?
C4 C5 N2 C8 177.5(7) . . . . ?
C6 C5 N2 C8 -0.3(8) . . . . ?
C4 C5 N2 Pd1 -10.8(11) . . . . ?
C6 C5 N2 Pd1 171.5(5) . . . . ?
C2 C3 N3 C20 -1.1(8) . . . . ?
C4 C3 N3 C20 177.7(7) . . . . ?
C2 C3 N3 Pd1 173.7(5) . . . . ?
C4 C3 N3 Pd1 -7.4(11) . . . . ?
C14 C15 N4 C18 172.1(7) . . . . ?
C16 C15 N4 C18 -5.4(9) . . . . ?
C14 C15 N4 Pd1 -14.9(11) . . . . ?
C16 C15 N4 Pd1 167.5(5) . . . . ?
F2 C23 C22 F1 -1.4(12) . . . . ?
C24 C23 C22 F1 178.4(7) . . . . ?
F2 C23 C22 C21 -178.7(8) . . . . ?
C24 C23 C22 C21 1.0(13) . . . . ?
C26 C21 C22 F1 -178.8(7) . . . . ?
C4 C21 C22 F1 1.2(12) . . . . ?
C26 C21 C22 C23 -1.4(12) . . . . ?
C4 C21 C22 C23 178.5(8) . . . . ?
C46 C55 C57 C56 -3.1(11) . . . . ?
C42 C55 C57 C56 176.5(7) . . . . ?
C46 C55 C57 C54 178.5(7) . . . . ?
C42 C55 C57 C54 -1.8(11) . . . . ?
N3 C3 C2 C1 0.0(9) . . . . ?
C4 C3 C2 C1 -178.8(8) . . . . ?
C3 C2 C1 C20 1.1(9) . . . . ?
N2 C5 C6 C7 1.5(9) . . . . ?
C4 C5 C6 C7 -176.3(7) . . . . ?
C5 C6 C7 C8 -2.0(9) . . . . ?
C5 N2 C8 C9 178.4(7) . . . . ?
Pd1 N2 C8 C9 6.7(11) . . . . ?
C5 N2 C8 C7 -0.9(8) . . . . ?
Pd1 N2 C8 C7 -172.7(5) . . . . ?
C10 C9 C8 N2 -3.6(12) . . . . ?
C27 C9 C8 N2 177.2(7) . . . . ?
C10 C9 C8 C7 175.6(7) . . . . ?
C27 C9 C8 C7 -3.6(11) . . . . ?
C6 C7 C8 N2 1.9(9) . . . . ?
C6 C7 C8 C9 -177.4(7) . . . . ?
N1 C10 C11 C12 0.4(9) . . . . ?
C9 C10 C11 C12 178.0(7) . . . . ?
C10 C11 C12 C13 -1.5(8) . . . . ?
C14 C13 C12 C11 -176.9(7) . . . . ?
N1 C13 C12 C11 2.1(9) . . . . ?
C15 N4 C18 C17 5.8(9) . . . . ?
Pd1 N4 C18 C17 -167.2(5) . . . . ?
C15 N4 C18 C19 -168.7(8) . . . . ?
Pd1 N4 C18 C19 18.3(12) . . . . ?
C16 C17 C18 N4 -4.0(9) . . . . ?
C16 C17 C18 C19 170.7(8) . . . . ?
N4 C18 C19 O1 164.3(8) . . . . ?
C17 C18 C19 O1 -9.5(12) . . . . ?
N4 C18 C19 C20 -17.0(13) . . . . ?
C17 C18 C19 C20 169.2(8) . . . . ?
C3 N3 C20 C1 1.8(8) . . . . ?
Pd1 N3 C20 C1 -173.1(5) . . . . ?
C3 N3 C20 C19 -169.4(8) . . . . ?
Pd1 N3 C20 C19 15.7(11) . . . . ?
C2 C1 C20 N3 -1.9(9) . . . . ?
C2 C1 C20 C19 169.7(8) . . . . ?
O1 C19 C20 N3 177.7(7) . . . . ?
C18 C19 C20 N3 -1.0(13) . . . . ?
O1 C19 C20 C1 7.4(13) . . . . ?
C18 C19 C20 C1 -171.2(7) . . . . ?
F2 C23 C24 F3 -1.0(12) . . . . ?
C22 C23 C24 F3 179.2(7) . . . . ?
F2 C23 C24 C25 -179.5(7) . . . . ?
C22 C23 C24 C25 0.8(12) . . . . ?
F3 C24 C25 F4 0.1(12) . . . . ?
C23 C24 C25 F4 178.5(7) . . . . ?
F3 C24 C25 C26 179.5(7) . . . . ?
C23 C24 C25 C26 -2.1(12) . . . . ?
C22 C21 C26 F5 -177.6(7) . . . . ?
C4 C21 C26 F5 2.5(12) . . . . ?
C22 C21 C26 C25 0.0(12) . . . . ?
C4 C21 C26 C25 -179.9(8) . . . . ?
F4 C25 C26 F5 -1.2(12) . . . . ?
C24 C25 C26 F5 179.4(8) . . . . ?
F4 C25 C26 C21 -178.9(8) . . . . ?
C24 C25 C26 C21 1.7(13) . . . . ?
F6 C28 C29 F7 3.0(11) . . . . ?
C27 C28 C29 F7 -177.1(7) . . . . ?
F6 C28 C29 C30 177.5(6) . . . . ?
C27 C28 C29 C30 -2.5(12) . . . . ?
F9 C31 C30 F8 0.9(12) . . . . ?
C32 C31 C30 F8 179.7(7) . . . . ?
F9 C31 C30 C29 179.1(7) . . . . ?
C32 C31 C30 C29 -2.0(12) . . . . ?
F7 C29 C30 F8 -4.3(11) . . . . ?
C28 C29 C30 F8 -178.9(7) . . . . ?
F7 C29 C30 C31 177.4(7) . . . . ?
C28 C29 C30 C31 2.9(12) . . . . ?
F11 C34 C35 F12 2.1(12) . . . . ?
C33 C34 C35 F12 -179.9(8) . . . . ?
F11 C34 C35 C36 -176.8(8) . . . . ?
C33 C34 C35 C36 1.2(13) . . . . ?
F12 C35 C36 F13 -1.3(12) . . . . ?
C34 C35 C36 F13 177.6(7) . . . . ?
F12 C35 C36 C37 -178.7(8) . . . . ?
C34 C35 C36 C37 0.2(13) . . . . ?
F13 C36 C37 F14 1.6(13) . . . . ?
C35 C36 C37 F14 178.8(8) . . . . ?
F13 C36 C37 C38 -178.5(8) . . . . ?
C35 C36 C37 C38 -1.2(14) . . . . ?
C36 C37 C38 F15 179.2(8) . . . . ?
F14 C37 C38 F15 -0.9(12) . . . . ?
C36 C37 C38 C33 0.9(14) . . . . ?
F14 C37 C38 C33 -179.2(8) . . . . ?
C34 C33 C38 F15 -177.8(7) . . . . ?
C14 C33 C38 F15 2.1(12) . . . . ?
C34 C33 C38 C37 0.4(12) . . . . ?
C14 C33 C38 C37 -179.7(8) . . . . ?
C53 C39 C40 C41 -0.5(13) . . . . ?
C42 N6 C41 C40 176.6(8) . . . . ?
C58 N6 C41 C40 -2.1(12) . . . . ?
C42 N6 C41 C54 -2.9(12) . . . . ?
C58 N6 C41 C54 178.3(7) . . . . ?
C39 C40 C41 N6 177.6(7) . . . . ?
C39 C40 C41 C54 -2.8(13) . . . . ?
C41 N6 C42 C43 -179.9(7) . . . . ?
C58 N6 C42 C43 -1.2(11) . . . . ?
C41 N6 C42 C55 -0.5(11) . . . . ?
C58 N6 C42 C55 178.2(6) . . . . ?
C46 C55 C42 N6 -177.4(7) . . . . ?
C57 C55 C42 N6 2.9(11) . . . . ?
C46 C55 C42 C43 2.0(11) . . . . ?
C57 C55 C42 C43 -177.6(7) . . . . ?
C45 C44 C43 C42 -2.8(13) . . . . ?
N6 C42 C43 C44 -179.8(8) . . . . ?
C55 C42 C43 C44 0.8(11) . . . . ?
C43 C44 C45 C46 1.8(13) . . . . ?
C47 N5 C46 C55 7.5(11) . . . . ?
C61 N5 C46 C55 -178.1(7) . . . . ?
C47 N5 C46 C45 -171.3(7) . . . . ?
C61 N5 C46 C45 3.2(11) . . . . ?
C57 C55 C46 N5 -2.1(11) . . . . ?
C42 C55 C46 N5 178.3(7) . . . . ?
C57 C55 C46 C45 176.6(7) . . . . ?
C42 C55 C46 C45 -3.0(11) . . . . ?
C44 C45 C46 N5 179.9(7) . . . . ?
C44 C45 C46 C55 1.2(11) . . . . ?
C46 N5 C47 C48 173.3(7) . . . . ?
C61 N5 C47 C48 -1.2(11) . . . . ?
C46 N5 C47 C56 -7.3(11) . . . . ?
C61 N5 C47 C56 178.3(7) . . . . ?
N5 C47 C48 C49 -177.7(7) . . . . ?
C56 C47 C48 C49 2.9(11) . . . . ?
C47 C48 C49 C50 -3.2(13) . . . . ?
C48 C49 C50 C51 0.2(13) . . . . ?
C49 C50 C51 N7 -176.2(8) . . . . ?
C49 C50 C51 C56 3.1(12) . . . . ?
C52 N7 C51 C50 -176.2(7) . . . . ?
C64 N7 C51 C50 0.5(12) . . . . ?
C52 N7 C51 C56 4.5(12) . . . . ?
C64 N7 C51 C56 -178.8(7) . . . . ?
C51 N7 C52 C53 179.8(8) . . . . ?
C64 N7 C52 C53 3.1(12) . . . . ?
C51 N7 C52 C54 -1.5(12) . . . . ?
C64 N7 C52 C54 -178.2(7) . . . . ?
N7 C52 C53 C39 177.3(7) . . . . ?
C54 C52 C53 C39 -1.4(12) . . . . ?
C40 C39 C53 C52 2.6(13) . . . . ?
N6 C41 C54 C57 4.1(12) . . . . ?
C40 C41 C54 C57 -175.5(8) . . . . ?
N6 C41 C54 C52 -176.4(7) . . . . ?
C40 C41 C54 C52 4.0(12) . . . . ?
C56 C57 C54 C41 -180.0(7) . . . . ?
C55 C57 C54 C41 -1.7(12) . . . . ?
C56 C57 C54 C52 0.5(12) . . . . ?
C55 C57 C54 C52 178.8(7) . . . . ?
C53 C52 C54 C41 -1.8(12) . . . . ?
N7 C52 C54 C41 179.4(7) . . . . ?
C53 C52 C54 C57 177.7(8) . . . . ?
N7 C52 C54 C57 -1.1(11) . . . . ?
C55 C57 C56 C51 -175.8(7) . . . . ?
C54 C57 C56 C51 2.5(12) . . . . ?
C55 C57 C56 C47 3.3(11) . . . . ?
C54 C57 C56 C47 -178.4(7) . . . . ?
C50 C51 C56 C57 175.7(7) . . . . ?
N7 C51 C56 C57 -4.9(12) . . . . ?
C50 C51 C56 C47 -3.3(12) . . . . ?
N7 C51 C56 C47 176.0(7) . . . . ?
N5 C47 C56 C57 1.7(11) . . . . ?
C48 C47 C56 C57 -178.7(7) . . . . ?
N5 C47 C56 C51 -179.2(7) . . . . ?
C48 C47 C56 C51 0.3(12) . . . . ?
C41 N6 C58 C59 96.2(9) . . . . ?
C42 N6 C58 C59 -82.6(9) . . . . ?
N6 C58 C59 C60 169.9(8) . . . . ?
C47 N5 C61 C62 87.3(9) . . . . ?
C46 N5 C61 C62 -87.3(9) . . . . ?
N5 C61 C62 C63 174.6(7) . . . . ?
C52 N7 C64 C65 90.4(9) . . . . ?
C51 N7 C64 C65 -86.4(10) . . . . ?
N7 C64 C65 C66 166.9(8) . . . . ?
