#------------------------------------------------------------------------------
#$Date: 2021-06-15 04:02:23 +0300 (Tue, 15 Jun 2021) $
#$Revision: 266448 $
#$URL: file:///home/coder/svn-repositories/cod/cif/1/56/34/1563421.cif $
#------------------------------------------------------------------------------
#
# This file is available in the Crystallography Open Database (COD),
# http://www.crystallography.net/
#
# All data on this site have been placed in the public domain by the
# contributors.
#
data_1563421
loop_
_publ_author_name
'Sasano, Yoshifumi'
'Maeda, Hiromitsu'
'Tanaka, Hiroki'
'Haketa, Yohei'
'Kobayashi, Yoichi'
'Ishibashi, Yukihide'
'Asahi, Tsuyoshi'
'Morimoto, Tatsuki'
'Yasuda, Nobuhiro'
'Sato, Ryuma'
'Shigeta, Yasuteru'
_publ_section_title
;
 Ion-pairing&#x00A0;\p-electronic systems: ordered arrangement and
 noncovalent interactions of negatively charged porphyrins
;
_journal_name_full               'Chemical Science'
_journal_paper_doi               10.1039/D1SC02260A
_journal_year                    2021
_chemical_formula_moiety         'C38 H8 F15 N4 O Pt, C16 H36 N'
_chemical_formula_sum            'C54 H44 F15 N5 O Pt'
_chemical_formula_weight         1259.03
_space_group_crystal_system      orthorhombic
_space_group_IT_number           19
_space_group_name_Hall           'P 2ac 2ab'
_space_group_name_H-M_alt        'P 21 21 21'
_atom_sites_solution_hydrogens   geom
_audit_creation_method           SHELXL-2016/4
_audit_update_record
;
2019-03-30 deposited with the CCDC.	2021-06-14 downloaded from the CCDC.
;
_cell_angle_alpha                90
_cell_angle_beta                 90
_cell_angle_gamma                90
_cell_formula_units_Z            4
_cell_length_a                   8.1911(16)
_cell_length_b                   22.065(4)
_cell_length_c                   25.559(5)
_cell_measurement_reflns_used    25047
_cell_measurement_temperature    90(2)
_cell_measurement_theta_max      27.498
_cell_measurement_theta_min      1.343
_cell_volume                     4619.4(15)
_computing_cell_refinement       'Rapid Auto(Rigaku)'
_computing_data_collection       'Rapid Auto(Rigaku)'
_computing_data_reduction        'Rapid Auto(Rigaku)'
_computing_structure_refinement  'SHELXL-2016/4 (Sheldrick, 2016)'
_computing_structure_solution    'SHELXS-97 (Sheldrick, 1990)'
_diffrn_ambient_temperature      90(2)
_diffrn_detector_area_resol_mean 29
_diffrn_measured_fraction_theta_full 0.997
_diffrn_measured_fraction_theta_max 0.997
_diffrn_measurement_device_type  'Rigaku Saturn 724'
_diffrn_measurement_method       'Oscillation Photograph'
_diffrn_radiation_monochromator  'Si(111) Channel Cut'
_diffrn_radiation_type           Synchrotron
_diffrn_radiation_wavelength     0.7829
_diffrn_reflns_av_R_equivalents  0.0876
_diffrn_reflns_av_unetI/netI     0.0922
_diffrn_reflns_Laue_measured_fraction_full 0.997
_diffrn_reflns_Laue_measured_fraction_max 0.997
_diffrn_reflns_limit_h_max       9
_diffrn_reflns_limit_h_min       -8
_diffrn_reflns_limit_k_max       26
_diffrn_reflns_limit_k_min       -26
_diffrn_reflns_limit_l_max       30
_diffrn_reflns_limit_l_min       -28
_diffrn_reflns_number            25047
_diffrn_reflns_point_group_measured_fraction_full 0.998
_diffrn_reflns_point_group_measured_fraction_max 0.998
_diffrn_reflns_theta_full        27.498
_diffrn_reflns_theta_max         27.498
_diffrn_reflns_theta_min         1.343
_diffrn_source                   'synchrotron radiation SPring-8 BL40XU'
_exptl_absorpt_coefficient_mu    4.001
_exptl_absorpt_correction_T_max  1.000
_exptl_absorpt_correction_T_min  0.650
_exptl_absorpt_correction_type   multi-scan
_exptl_absorpt_process_details   'ABSCOR (T.Higashi, 2001)'
_exptl_crystal_colour            green
_exptl_crystal_density_diffrn    1.810
_exptl_crystal_density_meas      ?
_exptl_crystal_description       prism
_exptl_crystal_F_000             2496
_exptl_crystal_size_max          0.170
_exptl_crystal_size_mid          0.010
_exptl_crystal_size_min          0.010
_refine_diff_density_max         6.392
_refine_diff_density_min         -2.545
_refine_diff_density_rms         0.228
_refine_ls_abs_structure_details
;
 Refined as an inversion twin.
;
_refine_ls_abs_structure_Flack   0.472(17)
_refine_ls_extinction_coef       0.0016(2)
_refine_ls_extinction_expression Fc^*^=kFc[1+0.001xFc^2^\l^3^/sin(2\q)]^-1/4^
_refine_ls_extinction_method     'SHELXL-2016/4 (Sheldrick 2016)'
_refine_ls_goodness_of_fit_ref   1.127
_refine_ls_hydrogen_treatment    constr
_refine_ls_matrix_type           full
_refine_ls_number_parameters     529
_refine_ls_number_reflns         7915
_refine_ls_number_restraints     0
_refine_ls_restrained_S_all      1.127
_refine_ls_R_factor_all          0.0846
_refine_ls_R_factor_gt           0.0636
_refine_ls_shift/su_max          0.001
_refine_ls_shift/su_mean         0.000
_refine_ls_structure_factor_coef Fsqd
_refine_ls_weighting_details
'w=1/[\s^2^(Fo^2^)+(0.0270P)^2^+73.2969P] where P=(Fo^2^+2Fc^2^)/3'
_refine_ls_weighting_scheme      calc
_refine_ls_wR_factor_gt          0.1351
_refine_ls_wR_factor_ref         0.1609
_reflns_Friedel_coverage         0.777
_reflns_Friedel_fraction_full    0.999
_reflns_Friedel_fraction_max     0.999
_reflns_number_gt                6753
_reflns_number_total             7915
_reflns_threshold_expression     'I > 2\s(I)'
_cod_data_source_file            d1sc02260a2.cif
_cod_data_source_block           171217_ys7-1_180906
_cod_depositor_comments
;
The following automatic conversions were performed:

data item '_exptl_crystal_density_meas' value 'not measured' was
changed to '?' -- the value is perceived as not measured.

Automatic conversion script
Id: cif_fix_values 7556 2019-12-06 15:28:31Z antanas 
;
_cod_original_cell_volume        4619.5(16)
_cod_database_code               1563421
_shelx_shelxl_version_number     2016/4
_shelx_space_group_comment
;
The symmetry employed for this shelxl refinement is uniquely defined
by the following loop, which should always be used as a source of
symmetry information in preference to the above space-group names.
They are only intended as comments.
;
_shelx_res_file
;
TITL ydkr_a.res in P2(1)2(1)2(1)
 shelxl.res created by SHELXL-2016/4 at 22:00:17 on 19-Feb-2018
REM  Yadorkari-X generated
CELL 0.78290 8.1911 22.0655 25.5588 90.0000 90.0000 90.0000
ZERR 4.0 0.0016 0.0043 0.0050 0.0000 0.0000 0.0000
LATT -1
SYMM 1/2-X, -Y, 1/2+Z
SYMM 1/2+X, 1/2-Y, -Z
SYMM -X, 1/2+Y, 1/2-Z
REM  SPGR P212121 orthorhombic
SFAC C H F N O Pt
DISP    C     0.00410    0.00202        13.91
DISP    H     0.00000    0.00000         0.67
DISP    F     0.02154    0.01274        66.23
DISP    N     0.00781    0.00412        24.54
DISP    O     0.01353    0.00754        41.29
DISP    Pt   -2.71692    9.81296     44272.43
UNIT 216 176 60 20 4 4
TEMP -183.0
L.S. 10
FMAP 2
PLAN -20
ACTA
CONF
LIST 4
BOND $H
OMIT -10.000000 55.000000
OMIT    8    8   12
OMIT   -8    8   12
OMIT    9    2    5
OMIT   -9    2    5
OMIT    1    1    0
OMIT    4    2    0
OMIT    1    0    7
OMIT    1    0    1

EADP C39 C47 C48 C49
EADP C52 N5 C43
EADP C43 C44 C45
EADP C52 C51 N5
EADP C11 C12 C13
EADP C17 C18 C19
EADP C8 C9 C10
EADP N1 N2 N3 N4
EADP C6 C7 C8
EADP C1 C2 C3
twin

WGHT    0.027000   73.296890
EXTI    0.001556
BASF   0.47168
FVAR       1.16071
C1    1    0.551228    0.507126    0.214093    11.00000    0.03314    0.01748 =
         0.02574   -0.00052    0.00275    0.00027
C2    1    0.594962    0.510928    0.267024    11.00000    0.03314    0.01748 =
         0.02574   -0.00052    0.00275    0.00027
C3    1    0.641700    0.562586    0.291064    11.00000    0.03314    0.01748 =
         0.02574   -0.00052    0.00275    0.00027
AFIX  43
H1    2    0.658056    0.600780    0.274730    11.00000   -1.20000
AFIX   0
C4    1    0.661067    0.550296    0.342481    11.00000    0.04603    0.01753 =
         0.02374    0.00489   -0.00843   -0.00184
AFIX  43
H2    2    0.691084    0.578028    0.369236    11.00000   -1.20000
AFIX   0
C5    1    0.627741    0.488039    0.348385    11.00000    0.03188    0.02394 =
         0.02327   -0.00402   -0.00302    0.00353
C6    1    0.622716    0.457038    0.394356    11.00000    0.03383    0.01905 =
         0.01938    0.00307   -0.00205    0.00122
C7    1    0.592118    0.397494    0.401651    11.00000    0.03383    0.01905 =
         0.01938    0.00307   -0.00205    0.00122
C8    1    0.582793    0.368088    0.448218    11.00000    0.03383    0.01905 =
         0.01938    0.00307   -0.00205    0.00122
AFIX  43
H3    2    0.580857    0.386181    0.481940    11.00000   -1.20000
AFIX   0
C9    1    0.576853    0.308771    0.437551    11.00000    0.03383    0.01905 =
         0.01938    0.00307   -0.00205    0.00122
AFIX  43
H4    2    0.573175    0.276729    0.462349    11.00000   -1.20000
AFIX   0
C10   1    0.577070    0.302711    0.382835    11.00000    0.03383    0.01905 =
         0.01938    0.00307   -0.00205    0.00122
C11   1    0.562670    0.248965    0.355929    11.00000    0.02850    0.01293 =
         0.02555    0.00139    0.00177    0.00279
C12   1    0.564771    0.242907    0.303435    11.00000    0.02850    0.01293 =
         0.02555    0.00139    0.00177    0.00279
C13   1    0.568852    0.188419    0.275668    11.00000    0.02850    0.01293 =
         0.02555    0.00139    0.00177    0.00279
AFIX  43
H5    2    0.568622    0.148908    0.290432    11.00000   -1.20000
AFIX   0
C14   1    0.573045    0.201375    0.225774    11.00000    0.03255    0.01897 =
         0.03098   -0.00594   -0.00620   -0.00079
AFIX  43
H6    2    0.576138    0.172910    0.197905    11.00000   -1.20000
AFIX   0
C15   1    0.572197    0.263239    0.220705    11.00000    0.03237    0.02311 =
         0.01107    0.00242   -0.00770    0.00048
C16   1    0.557223    0.295237    0.176034    11.00000    0.03079    0.01725 =
         0.02672   -0.00536    0.00024   -0.00504
C17   1    0.542890    0.355641    0.170934    11.00000    0.05687    0.01939 =
         0.02598    0.00745   -0.00409   -0.00128
C18   1    0.495700    0.387019    0.123823    11.00000    0.05687    0.01939 =
         0.02598    0.00745   -0.00409   -0.00128
AFIX  43
H7    2    0.470818    0.369568    0.090793    11.00000   -1.20000
AFIX   0
C19   1    0.494308    0.446013    0.136422    11.00000    0.05687    0.01939 =
         0.02598    0.00745   -0.00409   -0.00128
AFIX  43
H8    2    0.473300    0.478513    0.112991    11.00000   -1.20000
AFIX   0
C20   1    0.528247    0.451650    0.188747    11.00000    0.04868    0.01020 =
         0.02413    0.00094    0.00743    0.00120
AFIX  66
C21   1    0.633626    0.494076    0.441836    11.00000    0.06236    0.00687 =
         0.02093   -0.00280   -0.02054    0.00057
C22   1    0.493553    0.505725    0.470841    11.00000    0.06772    0.02046 =
         0.02556    0.00238    0.01006    0.01538
C23   1    0.502130    0.541991    0.515224    11.00000    0.04921    0.03757 =
         0.03057    0.00805    0.02899    0.01379
C24   1    0.650781    0.566606    0.530602    11.00000    0.05363    0.02254 =
         0.04689   -0.01190   -0.00656    0.00789
C25   1    0.790855    0.554957    0.501597    11.00000    0.03714    0.03185 =
         0.04253   -0.00243   -0.00442   -0.01158
C26   1    0.782280    0.518692    0.457214    11.00000    0.05254    0.02312 =
         0.01896   -0.00173   -0.01063   -0.00080
AFIX  66
C27   1    0.566063    0.192476    0.386437    11.00000    0.03481    0.02122 =
         0.01584   -0.00150    0.00331    0.00496
C28   1    0.419543    0.163504    0.397710    11.00000    0.06205    0.02465 =
         0.02778    0.00253    0.02333    0.01188
C29   1    0.419481    0.110173    0.426655    11.00000    0.04176    0.03383 =
         0.02682    0.00200    0.00360   -0.01402
C30   1    0.565939    0.085815    0.444328    11.00000    0.07191    0.01922 =
         0.02095    0.00245    0.00706   -0.01575
C31   1    0.712460    0.114786    0.433056    11.00000    0.10175    0.02030 =
         0.03213   -0.00508   -0.03340    0.00602
C32   1    0.712525    0.168117    0.404110    11.00000    0.05069    0.02676 =
         0.03564    0.00782   -0.01413   -0.00005
AFIX  66
C33   1    0.565098    0.260278    0.126678    11.00000    0.04562    0.02627 =
         0.01686   -0.00273    0.00459   -0.00004
C34   1    0.428305    0.233189    0.104569    11.00000    0.03752    0.02779 =
         0.04233   -0.00799    0.00230   -0.01285
C35   1    0.441473    0.202678    0.057177    11.00000    0.07656    0.03178 =
         0.02572   -0.00315   -0.01269   -0.01684
C36   1    0.591434    0.199256    0.031894    11.00000    0.07142    0.03250 =
         0.02853   -0.00975   -0.00882   -0.01517
C37   1    0.728227    0.226344    0.054003    11.00000    0.05925    0.03584 =
         0.03228    0.01444    0.02173    0.02214
C38   1    0.715061    0.256856    0.101395    11.00000    0.04237    0.02098 =
         0.03375   -0.00450    0.00337    0.00755
AFIX   0
C39   1    0.191928    0.461034    0.284421    11.00000    0.05055    0.04175 =
         0.05002   -0.01087   -0.01383   -0.01048
AFIX  23
H9    2    0.241033    0.481060    0.253538    11.00000   -1.20000
H10   2    0.281059    0.440845    0.303930    11.00000   -1.20000
AFIX   0
C40   1    0.116224    0.509206    0.319250    11.00000    0.03673    0.03176 =
         0.08749   -0.01759    0.00517   -0.00696
AFIX  23
H11   2    0.016064    0.525227    0.302557    11.00000   -1.20000
H12   2    0.085357    0.491047    0.353260    11.00000   -1.20000
AFIX   0
C41   1    0.230791    0.558156    0.327763    11.00000    0.08054    0.05113 =
         0.06251   -0.01891    0.01956   -0.03516
AFIX  23
H13   2    0.241785    0.581959    0.295119    11.00000   -1.20000
H14   2    0.339202    0.540939    0.336264    11.00000   -1.20000
AFIX   0
C42   1    0.179233    0.598611    0.370361    11.00000    0.10006    0.03727 =
         0.04103   -0.01147    0.01637   -0.02071
AFIX 137
H33   2    0.072837    0.616357    0.361828    11.00000   -1.50000
H34   2    0.259911    0.631018    0.374706    11.00000   -1.50000
H35   2    0.170575    0.575429    0.402948    11.00000   -1.50000
AFIX   0
C43   1   -0.050725    0.439257    0.229535    11.00000    0.03230    0.03641 =
         0.04645   -0.00115   -0.00107   -0.00497
AFIX  23
H15   2   -0.104037    0.474686    0.246054    11.00000   -1.20000
H16   2   -0.135541    0.408133    0.223251    11.00000   -1.20000
AFIX   0
C44   1    0.022812    0.458347    0.177574    11.00000    0.03230    0.03641 =
         0.04645   -0.00115   -0.00107   -0.00497
AFIX  23
H17   2    0.026621    0.422846    0.153920    11.00000   -1.20000
H18   2    0.136326    0.472206    0.183383    11.00000   -1.20000
AFIX   0
C45   1   -0.073533    0.508824    0.151390    11.00000    0.03230    0.03641 =
         0.04645   -0.00115   -0.00107   -0.00497
AFIX  23
H19   2   -0.191722    0.499606    0.152912    11.00000   -1.20000
H20   2   -0.041329    0.512199    0.114170    11.00000   -1.20000
AFIX   0
C46   1   -0.039073    0.568264    0.179529    11.00000    0.11370    0.06398 =
         0.04066   -0.00722    0.01666   -0.01337
AFIX 137
H36   2   -0.105183    0.570465    0.211430    11.00000   -1.50000
H37   2   -0.066774    0.602272    0.156521    11.00000   -1.50000
H38   2    0.076925    0.570321    0.188751    11.00000   -1.50000
AFIX   0
C47   1    0.178531    0.368435    0.240211    11.00000    0.05055    0.04175 =
         0.05002   -0.01087   -0.01383   -0.01048
AFIX  23
H21   2    0.260929    0.353348    0.265377    11.00000   -1.20000
H22   2    0.237248    0.387511    0.210630    11.00000   -1.20000
AFIX   0
C48   1    0.072292    0.312166    0.218760    11.00000    0.05055    0.04175 =
         0.05002   -0.01087   -0.01383   -0.01048
AFIX  23
H23   2   -0.045393    0.321954    0.221303    11.00000   -1.20000
H24   2    0.098641    0.304842    0.181491    11.00000   -1.20000
AFIX   0
C49   1    0.107911    0.256519    0.249823    11.00000    0.05055    0.04175 =
         0.05002   -0.01087   -0.01383   -0.01048
AFIX  23
H25   2    0.066111    0.261549    0.285906    11.00000   -1.20000
H26   2    0.227416    0.250193    0.251746    11.00000   -1.20000
AFIX   0
C50   1    0.029152    0.202677    0.224965    11.00000    0.05964    0.02779 =
         0.09270    0.00045    0.00161   -0.00503
AFIX 137
H39   2   -0.088899    0.209343    0.222570    11.00000   -1.50000
H40   2    0.050581    0.166578    0.246219    11.00000   -1.50000
H41   2    0.074102    0.196787    0.189797    11.00000   -1.50000
AFIX   0
C51   1   -0.008103    0.387214    0.311456    11.00000    0.03230    0.03641 =
         0.04645   -0.00115   -0.00107   -0.00497
AFIX  23
H27   2   -0.077791    0.353608    0.298815    11.00000   -1.20000
H28   2   -0.081081    0.418204    0.326868    11.00000   -1.20000
AFIX   0
C52   1    0.099161    0.363532    0.353393    11.00000    0.03230    0.03641 =
         0.04645   -0.00115   -0.00107   -0.00497
AFIX  23
H29   2    0.166567    0.329964    0.339470    11.00000   -1.20000
H30   2    0.173516    0.396029    0.365451    11.00000   -1.20000
AFIX   0
C53   1    0.000600    0.341432    0.397985    11.00000    0.04236    0.07018 =
         0.09209    0.05668    0.00080   -0.01341
AFIX  23
H31   2   -0.064502    0.375690    0.411781    11.00000   -1.20000
H32   2   -0.076945    0.310540    0.384892    11.00000   -1.20000
AFIX   0
C54   1    0.093312    0.315271    0.440821    11.00000    0.07831    0.04115 =
         0.05150    0.00890   -0.01613    0.01628
AFIX 137
H42   2    0.115063    0.272442    0.433443    11.00000   -1.50000
H43   2    0.030461    0.318714    0.473312    11.00000   -1.50000
H44   2    0.196981    0.337000    0.444619    11.00000   -1.50000
AFIX   0
N1    4    0.594436    0.463991    0.300812    11.00000    0.01598    0.01698 =
         0.02892   -0.00167    0.00001    0.00127
N2    4    0.580642    0.358254    0.360670    11.00000    0.01598    0.01698 =
         0.02892   -0.00167    0.00001    0.00127
N3    4    0.567676    0.289119    0.268871    11.00000    0.01598    0.01698 =
         0.02892   -0.00167    0.00001    0.00127
N4    4    0.551830    0.396119    0.210101    11.00000    0.01598    0.01698 =
         0.02892   -0.00167    0.00001    0.00127
N5    4    0.075298    0.414229    0.266096    11.00000    0.03230    0.03641 =
         0.04645   -0.00115   -0.00107   -0.00497
O1    5    0.528286    0.554324    0.189197    11.00000    0.07079    0.01868 =
         0.02142    0.00536   -0.00615    0.00763
F1    3    0.355918    0.485056    0.457473    11.00000    0.04013    0.04387 =
         0.04791    0.00320   -0.00288    0.00111
F2    3    0.374696    0.552671    0.542467    11.00000    0.06683    0.04373 =
         0.03463   -0.00061    0.01001    0.00219
F3    3    0.655262    0.601071    0.569610    11.00000    0.06890    0.04298 =
         0.03266   -0.00933   -0.00242   -0.00374
F4    3    0.925562    0.579582    0.512840    11.00000    0.06743    0.03776 =
         0.04011   -0.00607   -0.00507   -0.02356
F5    3    0.912044    0.506871    0.431584    11.00000    0.04672    0.04236 =
         0.03611   -0.00249   -0.00207   -0.01574
F6    3    0.283245    0.184345    0.381413    11.00000    0.04132    0.03382 =
         0.08171    0.01296    0.00418    0.00427
F7    3    0.287345    0.083388    0.436789    11.00000    0.07645    0.03873 =
         0.05583    0.00752    0.02713   -0.02224
F8    3    0.565001    0.037386    0.471467    11.00000    0.10051    0.02841 =
         0.02899    0.01049   -0.01074   -0.00251
F9    3    0.851205    0.091442    0.448188    11.00000    0.06463    0.02267 =
         0.09741    0.01838   -0.04063   -0.00489
F10   3    0.845994    0.192900    0.393116    11.00000    0.04172    0.02930 =
         0.09671    0.01538   -0.02357   -0.00314
F11   3    0.293071    0.235932    0.127168    11.00000    0.04610    0.06647 =
         0.04860   -0.02317    0.01321   -0.02161
F12   3    0.316141    0.177633    0.037836    11.00000    0.08344    0.06552 =
         0.05790   -0.02840   -0.00523   -0.03605
F13   3    0.604013    0.170830   -0.011511    11.00000    0.09387    0.05214 =
         0.03421   -0.01798    0.01152   -0.01825
F14   3    0.867472    0.220706    0.031654    11.00000    0.06490    0.06931 =
         0.04159   -0.01023    0.03047    0.00279
F15   3    0.844015    0.281251    0.120373    11.00000    0.03616    0.04700 =
         0.03361   -0.00021    0.00217    0.00336
PT1   6    0.574653    0.376681    0.285580    11.00000    0.02473    0.01298 =
         0.02006    0.00292   -0.00029   -0.00155

HKLF 4 1 1 0 0 0 1 0 0 0 1




REM  ydkr_a.res in P2(1)2(1)2(1)
REM R1 =  0.0636 for    6753 Fo > 4sig(Fo)  and  0.0846 for all    7915 data
REM    529 parameters refined using      0 restraints

END

WGHT      0.0270     73.3156

REM Highest difference peak  6.392,  deepest hole -2.545,  1-sigma level  0.228
Q1    1   0.2775  0.3825  0.2840  11.00000  0.05    6.39
Q2    1   0.7371  0.3590  0.2178  11.00000  0.05    1.83
Q3    1   0.2584  0.3830  0.1476  11.00000  0.05    1.79
Q4    1   0.4072  0.3806  0.2628  11.00000  0.05    1.77
Q5    1   0.4063  0.3677  0.2887  11.00000  0.05    1.72
Q6    1  -0.1319  0.3822  0.2801  11.00000  0.05    1.60
Q7    1   0.4196  0.3803  0.2119  11.00000  0.05    1.41
Q8    1   0.3144  0.3776  0.2405  11.00000  0.05    1.32
Q9    1   0.0814  0.3756  0.2350  11.00000  0.05    1.32
Q10   1   0.7462  0.3846  0.2848  11.00000  0.05    1.32
Q11   1   0.2976  0.3818  0.3299  11.00000  0.05    1.29
Q12   1   0.4910  0.3691  0.3316  11.00000  0.05    1.20
Q13   1   0.4957  0.3901  0.3301  11.00000  0.05    1.15
Q14   1   0.6182  0.3762  0.2851  11.00000  0.05    1.07
Q15   1   0.7648  0.3605  0.3528  11.00000  0.05    1.05
Q16   1   0.4651  0.3191  0.2839  11.00000  0.05    1.05
Q17   1   0.1700  0.3775  0.3085  11.00000  0.05    1.04
Q18   1   0.5330  0.3795  0.2853  11.00000  0.05    1.04
Q19   1   0.4999  0.3936  0.2392  11.00000  0.05    1.00
Q20   1   0.4064  0.3920  0.3557  11.00000  0.05    1.00
;
_shelx_res_checksum              15428
_shelx_hkl_file
;
   0   0  -1    9.75    5.76
   0   0  -1    6.60   12.32
   0   0   1   -2.61    4.64
   0   0   3    0.96   42.89
   0   0  -3    3.93   49.91
   0   0  -3   -2.11   26.23
   0   0   3   18.72   28.52
   0   0  -451231.20 3104.28
   0   0  -461412.70 3644.70
   0   0   458161.90 3452.17
   0   0   453819.50 3324.13
   0   0   5   -1.93  101.19
   0   0  -5   16.63   90.46
   0   0  -5   -1.58   79.23
   0   0   5   95.45   88.56
   0   0   632967.10 1993.26
   0   0  -633284.40 2001.46
   0   0  -628842.30 1776.82
   0   0   630828.90 2008.31
   0   0  -7   28.95  111.07
   0   0  -7   35.44  100.64
   0   0   7   -3.66  126.44
   0   0   7   96.03  102.70
   0   0   812110.90  987.30
   0   0   811468.30  795.98
   0   0  -812424.80  883.27
   0   0   9   45.08  109.64
   0   0   9   56.86  149.63
   0   0  -9   87.39  123.89
   0   0 -1010672.70  826.68
   0   0  1010894.30  689.33
   0   0  10 8565.20  521.57
   0   0  11 -452.94  190.02
   0   0 -11  179.26  163.22
   0   0 -12229399.021542.10
   0   0  12218677.021090.40
   0   0  13   32.44  186.59
   0   0 -13   91.50  150.18
   0   0  1443535.10 3039.21
   0   0 -1446166.20 3306.90
   0   0 -15   34.32  214.28
   0   0  15  532.97  274.56
   0   0 -1629775.60 2187.61
   0   0  1627667.70 2402.97
   0   0  17   17.81  267.52
   0   0 -17  218.83  202.18
   0   0 -1846419.40 3611.46
   0   0  1847241.90 4147.30
   0   0 -19  -35.91  135.17
   0   0  19   -3.75  110.03
   0   0 -20 6193.86  793.74
   0   0  20 6653.79 1019.12
   0   0  21    2.93  113.14
   0   0 -21   21.81  141.60
   0   0 -22  592.96  349.95
   0   0  22  878.64  474.13
   0   0  23   89.15  305.51
   0   0  24 1774.81  753.28
   0   0  25 -143.94  373.81
   0   0  2616992.10 1687.27
   0   0  27  115.16  384.17
   0   0  2825314.60 3275.96
   0   0  29  132.87  254.82
   0  -1   0   15.80   17.33
   0  -1   0   -1.76    7.11
   0   1   0   37.46   12.97
   0   1   0    1.28   13.85
   0  -1   1  114.61   51.89
   0  -1   1  113.37   28.51
   0  -1  -1  178.70   28.70
   0  -1  -1  118.74   22.51
   0   1   1  129.70   51.42
   0   1  -1  155.38   32.72
   0   1  -1   16.92   34.39
   0  -1   2 9443.18  399.40
   0  -1   2 9415.77  487.55
   0   1  -2 9873.61  547.63
   0   1  -2 9285.22  330.28
   0  -1  -2 9972.27  386.16
   0  -1  -2 8555.84  361.33
   0   1   2 8255.10  365.06
   0  -1   352220.20 2873.11
   0   1   347862.70 2676.95
   0   1   446645.30 2955.69
   0   1  -446439.50 2657.43
   0   1   447058.20 2500.35
   0  -1   447315.50 2903.96
   0   1  -450366.00 2859.30
   0  -1  -442942.20 2670.87
   0  -1   446474.90 2699.34
   0  -1  -5 1126.25  166.68
   0  -1  -5 1312.44  233.57
   0   1   5 1398.18  154.14
   0   1   5 1301.99  302.23
   0   1  -5 1074.15  322.75
   0  -1   5 1116.12  133.86
   0   1  -5 1226.59  115.16
   0  -1   5 1073.49  259.61
   0   1  -630563.50 1828.57
   0   1  -634158.90 2251.96
   0  -1   630792.80 1938.08
   0   1   632685.80 1876.98
   0  -1   632490.80 2073.95
   0  -1  -632893.70 1852.31
   0  -1  -629260.70 1657.55
   0   1   632984.80 1820.05
   0  -1   798845.80 7362.29
   0   1  -797728.00 6869.59
   0  -1  -795730.90 7222.16
   0  -1   796821.40 7353.01
   0   1   7104193.0 7397.53
   0   1  -7104312.0 7902.26
   0   1   7102655.0 7935.31
   0  -1   844507.30 3054.72
   0   1   848920.30 3045.24
   0   1   844608.60 3238.66
   0  -1  -848720.90 3001.82
   0   1  -845156.10 2920.77
   0  -1   844970.40 3065.86
   0   1  -849104.20 3388.74
   0   1  -917786.00 1318.40
   0  -1  -918308.60 1117.20
   0  -1   916785.70 1229.35
   0   1   917372.40 1110.75
   0   1   916180.00 1024.03
   0   1  1026969.80 1718.92
   0   1  1028564.30 1833.08
   0  -1 -1028960.00 1793.66
   0  -1  1027805.00 1972.06
   0   1 -1030251.30 2107.58
   0  -1 -11 4654.03  465.16
   0  -1  11 5179.84  578.47
   0   1  11 4178.56  647.03
   0   1 -11 4213.81  592.40
   0   1  11 3729.57  408.46
   0   1 -1229288.20 2161.75
   0   1  1227769.00 2229.67
   0  -1  1228999.90 2149.66
   0  -1 -1228050.00 1857.75
   0   1 -13 3521.09  340.28
   0  -1  13 3304.63  359.25
   0   1  13 3310.94  391.40
   0  -1 -13 3737.05  427.38
   0   1  14  343.04  246.31
   0  -1  14  412.72  220.50
   0  -1 -14   90.09  165.96
   0   1 -14  137.03  121.91
   0   1  15 4517.03  649.36
   0  -1 -15 3584.66  452.57
   0   1 -15 2874.78  557.43
   0  -1  15 3960.11  611.16
   0   1  16  207.96  189.37
   0   1 -16  347.67  266.44
   0  -1 -16  636.33  213.64
   0  -1  16  593.28  302.91
   0  -1  17 9491.80  800.01
   0   1  1710355.80 1225.85
   0   1 -1710799.30 1040.96
   0  -1 -17 9055.00  847.40
   0  -1 -1842429.00 2830.05
   0   1  1840632.40 3085.53
   0  -1  1840060.70 3582.67
   0   1 -1841463.60 3384.63
   0  -1 -1927445.00 2154.07
   0   1 -1926858.90 1882.02
   0  -1  1928001.90 2591.67
   0   1  1926776.10 2617.59
   0  -1  2011126.10  962.98
   0   1 -20 9693.70 1125.49
   0  -1 -2010460.80 1017.31
   0   1  20 9659.71  937.16
   0   1  21 6199.83 1070.20
   0   1 -21 5390.55  858.41
   0  -1 -21 5781.13  764.88
   0  -1  21 5064.84  995.23
   0   1  2212333.40 1180.67
   0   1 -2212763.10 1395.24
   0  -1  2212865.60 1646.25
   0  -1  23 1443.77  411.15
   0   1  23 2109.10  723.67
   0   1 -23 2020.70  536.12
   0  -1  24 6398.82 1171.78
   0   1  24 5360.32  767.16
   0  -1  25 8499.38 1473.33
   0   1  25 9184.55 1571.14
   0  -1  26 2371.57  517.94
   0   1  26 2249.01  556.73
   0   1  27 1319.77  813.76
   0  -1  27 1864.75  788.82
   0   1  28  368.35  395.94
   0  -1  28 -146.08  365.22
   0  -1  29  -65.60  187.30
   0   1  29   10.66  192.96
   0   1  30  715.47  735.72
   0   2   0 9167.18  384.67
   0  -2   011213.10  509.84
   0  -2   010681.70  518.76
   0   2   0 9700.20  542.72
   0   2   2  934.09  118.05
   0  -2  -2 1205.87  179.58
   0  -2   2  865.77  128.41
   0  -2   2 1126.18  111.13
   0  -2  -2  923.93   82.96
   0   2   2  932.72   79.51
   0   2  -2 1140.59  124.45
   0   2  -2    1.50  225.59
   0  -2   436074.90 2071.76
   0   2   434567.90 2017.38
   0  -2   438048.00 2433.73
   0   2  -437641.10 2088.34
   0   2   437526.50 1911.48
   0   2   437048.60 1842.63
   0   2  -437513.80 2202.19
   0  -2  -434274.80 2200.31
   0   2   510101.40  459.16
   0   2  -510235.80  615.64
   0  -2  -5 9741.35  775.55
   0  -2  -510184.20  506.40
   0  -2   510447.80  610.48
   0   2  -511653.10 1063.29
   0   2   5 9726.02  909.99
   0  -2   510319.70  672.25
   0  -2   652674.60 3411.22
   0  -2  -655984.30 3778.08
   0  -2   655262.40 3806.56
   0   2   651047.50 2951.70
   0   2  -657622.80 4238.06
   0   2   657892.40 4076.14
   0   2  -654644.80 3421.75
   0  -2   7  573.52  243.60
   0   2   7  502.11  122.49
   0  -2  -7  764.62  143.17
   0   2   7  875.95  300.56
   0   2  -7  672.41  105.16
   0  -2   7  764.59  124.01
   0   2  -7 1046.69  194.82
   0   2   866716.70 4540.54
   0  -2  -875453.40 4788.73
   0   2   865904.70 5078.00
   0   2  -874228.40 5009.27
   0  -2   869025.90 4459.65
   0   2  -869876.90 4507.28
   0   2   9 4182.59  348.14
   0  -2  -9 5143.02  390.95
   0   2   9 4883.28  429.43
   0  -2   9 5043.41  543.51
   0   2  -9 5174.12  440.82
   0   2  10 4198.78  410.48
   0   2  10 2976.44  338.33
   0  -2 -10 4248.96  385.35
   0  -2  10 4241.63  344.56
   0   2 -10 3771.03  411.77
   0   2 -1150046.40 3429.47
   0  -2 -1153133.90 3656.93
   0   2  1150634.10 3472.60
   0  -2  1150145.10 3606.34
   0   2  1146557.10 3246.76
   0   2 -12 5110.10  455.85
   0   2  12 3535.12  546.48
   0  -2 -12 4886.60  450.46
   0   2  12 4371.78  455.94
   0  -2  12 4491.50  584.23
   0  -2  1347894.30 3570.81
   0  -2 -1348430.00 3243.96
   0   2 -1352375.30 3507.63
   0   2  1347273.40 3880.95
   0  -2 -14 3825.30  435.80
   0   2  14 2105.79  671.90
   0  -2  14 3748.78  564.29
   0   2 -14 2478.55  624.84
   0   2 -1578950.20 6387.48
   0  -2 -1579223.10 5815.52
   0  -2  1568723.40 5713.99
   0   2  1575823.10 6490.32
   0  -2  16  491.68  289.11
   0   2 -16  191.68  289.41
   0   2  16  344.57  198.70
   0  -2 -16  544.39  196.61
   0   2  1715846.00 1662.28
   0   2 -1715800.60 1487.75
   0  -2  1714262.70 1077.38
   0  -2 -1716043.60 1201.95
   0  -2 -18 3094.17  471.04
   0  -2  18 4168.85  694.55
   0   2 -18 3888.74  671.86
   0   2  18 3868.84  790.96
   0  -2  1911422.60 1367.52
   0   2 -1913021.20  997.47
   0   2  1912836.40 1091.50
   0  -2 -1913203.80 1114.01
   0   2  20  899.74  522.93
   0  -2 -20  796.15  313.94
   0   2 -20 1118.45  262.35
   0  -2  20  828.85  450.86
   0  -2  21  200.15  133.05
   0   2 -21  -68.70  201.55
   0  -2 -21 -122.39  153.57
   0   2  21   75.21  146.93
   0  -2  22  -73.44  139.72
   0   2  22  172.70  264.91
   0   2 -22  211.25  213.27
   0  -2  23 2431.70  658.06
   0   2  23 2241.80  729.38
   0   2 -23  785.90  591.90
   0   2 -24  -87.36  296.07
   0   2  24   -1.60  375.82
   0  -2  24 -354.88  341.35
   0   2  2519988.10 2738.18
   0  -2  2522326.00 1952.51
   0  -2  26  104.74  204.10
   0   2  26   33.97  367.83
   0  -2  2717347.40 2427.55
   0   2  2717565.90 2563.31
   0   2  28  106.19  492.76
   0  -2  28  303.64  447.32
   0   2  2916945.60 2750.71
   0   2  30 -191.16  513.76
   0   3   0   61.14   87.29
   0   3   0   48.02   98.24
   0  -3   0   15.61   41.40
   0  -3   0   42.32   42.76
   0  -3  -128998.00 1488.64
   0   3   129989.70 1579.14
   0   3  -129404.80 1534.57
   0  -3   130336.70 1747.69
   0  -3  -125277.70 1236.04
   0   3  -130151.20 1868.75
   0  -3   128571.50 1445.83
   0   3   129753.00 1564.16
   0   3  -2  -18.16  109.95
   0  -3   2  292.28  120.85
   0  -3  -2  256.87   77.78
   0  -3  -2  324.92  146.08
   0   3   2  151.02   84.14
   0  -3   2  188.72  155.91
   0   3   2  400.52  101.26
   0  -3  -322346.70 1050.60
   0   3   321134.60 1514.66
   0  -3   321593.40 1217.70
   0   3  -322208.70 1194.75
   0  -3   322210.20 1186.32
   0  -3  -319315.20 1068.44
   0   3  -322282.70 1293.44
   0   3   320566.20  987.72
   0  -3  -425057.80 1643.59
   0   3  -424129.20 1171.72
   0  -3  -423355.10 1203.54
   0   3   424749.60 1433.42
   0  -3   424209.40 1401.24
   0   3  -422611.10 1431.97
   0   3   424147.00 1150.01
   0  -3   423593.40 1344.61
   0  -3  -510699.60  612.35
   0  -3   5 9431.21  671.40
   0   3  -510149.80  484.19
   0   3   511263.10 1021.88
   0   3  -510123.60 1086.71
   0  -3   5 9410.49  605.16
   0   3   5 9695.20  503.35
   0   3   510190.50  484.10
   0   3   670700.00 4912.60
   0   3  -678191.10 5477.10
   0  -3   669997.70 4772.58
   0   3  -670443.80 4469.40
   0   3   671584.30 4377.77
   0  -3   668077.30 5104.23
   0   3  -7139338.011312.60
   0   3   7130713.010508.70
   0  -3  -8 2874.52  240.10
   0   3  -8 3266.60  591.93
   0   3  -8 3081.81  316.02
   0  -3   8 2776.71  368.45
   0   3   8 3525.87  553.38
   0   3   8 2753.90  270.69
   0  -3   916868.40 1151.22
   0   3  -918868.00 1579.67
   0  -3  -916651.10  877.87
   0   3   914914.70 1040.87
   0   3   914195.50  911.42
   0  -3 -1040587.20 2537.40
   0  -3  1040973.90 2754.64
   0   3  1043034.30 3302.06
   0   3  1032101.00 2012.28
   0   3 -1043208.80 3274.01
   0  -3  1129387.10 1722.86
   0   3 -1132116.90 2505.74
   0   3  1127188.90 2305.86
   0  -3 -1129086.60 1670.16
   0   3  1122226.00 1399.19
   0   3 -1211341.70 1230.83
   0  -3  1212431.00  989.42
   0  -3 -1212205.30  741.96
   0   3  12 8758.88  657.44
   0   3  1212757.90 1261.79
   0   3 -13 3142.18  582.23
   0  -3  13 3176.12  428.38
   0  -3 -13 2213.71  286.91
   0   3  13 2440.99  585.27
   0  -3 -14  823.35  189.01
   0  -3  14  580.43  169.17
   0   3 -14  656.10  362.21
   0   3  14  814.22  379.61
   0  -3  15  160.46  130.66
   0   3  15  361.77  286.32
   0  -3 -15  234.88  138.35
   0   3 -15  160.52  155.41
   0  -3  16 7137.06  573.55
   0   3 -16 7391.49  635.43
   0  -3 -16 6475.13  577.53
   0   3  16 8220.16 1075.36
   0   3 -17 6372.76  928.95
   0  -3  17 6376.14  570.08
   0   3  17 6796.91  693.35
   0  -3 -17 6937.31  598.54
   0   3  1817411.20 1872.11
   0  -3 -1815316.50 1158.75
   0   3 -1818172.60 1714.28
   0  -3  1815631.70 1175.74
   0   3 -1918279.30 1845.34
   0   3  1919942.80 2103.28
   0  -3  1916952.80 1302.78
   0  -3 -1917897.60 1345.61
   0  -3  20 3903.42  725.43
   0   3  20 3608.20  527.01
   0   3 -20 3179.89  734.54
   0  -3 -20 3030.72  455.06
   0   3  2114559.10 1893.18
   0  -3  2113446.90 1609.07
   0   3 -2115042.90 1672.49
   0  -3  2212465.20 1609.58
   0   3 -2213050.70 1613.03
   0   3  2213272.30 1864.96
   0  -3  2313812.80 1638.75
   0   3  2311727.60 1210.62
   0   3 -2311142.70 1060.98
   0   3  2410098.70 1796.97
   0  -3  2411665.80 1597.46
   0   3 -2411843.80 1093.71
   0   3  2513788.70 1490.73
   0  -3  2513798.90 1349.84
   0   3  26 5336.33 1326.00
   0  -3  26 4961.05 1177.37
   0  -3  27  498.62  599.38
   0   3  27 1118.07  692.68
   0   3  28  -20.26  320.80
   0   3  29 -301.46  555.42
   0   3  30   30.17  367.82
   0   4   0 6978.84  433.24
   0   4   0 6905.16  444.97
   0  -4   0 7290.97  558.91
   0  -4   0 6553.41  545.98
   0  -4  -1 5476.60  502.14
   0   4  -1 5111.16  631.34
   0  -4   1 4973.49  469.74
   0   4   1 5094.61  456.66
   0  -4   1 5286.58  333.40
   0   4   1 4671.87  375.04
   0  -4  -1 5514.34  420.20
   0   4  -1 5573.37  592.86
   0  -4   247661.10 2728.22
   0  -4   251967.40 3028.55
   0  -4  -247913.00 3131.81
   0  -4  -249353.20 2817.87
   0   4  -248712.70 3492.72
   0   4   245440.40 2792.09
   0   4   237460.90 2121.74
   0   4   3  704.24  182.27
   0   4  -3  773.15  209.54
   0  -4   3  468.69  261.00
   0   4  -3  972.90  140.27
   0  -4  -3  855.85  140.47
   0  -4   3  687.33  209.16
   0   4   3  534.18  142.03
   0   4  -417846.10 1172.44
   0  -4  -417433.00  993.84
   0  -4   418194.20 1301.68
   0   4  -417394.80 1024.33
   0  -4  -418260.50  999.39
   0   4   416906.20 1412.36
   0   4   416595.20  953.68
   0  -4   416484.30 1061.04
   0   4  -513983.80 1347.81
   0   4   512939.80 1188.47
   0   4  -513388.20  800.75
   0   4   512052.90  584.51
   0  -4   512825.50  838.31
   0  -4  -513281.50  627.97
   0   4  -615890.20 1529.41
   0   4   615087.90 1022.13
   0   4   615357.10  731.71
   0   4   615480.30  852.24
   0  -4   616245.10 1030.41
   0   4  -616163.00  796.28
   0   4   7 9444.51  567.98
   0  -4   7 9073.86  516.35
   0   4   7 9451.85  703.63
   0   4  -710185.70  794.82
   0   4   7 9167.20  449.61
   0   4  -810208.20  808.58
   0   4   8 9383.59  698.28
   0  -4   8 8657.25  508.40
   0   4   8 9275.38  477.94
   0   4   8 9055.76  510.93
   0  -4   9 2692.91  379.14
   0   4   9 2663.25  247.03
   0   4  -9 3272.45  396.11
   0   4   9 2711.43  212.87
   0   4   9 3160.19  591.35
   0   4 -1042516.10 2903.68
   0   4  1030969.30 1807.48
   0   4  1037406.10 2551.73
   0   4  1038698.10 2311.17
   0  -4  1036373.30 2477.58
   0   4 -1128970.40 1940.28
   0  -4  1128653.70 1908.94
   0   4  1120222.70 1220.33
   0  -4 -1128276.10 1561.94
   0   4  1128387.70 2387.97
   0   4  1212768.60  785.18
   0   4  1215699.80 1567.96
   0  -4 -1215200.70  896.18
   0   4 -1215802.10 1164.64
   0  -4  1214369.50 1154.99
   0  -4 -13  940.74  194.61
   0   4 -13 1228.75  275.69
   0   4  13  284.56  163.48
   0  -4  13 1085.57  179.77
   0   4  13 1277.46  456.01
   0  -4  1499379.00 8235.96
   0   4  14104884.0 9379.78
   0   4  1477749.90 6464.24
   0   4 -14111138.0 8964.67
   0  -4 -14100527.0 7632.60
   0   4  15  693.99  390.12
   0  -4 -15  313.75  165.88
   0   4  15  461.68  198.16
   0   4 -15  879.34  373.97
   0  -4  15  735.63  278.16
   0  -4 -1624399.70 1604.11
   0  -4  1624340.60 1614.36
   0   4  1627653.00 2523.62
   0   4 -1625700.20 2348.41
   0   4 -17 4059.46  777.63
   0  -4 -17 3083.08  404.02
   0  -4  17 4363.70  640.62
   0   4  17 5772.50  872.08
   0  -4  1821154.40 1860.83
   0  -4 -1819661.40 1398.82
   0   4 -1821045.60 2077.95
   0   4  1820358.10 2242.18
   0   4  19 2786.84  457.21
   0  -4 -19 1988.69  355.79
   0  -4  19 2529.79  562.88
   0   4 -19 2339.56  665.54
   0   4  20 1301.87  593.42
   0  -4  20 1261.81  462.32
   0   4 -20  931.40  308.85
   0   4  21  178.47  468.32
   0   4 -21  472.47  234.42
   0  -4  21  544.61  367.47
   0   4 -22 1433.52  570.10
   0  -4  22 1064.66  314.45
   0   4  22 1074.68  375.11
   0  -4  23  106.97  165.86
   0   4  23  137.41  208.91
   0   4 -23   32.51  304.45
   0  -4  24 9385.26 1010.16
   0   4 -2410917.70 1519.82
   0   4  2410699.40 1805.11
   0   4 -25  848.87  542.09
   0  -4  25  674.50  553.53
   0   4  25  713.93  386.36
   0  -4  2625302.10 3036.65
   0   4  2627319.60 3530.13
   0   4  27  126.20  337.05
   0  -4  27  -36.06  279.05
   0   4  2817503.50 2824.97
   0   4  29  291.23  571.04
   0   4  3010811.20 1509.48
   0   5   0   16.47  112.49
   0  -5   0  -48.62   50.13
   0  -5   0   29.06   49.95
   0   5   0  -22.68  124.78
   0  -5  -189839.80 6337.01
   0  -5  -178189.50 5444.89
   0   5   193615.30 6797.39
   0   5  -195318.70 7373.99
   0   5  -190663.70 6441.46
   0   5   194109.70 7167.90
   0  -5   186993.70 6090.41
   0  -5   192561.00 6465.27
   0   5  -2 2158.73  504.37
   0  -5   2 1927.71  325.25
   0   5  -2 1971.02  419.43
   0  -5  -2 1803.29  244.11
   0   5   2 1610.77  280.74
   0  -5   2 1858.34  212.95
   0  -5  -2 1841.53  352.68
   0   5   2 2404.89  272.78
   0  -5   328481.80 1811.37
   0  -5   332114.90 2079.83
   0   5  -326699.70 1770.92
   0   5   328250.10 1730.07
   0   5   325895.90 1533.54
   0  -5  -328115.40 1587.00
   0   5   5 2547.50  298.69
   0  -5   5 2520.68  301.65
   0   5   5 1701.85  180.53
   0  -5  -5 1795.73  176.36
   0   5  -5 2601.05  549.38
   0   5  -5 1508.09  153.91
   0   5   632908.70 1846.85
   0   5   631666.20 2528.78
   0   5  -635041.40 2852.47
   0   5  -631648.70 1731.04
   0  -5   631721.90 1981.00
   0   5   713007.20 1241.20
   0   5  -712781.70  817.46
   0   5  -712776.20  953.47
   0  -5   712088.60  677.09
   0   5   711471.90  561.09
   0   5   712167.80  593.63
   0   5  -8119372.0 9822.49
   0   5   8113135.0 9884.32
   0  -5   8113177.0 8903.78
   0   5   8116568.0 8523.29
   0   5   958670.10 4724.61
   0   5  -960069.00 4432.97
   0   5   952177.40 3138.54
   0   5   957305.00 3561.86
   0  -5   955420.50 3508.15
   0   5  1034738.80 2031.47
   0   5 -1046575.90 3268.12
   0   5  1045620.80 2693.01
   0   5  1042849.20 2990.84
   0  -5  1042990.70 2898.28
   0   5  1124973.60 1354.77
   0   5  1125665.50 2284.94
   0  -5  1123895.80 1700.94
   0   5 -1126764.70 1944.13
   0  -5  12 8315.41  772.27
   0   5  12 6924.42  539.96
   0   5  12 8830.80  515.36
   0   5  12 8781.73 1132.32
   0   5 -12 9183.81  804.57
   0   5  13  540.72  129.72
   0   5 -13  881.30  258.36
   0   5  13  656.82  178.16
   0  -5  13  821.61  277.72
   0   5  13 1161.39  426.39
   0   5  14 3230.60  355.82
   0   5 -14 4246.42  735.86
   0  -5  14 3480.58  313.76
   0   5  14 2137.06  259.88
   0   5  14 3805.62  476.75
   0   5  15  292.16  184.02
   0   5  15  129.10  145.09
   0   5 -15  405.57  317.48
   0  -5  15  206.75  208.06
   0   5  16 5237.09  419.01
   0   5  16 5682.45  641.36
   0  -5  16 4850.36  456.86
   0   5 -16 6843.01  960.86
   0  -5  17 4594.18  611.28
   0   5  17 3687.99  538.91
   0   5 -17 4014.75  836.21
   0   5  17 3155.15  456.69
   0   5  1824202.30 2575.69
   0  -5  1823765.40 2047.19
   0   5 -1826487.20 2506.54
   0   5  1822873.20 1540.65
   0   5 -1915962.50 1348.85
   0   5  1916241.20 2006.26
   0  -5  1915306.70 1522.78
   0   5  1915118.70 1103.73
   0  -5  2018372.00 1807.75
   0   5 -2018208.80 1527.82
   0   5  2018472.70 2262.24
   0   5  2114696.50 2097.51
   0  -5  2115854.80 1731.99
   0   5 -2116950.60 1468.38
   0   5  2217315.40 1670.25
   0  -5  2218570.00 1968.32
   0   5 -2216847.50 2135.88
   0  -5  2315342.00 1879.80
   0   5 -2315810.50 2074.93
   0   5  2317494.70 2327.37
   0  -5  2415201.10 1934.20
   0   5  2416850.10 2430.66
   0   5 -2417336.30 2147.81
   0   5  25 8107.20 1058.39
   0  -5  25 5795.68 1270.26
   0   5 -25 8315.64 1433.57
   0  -5  26 1090.17  620.45
   0   5 -26 1105.68  673.31
   0   5  26 1188.74  776.38
   0   5  27  571.75  657.78
   0   5  28  727.25  424.09
   0   5  29   13.49  322.22
   0   5  30 2744.61  772.23
   0   6   0 5958.25  701.08
   0   6   0 6104.26  490.43
   0  -6   0 5822.07  581.50
   0  -6   0 6143.73  564.62
   0   6  -2 6505.84  776.88
   0  -6   2 6849.90  429.96
   0   6   2 6525.15  594.23
   0   6  -2 5929.99  885.01
   0   6   2 6804.83  810.68
   0  -6  -2 6961.23  512.86
   0   6   343736.30 2749.80
   0   6   342949.80 2840.38
   0  -6   342280.30 2912.43
   0   6  -342987.90 3546.04
   0  -6  -343241.80 2652.46
   0  -6   359870.10 4082.99
   0  -6   4  151.52   87.27
   0   6   4  162.81  134.07
   0  -6   4  168.34   84.54
   0   6  -4   13.35  147.60
   0  -6  -4  101.07   92.80
   0   6   4  202.09  111.54
   0   6  -516067.40  885.41
   0   6  -513619.30  999.82
   0  -6   512799.70  943.41
   0   6   510457.30  650.95
   0   6   513173.50  924.00
   0  -6  -513003.90  716.25
   0   6  -6   28.02  109.82
   0  -6   6   93.78  105.77
   0   6   6   18.41   59.15
   0   6   6  -13.86  172.53
   0  -6  -6   14.73   57.44
   0  -6   7 1112.43  238.83
   0  -6  -7  796.14  114.72
   0   6   7 1011.47  388.84
   0   6  -7 1102.36  438.34
   0   6   7  715.57  121.19
   0   6   8  166.47   70.56
   0   6  -8  -30.86  299.14
   0  -6   8  179.94   89.61
   0   6   8  192.31   75.30
   0   6   8  209.00  258.75
   0   6   9 6666.63  365.96
   0   6   9 7680.16 1001.58
   0   6   9 7902.03  466.68
   0   6  -9 8559.64 1197.88
   0  -6   9 8369.32  494.87
   0  -6  10 1899.91  362.07
   0   6 -10 2437.68  430.15
   0   6  10 2216.01  187.48
   0   6  10 2005.97  208.66
   0   6  10 2525.37  357.01
   0   6  1143900.20 2635.37
   0   6 -1145402.90 3374.44
   0   6  1136646.40 2274.84
   0   6  1143295.40 3658.62
   0  -6  1143607.20 2677.75
   0   6  12 1261.71  256.99
   0  -6  12  849.01  151.39
   0   6  12  565.30  142.24
   0   6  12  651.41  118.43
   0   6 -12  825.31  284.66
   0   6  1346023.50 2627.81
   0   6  1340858.70 3042.83
   0   6 -1345981.90 3315.19
   0  -6  1344911.30 2783.57
   0   6  1329529.40 1902.18
   0   6  14 2674.29  266.66
   0   6 -14 4754.20  578.30
   0   6  14 5444.95  874.38
   0  -6  14 4738.25  565.75
   0   6  14 4597.51  385.27
   0   6 -1563050.20 5346.39
   0   6  1537187.20 2897.86
   0   6  1550719.30 3358.42
   0   6  1555374.10 4986.18
   0  -6  1555621.60 4143.85
   0  -6  16 4290.01  407.11
   0   6  16 4105.10  438.03
   0   6 -16 4392.10  961.59
   0   6  16 5128.13  954.61
   0   6  1737065.20 3651.60
   0  -6  1738430.30 2993.02
   0   6  1734880.00 2246.48
   0   6 -1741529.70 3738.68
   0   6  18  229.32  135.47
   0  -6  18 1024.07  297.13
   0   6 -18  819.73  426.13
   0   6  18 1038.16  441.99
   0  -6  19 3564.68  424.02
   0   6  19 4917.43  961.34
   0   6 -19 3629.23  932.66
   0   6 -20  329.50  252.70
   0  -6  20  377.95  308.66
   0   6  20  374.19  260.97
   0  -6  21  477.44  281.61
   0   6  21  -26.62  230.11
   0   6 -21  229.42  223.74
   0   6 -22  110.44  330.67
   0  -6  22  -40.24  246.19
   0   6  22  341.73  357.50
   0   6 -23 7153.07 1343.73
   0  -6  23 6037.31 1094.63
   0   6  23 7506.57 1469.80
   0   6 -24 -116.23  245.97
   0  -6  24  152.76  197.80
   0   6  24  -74.49  263.72
   0  -6  25 7012.48 1303.50
   0   6  25 8642.23 1105.49
   0   6 -25 9130.42 1580.68
   0   6  26 1124.77  784.36
   0   6 -26 1017.64  703.84
   0   6  2721001.90 3167.42
   0   6  28   69.55  242.99
   0   6  2912098.90 2412.18
   0   7   0  -30.37  157.82
   0   7   0  -21.91   87.34
   0   7   1 1324.35  407.51
   0   7   1 1359.07  330.58
   0   7  -1 1079.91  237.04
   0   7  -1 1210.20  407.43
   0   7   249514.70 3179.47
   0   7   259189.90 3923.86
   0   7  -257225.00 4497.70
   0   7  -259605.30 3905.86
   0  -7  -249359.00 3110.60
   0  -7   3 1332.55  356.87
   0   7  -3  509.42  390.10
   0   7   3  795.96  352.30
   0   7   3  905.08  208.94
   0  -7  -3  358.62  165.85
   0   7   4 4278.24  640.76
   0   7  -4 3611.37  700.05
   0  -7  -4 3013.24  302.38
   0  -7   4 2990.08  451.08
   0   7  -5184577.016609.00
   0   7   5181172.016154.50
   0  -7  -5170267.014433.90
   0  -7  -653920.70 3308.49
   0  -7   657749.80 3860.75
   0   7   657113.30 4552.35
   0   7   645730.80 2930.25
   0   7  -654389.40 3897.19
   0  -7  -740431.80 2296.17
   0   7   731873.40 1903.14
   0   7   740190.50 3323.73
   0  -7   740669.40 2377.17
   0   7  -743126.30 2995.23
   0   7  -8 3740.01  531.16
   0   7   8 4208.79  761.17
   0  -7  -8 4134.37  267.76
   0   7   8 3670.63  349.70
   0  -7   8 4433.25  485.13
   0  -7   9 2093.07  363.45
   0   7   9 1869.53  225.38
   0   7   9 1764.58  230.33
   0   7  -9 2032.64  420.86
   0   7   9 2417.22  572.42
   0   7  10 9794.00  510.08
   0   7 -1010976.60 1508.54
   0   7  1010486.70  616.19
   0   7  1010717.50  909.54
   0  -7  1010505.60  655.20
   0   7  11 9807.89 1160.27
   0   7  11 7295.68  397.91
   0  -7  1110360.80  798.99
   0   7  11 8230.80  495.92
   0   7 -1111025.70 1365.55
   0   7  12 4984.01  535.64
   0  -7  12 4611.68  527.98
   0   7  12 3791.79  296.53
   0   7 -12 4618.44  940.58
   0   7  12 3328.57  280.63
   0  -7  1315442.90 1155.59
   0   7  1312989.20  690.14
   0   7  1310099.70  673.98
   0   7  1315468.40 1620.24
   0   7 -1319278.40 1881.06
   0  -7  14 4646.26  556.24
   0   7 -14 4848.69  591.41
   0   7  14 4279.05  342.95
   0   7  14 2819.56  300.01
   0   7  14 5441.92  865.60
   0   7  15 1479.09  315.90
   0  -7  15  835.27  321.05
   0   7  15  570.82  167.09
   0   7 -15 2040.16  336.95
   0   7  15  885.64  174.75
   0  -7  16 5511.46  461.22
   0   7 -16 5365.26  676.65
   0   7  16 4791.28  396.13
   0   7  16 5022.04  645.60
   0   7 -1712531.80 1565.87
   0  -7  1710432.90 1027.30
   0   7  17 9292.11  673.99
   0   7  17 9436.76  993.40
   0   7 -18 4039.88 1000.40
   0  -7  18 4026.38  436.09
   0   7  18 4585.26  633.99
   0  -7  1910868.90 1212.26
   0   7 -1913072.60 1708.34
   0   7  1911142.10 1159.23
   0  -7  20 9782.82 1159.76
   0   7  20 9629.30 1111.95
   0   7 -2010261.80 1626.54
   0  -7  21 5386.01  861.85
   0   7 -21 5549.51  760.64
   0   7  21 5747.10 1213.94
   0  -7  22 7038.07  702.98
   0   7  22 7222.17 1447.12
   0   7 -22 6758.03  894.51
   0   7 -2316974.60 2338.18
   0   7  2317662.00 2439.59
   0  -7  2315743.50 1833.41
   0  -7  24 9215.58 1368.08
   0   7  24 9765.69 1226.47
   0   7 -24 9350.79 1725.39
   0  -7  25 4185.32  949.82
   0   7  25 3868.27  795.06
   0   7 -25 4924.21 1239.92
   0   7  26 3056.78 1195.11
   0   7 -26 3517.32 1106.73
   0   7 -27  429.16  635.28
   0   7  27  838.73  707.82
   0   7  28 1096.96  541.26
   0   7  29  637.68  775.38
   0   8   031144.10 2027.21
   0   8  -1  152.83  250.25
   0   8  -1  183.33  138.38
   0   8   1  280.40  208.65
   0   8   1   95.80  239.90
   0   8   282786.10 6149.07
   0   8  -283224.10 6097.18
   0   8  -285210.50 7042.58
   0   8   274228.50 5803.64
   0   8   314450.30 1025.91
   0   8  -315422.50 1529.38
   0   8   311382.30  722.77
   0  -8   320217.00 1225.08
   0   8   4 6020.64  528.23
   0   8  -4 5220.97  902.18
   0   8   4 5615.39  497.10
   0  -8  -4 4728.49  298.08
   0  -8   4 5532.26  443.95
   0   8  -5 1336.83  523.11
   0   8   5 2053.45  486.76
   0  -8   5 1626.44  310.16
   0  -8  -5  932.90  194.83
   0   8   5  744.43  230.07
   0   8   614933.90 1115.31
   0   8  -616399.90 1779.25
   0  -8   615017.20  894.25
   0   8   616339.10 1177.69
   0  -8  -615395.90  926.13
   0   8   7 8662.29  739.98
   0   8   7 6776.64  485.17
   0  -8  -7 7566.95  479.47
   0  -8   7 8680.04  534.41
   0   8  -7 9961.44 1278.96
   0  -8  -8 5108.00  420.15
   0   8   8 4495.24  422.92
   0  -8   8 3924.67  328.59
   0   8   8 4626.02  526.61
   0   8  -8 5607.64  994.76
   0   8   9  784.55  143.78
   0   8   9 1408.47  288.77
   0  -8  -9 1286.39  198.68
   0   8  -9 1737.47  560.98
   0  -8   9  984.97  163.02
   0   8  10 2225.74  634.24
   0  -8  10 1898.75  356.45
   0   8  10 1977.43  233.47
   0   8 -10 1843.18  733.24
   0   8  10 1825.15  233.98
   0   8 -11 5315.59  615.91
   0   8  11 2726.80  267.69
   0   8  11 3003.44  221.93
   0   8  11 3269.59  485.66
   0  -8  11 4062.43  503.53
   0   8  1231235.60 1943.44
   0  -8  1239305.50 2772.82
   0   8  1231680.80 1929.58
   0   8 -1242343.40 3160.18
   0   8  1238610.60 3483.30
   0   8  13 3473.31  307.81
   0   8  13 3817.39  599.00
   0   8 -13 3775.44  626.15
   0  -8  13 4679.60  577.84
   0   8 -1486874.30 7833.21
   0   8  1452022.60 3934.90
   0   8  1483711.20 7605.55
   0  -8  1485546.70 6560.20
   0   8  1473481.10 5080.63
   0   8  15 1228.42  190.02
   0   8  15 1694.51  180.73
   0   8  15 2996.61  699.85
   0   8 -15 3128.90  731.23
   0  -8  15 2261.73  417.32
   0   8 -1633280.60 3379.10
   0   8  1632001.30 3252.76
   0  -8  1630761.00 2050.23
   0   8 -17  402.44  260.93
   0   8  17   71.95  415.40
   0  -8  17  246.06  246.34
   0   8 -18 5807.74  764.96
   0   8  18 4769.83 1111.39
   0  -8  18 4459.63  727.94
   0   8  19 1218.38  620.31
   0  -8  19  956.91  376.98
   0   8 -19  760.25  364.38
   0   8 -20  455.22  606.05
   0  -8  20  893.45  389.46
   0   8  20 1230.78  628.78
   0   8 -21  875.22  607.10
   0  -8  21  569.77  384.04
   0   8  21  700.14  604.30
   0  -8  22 1576.73  578.76
   0   8  22 1922.98  900.20
   0   8 -22 2533.59  857.92
   0   8  23 2748.78  970.83
   0   8 -23 1606.01  558.88
   0  -8  23 2366.03  397.04
   0  -8  2410834.60 1429.42
   0   8 -2410937.90 1265.95
   0   8  2410162.50 1279.54
   0   8  25  117.39  229.69
   0   8 -25  -77.42  364.82
   0   8 -2617354.30 2615.03
   0   8  2617135.20 2792.01
   0   8 -27 -126.80  314.08
   0   8  27  123.13  336.82
   0   8  2814579.60 1879.26
   0   8  29  -59.54  453.16
   0   9   0   56.97   98.54
   0   9   0  -43.89  187.51
   0   9   1  403.77  146.44
   0   9  -1  197.57  178.50
   0   9   1  337.61  288.81
   0   9  -1  272.87  166.41
   0   9  -234974.20 2734.07
   0   9   226823.40 2148.56
   0   9  -233293.80 2287.73
   0   9   233124.90 2207.48
   0   9   3 4439.00  831.63
   0   9   3 5384.89  619.54
   0   9  -3 6265.45  629.92
   0   9   413538.20 1406.03
   0   9   4 9784.89  870.13
   0   9  -412267.80 1065.30
   0  -9   5104890.0 8106.27
   0   9  -5103521.0 9095.13
   0   9   575782.50 5978.26
   0   9   596747.70 7614.95
   0   9  -694144.90 8164.47
   0  -9   689058.20 6676.75
   0  -9  -685777.00 6176.80
   0   9   661656.50 4646.38
   0   9   690365.40 7569.94
   0  -9   715094.10 1122.47
   0   9   7 9754.11  717.90
   0  -9  -713561.00  828.03
   0   9   716040.90 1574.78
   0   9  -716077.90 1762.39
   0  -9   8 8417.62  790.97
   0  -9  -8 8284.61  533.51
   0   9  -8 8352.34 1347.85
   0   9   810185.60 1227.35
   0   9   8 8049.79  669.78
   0   9   913716.20  937.67
   0  -9  -914727.80  973.33
   0   9  -916406.20 1351.49
   0  -9   915150.90  900.32
   0   9   915446.70 1701.19
   0   9  1053799.00 3907.25
   0  -9 -1037976.90 2294.59
   0  -9  1053938.10 3738.91
   0   9  1043081.90 2587.97
   0   9 -1057412.80 4390.62
   0   9 -1115490.40 1380.28
   0   9  1112225.00  779.32
   0   9  1114559.10 1703.82
   0  -9  1115329.20 1161.67
   0   9  1111754.60  761.98
   0   9 -12  491.55  405.83
   0   9  12  191.28  105.09
   0   9  12  242.17  107.96
   0   9  12  347.92  212.07
   0   9  13 1465.34  189.83
   0  -9  13 2572.51  410.38
   0   9  13 2769.08  693.89
   0   9  13 1540.48  194.69
   0   9 -13 2117.03  765.38
   0   9 -14 1786.17  710.59
   0   9  14 1845.69  376.25
   0   9  14  893.43  159.54
   0   9  14 1199.57  123.60
   0  -9  14 2031.45  362.47
   0   9  15 2750.55  502.79
   0  -9  15 3777.47  500.73
   0   9  15 2067.93  212.05
   0   9 -15 3872.68  571.77
   0  -9  16  971.97  397.34
   0   9 -16 1531.05  431.07
   0   9  16 1091.02  641.26
   0   9 -1750754.40 5004.31
   0   9  1741820.50 4605.50
   0  -9  1744668.30 3178.60
   0  -9  18 6427.91  856.12
   0   9  18 6094.14 1336.56
   0   9 -18 8290.85 1426.81
   0   9  19 9727.37 1649.28
   0  -9  19 8745.46 1054.26
   0   9 -1910481.70 1724.76
   0  -9  20 4162.75  722.01
   0   9  20 3591.78 1134.80
   0   9 -20 4502.26  741.53
   0   9 -21 9972.49 1219.17
   0  -9  2110025.80  888.19
   0   9  2110658.50 1819.32
   0   9 -22 7749.25 1531.59
   0   9  22 7428.54 1530.34
   0  -9  22 5934.53  991.38
   0   9  23 9545.72 1951.10
   0  -9  23 9815.36 1332.29
   0   9  2412614.50 1523.02
   0   9 -2412873.00 2204.27
   0   9  25 4760.88  876.41
   0   9 -25 4034.59  820.32
   0   9 -26 3605.61  830.71
   0   9  26 6660.27 1432.24
   0   9 -27 1565.34 1002.61
   0   9  27 2264.58 1087.38
   0   9  28  429.13  387.56
   0   9 -28   47.63  594.98
   0  10   022080.40 1554.55
   0  10   022160.10 2070.78
   0  10   1120525.010743.20
   0  10  -1163340.014825.20
   0  10   1157559.013642.20
   0  10  -1153244.014207.00
   0  10  -2 3752.39  440.05
   0  10   2 3609.73  383.44
   0  10  -2 2959.32  799.58
   0  10   2 4197.04  477.66
   0  10   339379.80 3305.93
   0  10   333225.60 2613.42
   0  10  -340358.50 2938.85
   0  10   4 1655.62  537.53
   0  10  -4 1695.35  366.39
   0  10   4 1686.51  352.64
   0 -10   4  993.05  548.88
   0  10   5 1247.76  340.64
   0  10   5 2027.56  607.96
   0 -10   5 2946.95  433.41
   0  10  -5 1642.49  380.06
   0 -10   641457.90 3028.23
   0  10   642027.80 3051.01
   0  10  -642449.80 3938.52
   0  10   635752.20 2526.67
   0  10   7 3339.09  398.90
   0  10  -7 4085.16  939.39
   0  10   7 4276.74  513.33
   0 -10   7 4294.51  564.69
   0  10  -8 7095.10 1135.57
   0  10   8 4456.31  411.41
   0 -10   8 5892.31  440.87
   0  10   8 5726.56  618.22
   0 -10  -921712.40 1525.44
   0 -10   925836.20 1849.74
   0  10  -925966.10 2023.19
   0  10   925198.70 1877.95
   0  10   919067.50 1213.91
   0  10 -10 4085.18  631.02
   0 -10 -10 2788.47  360.56
   0 -10  10 3721.07  334.00
   0  10  10 3759.03  365.33
   0  10  10 4394.74  856.96
   0 -10  1133683.70 2328.61
   0  10  1125439.70 1584.01
   0  10  1130853.10 2319.19
   0  10  1120716.10 1284.85
   0  10 -1136895.60 3465.81
   0  10 -12 5684.42 1068.17
   0 -10  12 5192.68  562.02
   0  10  12 3302.38  252.95
   0  10  12 4395.10  986.85
   0  10  12 3020.14  238.36
   0 -10  1361088.40 4125.38
   0  10  1346530.20 3116.63
   0  10  1362236.30 4903.00
   0  10 -1367243.30 5300.53
   0  10  1342035.70 2757.70
   0  10 -14 4211.10  720.06
   0  10  14 6791.74 1081.58
   0  10  14 3819.96  307.53
   0 -10  14 5491.98  438.12
   0  10  15 9512.54  595.46
   0  10  1517751.30 1447.16
   0 -10  1515271.40  975.51
   0  10 -1516512.50 2004.40
   0  10  16  110.36  315.46
   0  10 -16  478.35  512.20
   0 -10  16  566.36  288.91
   0 -10  1739558.50 3252.04
   0  10  1736439.70 3330.50
   0  10 -1743942.20 4598.72
   0 -10  18 6731.77  888.39
   0  10  18 9165.69 1456.25
   0  10 -18 7612.87  987.52
   0  10 -19 4808.55  827.10
   0 -10  19 5359.43  775.28
   0  10  19 5846.87 1292.96
   0  10  20 4918.90 1253.52
   0 -10  20 4629.90  777.31
   0  10 -20 5334.42 1312.21
   0  10 -21  226.92  403.84
   0 -10  21  127.82  234.02
   0  10  21 -136.58  397.46
   0 -10  22 2517.72  662.74
   0  10 -22 2694.10 1053.89
   0  10  22 2974.75 1103.03
   0  10  23 4020.41 1183.50
   0  10 -23 3064.09  711.63
   0  10  24 -103.15  282.74
   0  10 -24 -286.63  472.54
   0  10  2514138.40 1787.90
   0  10 -2515772.50 2553.22
   0  10  26   40.19  452.90
   0  10 -26  105.23  427.96
   0  10  2712990.20 2648.03
   0  10 -2714791.50 2616.17
   0  10 -28  286.11  348.46
   0  10  28  135.23  632.20
   0  11   0  -80.10  236.67
   0  11   0  -72.61  224.84
   0  11   114358.00 1427.16
   0  11  -112632.90 1444.72
   0  11  -113132.30 1069.52
   0  11   114553.50 1528.31
   0  11  -212394.10 1407.50
   0  11   2 8445.63  738.16
   0  11   211177.30  893.98
   0  11  -211454.70  874.01
   0  11  -3 5641.30 1032.28
   0  11   3 6459.54  946.93
   0  11   3 4917.96  711.00
   0  11   410474.40  919.70
   0  11  -410596.20 1478.42
   0  11   411073.80 1013.57
   0 -11   533361.30 2618.13
   0  11   533654.70 2470.56
   0  11  -536107.50 2808.54
   0  11   536216.50 3207.36
   0  11   6 7182.73 1087.38
   0 -11   6 7318.42  791.37
   0  11   6 5602.36  621.16
   0  11  -6 6685.85  761.38
   0  11   726128.80 2570.18
   0 -11   726419.50 2031.27
   0  11   722658.60 1638.79
   0  11  -729226.60 2977.66
   0  11   830255.00 2195.26
   0 -11   845023.80 3220.98
   0  11   844458.60 3941.55
   0  11  -844616.80 4231.72
   0 -11   947627.00 3469.71
   0  11   943901.80 4069.08
   0  11  -948477.30 3851.73
   0  11   936092.40 2496.77
   0 -11  1016046.20 1250.35
   0  11  1011226.10  788.93
   0  11  1013814.70 1764.61
   0  11 -1018071.10 1506.34
   0  11  1110041.80  659.54
   0 -11  1111893.10  791.63
   0  11  1112173.10 1121.78
   0  11  1211157.50 1470.94
   0  11 -1212488.10 1752.96
   0  11  12 7381.99  505.43
   0 -11  1211045.40  981.70
   0  11  13 2374.66  454.49
   0  11 -13 2203.56  496.64
   0 -11  13 2235.08  449.38
   0  11 -14 -205.67  359.94
   0 -11  14  159.47  182.57
   0  11  14   98.47  318.59
   0  11  15 -144.98  499.56
   0 -11  15  643.20  284.92
   0  11 -15  480.89  555.49
   0  11 -16 8395.77 1504.16
   0 -11  16 6788.87  850.50
   0  11  16 7059.20  906.68
   0  11  17 8588.49 1066.37
   0 -11  17 8792.49 1003.36
   0  11 -1710087.70 1144.50
   0  11 -1818562.80 2559.55
   0 -11  1816721.10 1611.54
   0  11  1816518.50 1728.81
   0  11 -1927239.30 3489.21
   0 -11  1926614.80 2403.57
   0  11  1926013.70 3401.30
   0 -11  2031729.50 2410.98
   0  11  2033649.90 4140.06
   0  11 -2035058.50 4362.90
   0 -11  2119266.70 1956.63
   0  11 -2122483.40 2190.50
   0  11  2118519.10 2837.64
   0  11  22 6652.08 1575.18
   0  11 -22 6137.52 1019.12
   0 -11  22 5856.87  631.59
   0  11 -2312764.80 2204.35
   0  11  2311168.20 1416.69
   0  11 -24 9344.22 2015.31
   0  11  24 9161.39 1346.74
   0  11  25 3634.13  784.90
   0  11 -25 2460.38  723.92
   0  11 -26  508.23  461.88
   0  11  26  983.58  479.02
   0  11  27  242.13  788.97
   0  11 -27  912.33  770.05
   0  11  28  106.92  742.43
   0  11 -28  665.36  704.17
   0  12   047159.20 3668.11
   0  12   059554.90 4932.97
   0  12   1  505.41  368.41
   0  12  -1  627.50  234.73
   0  12   1  542.72  425.30
   0  12  -1  297.27  422.52
   0  12  -284403.40 6876.88
   0  12   285820.80 7292.57
   0  12  -278158.70 6284.74
   0  12   282962.60 6637.86
   0  12   3 7551.24 1000.56
   0  12  -3 5541.47  649.90
   0  12   3 4498.84  461.15
   0  12  -426429.20 2644.20
   0  12   424478.80 1838.73
   0 -12   5  405.48  369.31
   0  12  -5  788.86  498.99
   0  12   5  617.95  158.64
   0  12   5  805.72  436.69
   0  12   6    5.94  250.94
   0  12  -6  272.01  167.03
   0  12   6  -77.79  141.54
   0 -12   6   50.48  100.63
   0  12   7 3568.45  790.21
   0  12  -7 3283.75  888.38
   0  12   7 2239.12  398.90
   0 -12   7 3540.78  521.24
   0 -12   8 2656.35  305.92
   0  12   8 2651.50  750.67
   0  12  -8 2625.63  851.88
   0  12   8 2450.60  359.10
   0  12   915475.60 1878.65
   0  12  -916916.90 1505.20
   0 -12   917453.50 1401.82
   0  12   911872.90  937.13
   0  12 -1023841.90 2044.44
   0  12  1015508.70 1137.26
   0 -12  1024398.00 1820.23
   0  12  1023461.10 1847.92
   0 -12  11  567.26  290.48
   0  12  11  473.52  218.50
   0  12  11  396.71  472.74
   0  12 -1251590.00 4276.15
   0  12  1242914.10 3538.86
   0  12  1236182.30 2617.00
   0 -12  1245507.50 3051.22
   0  12  13 1366.18  669.59
   0  12  13  873.78  220.39
   0  12 -13 1355.06  448.94
   0 -12  13 1599.66  380.71
   0  12  1423608.70 2131.50
   0 -12  1425704.50 2070.84
   0  12 -1428258.80 3287.71
   0  12  15 1194.83  688.18
   0  12 -15 1352.27  800.77
   0 -12  15 1155.78  411.62
   0  12  1631575.60 3610.56
   0  12 -1633022.80 2984.14
   0 -12  1632170.80 2196.17
   0  12 -17   43.78  265.13
   0 -12  17  216.29  230.48
   0  12  17  219.49  252.80
   0  12 -18 9270.46 1883.86
   0 -12  18 9414.30 1102.88
   0  12  18 9357.86 1159.15
   0  12  19   33.04  198.21
   0  12 -19  -17.40  359.10
   0 -12  19   69.53  194.19
   0  12 -20 8741.96 1196.60
   0  12  20 8118.23 1690.91
   0 -12  20 7491.18  696.40
   0  12  21 2881.87 1018.18
   0 -12  21 1208.05  585.07
   0  12 -21 3100.62 1037.01
   0  12  22  -13.62  383.12
   0  12 -22  -92.02  393.22
   0  12  23  855.93  454.41
   0  12 -23  606.10  762.96
   0  12  24 7275.34 1127.75
   0  12 -24 7113.51 1161.72
   0  12 -25  871.96  844.71
   0  12  25  811.15  499.61
   0  12 -26 6331.49 1823.70
   0  12  26 6512.59 1160.06
   0  12  27  321.98  765.22
   0  12 -27  669.87  745.94
   0  13   0  513.31  282.11
   0  13   0   34.35  177.95
   0  13   1 2994.97  449.47
   0  13  -1 3104.98  442.01
   0  13   1 1864.35  376.42
   0  13  -1 2900.44  689.62
   0  13   2 1224.83  492.01
   0  13  -2 1148.02  570.18
   0  13   2 2061.68  589.88
   0  13  -2 1955.09  616.59
   0  13  -3 6167.25  922.49
   0  13   3 4197.49  524.57
   0  13   3 2801.80  414.50
   0  13  -437758.50 2832.41
   0  13   435765.00 2570.71
   0  13   436414.40 2775.07
   0 -13   418152.40 2656.89
   0  13   513119.40 1558.62
   0  13  -513539.20 1665.98
   0  13   5 9303.70  760.74
   0  13   636308.20 3495.23
   0  13   636214.90 2777.22
   0 -13   636943.90 2955.67
   0  13  -635154.20 2918.83
   0  13  -716469.00 1502.44
   0  13   713473.90 1196.37
   0  13   716931.90 1939.73
   0 -13   715588.20 1056.13
   0  13   829270.50 2349.46
   0 -13   844721.80 3404.18
   0  13   845289.80 4102.39
   0  13  -844289.60 4421.63
   0  13   927898.90 2327.59
   0  13   923909.80 1841.76
   0  13  -931726.70 2648.54
   0 -13   929796.70 2355.48
   0 -13  1013153.20 1238.30
   0  13 -1013850.20 1403.36
   0  13  1013006.70 1210.37
   0  13  1010676.00  857.01
   0  13  11 2071.08  800.09
   0  13  11 1645.17  294.24
   0 -13  11 3102.06  482.21
   0 -13  12 6203.91  524.93
   0  13  12 4927.27  582.45
   0  13  12 5629.44  760.79
   0  13 -12 9292.28  986.06
   0  13  13 1062.95  220.40
   0  13 -13 2839.12  542.22
   0 -13  13 2564.35  299.42
   0  13  13 1980.07  764.67
   0  13  14  -48.24  135.82
   0 -13  14   26.59   81.38
   0  13 -14   23.04  284.43
   0  13  15 4989.47 1094.71
   0  13 -15 4837.08 1272.16
   0 -13  15 3626.23  411.18
   0  13  16 3932.80 1226.58
   0  13 -16 5927.22  808.92
   0 -13  16 4292.03  462.34
   0 -13  17 4330.32  712.84
   0  13  17 4414.61  777.58
   0  13 -17 4862.81 1289.36
   0  13  1817220.00 1822.84
   0 -13  1817752.30 1728.92
   0  13 -1821912.60 2854.57
   0  13  19 2008.27  651.34
   0 -13  19 2290.68  603.73
   0  13 -19 2761.75  666.34
   0  13  2021914.20 2231.95
   0 -13  2021176.00 2092.39
   0  13 -2023449.30 2425.04
   0  13  2113884.20 2352.88
   0  13 -2112219.20 2349.72
   0  13 -2210267.20 2194.12
   0  13  2211002.60 2124.22
   0  13  23 6793.41 1843.34
   0  13 -23 8488.78 1266.86
   0  13 -24 9421.93 2066.21
   0  13  24 8165.85 1300.08
   0  13  25 2512.75  708.58
   0  13 -25  520.12 1172.31
   0  13  26 1164.49  585.53
   0  13 -26  678.87  948.29
   0  14   0 8613.75 1302.10
   0  14   0 7851.90  810.30
   0  14  -151001.00 4001.07
   0  14  -153446.60 4987.91
   0  14   151997.80 4059.82
   0  14   154990.90 4884.74
   0  14  -2 1038.60  512.48
   0  14  -2  902.05  323.85
   0  14   2 1243.32  540.63
   0  14   2  664.42  256.17
   0  14   313633.10 1201.57
   0  14   312498.70 1410.01
   0  14  -312959.30 1746.96
   0  14   4  415.92  425.03
   0  14   4  126.15  567.36
   0 -14   4 5202.99  702.56
   0  14  -4  833.13  618.55
   0  14   514744.80 1120.39
   0  14  -518092.50 1557.67
   0  14   518808.10 2071.90
   0 -14   6 1512.25  460.37
   0  14   6  994.82  379.79
   0  14   6 1561.76  599.32
   0  14  -6  895.08  659.85
   0  14   7 1720.57  703.70
   0  14  -7 1996.93  454.68
   0  14   7 1237.70  399.86
   0 -14   7 2233.83  489.16
   0  14   8   -0.32  148.22
   0  14   8  129.04  287.13
   0 -14   8  122.73  194.60
   0  14  -8   27.34  322.38
   0  14   9 4341.79  570.10
   0  14   9 5624.15  719.81
   0 -14   9 5724.78  766.32
   0  14  -9 4567.10 1255.12
   0 -14  1012506.60  858.53
   0  14  1010720.10 1672.04
   0  14 -1011274.50 1307.19
   0  14  10 8938.61  844.20
   0  14 -1120794.30 2659.88
   0  14  1120416.00 2333.26
   0 -14  1117704.80 1174.25
   0  14  1112475.20 1066.75
   0  14 -12 5277.61  808.90
   0  14  12 3279.97  411.37
   0  14  12 4442.46  707.95
   0 -14  12 4039.76  424.51
   0  14 -1355324.50 4987.09
   0  14  1351464.00 5394.42
   0 -14  1351967.10 3710.19
   0  14  14  572.35  424.51
   0  14 -14  954.96  838.28
   0 -14  14 1586.18  273.54
   0  14 -1516716.60 1840.38
   0  14  1515612.10 1600.61
   0 -14  1516742.10 1188.47
   0  14  16  -46.69  546.24
   0 -14  16  396.73  320.88
   0  14 -16  711.69  361.14
   0  14 -1718884.30 2774.99
   0  14  1717097.40 2487.91
   0 -14  1715874.20 1624.95
   0  14 -18  108.50  477.80
   0 -14  18   94.02  250.67
   0  14  18  205.42  262.99
   0  14 -19 2861.37  706.62
   0 -14  19 2224.39  616.69
   0  14  19 3077.47  697.61
   0  14  20  -36.74  248.24
   0  14 -20  418.32  446.87
   0  14  21  154.78  486.01
   0  14 -21  154.43  526.38
   0  14 -22 2086.42  625.86
   0  14  22  983.52 1006.74
   0  14  23 1191.65  937.67
   0  14 -23 1332.82  581.84
   0  14  24  514.38  450.81
   0  14 -24  848.83  803.83
   0  14 -2511662.90 2421.01
   0  14  25 9852.92 1525.17
   0  14  26  341.73  363.40
   0  14 -26   56.50  366.31
   0  15   0  183.85  141.07
   0  15   0 -400.30  224.73
   0  15  -1 2163.08  752.73
   0  15  -1 1923.57  443.91
   0  15   1 2659.98  672.19
   0  15   1 2060.93  764.29
   0  15   2 8691.60  876.86
   0  15  -2 7181.00  811.79
   0  15   2 6063.58  731.62
   0  15  -2 7976.00 1316.39
   0  15   315098.60 1566.88
   0  15  -314092.00 1305.97
   0  15   313473.30 1219.80
   0  15   4 1297.96  432.83
   0 -15   4  357.74  347.12
   0  15   4 1728.63  571.70
   0  15  -4 1211.61  610.60
   0  15   521081.70 2420.38
   0  15   520157.80 1917.97
   0  15  -521694.50 2659.05
   0 -15   640328.50 3352.31
   0  15  -631768.90 3001.65
   0  15   637452.20 3101.59
   0  15   637712.50 3904.05
   0  15  -731376.10 3502.33
   0  15   726102.30 2303.77
   0 -15   734039.60 2834.65
   0  15   730936.80 3309.55
   0  15   8 8148.75  966.76
   0  15   810463.60 1651.72
   0  15  -812181.00 1263.35
   0 -15   810708.60 1185.87
   0 -15   932218.00 2716.87
   0  15   925000.30 2143.64
   0  15   932191.80 2685.86
   0  15  -933772.90 3935.57
   0 -15  10 9117.31 1024.50
   0  15  10 6030.91  739.26
   0  15 -10 8456.80 1138.21
   0  15  10 8135.20 1430.39
   0  15  11 2667.87  833.39
   0  15  11 1329.44  356.53
   0  15 -11 2989.49 1001.78
   0 -15  11 2644.88  544.20
   0  15  1214010.30 1441.35
   0  15 -1215003.40 2414.01
   0 -15  1213745.40 1351.99
   0  15  13  125.72  386.57
   0  15 -13   53.74  261.85
   0 -15  13  195.18  240.57
   0  15 -14  490.16  455.32
   0  15  14  -28.79  396.42
   0 -15  14   50.25  235.88
   0 -15  15 1085.52  453.35
   0  15 -15 1905.64  910.14
   0  15  15 1367.55  482.34
   0  15 -16 4871.45  878.79
   0  15  16 5354.78 1310.18
   0 -15  16 4229.78  487.99
   0  15  17 5113.23 1326.75
   0 -15  17 4024.81  777.35
   0  15 -17 4742.76 1392.11
   0  15  18 2224.64  622.13
   0 -15  18 1864.47  581.17
   0  15 -18 2579.52  678.42
   0  15  19 7031.91 1091.23
   0  15 -19 8102.45 1199.08
   0  15 -2010412.80 2263.61
   0  15  2010207.20 1387.37
   0  15  2119572.70 3132.27
   0  15 -2122252.70 3439.42
   0  15  22 5493.81 1813.39
   0  15 -22 7723.02 1229.53
   0  15 -23 5352.41 1710.58
   0  15  23 5234.17 1630.72
   0  15  24 3957.71 1436.85
   0  15 -24 2868.23 1476.28
   0  15 -25 4194.79  999.05
   0  15  25 4390.85 1591.78
   0  16   089367.20 8598.43
   0  16   084571.40 8430.98
   0  16  -1 4423.79 1046.91
   0  16   1 5233.88  651.87
   0  16   1 4038.39  666.11
   0  16  -1 4845.62  671.37
   0  16   255079.20 5092.77
   0  16  -251350.70 4370.19
   0  16  -252891.60 5156.02
   0  16   250162.30 4237.80
   0 -16   3 1060.27  538.36
   0  16   3 2980.40  709.03
   0  16   3 4080.81  895.47
   0  16  -3 3207.66  857.01
   0  16   413858.10 1881.48
   0  16   411790.20 1057.99
   0  16  -413478.70 1336.98
   0  16   5 5211.46  876.84
   0  16   5 4875.79 1130.26
   0  16  -5 5402.11 1246.17
   0  16   6  727.89  652.09
   0  16  -6 1448.44  437.37
   0 -16   6  960.38  483.42
   0  16   6 1042.76  438.47
   0  16   7  541.78  312.78
   0  16   7  100.67  189.91
   0 -16   7   -2.52  131.90
   0  16  -7 -188.93  347.28
   0  16   8  936.51  375.08
   0 -16   8 1056.95  262.89
   0  16  -8 1549.80  750.11
   0  16   8  996.81  667.66
   0 -16   9 5075.79  529.27
   0  16   9 4176.21  752.60
   0  16   9 3968.65  650.03
   0  16  -9 6320.75  901.88
   0 -16  1010301.70  847.63
   0  16  1011435.40 1693.29
   0  16  10 7614.25  909.32
   0  16 -10 9433.54 1946.03
   0  16  11 5904.01 1228.41
   0 -16  11 4710.59  777.71
   0  16 -11 5245.37  940.11
   0  16  11 3899.61  586.07
   0  16  1228236.60 2605.66
   0  16 -1230051.10 3818.19
   0 -16  1229281.30 2511.23
   0  16  13 5172.83 1311.74
   0 -16  13 5465.19  888.51
   0  16 -13 5572.28  946.25
   0 -16  1435169.10 3049.92
   0  16 -1435681.90 4530.02
   0  16  1429995.20 3850.77
   0  16 -15 1403.98  957.99
   0 -16  15 1088.28  487.58
   0  16  15 1521.15  482.81
   0 -16  1618608.90 1915.00
   0  16 -1620101.10 2195.71
   0  16  1620734.30 2875.93
   0  16 -17  805.90  718.00
   0 -16  17  558.97  232.70
   0  16  17  416.61  674.64
   0  16 -1811213.00 2230.32
   0  16  1810280.40 1409.41
   0  16  19  432.51  421.57
   0  16 -19  809.54  450.83
   0  16  20 2304.83  668.99
   0  16 -20 2244.39 1213.19
   0  16 -21  -69.16  393.97
   0  16  21   95.09  363.94
   0  16 -22 1169.74  575.57
   0  16  22 1314.03  970.38
   0  16  23  538.16  734.52
   0  16 -23  374.60  765.97
   0  16  24 3826.28 1546.13
   0  16 -24 3446.76 1595.17
   0  17   0 -118.91  189.44
   0  17   0  -27.75  180.38
   0  17   1 6211.91 1244.12
   0  17   1 6489.91 1132.95
   0  17  -1 6249.45 1225.17
   0  17  -1 4876.18 1230.93
   0  17  -2 3079.17  940.33
   0  17   2 3292.99  829.76
   0  17   2 3452.31  996.86
   0  17  -2 2832.08  556.56
   0  17   310153.20 1025.20
   0  17   311523.40 1826.49
   0  17  -313168.40 1333.71
   0 -17   4  964.18 1323.07
   0  17   4 5271.92 1244.81
   0  17   4 7021.60 1012.18
   0  17  -4 7031.48 1300.64
   0  17   5 5731.16 1012.99
   0  17  -5 6982.68  927.63
   0  17   5 4465.87 1327.11
   0  17  -628015.40 3510.11
   0 -17   629854.40 2795.32
   0  17   627428.60 3292.33
   0  17   628038.50 2649.38
   0  17  -7 4624.93  825.50
   0  17   7 3537.65 1222.23
   0 -17   7 5831.49  596.49
   0  17   7 3857.67  787.10
   0  17  -8 8891.33 1822.21
   0 -17   8 8312.28  757.14
   0  17   8 7036.59  997.71
   0  17   8 8098.56 1550.85
   0  17  -9 4129.03  793.53
   0 -17   9 4402.08  770.06
   0  17   9 2651.97  638.47
   0  17   9 2676.15  670.72
   0  17  10 1715.25  815.74
   0 -17  10 2364.41  556.31
   0  17  10  726.49  411.73
   0  17 -10 2796.00  966.09
   0  17 -1114904.00 1744.32
   0  17  1113055.10 2191.42
   0 -17  1114529.60 1549.73
   0  17 -12 3106.75 1170.60
   0  17  12 2509.48  611.53
   0 -17  12 2681.53  618.61
   0  17 -13 1201.26  845.72
   0  17  13  632.80  734.53
   0 -17  13 1155.19  288.98
   0  17 -14  -33.49  291.93
   0  17  14  144.58  425.69
   0 -17  14  176.86  156.00
   0  17 -15 6793.91 1727.42
   0 -17  15 5382.38  930.53
   0  17  15 6081.21  942.99
   0 -17  16 1886.93  560.64
   0  17 -16 1504.76  598.46
   0  17  16 1002.70  903.02
   0  17  17  902.27  682.74
   0 -17  17  264.47  391.95
   0  17 -17 1126.33  730.57
   0  17 -18 9910.76 2313.99
   0  17  1811604.80 1505.83
   0  17 -1912131.80 1651.53
   0  17  1910830.70 1537.30
   0  17  2021067.40 3350.54
   0  17 -2020456.80 3509.07
   0  17  21 6659.75 1949.81
   0  17 -21 7684.07 2059.13
   0  17 -2210259.10 1590.21
   0  17  2210620.90 2387.67
   0  17 -23 4734.80 1726.79
   0  17  23 4142.11 1696.00
   0  18   0 2182.68 1006.01
   0  18   0 3471.06  927.92
   0  18   115677.50 1969.79
   0  18  -114907.40 1428.79
   0  18  -112276.40 1389.17
   0  18   114193.60 2084.44
   0  18  -2  105.22  489.20
   0  18   2  963.93  524.55
   0  18   2  310.82  254.97
   0  18   319473.00 1918.97
   0  18   320117.60 2298.22
   0  18  -321457.70 2718.85
   0  18   4  880.43  377.05
   0  18  -4  482.49  364.63
   0  18   4  495.85  457.88
   0  18  -514895.40 2244.55
   0  18   513290.10 1441.89
   0  18   513036.70 1681.11
   0  18   6  971.73  385.22
   0  18   6  518.36  439.07
   0  18  -6  567.90  395.95
   0 -18   6  890.55  482.23
   0  18   7  491.55  368.46
   0  18  -7  806.48  605.56
   0 -18   7  412.94  234.40
   0  18   7  346.73  543.43
   0 -18   8 1302.03  544.68
   0  18   8 1241.85  781.11
   0  18   8 1097.89  478.59
   0  18  -8 1694.88  565.97
   0  18  -9  157.95  437.09
   0 -18   9  -27.71  260.82
   0  18   9  185.37  215.16
   0  18   9   41.67  222.17
   0  18  10 3160.58 1154.67
   0  18 -10 3593.14  820.43
   0 -18  10 3625.85  765.60
   0 -18  1110040.50  891.47
   0  18 -1110976.70 2244.39
   0  18  1110338.10 1897.22
   0 -18  12 1055.80  287.08
   0  18  12 1358.16  482.28
   0  18 -12 1035.70  533.77
   0 -18  1330649.70 2890.80
   0  18 -1330878.80 4193.80
   0  18  1326740.60 3682.61
   0  18 -14 1616.98  634.31
   0 -18  14 1654.57  559.57
   0  18  14 1100.16  872.93
   0 -18  1527103.30 2630.65
   0  18  1525495.10 2633.73
   0  18 -1527704.60 3926.05
   0 -18  16  951.68  268.74
   0  18 -16  563.66  498.75
   0  18  16  483.14  749.30
   0  18 -1717933.80 2119.42
   0  18  1716292.40 2735.89
   0  18 -18  385.32  760.87
   0  18  18  560.13  408.44
   0  18  19 2794.85  795.57
   0  18 -19 3590.45  867.59
   0  18  20  173.00  555.63
   0  18 -20  180.13  612.61
   0  18 -21  134.45  622.56
   0  18  21  217.15  574.70
   0  18 -22  579.41  490.78
   0  18  22  200.70  762.53
   0  19   0  -24.26  341.77
   0  19   0  116.19  307.98
   0  19  -1  929.83  750.64
   0  19   1 1443.33  465.32
   0  19  -1 1657.08  740.43
   0  19   1 1076.93  403.00
   0  19  -2 1699.17  507.52
   0  19   2 2190.99  528.32
   0  19   2 1982.44  750.61
   0  19  -313134.80 1380.35
   0  19   313430.40 1687.69
   0 -19   3 1275.00 1844.09
   0  19   312031.40 1319.34
   0  19   4 6414.42 1034.08
   0  19   4 5213.30 1230.78
   0  19  -4 3901.04 1550.32
   0 -19   418411.70 1793.57
   0  19   519708.80 2302.23
   0  19   521339.00 2131.34
   0  19  -521282.10 2196.16
   0  19   610541.70 1302.06
   0  19  -611823.80 2074.58
   0  19   6 7356.66 1373.00
   0 -19   612236.80 1543.01
   0  19   719979.80 2215.93
   0  19  -722981.80 2496.59
   0 -19   723640.60 2504.72
   0  19   723893.10 3142.13
   0  19   8 3487.93  853.69
   0  19   8 3658.73 1299.13
   0  19  -8 5693.22 1564.35
   0 -19   8 5361.58  961.36
   0  19   9 9267.31 1228.58
   0 -19   9 9743.73 1353.70
   0  19  -911931.50 2206.58
   0 -19  10 2479.57  719.37
   0  19  10 2304.45  639.49
   0  19 -10 2974.58  755.23
   0  19  11 1680.50 1018.87
   0  19 -11 2413.50 1142.73
   0 -19  11 2413.95  409.78
   0  19 -12 1887.00  728.75
   0  19  12 2113.28  645.22
   0 -19  12 2971.97  657.64
   0  19 -13 5594.21 1583.73
   0  19  13 3553.35 1397.32
   0 -19  13 4416.76  871.43
   0 -19  14  928.84  294.49
   0  19 -14  963.00  924.83
   0  19  14 1189.33  484.75
   0  19 -15  229.47  404.54
   0 -19  15  536.10  398.92
   0  19  15  496.59  384.57
   0  19  16 1929.60 1110.15
   0  19 -16 2728.30 1181.79
   0  19 -17 5922.43 1076.94
   0  19  17 4561.87  972.48
   0  19  18 4723.03  921.69
   0  19 -18 2122.78 1555.72
   0  19 -19 7987.54 1446.73
   0  19  1910742.20 2125.50
   0  19  20 2383.43 1185.34
   0  19 -20 1509.24 1274.00
   0  19 -2112659.60 2770.32
   0  19  2110558.20 2486.28
   0  20   0 5117.10  791.61
   0  20   0 5108.80  857.18
   0  20   1  284.71  540.11
   0  20  -1  631.69  358.17
   0  20   1   22.34  600.79
   0  20  -1  578.94  344.62
   0  20  -216363.30 2472.85
   0  20   216465.90 2197.79
   0  20   215326.10 2487.74
   0  20   3  245.91  641.57
   0  20  -3 1089.55  615.78
   0  20   3  313.95  500.70
   0  20   420230.90 2839.56
   0  20   416002.10 2215.85
   0  20  -419062.10 2010.79
   0  20   5  -81.68  458.38
   0  20   5   94.38  186.07
   0  20  -5  430.59  453.57
   0 -20   6 1607.78  385.17
   0  20   6 1073.15  511.90
   0  20   6  814.30  339.98
   0  20  -6 1745.51  553.31
   0  20   7 -256.33  264.58
   0  20   7  -75.19  289.95
   0 -20   7   10.24  310.84
   0  20  -7  -66.76  495.91
   0 -20   8  308.30  208.47
   0  20  -8 -225.57  582.74
   0  20   8   33.39  517.93
   0  20  -9  889.69  504.75
   0 -20   9  821.10  511.74
   0  20   9  455.81  746.29
   0 -20  10 9279.28 1325.90
   0  20  10 8736.08 1201.24
   0  20 -10 7204.51 1990.64
   0 -20  11 2898.18  784.90
   0  20 -11 2827.15  796.73
   0  20  11 3462.52 1203.93
   0 -20  1221121.60 2300.27
   0  20  1219235.40 2147.94
   0  20 -1222548.80 3557.56
   0  20 -13 2154.13  774.72
   0 -20  13 2508.90  445.13
   0  20  13 3874.21 1163.38
   0  20  1417246.10 2034.07
   0  20 -1417890.00 3122.97
   0 -20  1418504.30 2130.06
   0  20 -15  360.43  356.87
   0  20  15 -237.78  558.52
   0  20  1616026.80 2806.80
   0  20 -1616069.80 2926.18
   0  20  17  124.98  408.95
   0  20 -17  593.17  433.69
   0  20  18 5980.45 1165.71
   0  20 -18 7488.51 2012.84
   0  20  19  162.28  637.99
   0  20 -19  325.31  681.20
   0  20 -20  614.59  601.85
   0  20  20 1596.32  944.61
   0  21   0   40.94  374.96
   0  21   0   63.15  348.07
   0  21   1 1810.55  850.17
   0  21   1 1573.42  975.47
   0  21  -1 2222.45  919.83
   0  21   2 4548.87  673.50
   0 -21   2 2084.50  840.30
   0  21   2 3079.08 1296.01
   0  21  -2 4289.21  753.93
   0  21   3 2998.86  616.50
   0  21   3 2970.55 1235.60
   0 -21   3 4901.05  855.30
   0  21  -3 1734.73 1173.68
   0  21  -423296.90 3364.40
   0  21   423119.90 3174.90
   0  21   416527.10 1738.44
   0  21   5 8008.15 1018.92
   0  21   511854.00 2170.35
   0 -21   5 9401.16 1085.08
   0  21  -5 9229.81 1431.94
   0 -21   511207.00 1609.49
   0 -21   634370.70 2856.24
   0  21  -637200.20 4878.06
   0  21   627142.10 2597.15
   0  21   638494.60 4625.18
   0  21  -716928.50 3225.68
   0 -21   717105.10 2159.27
   0  21   719220.90 2201.55
   0  21  -822716.40 2512.41
   0  21   819190.30 2149.15
   0 -21   820555.50 1777.81
   0  21  -9 4092.63 1581.64
   0 -21   9 4969.64 1072.87
   0  21   9 4761.64 1506.81
   0  21 -1015578.20 1979.33
   0  21  1014942.90 1796.94
   0 -21  1015310.10 1919.54
   0  21 -1110748.40 2392.53
   0  21  11 9122.47 2091.80
   0 -21  1111036.60 1574.77
   0  21  12 2877.40  746.48
   0  21 -12 2546.64  801.23
   0 -21  12 2411.75  790.30
   0  21 -13  194.08  926.91
   0 -21  13 1027.73  313.43
   0  21  13  661.63  844.70
   0  21  14 -203.65  296.30
   0  21 -14  437.27  313.14
   0  21  15  -36.20  649.64
   0  21 -15  733.01  689.51
   0  21  16 1378.21  868.65
   0  21 -16  617.82  532.78
   0  21  17  446.61  430.73
   0  21 -17  256.31  758.02
   0  21 -18 9040.66 1522.41
   0  21  18 8505.83 1422.12
   0  22   0  213.32  304.70
   0  22   0  159.68  282.92
   0  22   126151.70 2722.73
   0  22  -131656.00 4024.61
   0  22   130923.20 3074.55
   0  22  -2 4405.24 1494.01
   0  22   2 4136.96  771.68
   0  22   2 4841.85  913.48
   0  22  -325376.60 2942.21
   0  22   328501.30 3443.69
   0  22   327727.10 2934.20
   0  22   4  925.59  498.89
   0  22  -4 1593.46  578.09
   0  22   4  332.99  668.15
   0 -22   5 2681.20  564.89
   0  22   5 3268.00 1178.10
   0  22   5 3316.81  894.30
   0 -22   5  271.12  904.62
   0  22  -5 3010.85 1285.64
   0  22   6  -74.53  396.49
   0  22   6  136.24  278.98
   0 -22   6  -36.93  296.93
   0  22  -6 -149.01  248.32
   0  22  -7   70.93  176.00
   0 -22   7  -49.35  190.96
   0  22   7  -79.98  277.95
   0  22  -8  -76.98  441.32
   0 -22   8   58.07  290.30
   0  22   8   82.47  250.43
   0  22   9 2404.93 1454.24
   0  22  -9 3997.87  969.08
   0 -22   9 5098.46 1040.98
   0  22  10 3832.59  853.81
   0 -22  10 3045.72  933.56
   0  22 -10 3493.56 1508.86
   0 -22  1119761.00 2452.98
   0  22 -1122278.10 3665.17
   0  22  1118641.00 3259.59
   0  22 -12 1657.60  601.63
   0 -22  12  978.56  602.30
   0  22  12  389.63  555.95
   0  22 -1312866.70 2530.87
   0  22  1310103.30 2390.26
   0  22 -14 1057.87  646.90
   0  22  14 1634.28  614.87
   0  22  1517403.50 3133.26
   0  22 -1517033.10 3235.68
   0  22 -16 1315.87  619.52
   0  22  16  847.71  575.36
   0  22 -17 6389.41 2021.92
   0  22  17 5835.09 1170.54
   0  23   0 -117.70  278.76
   0  23  -1 1843.28  607.93
   0  23   1 2048.69 1000.36
   0  23   1 2441.30  951.65
   0 -23   1  258.45  677.85
   0  23  -2 1058.20 1153.31
   0  23   2 2110.50 1143.95
   0  23   2  948.22  986.95
   0 -23   2 2919.87  778.24
   0 -23   3 1807.06  903.05
   0  23  -3 8639.26 1803.90
   0  23   3 9476.24 1524.02
   0  23   3 7751.97 1767.96
   0  23  -4 5519.82 1825.20
   0  23   4 5669.66 1118.92
   0  23   4 4734.36 1428.59
   0 -23   410097.50 1736.88
   0  23   519263.60 2232.93
   0 -23   516955.70 2507.85
   0  23   517534.40 2630.14
   0  23  -517455.80 2284.48
   0 -23   6 4723.38 1200.50
   0  23   6 4689.53 1612.35
   0  23  -6 3557.85 1706.35
   0  23  -723996.60 3807.54
   0  23   725557.20 3853.74
   0 -23   722521.60 2097.31
   0  23   8 8229.79 1476.44
   0  23  -810551.80 1555.30
   0 -23   8 9400.58 1645.24
   0 -23   914509.90 1437.18
   0  23   913404.70 2807.22
   0  23  -913964.30 2869.87
   0  23 -10 4496.65 1581.71
   0  23  10 2796.04 1486.63
   0 -23  10 3229.31 1007.89
   0 -23  11 4519.79 1117.69
   0  23 -11 5181.14 1107.40
   0  23  11 4545.81 1029.50
   0  23  12 2147.81 1275.42
   0  23 -12 2916.92 1348.71
   0  23 -13 1050.61  556.03
   0  23  13  588.86  543.42
   0  23  14 -188.83  323.91
   0  23 -14  140.58  561.55
   0  23 -15  612.75  507.88
   0  23  15  407.77  816.33
   0 -24   0  -32.72 1077.57
   0  24   020449.20 2018.65
   0  24   1 2280.04 1668.17
   0 -24   128762.90 2730.14
   0  24  -1 2599.16 1738.26
   0  24   215204.50 2573.09
   0  24   213063.90 2309.85
   0 -24   2 3048.82 2583.86
   0  24  -211567.40 1653.72
   0  24  -3 1768.30  677.25
   0  24   3 1412.14 1153.70
   0  24   3 1817.40  967.32
   0  24  -411892.00 2528.79
   0  24   412753.40 2117.34
   0  24   412224.00 2445.23
   0 -24   414214.40 1966.62
   0 -24   4 2131.65 1721.62
   0 -24   5   19.89  555.68
   0  24  -5  500.76  740.65
   0  24   5  685.38  464.65
   0  24  -6  616.30  571.20
   0  24   6  895.03  559.00
   0 -24   6 1231.47  421.13
   0  24   7  697.57  729.24
   0  24  -7  245.94  427.57
   0 -24   7  414.42  517.20
   0  24   8  284.58  896.00
   0 -24   8 1001.24  631.72
   0  24  -8  775.57  925.32
   0  24   9  849.89  495.89
   0  24  -9  793.53  516.29
   0 -24   9  356.17  335.52
   0  24  10  990.18 1826.44
   0 -24  10 5008.17 1239.76
   0  24 -10 6617.99 1174.63
   0  24  11 2011.38  775.15
   0  24 -11 1839.95 1247.61
   0  24  12  952.03 1801.97
   0  24 -12 6792.69 1186.93
   0  24 -13 1355.59  948.53
   0  24  13  511.12  578.33
   0  25   0  141.27  537.40
   0 -25   0 -271.72  382.28
   0  25  -1 -183.16  513.57
   0 -25   1  -30.94  345.20
   0  25   1  249.66  286.69
   0 -25   2   56.90  520.56
   0  25   2 1531.28  567.97
   0  25   2 1386.50  519.92
   0  25  -2  326.75  981.48
   0  25   3 2673.12  692.47
   0 -25   3   23.12  615.78
   0  25  -3 2087.13 1112.99
   0  25  -410763.30 1683.28
   0  25   410139.00 2502.96
   0 -25   4 1636.25 1760.60
   0 -25   413458.30 1428.78
   0  25   5 3491.05 1696.91
   0  25  -5 3891.23 1022.23
   0 -25   5 4001.22 1268.99
   0 -25   615458.10 2392.86
   0  25   613582.10 2066.53
   0  25  -615135.20 3142.75
   0  25  -7 4807.09 1857.00
   0 -25   7 4623.99 1337.79
   0  25   7 4317.64 1164.09
   0 -25   819101.40 1972.48
   0  25   821420.00 3786.46
   0  25  -818821.30 2613.39
   0  25  -9 2399.09 1577.12
   0  25   9 3456.03  933.84
   0 -25   9 2049.35 1063.50
   0  25  10 7755.92 2230.77
   0  25 -10 6971.06 2145.62
   0 -26   0   49.30 1367.80
   0  26   0 1736.66  648.20
   0 -26   1  -59.49 2099.12
   0  26   110767.70 1812.08
   0  26  -1 8239.48 1245.72
   0 -26  -1   16.61 1191.23
   0 -26   210338.30 1493.32
   0  26  -2  665.75  769.41
   0  26  -310666.90 2474.11
   0  26   3 9930.94 1662.25
   0  26   4  340.02  473.19
   0  26  -4  609.61  759.08
   0 -26   4  272.08  610.78
   0  26  -5 1191.18 1290.12
   0  26   5 1955.94 1316.92
   0 -26   5 2187.90  997.61
   0  26  -6  943.80  564.08
   0  26   6   38.33  983.92
   0 -26   6  737.22  413.05
  -1   0   0  108.20   37.96
  -1   0   0  199.32   68.95
   1   0   0  458.83   90.52
   1   0   0  408.31  141.20
  -1   0  -1239040.021782.30
   1   0   1229456.020945.10
  -1   0  -2 6992.31  467.22
   1   0   2 5960.82  502.17
  -1   0  -2 5683.76  581.53
   1   0   2 7312.00  519.51
  -1   0   2 4196.44  348.26
   1   0  -3 6963.87  335.76
  -1   0  -3 7131.88  542.68
   1   0   3 7460.57  413.75
   1   0  -3 7285.22  488.65
   1   0   3 7125.84  632.24
  -1   0  -3 7408.53  472.45
  -1   0   3 6765.94  351.00
  -1   0   3 7335.52  448.57
   1   0  -4 1308.52  202.51
  -1   0   4 1794.88  185.28
  -1   0  -4 1205.69  349.41
   1   0   4 1584.78  330.49
  -1   0  -4 1568.51  160.12
   1   0  -4 1129.69  137.06
   1   0   4 1389.42  156.27
  -1   0   4  875.97  156.37
   1   0   511324.40  832.23
  -1   0   511422.90  639.15
  -1   0  -512449.10  738.35
   1   0  -5 9172.31  641.69
   1   0  -510659.40  565.43
   1   0   511127.40  692.16
  -1   0  -511448.90  636.02
  -1   0   510832.20  601.64
  -1   0   620061.60 1169.25
  -1   0   616765.20 1016.19
   1   0   618514.90 1417.40
   1   0   621433.30 1653.94
  -1   0  -621981.40 1334.75
   1   0  -619483.10 1081.82
   1   0  -616187.20 1029.95
   1   0  -7 2894.10  290.24
   1   0  -7 2135.08  310.92
  -1   0   7 3118.46  280.67
   1   0   7 2178.50  505.57
  -1   0  -7 2325.25  500.20
  -1   0   7 3150.92  336.76
   1   0   7 1332.62  363.71
   1   0   815529.50 1458.59
  -1   0   817482.10 1061.27
  -1   0  -818070.40 1180.99
  -1   0   817134.00 1173.31
   1   0  -814293.50 1041.81
   1   0   911240.40 1113.68
  -1   0   912474.10  881.93
  -1   0  -913844.40 1109.54
   1   0  -910557.30  801.48
  -1   0   912311.40  753.89
   1   0  -910905.10  722.94
  -1   0  1010944.70  813.26
   1   0  1011866.60 1199.34
   1   0 -1012103.30  931.30
  -1   0  1011964.60  975.16
  -1   0 -1011618.30 1138.29
   1   0  11101612.0 8601.53
   1   0 -11120209.0 9254.82
  -1   0  11105295.0 8301.73
  -1   0 -11107587.0 8800.97
  -1   0  1178510.00 6317.11
   1   0 -12 5381.34  573.08
  -1   0 -12 5333.22  701.38
   1   0  12 1750.26  703.35
  -1   0  12 4610.41  578.61
  -1   0 -1391917.20 7392.13
   1   0  1387192.30 6794.26
  -1   0  1390012.20 7049.39
   1   0 -1377307.90 6032.58
   1   0  14  -85.17  100.49
   1   0 -14   26.75  112.33
  -1   0 -14   18.56  139.55
  -1   0  14   15.44  127.17
   1   0 -1534802.50 2512.43
   1   0  1538077.70 3284.28
  -1   0 -1538747.00 2586.60
  -1   0  1537644.10 2839.35
  -1   0  16  649.25  344.94
  -1   0 -16  454.34  347.98
   1   0  16  641.16  431.54
   1   0 -16  875.67  274.44
  -1   0  1730061.80 2553.58
   1   0  1730356.00 2374.76
  -1   0 -1733646.00 2779.76
   1   0 -1732058.30 2374.17
  -1   0  1813667.90 1494.73
  -1   0 -1814376.30 1549.50
   1   0  1813516.20 1778.12
   1   0 -1814625.60 1283.15
  -1   0 -19 4802.66  798.23
   1   0  19 4385.58  965.62
   1   0 -19 4561.55  600.42
  -1   0  19 4940.76  774.64
  -1   0  20 4879.34  816.94
  -1   0 -20 4523.20  535.41
   1   0  20 4498.72  628.83
   1   0 -20 4223.01  429.77
   1   0  21  141.61  372.78
  -1   0  21   -6.99  297.31
   1   0 -21  350.08  222.63
  -1   0 -21  211.36  291.01
   1   0  22  314.04  436.77
  -1   0 -22  160.89  202.77
  -1   0  22  499.02  210.93
  -1   0 -23 2534.20  707.52
   1   0  23 2499.35  556.17
  -1   0  23 2706.94  734.29
   1   0  24 2319.34  876.18
  -1   0  24 2142.10  450.52
   1   0  25 9592.48 1782.83
  -1   0  25 9853.79 1490.24
   1   0  26  132.23  267.53
  -1   0  26  242.71  226.42
   1   0  2716114.50 2537.97
   1   0  28   -3.66  267.96
   1   0  29 6446.67 1086.06
   1   0  30 -173.51  533.44
  -1  -1   029131.60 1349.07
   1  -1   025140.90 1404.18
  -1  -1   019846.60 1090.37
  -1   1   030204.90 1655.19
   1  -1   022261.60 1126.85
  -1   1   024417.20 1314.23
   1   1   036088.80 1676.94
   1   1   127144.50 1245.98
   1   1   119338.40 1070.58
  -1   1  -120770.00 1083.34
  -1  -1   125465.00 1404.84
   1  -1  -119500.40 1203.29
   1  -1  -125788.30 1313.92
  -1   1  -117616.00  899.80
   1   1  -126120.50 1508.11
   1  -1   123335.30 1144.14
   1   1  -128115.20 1224.65
  -1  -1  -129282.50 1442.97
   1  -1   117229.00  904.27
  -1  -1  -118919.60 1019.08
  -1   1  -212850.20  780.02
   1   1   213115.70  973.88
   1   1   211081.30  609.21
   1  -1  -211467.20  661.39
   1   1   214406.10  905.87
  -1   1  -214758.40 1011.46
  -1  -1   213754.60  806.98
   1  -1   212937.40  647.11
   1   1  -213651.50  872.78
   1  -1   211559.80  615.18
  -1   1   213103.10  661.09
  -1  -1  -213236.60  797.62
   1   1  -210760.90  392.78
   1  -1  -3 3326.76  263.34
  -1  -1   3 3559.14  226.55
   1   1   3 4834.99  488.78
  -1   1  -3 4963.61  530.07
   1   1   3 4504.95  433.61
   1  -1  -3 4104.18  294.64
  -1   1  -3 3088.06  233.07
   1   1  -3 4653.67  424.17
  -1  -1  -3 4356.52  395.63
   1  -1   3 4091.65  438.22
  -1   1   3 3545.68  238.12
   1  -1   3 4161.03  477.87
  -1   1   3 3729.39  327.85
  -1  -1  -3 3885.23  313.19
   1   1   4 9961.52  731.50
  -1  -1   410503.60  664.05
   1  -1  -4 8455.13  446.09
  -1   1  -410540.90  926.73
  -1  -1   4 9523.31  444.49
   1   1   410960.30  882.18
   1  -1  -410087.40  591.46
  -1   1  -410255.20  545.05
  -1   1   410412.50  658.62
   1   1  -410888.20  763.02
  -1  -1  -410403.40  629.72
  -1  -1  -4 9185.67  533.57
   1   1  -410119.90  457.26
   1  -1   410612.10  801.59
  -1   1   4 9601.90  465.82
   1  -1   4 9006.54  831.75
  -1  -1   531672.90 1572.47
   1   1   531115.90 1892.35
   1  -1  -528684.50 1493.04
   1   1   532399.50 2045.38
   1  -1  -529084.60 1512.33
  -1  -1   534308.10 1986.53
  -1   1  -530902.20 2028.00
  -1   1  -533735.30 2365.69
  -1   1   531668.90 1584.01
  -1  -1  -530710.20 1764.51
   1   1  -531970.00 1547.09
   1   1  -531467.50 1698.85
  -1  -1  -529201.20 1685.43
  -1   1   532277.60 1907.29
   1  -1   528875.30 1695.83
   1  -1   531880.70 1836.61
  -1  -1   646094.20 2666.97
   1   1   646063.30 3090.96
  -1  -1   650905.00 2894.25
  -1   1  -652516.70 3318.91
   1  -1  -646174.20 2635.59
   1   1   647806.30 3084.38
   1  -1  -639327.70 2291.22
   1  -1   648736.20 3405.96
   1  -1   645889.00 2890.25
   1   1  -648906.00 2737.94
  -1   1   648722.30 2815.59
  -1  -1  -649560.00 3487.28
   1   1  -652932.30 3337.22
  -1   1   648037.00 3076.26
   1  -1  -726824.20 1627.44
  -1  -1   729318.50 1742.15
  -1  -1   727804.50 1535.63
  -1   1  -728891.90 2101.96
   1   1   727113.00 1739.93
   1  -1  -721170.00 1214.13
   1   1   726907.60 2092.48
  -1   1   722436.90 1211.65
   1   1  -727209.40 1448.09
   1   1  -725076.10 1734.89
  -1  -1  -727838.30 1659.03
   1  -1   726270.40 1968.85
  -1   1   725307.00 1381.36
   1   1   839827.00 2542.00
  -1  -1   832434.80 1902.06
  -1  -1   840436.40 2416.69
   1  -1  -839852.90 2507.70
  -1   1  -843892.00 3165.31
   1  -1  -832038.10 1957.91
   1  -1   836541.00 2327.53
   1   1  -840104.30 2675.20
   1   1  -839032.00 2272.59
  -1   1   841191.90 2709.75
  -1  -1  -841587.70 2576.81
  -1   1   836686.10 2078.07
  -1  -1   920891.80 1314.70
  -1  -1   916721.00  997.40
   1  -1  -917501.90 1139.69
   1   1   920005.80 1382.40
  -1   1  -923914.20 1858.78
   1  -1   921846.90 1744.10
  -1   1   918093.50 1054.02
   1   1  -919277.00 1143.48
  -1   1   920374.30 1460.27
   1   1  -920919.70 1494.50
  -1  -1  -920703.90 1565.93
  -1  -1  1041365.10 2769.75
   1  -1 -1043728.00 2753.02
  -1   1 -1045325.20 3443.56
  -1   1  1041503.00 2981.16
   1   1 -1037398.70 2444.62
  -1  -1 -1045024.10 2906.52
   1   1 -1042819.00 3059.92
  -1   1  1035825.90 2263.44
   1  -1  1042147.30 3256.95
   1  -1 -1144050.20 2847.42
  -1   1 -1142348.10 3400.32
   1   1  1143045.40 3057.96
  -1  -1  1142608.60 2996.71
  -1   1  1136657.50 2444.95
  -1  -1 -1147527.50 3505.14
  -1   1  1142386.00 3170.53
   1   1 -1143134.60 3183.66
   1  -1  1141617.90 3406.14
   1   1  1211157.70 1284.57
  -1  -1  1211345.50  927.52
  -1   1 -1210245.40 1107.72
   1  -1 -1211601.00  799.66
  -1   1  1211512.30 1038.90
  -1  -1 -1211070.60 1022.11
   1   1 -1212541.70 1120.97
   1  -1  12 9656.78 1137.87
  -1   1  12 8312.20  652.49
  -1  -1  13 6835.03  705.00
   1   1  13 6375.90  960.41
   1  -1 -13 5899.78  553.73
  -1   1 -13 6407.15  596.71
   1  -1  13 6314.86  889.19
  -1   1  13 7060.21  803.75
  -1   1  13 4582.79  574.62
  -1  -1 -13 6803.34  778.12
   1   1 -13 7601.15  817.50
   1  -1 -1419655.10 1349.01
  -1   1 -1418990.80 1768.92
  -1  -1  1418179.00 1481.24
   1   1  1417925.50 1459.20
  -1  -1 -1417025.20 1648.96
   1   1 -1420054.80 1625.72
   1  -1  1417988.80 1797.41
  -1   1  1417776.50 1630.66
   1   1  15 5590.02  930.07
  -1  -1  15 5202.12  680.65
   1  -1 -15 6025.66  562.58
  -1   1 -15 4680.04  793.16
   1   1 -15 6121.91  719.46
  -1  -1 -15 6525.84  767.08
   1  -1  15 6568.67  899.89
  -1   1  15 5517.80  761.28
  -1  -1  16 7467.85  579.91
   1  -1 -16 6572.06  637.75
  -1   1 -16 7693.68  645.41
   1   1  16 7399.56  745.67
   1   1 -16 6957.55  554.62
  -1  -1 -16 7314.27  867.69
   1  -1  16 8508.50 1060.41
  -1   1  16 6776.06  873.06
   1   1  1713267.30 1629.59
  -1  -1  1713247.50 1250.17
   1  -1 -1713159.40 1032.69
  -1   1 -1712279.60 1370.71
  -1  -1 -1712409.40 1283.70
  -1   1  1714316.60 1390.81
   1   1 -1713866.40 1264.35
   1  -1  1712603.80 1072.15
   1   1  18 8223.36 1337.35
  -1  -1  18 9812.64 1097.37
   1  -1 -18 9381.43  819.18
  -1   1 -18 8886.31  803.31
   1   1 -1810675.40 1040.02
  -1   1  18 8712.31  775.05
  -1  -1 -18 9468.57 1087.43
   1  -1  18 8185.67  875.82
  -1  -1  1923805.20 2091.72
   1   1  1922584.10 1909.35
   1  -1 -1924217.40 1772.79
  -1   1 -1923447.90 2221.32
   1  -1  1924474.90 2534.99
  -1  -1 -1922730.20 2105.04
   1   1 -1925163.50 2053.23
  -1   1  1922091.80 2199.06
   1   1  2013381.20 1740.18
  -1  -1  2012958.20 1423.34
   1  -1 -2012695.80 1082.82
  -1   1 -2012934.30 1080.55
   1  -1  2011873.20 1672.81
   1   1 -2013249.80 1272.45
  -1  -1 -2014471.40 1435.02
  -1   1  2012977.00 1540.43
  -1   1 -21 8827.71 1149.07
  -1  -1  21 7147.67 1042.80
   1   1  21 7261.32  882.92
  -1  -1 -21 7030.47 1022.34
   1  -1  21 7831.23 1302.74
   1   1 -21 7040.25  631.67
  -1   1  21 7884.17  766.10
  -1   1 -22 8057.32 1280.04
   1   1  22 9312.22 1570.85
  -1  -1  22 9423.20 1232.67
   1  -1  22 9196.57 1015.67
  -1  -1 -22 8241.58 1167.30
   1   1 -22 9199.67 1060.49
  -1   1  22 9288.62 1315.84
  -1  -1  23 8068.37 1178.36
  -1   1 -23 7472.92 1218.97
   1   1  23 7562.51 1463.53
  -1   1  23 7275.11 1226.02
  -1  -1 -23 7646.42 1105.90
   1  -1  23 8135.49 1436.30
   1   1  24 4201.37  630.15
  -1  -1  24 2880.60  795.56
  -1   1 -24 1506.12  816.06
   1  -1  24 1784.55 1013.88
  -1   1  24 3883.16  554.05
   1   1  25 1971.00  937.73
  -1  -1  25 1577.33  729.29
   1  -1  25 2752.73  915.41
  -1   1  25 2570.59  791.56
  -1  -1  26 1985.84  484.18
   1   1  26 3252.99  634.94
  -1   1  26 2014.82  498.51
   1  -1  26 2124.21  599.32
   1   1  27 2177.55  875.00
  -1   1  27  189.26  696.96
   1  -1  27 1718.18  830.06
   1   1  28  474.37  691.28
   1  -1  28  671.96  667.67
   1   1  29   33.32  301.61
   1  -1  29  341.41  304.44
   1   1  30   26.93  405.43
   1  -1  30   58.69  396.63
   1   2   029270.50 1904.50
  -1  -2   026388.00 1414.66
   1  -2   023807.30 1310.45
  -1  -2   029612.90 1514.23
   1   2   028474.00 1526.70
  -1   2   028995.20 1705.01
   1  -2   030048.70 1709.62
  -1   2  -1 6591.75  384.39
   1  -2  -1 6171.26  504.28
  -1  -2   1 6749.05  286.68
  -1   2  -1 4598.90  301.09
   1   2   1 6529.84  362.06
   1   2   1 5747.12  388.07
  -1  -2   1 5788.06  521.15
   1  -2  -1 6226.73  392.21
  -1  -2  -1 7072.95  447.81
  -1  -2  -1 6648.87  548.51
   1   2  -1 5984.32  385.62
   1   2  -1 5655.46  294.02
   1  -2   1 7216.72  560.91
  -1   2   1 6138.92  421.95
   1  -2   1 6426.92  558.48
  -1  -2   282688.60 5764.17
   1   2   284298.30 6036.38
  -1   2  -277613.60 5038.95
   1   2   284216.20 5953.33
  -1   2  -275631.20 5656.91
   1  -2  -282862.70 5626.89
   1  -2  -283297.10 5238.72
  -1   2   269789.60 4680.25
  -1  -2  -282680.90 5790.60
   1   2  -286454.30 6057.63
  -1  -2  -281085.20 5291.03
   1  -2   288944.20 6304.69
  -1   2   277321.70 4942.12
   1  -2   280158.90 5592.36
   1  -2  -316777.40 1093.56
  -1   2  -324600.20 1736.80
   1   2   322874.40 1336.37
   1  -2  -318551.00  972.16
  -1   2  -319917.30 1268.81
  -1  -2  -321926.90 1415.98
   1   2  -322944.40 1531.70
  -1   2   315690.40 1162.87
   1  -2   323461.60 1625.72
  -1   2  -412535.30  781.86
  -1  -2   4 9090.20  514.67
   1   2   4 9973.12  756.83
   1   2   410885.70  874.20
   1   2   4 9905.74  704.33
  -1  -2   411207.00  395.49
   1  -2  -4 7520.99  423.63
  -1   2  -410813.20  794.51
   1  -2  -4 7920.08  456.50
  -1   2   4 9803.87  757.86
   1   2  -411144.90  893.24
  -1  -2  -4 9372.79  582.74
   1  -2   410596.50  888.49
   1  -2   4 9210.49  617.42
   1  -2  -510064.70  717.59
  -1  -2   5 9537.65  551.26
  -1   2  -512430.70 1164.80
   1   2   511006.50  800.86
   1   2   5 8087.31  498.75
  -1  -2   512295.00  577.69
  -1   2  -512005.20  873.28
   1   2  -511754.50  939.92
   1  -2   510454.90  684.53
   1   2  -510315.10  421.22
  -1  -2  -510776.30  859.40
  -1  -2  -510254.10  625.55
  -1   2   5 8952.84  409.07
   1  -2   5 9619.16  621.14
  -1   2   512204.70  866.10
   1  -2  -6 1405.92  145.36
   1  -2  -6 2370.34  293.75
   1   2   6 1747.52  290.55
  -1  -2   6 2113.45  197.41
  -1  -2   6 2417.51  232.21
   1   2   6 1286.46  299.30
  -1   2  -6 2708.01  494.52
  -1   2   6 1910.94  135.71
  -1   2   6 1724.67  211.96
   1   2  -6 2094.00  147.26
   1   2  -6 2429.09  235.11
   1  -2   6 2260.74  412.99
  -1  -2  -6 1815.30  225.00
   1  -2  -7 7952.03  637.49
   1   2   7 9003.49  948.82
  -1  -2   7 8752.70  682.20
   1   2   7 7172.42  616.25
  -1  -2   7 8486.49  500.35
   1  -2  -7 6195.43  400.54
  -1   2  -7 8877.86  967.82
  -1   2   7 7013.24  385.43
   1   2  -7 9614.01  815.84
   1   2  -7 7795.31  509.43
  -1   2   7 8025.67  751.81
  -1  -2  -7 8585.15  796.55
   1  -2   7 8408.53  824.24
  -1   2  -8 1852.19  515.38
  -1  -2   8 2411.60  244.51
   1   2   8 1068.53  298.19
   1   2   8 1024.89  523.37
   1  -2  -8 1915.65  177.39
   1  -2   8 2124.58  448.14
   1   2  -8 2449.35  209.92
  -1  -2  -8 2045.72  411.79
   1   2  -8 2283.25  254.07
  -1   2   8 1190.95  403.41
  -1   2   8 2373.81  184.36
  -1  -2   915951.50  975.84
   1   2   915219.50 1137.94
  -1   2  -916735.70 1554.07
   1  -2  -912711.10  716.71
   1  -2   913316.10  925.08
   1   2  -916034.30 1300.84
  -1   2   914681.00  951.33
  -1  -2  -915368.10 1204.16
   1   2  -915119.80  863.72
  -1   2   915146.20  831.41
  -1  -2  1027053.10 1618.32
   1  -2 -1028079.60 1567.54
   1   2  1024873.50 2131.28
  -1   2 -1028207.90 2201.50
  -1   2  1026410.50 1585.10
   1   2 -1029888.80 2087.30
   1   2 -1025197.70 1451.67
  -1  -2 -1025680.20 1524.11
  -1   2  1018961.40 1072.15
   1  -2  1025009.40 1973.71
  -1  -2  1111374.50  659.86
   1   2  1110496.80 1249.97
  -1   2 -1111852.10  878.72
   1  -2 -1110826.10  738.89
  -1   2  11 9943.79  687.34
  -1  -2 -1110307.70  959.84
   1   2 -1111162.80  765.26
  -1   2  1112277.30 1103.08
   1  -2  1110646.00  765.17
  -1  -2  1242025.30 2875.05
   1   2  1245843.40 3219.28
  -1   2 -1248712.20 3764.21
  -1  -2 -1245935.10 3308.32
   1  -2  1243851.00 3442.16
  -1   2  1243547.00 2899.19
  -1   2  1231966.80 2063.37
   1   2 -1250269.20 3765.57
  -1   2 -13  432.57  332.92
  -1  -2  13  684.03  228.04
   1   2  13  657.75  380.43
   1  -2 -13  676.28  205.54
  -1   2  13  332.45  124.93
  -1  -2 -13  463.74  259.59
   1   2 -13  800.82  335.46
   1  -2  13   46.09  318.27
  -1   2  13  587.82  298.64
  -1  -2  1446440.20 3367.57
   1  -2 -1448789.10 3089.76
   1   2  1446169.80 3464.18
  -1   2 -1449675.30 3472.81
  -1   2  1436053.30 2481.62
   1   2 -1451742.20 4008.63
  -1  -2 -1447355.00 3547.16
   1  -2  1449398.20 3978.62
  -1  -2  15 1581.17  375.60
  -1   2 -15  928.52  483.49
   1  -2 -15 2688.93  260.80
   1   2  15 1376.81  567.80
   1  -2  15 1669.39  509.74
   1   2 -15  993.15  264.21
  -1   2  15 1090.95  213.12
  -1   2  15 1920.67  465.06
  -1  -2 -15 1766.45  413.72
  -1   2 -1623347.40 1729.89
   1   2  1625119.40 1923.63
  -1  -2  1624473.60 1897.42
   1  -2 -1625426.60 1597.24
  -1  -2 -1624615.40 1961.08
   1   2 -1626031.00 2133.19
  -1   2  1625080.70 2189.08
   1  -2  1624797.70 2237.01
   1  -2 -17 3198.92  320.07
   1   2  17 1457.37  696.70
  -1  -2  17 3519.08  475.37
  -1   2 -17 2072.48  568.99
   1  -2  17 1353.86  595.91
   1   2 -17  738.96  514.21
  -1   2  17 1697.66  555.45
  -1  -2 -17 1067.82  291.24
  -1  -2  1813119.70  970.64
   1   2  1813518.20 1225.17
  -1   2 -1815183.10 1562.82
   1  -2 -1814571.70 1012.63
   1   2 -1815839.00 1432.87
  -1  -2 -1813668.40 1315.33
   1  -2  1814378.10 1617.73
  -1   2  1813901.60 1539.39
  -1  -2  19 6248.75  843.49
   1   2  19 3706.27 1176.63
   1  -2 -19 5887.68  583.45
  -1   2 -19 7215.34 1024.69
   1  -2  19 6814.45 1083.74
  -1  -2 -19 5927.14  815.29
   1   2 -19 7131.39  634.69
  -1   2  19 7508.45 1037.04
  -1   2 -20  485.11  472.01
  -1  -2  20  931.32  408.55
   1   2  20  968.20  349.24
  -1  -2 -20  933.30  384.74
   1   2 -20 1072.79  410.46
  -1   2  20 1033.83  296.76
   1  -2  20 1156.98  329.59
   1   2  21 2018.53 1041.88
  -1   2 -21 4237.40  548.07
  -1  -2  21 5120.25  781.03
  -1  -2 -21 3191.77  705.47
   1   2 -21 4606.58  769.00
  -1   2  21 2771.39  888.18
   1  -2  21 4917.40  635.74
   1   2  22  575.23  289.95
  -1  -2  22  526.27  353.09
  -1   2 -22  429.23  405.94
  -1  -2 -22  406.35  322.76
  -1   2  22  462.59  412.19
   1  -2  22  562.49  450.36
   1   2 -22  101.33  341.91
   1   2  23 4018.38 1019.95
  -1  -2  23 3682.95  480.19
  -1   2 -23 2479.69  827.63
   1  -2  23 2513.69  933.05
   1   2 -23 1354.13  697.84
  -1   2  23 3301.39  855.16
  -1  -2  2414333.60 1683.23
   1   2  2413117.10 1428.88
  -1   2 -2413195.30 1837.45
   1  -2  2412808.80 1935.62
  -1   2  2413167.00 1819.04
   1   2  25 1746.82  839.23
  -1  -2  25 1370.09  620.64
  -1   2 -25 1467.29  674.62
   1  -2  25 1334.85  485.69
  -1   2  25 1620.19  702.33
   1   2  2620197.00 2855.88
   1  -2  2619615.10 1977.09
  -1   2  2618564.70 1799.86
   1   2  27  205.94  255.15
  -1   2  27    1.11  359.48
   1  -2  27  -23.42  400.11
   1   2  2813322.50 2371.54
   1  -2  2814292.00 2285.31
  -1   2  2811521.70 1350.59
   1   2  29  212.17  306.76
   1  -2  29  145.22  296.05
   1   2  30   -0.79 1706.59
   1  -2  30 6779.94 1002.12
   1  -3   0  146.20  155.09
  -1   3   0  451.17   97.64
   1  -3   0  336.79   84.32
  -1  -3   0  384.43  117.99
   1   3   0   42.22  217.27
   1   3   0  279.41  137.34
  -1  -3   0  212.72  182.46
   1  -3   0  181.77  108.63
   1  -3  -1 3385.02  444.89
   1   3   1 4087.76  533.14
   1  -3  -1 4712.02  362.86
  -1  -3   1 3481.54  237.41
   1   3   1 4399.25  452.87
  -1   3  -1 4517.14  351.56
   1  -3   1 4263.88  472.63
  -1  -3  -1 3636.81  364.13
  -1   3   1 3933.66  385.10
  -1  -3  -1 3300.95  436.55
   1  -3   1 3322.16  490.03
  -1  -3   219955.70  948.93
   1   3   221858.40 1530.93
   1   3   218255.20 1051.56
  -1   3  -223080.90 1334.47
  -1  -3   218999.40 1066.86
  -1   3  -219390.50 1273.13
   1  -3  -221497.00 1100.23
   1  -3  -219252.90 1283.81
  -1   3   221188.50 1515.89
   1   3  -223051.70 1598.81
   1  -3   216866.80  996.24
   1   3  -217545.40  914.93
  -1   3   219735.80 1031.57
  -1  -3  -218478.10  961.93
  -1  -3  -217078.30  957.14
   1  -3   221891.90 1539.58
  -1   3  -3 2151.64  463.57
  -1  -3   3 2246.67  200.09
  -1  -3   3 1810.98  117.21
   1   3   3  465.88  381.18
   1  -3  -3 1938.45  304.43
   1  -3  -3 2222.55  159.11
   1   3   3  713.02  423.32
  -1  -3   3 1453.55  156.32
   1  -3   3 2217.47  237.17
   1   3  -3 2154.00  251.11
  -1   3   3 1237.75  225.30
  -1  -3  -3 1508.54  315.43
   1  -3   3 1931.01  221.48
  -1   3   3 1576.79  152.71
  -1   3  -4 3051.71  532.07
   1  -3  -4 2136.71  143.58
  -1  -3   4 2037.60  136.36
  -1  -3   4 2677.86  231.77
   1  -3  -4 1602.52  335.59
  -1  -3   4 2252.68  143.61
   1   3   4 3495.08  495.25
   1   3   4 2108.66  401.55
   1  -3  -4 2175.73  169.69
   1  -3   4 2253.48  258.20
  -1   3   4 2101.95  404.04
  -1  -3  -4 2468.39  335.43
   1   3  -4 2470.78  282.82
   1  -3   4 2729.01  424.81
   1   3   528035.90 1900.16
   1   3   527983.90 1534.26
   1  -3  -527303.40 1768.38
  -1   3  -531184.50 2412.27
  -1  -3   527037.20 1302.98
   1   3   528646.80 1838.96
  -1  -3   528343.10 1592.13
   1  -3  -524343.80 1042.77
  -1   3   528520.20 1973.22
   1   3  -530505.90 2138.79
   1   3  -527031.80 1304.68
   1  -3   528048.20 1614.66
  -1   3  -659979.70 4609.85
   1  -3  -650553.80 3177.28
   1   3   651068.60 3415.90
   1   3   652515.60 3652.03
   1   3   652761.60 3262.10
  -1  -3   650821.00 2812.55
   1   3  -652771.00 2915.59
   1   3  -651690.00 3337.23
  -1   3   650762.10 3240.57
   1  -3   653771.20 3881.39
   1   3   743056.70 3446.79
  -1  -3   740351.90 2231.21
  -1   3  -747798.50 3663.50
   1   3   740976.40 2859.74
   1   3   738990.40 2610.70
   1   3  -743159.30 3226.42
   1   3  -741059.40 2254.76
   1  -3   739708.40 2497.64
  -1   3   740181.90 2571.05
   1   3   827953.30 1837.34
   1   3   829369.50 2392.11
  -1   3  -832158.50 2120.87
  -1  -3   829620.40 1731.01
   1  -3  -826226.70 1193.75
  -1  -3  -828476.80 1660.02
  -1   3   826241.40 1139.62
   1   3  -833123.70 2415.31
   1  -3   830125.50 2173.34
  -1   3   830183.60 2202.42
   1   3  -828650.50 1518.73
  -1  -3   929467.50 1669.52
   1   3   931056.60 2037.65
  -1   3  -933358.30 2133.41
   1  -3  -929983.60 1448.24
  -1   3   930366.20 2224.27
   1   3  -930939.60 2374.77
   1   3  -931372.50 1724.34
   1  -3   928429.00 1768.97
  -1   3   925757.80 1225.30
  -1  -3  -930858.70 2120.93
  -1  -3  10 8596.09  579.64
  -1   3 -10 9722.25 1078.89
   1  -3 -10 9250.96  461.33
   1   3  10 8484.88  722.91
   1  -3  10 7805.40  868.64
  -1  -3 -10 9736.73  796.98
   1   3 -10 8511.03  980.06
   1   3 -10 8302.31  529.94
  -1   3  10 8527.76  888.25
  -1   3  10 7637.62  386.88
   1  -3 -1118252.60  879.79
  -1  -3  1117720.00 1132.82
   1   3  1117931.20 1348.22
  -1   3 -1118732.80 1359.11
  -1  -3 -1118435.20 1381.89
   1   3 -1118175.10 1245.19
   1   3 -1116392.20 1032.49
  -1   3  1119031.30 1555.82
  -1   3  1113799.40  774.40
   1  -3  1117845.90 1540.27
  -1   3 -1223060.80 2123.89
   1  -3 -1223204.90 1278.35
  -1  -3  1221407.50 1431.76
   1   3  1219778.80 2047.07
   1   3 -1222953.20 2032.43
  -1  -3 -1221510.90 1674.75
  -1   3  1219563.80 1416.30
   1  -3  1220463.80 1796.12
  -1   3  1214990.00  868.25
   1  -3 -13 6521.47  452.38
   1   3  13 5739.81  954.93
  -1  -3  13 5568.75  558.44
  -1   3 -13 5038.24  569.26
  -1   3  13 4384.89  307.96
  -1   3  13 5875.47  773.59
   1  -3  13 5892.97  527.78
  -1  -3 -13 6300.28  686.00
   1   3 -13 5592.80  571.80
   1   3  14  787.60  254.50
  -1  -3  14  346.93  232.31
   1  -3 -14  838.56  168.06
  -1   3 -14  393.07  376.99
   1  -3  14  713.87  332.23
  -1   3  14  492.82  152.95
   1   3 -14  596.10  383.53
  -1  -3 -14  337.55  265.59
  -1   3  14  979.38  339.42
  -1  -3  1514501.50 1133.39
   1  -3 -1513266.70  797.76
   1   3  1515341.20 1692.74
  -1   3 -1514899.50 1150.18
   1  -3  1514093.00 1421.89
   1   3 -1514364.10 1488.94
  -1  -3 -1513894.80 1198.72
  -1   3  1513148.20 1028.06
  -1   3  1510804.10  810.38
  -1  -3  16 3110.07  441.51
   1   3  16 2022.41  715.78
  -1   3 -16 2858.45  626.74
   1  -3 -16 2550.94  256.91
   1  -3  16 2992.44  616.09
  -1  -3 -16 1658.79  461.89
   1   3 -16 3325.67  368.57
  -1   3  16 2632.36  364.07
  -1   3  16 1390.70  289.50
  -1   3 -17 3799.88  465.94
   1   3  17 3889.28  552.21
  -1  -3  17 3477.81  533.39
   1  -3 -17 3590.19  324.41
  -1   3  17 3044.02  440.18
  -1  -3 -17 2586.53  544.51
   1  -3  17 4133.75  702.03
   1   3 -17 4303.36  687.72
  -1  -3  1813627.20 1263.90
   1   3  1815468.90 1874.92
  -1   3 -1814226.00 1592.90
   1  -3 -1813858.00  922.23
  -1  -3 -1812308.80 1231.83
   1   3 -1816565.30 1569.49
  -1   3  1813914.00 1123.38
   1  -3  1814552.70 1593.65
  -1   3 -19 6867.49  772.50
  -1  -3  19 7379.07  915.14
   1   3  19 8872.02  949.13
  -1   3  19 8548.53  804.82
   1  -3  19 7204.52 1150.09
   1   3 -19 9141.95 1097.81
  -1  -3 -19 7962.09  937.81
  -1  -3  2013717.50 1409.03
  -1   3 -2015559.90 1757.26
   1   3  2014978.00 1958.74
  -1  -3 -2012344.60 1383.42
   1  -3  2014429.60 1756.62
   1   3 -2016706.40 1672.88
  -1   3  2013864.50 1700.44
  -1  -3  2113133.60 1393.26
   1   3  2112432.10 1304.42
  -1   3 -2113200.10 1660.04
   1  -3  2112028.90 1690.28
  -1  -3 -2112628.80 1027.06
   1   3 -2113982.60 1129.22
  -1   3  2110828.30 1608.28
   1   3  2213638.90 1904.42
  -1   3 -2210529.20 1076.58
  -1  -3  2212185.20  973.12
   1  -3  2211789.30 1678.95
   1   3 -2212366.40 1048.24
  -1   3  2211094.20 1570.75
  -1  -3  23 9232.91 1179.42
   1   3  23 9082.31 1092.52
  -1   3 -23 9233.90 1391.78
   1   3 -23 7870.03  834.26
  -1   3  23 8543.44  928.57
   1  -3  23 9832.34 1480.21
   1   3  24 9546.07 1852.75
  -1  -3  24 9623.49 1318.78
  -1   3 -24 9162.07 1544.09
   1  -3  2410003.30 1145.99
  -1   3  24 9701.56 1561.40
  -1   3 -25 6643.31  908.15
   1   3  25 7039.18 1021.49
  -1   3  25 6782.46 1314.17
   1  -3  25 6569.77  915.05
  -1   3 -26 3610.70 1170.77
   1   3  26 4885.77 1377.44
   1  -3  26 4547.97 1262.91
  -1   3  26 4615.07  747.25
   1   3  27 1714.31  632.18
  -1   3  27 1230.66  828.93
   1  -3  27 2129.25  909.17
   1   3  28  565.16  879.14
  -1   3  28 1761.40  759.15
   1  -3  28  973.80  817.57
   1   3  29 -157.38  291.68
   1  -3  29  737.64  444.53
   1   3  30 -189.87  524.05
   1  -3  30 -100.99  277.82
   1  -4   0 3683.34  312.49
  -1   4   0 4500.46  502.38
   1   4   0 3933.55  261.67
   1   4   0 4132.24  351.52
  -1  -4   0 3862.50  292.83
  -1  -4   0 3811.45  234.30
   1  -4   0 4183.45  465.65
   1   4   131318.30 1803.81
   1   4   133548.30 2138.75
  -1  -4   131049.20 1696.58
  -1   4  -134525.90 1994.34
  -1  -4   131424.70 1777.08
   1  -4  -126470.90 1494.76
   1  -4  -127743.40 1632.56
  -1   4   133697.70 2042.35
   1  -4   129912.10 1761.69
   1   4  -127792.60 1704.84
   1  -4   136362.60 2574.78
   1  -4   134508.00 2294.80
  -1  -4  -129458.00 1590.56
   1   4  -130541.00 1744.10
  -1   4   126738.90 1730.81
  -1  -4  -132183.40 2077.47
  -1   4  -2 4972.42  514.77
   1   4   2 3342.94  304.13
  -1  -4   2 3607.29  244.14
  -1  -4   2 3867.07  296.96
   1  -4  -2 3688.04  316.41
   1   4   2 3738.18  324.94
  -1   4  -2 4039.28  600.89
   1  -4  -2 3917.78  456.06
  -1   4   2 2920.00  324.97
   1   4  -2 3444.71  276.18
   1   4  -2 4060.88  361.15
  -1   4   2 3457.67  357.75
  -1  -4  -2 3442.07  268.26
  -1  -4  -2 3136.64  264.37
   1  -4   2 4356.21  552.46
   1  -4   2 3280.15  310.63
   1   4   338299.80 2423.77
  -1  -4   338048.10 2100.45
   1   4   335088.90 2130.19
  -1   4  -342631.30 3195.65
  -1  -4   339962.60 2387.94
   1  -4  -338681.30 2617.31
  -1   4  -336858.60 2174.36
  -1   4   343993.50 2521.49
   1  -4   339286.40 2727.13
  -1  -4  -333698.50 2007.70
  -1   4   340566.80 2877.79
   1   4  -346931.10 3285.92
  -1  -4  -335380.60 2175.05
   1   4  -332412.80 1846.67
   1  -4   342536.00 2772.40
  -1   4  -415268.10 1058.35
   1   4   411942.40  710.59
   1   4   414180.30  936.25
  -1  -4   411760.90  624.47
   1  -4  -410634.80  586.39
   1   4  -413582.10  847.90
  -1  -4  -410423.20  612.31
  -1   4   412104.90  586.29
  -1   4   413077.40 1120.41
   1  -4   411169.80  715.84
  -1  -4   527191.60 1453.76
  -1  -4   522233.70 1126.16
   1   4   532165.60 2077.47
   1   4   531360.60 2068.07
  -1   4  -534351.40 2199.69
  -1   4   524572.40 1560.01
   1   4  -531872.20 2352.26
  -1  -4  -526536.30 1733.65
   1  -4   529628.00 2076.45
  -1  -4   625299.00 1402.07
   1   4   623091.50 1650.97
   1   4   632127.50 2651.54
   1   4   631384.10 2115.21
  -1   4  -633854.70 2289.94
  -1   4   631645.30 2344.41
   1  -4   628983.90 2140.86
   1   4  -635186.70 2588.39
   1   4  -626258.10 1444.57
   1   4   7  627.60  224.12
   1   4   7 1034.02  286.39
  -1  -4   7 1366.89  136.17
   1   4   7 1139.73  298.00
  -1   4  -7 1404.92  484.33
   1   4  -7  942.48  432.54
   1   4  -7 1236.92  127.78
   1  -4   7  571.07  197.20
  -1   4   7 1168.96  390.38
  -1   4  -818943.20 1401.41
  -1  -4   815624.70  843.51
   1   4   816804.00 1232.88
   1   4   815178.60 1611.41
   1   4   813793.40 1031.34
  -1   4   817839.70 1517.82
   1   4  -818667.50 1635.50
   1   4  -817576.10 1005.54
   1  -4   813042.90  898.01
   1   4   921759.50 1970.00
   1   4   918333.90 1271.48
  -1  -4   920457.10 1136.75
   1   4   920225.30 1167.95
  -1   4  -922698.30 2068.15
   1  -4   919852.90 1612.45
   1   4  -918949.90 1055.89
   1   4  -921809.70 1430.54
  -1   4   920175.90 1340.41
   1   4  1021206.60 2067.55
   1   4  1022033.10 1582.39
  -1  -4  1022849.80 1347.92
  -1   4 -1024175.10 2272.87
   1   4 -1024250.40 2159.66
  -1   4  1022398.10 1515.60
   1  -4  1020145.40 1309.91
   1   4 -1020754.60 1237.81
   1  -4 -1121202.40  925.90
  -1  -4  1118999.80 1210.42
   1   4  1120069.60 1511.94
  -1   4 -1123914.50 2168.16
   1   4  1120460.80 2026.73
  -1   4  1119259.80 1766.33
   1   4 -1118040.60 1154.26
   1  -4  1119918.90 1687.97
   1   4 -1122884.60 2014.70
   1   4  12  998.93  192.78
  -1  -4  12 1538.90  244.09
   1   4  12 1285.97  519.97
  -1   4 -12  825.40  507.80
   1  -4 -12 1433.99  112.73
   1  -4  12 1340.40  409.93
   1   4 -12 2259.51  497.66
  -1   4  12 1157.67  436.56
  -1  -4  1339984.10 2621.33
   1   4  1338752.90 3504.26
  -1   4 -1341155.40 3540.97
   1  -4 -1339026.10 2146.04
  -1   4  1332355.00 1837.17
   1   4 -1341606.50 3481.33
  -1   4  1339070.90 3206.57
  -1  -4 -1341082.30 2893.98
   1  -4  1339358.60 2632.04
   1   4  14 3327.97  469.97
  -1   4 -14 2038.06  663.45
  -1  -4  14 3368.89  387.52
   1  -4 -14 2236.83  165.87
  -1   4  14 2001.26  187.68
  -1   4  14 3001.84  377.47
  -1  -4 -14 1646.03  441.57
   1  -4  14 1940.48  571.08
  -1   4 -1534485.60 3094.76
   1   4  1535510.40 2643.46
  -1  -4  1534827.90 2402.12
   1  -4 -1532197.20 1773.57
  -1   4  1533982.50 2863.49
  -1   4  1522154.80 1308.59
  -1  -4 -1533032.00 2435.54
   1   4 -1537771.30 3163.25
   1  -4  1535997.50 2858.48
   1  -4 -16  151.35   76.58
  -1   4 -16  499.55  189.01
  -1  -4  16  198.08  180.49
   1   4  16  255.11  339.37
  -1   4  16  172.83  281.28
  -1   4  16  197.21   93.98
  -1  -4 -16   36.76  192.74
   1   4 -16  460.50  181.17
   1  -4  16   34.19  267.82
  -1   4 -1717389.10 1880.80
   1   4  1719658.90 2144.06
  -1  -4  1716619.30 1392.90
   1  -4 -1715766.20 1037.06
  -1   4  1719158.70 1838.15
   1  -4  1717152.40 1316.24
  -1  -4 -1718079.00 1491.53
   1   4 -1719061.50 1855.01
  -1  -4  18 9307.82  996.07
   1   4  1810441.70 1100.27
  -1   4 -18 9145.09 1003.70
   1  -4  1810041.60  928.78
  -1  -4 -18 9875.78 1041.56
   1   4 -1811862.60 1437.11
  -1   4  18 9006.70 1313.56
  -1  -4  19 9726.50 1026.08
   1   4  1910879.10 1573.74
  -1   4 -19 9464.68 1400.67
  -1   4  1910750.60 1360.14
  -1  -4 -19 8965.41 1027.26
   1   4 -1910563.20 1358.67
   1  -4  1910571.70  913.87
  -1  -4  20 5846.35  564.22
   1   4  20 6397.40  847.43
  -1   4 -20 6781.97 1132.37
   1  -4  20 6612.28  714.02
   1   4 -20 6771.07 1057.27
  -1  -4 -20 5249.73  785.36
  -1   4  20 5821.88 1079.10
  -1  -4  21  375.28  305.68
   1   4  21  443.69  508.62
  -1   4 -21  276.77  262.93
   1   4 -21 1111.70  408.85
  -1   4  21  872.96  426.82
   1  -4  21  256.05  245.82
   1   4  22 4544.10 1174.40
  -1  -4  22 4957.29  772.02
  -1   4 -22 2366.10  987.11
  -1   4  22 3165.69 1001.43
   1   4 -22 3221.75  931.02
   1  -4  22 5074.52  646.85
  -1  -4  23 6171.50  954.89
   1   4  23 6474.53  953.23
  -1   4 -23 6611.06 1277.25
  -1   4  23 6532.33  824.31
   1   4 -23 7081.84 1141.02
   1  -4  23 6360.79  817.54
   1   4  24 3745.73 1311.49
  -1  -4  24 3128.02  880.04
  -1   4 -24 4502.52  717.21
   1   4 -24 5277.77  673.53
   1  -4  24 5232.37  739.50
  -1   4  24 4477.17 1126.12
  -1   4 -2519811.50 2565.92
   1   4  2519495.60 2040.72
   1  -4  2519618.70 2538.58
  -1   4  2517663.80 2524.73
  -1   4 -26  267.87  548.67
   1   4  26  318.33  666.95
  -1   4  26  498.48  331.87
   1  -4  26 1107.42  565.26
   1   4  2717199.10 1968.77
  -1   4  2717865.80 2570.28
   1  -4  2716941.70 2546.79
   1   4  28 -163.09  407.29
   1  -4  28   43.31  350.81
  -1   4  28  -47.63  345.40
   1   4  2913304.80 1793.92
  -1   4  2914575.40 1705.98
   1  -4  2912966.60 2405.52
   1   4  30  -71.34  473.60
   1  -5   0 5704.62  566.26
  -1   5   0 6550.49  778.15
  -1  -5   0 4507.96  339.17
   1   5   0 5135.15  414.60
  -1  -5   0 4556.78  286.56
   1   5   0 5441.23  520.88
  -1   5   0 5833.09  648.53
  -1   5  -112762.50 1130.07
  -1  -5   1 9554.47  654.33
   1   5   111217.80  942.40
   1   5   112191.20 1043.30
   1  -5  -110171.10  807.78
  -1   5   113302.50  954.54
  -1   5   1 9383.71  736.28
   1  -5   111978.60 1042.87
   1  -5   111733.80 1151.12
  -1  -5  -1 9712.15  587.15
  -1  -5  -111879.30  832.54
   1   5  -111187.30  773.64
   1   5  -113118.30 1116.77
   1  -5  -2 2993.19  319.22
   1   5   2 3270.66  487.13
   1   5   2 2493.61  276.49
  -1   5  -2 3810.42  565.85
  -1  -5   2 2309.55  250.39
  -1   5   2 3002.55  343.87
   1   5  -2 2507.99  290.48
  -1  -5  -2 2930.34  239.86
   1   5  -2 3101.08  328.49
  -1  -5  -2 2287.48  237.73
   1  -5   2 2718.37  492.63
  -1   5   2 2596.40  328.09
  -1   5  -329923.30 2317.53
   1   5   322824.80 1443.88
  -1  -5   322772.60 1228.85
   1   5   324104.30 1717.57
   1  -5  -323643.70 1363.12
  -1   5   323860.00 1500.42
   1  -5   320353.40 1296.44
  -1  -5  -325180.30 1634.50
   1   5  -327702.80 1679.94
   1   5  -321647.20 1284.61
  -1   5   325131.80 1443.02
   1  -5  -442233.00 2599.48
  -1  -5   440244.40 2352.26
   1   5   448614.10 3402.55
   1   5   450610.60 3906.76
  -1  -5   441297.90 2466.97
  -1   5  -454798.10 3737.01
   1  -5   446107.00 3293.01
  -1   5   447470.60 3626.88
  -1   5   446565.80 2819.63
   1   5  -447708.70 3091.62
  -1  -5  -444034.90 3005.23
  -1   5  -525394.70 1676.54
  -1  -5   520654.40 1048.22
  -1  -5   521777.10 1247.01
   1   5   520931.70 1881.59
   1   5   522708.00 1570.52
   1  -5   522078.60 1616.60
  -1   5   517472.80  810.93
   1   5  -524678.10 1501.31
  -1  -5  -519565.20 1318.97
  -1   5   521222.50 1325.96
   1   5   6 3846.75  458.86
   1   5   6 4409.10  670.87
  -1  -5   6 3429.28  240.92
  -1  -5   6 3709.43  261.88
  -1   5  -6 1945.08  703.79
  -1   5   6 3726.79  369.98
   1   5  -6 4087.93  405.02
  -1  -5  -6 2938.24  235.49
   1  -5   6 4505.89  543.15
  -1  -5   753693.50 3227.45
   1   5   755422.70 3992.38
   1   5   752085.40 3627.96
   1   5   756339.20 3901.25
  -1   5  -764145.80 4533.19
   1   5  -755607.50 3325.33
   1   5  -763483.00 4958.81
   1  -5   755049.80 3651.66
  -1   5   757518.10 4426.42
  -1   5  -867205.60 5549.65
   1   5   862086.20 5198.41
   1   5   861377.20 4340.97
  -1  -5   856665.90 3507.76
   1   5   854790.00 3988.53
   1  -5   860873.70 4563.37
  -1   5   858089.10 4149.34
   1   5  -860571.80 3755.63
   1   5  -866712.20 5322.26
  -1   5  -920346.70 1531.34
   1   5   915175.80 1098.37
   1   5   918866.90 1076.13
   1   5   917917.40 1360.35
  -1  -5   917295.00  980.51
  -1   5   919114.10 1731.51
   1  -5   918908.70 1555.97
   1   5  -918717.50 1035.35
   1   5  -916062.80 1263.27
   1   5  1037105.90 2638.13
   1   5  1036354.20 2695.05
  -1   5 -1038698.70 3508.35
  -1  -5  1035427.30 2163.65
   1  -5  1039300.40 2990.73
  -1   5  1036954.00 3156.05
   1   5 -1035803.30 2210.86
   1   5 -1039335.60 3443.57
  -1   5 -11 1988.16  449.18
  -1  -5  11 2837.10  303.72
   1   5  11 2862.07  400.94
   1   5  11 2389.21  429.84
  -1   5  11 3467.77  422.19
   1  -5  11 2268.68  533.82
   1   5 -11 2782.07  272.10
   1   5 -11 2965.77  415.12
  -1   5 -1218007.40 1849.71
  -1  -5  1217303.40 1091.56
   1   5  1219526.30 1950.84
   1   5  1216851.80 1217.05
   1  -5  1215754.10 1090.74
  -1   5  1217322.00 1688.78
   1   5 -1218990.20 1868.21
  -1   5 -1315226.50 1345.16
   1   5  1314137.30 1119.34
  -1  -5  1314079.30  990.13
   1   5  1313073.20 1241.12
  -1   5  1314253.80 1551.91
   1   5 -1314759.10 1711.99
   1  -5  1314160.90 1392.14
  -1  -5  14 6438.62  568.98
   1   5  14 5998.13  621.69
   1   5  14 6653.43  699.45
  -1   5 -14  980.69  980.14
   1  -5  14 6201.51  811.38
  -1   5  14 5200.58  911.56
   1   5 -14 6065.28  680.87
   1   5  15 3252.58  486.05
  -1  -5  15 3836.97  470.59
  -1   5 -15 4300.41  548.44
   1   5  15 3545.98  559.51
   1  -5  15 3742.36  668.24
  -1   5  15 3614.55  493.68
   1   5 -15 4369.35  574.92
  -1   5 -1613335.70 1700.65
   1   5  1611712.90 1094.95
  -1  -5  1614746.20 1128.24
   1   5  1613455.30 1247.32
   1  -5  1613289.50 1039.07
  -1   5  1612997.80 1130.93
   1   5 -1616351.60 1814.86
   1   5  1715489.80 1922.25
   1   5  1714474.10 1274.72
  -1  -5  1715439.80 1302.33
  -1   5 -1715894.90 1855.12
  -1   5  1715988.10 1766.46
   1  -5  1715349.60 1587.85
   1   5 -1719764.30 2023.98
  -1   5 -18 4508.04  627.33
  -1  -5  18 4416.22  619.69
   1   5  18 4876.40  619.81
   1   5  18 4472.86 1062.62
  -1   5  18 5333.27  947.50
   1   5 -18 5874.02  960.52
   1  -5  18 4722.71  839.86
  -1   5 -1913642.70 1767.19
   1   5  1911925.10 1171.32
   1   5  1911877.50 1263.43
  -1  -5  1913152.90 1243.76
   1  -5  1914892.70 1576.41
   1   5 -1915067.20 1728.71
  -1   5  1914294.80 1722.15
  -1   5 -2020814.40 2297.78
  -1  -5  2017176.30 1607.45
   1   5  2019113.10 2451.08
   1   5  2015229.60 1523.80
   1   5 -2021077.10 2180.71
  -1   5  2018493.80 2137.86
   1  -5  2017935.10 1961.42
   1   5  2116041.30 2309.00
  -1  -5  2117498.50 1631.75
   1   5  2115396.90 1514.77
  -1   5 -2117817.60 1603.15
  -1   5  2117546.00 2112.49
   1  -5  2117431.30 1944.21
   1   5 -2119140.50 2088.69
  -1   5 -2210014.50 1518.56
  -1  -5  22 7475.95 1042.16
   1   5  22 9424.86 1111.20
  -1   5  22 8611.83  993.40
   1   5 -22 9100.17 1402.84
   1  -5  22 7923.35 1342.86
  -1   5 -2314375.70 2006.89
  -1  -5  2313442.60 1519.41
   1   5  2315212.30 2328.38
  -1   5  2314994.00 1447.71
   1  -5  2313782.90 1914.50
   1   5 -2314133.30 1901.37
   1   5  2413729.40 2270.68
  -1   5 -2411892.20 1354.35
   1  -5  2414532.60 1960.83
   1   5 -2414090.40 1867.16
  -1   5  2412110.50 1953.97
  -1   5 -25 5241.33 1508.88
   1   5  25 9236.09 1170.68
  -1   5  25 5935.64 1486.51
   1   5 -25 7942.42  916.92
   1  -5  25 7505.32 1484.38
  -1   5 -26 2457.98 1055.94
   1   5  26 2570.89 1201.90
   1  -5  26 2663.67 1014.51
  -1   5  26 3224.74  644.92
   1   5  27 1239.63  607.13
  -1   5 -27 1311.39  519.79
   1  -5  27 2092.82  858.67
  -1   5  27 2362.96  563.54
   1   5  28  755.80  893.89
   1  -5  28 1058.32  756.33
  -1   5  28  979.80  800.02
   1   5  29 2199.48  764.14
  -1   5  29 2769.64  684.75
   1  -5  29 1665.19 1081.89
   1   5  30  554.23  785.51
  -1   6   0124187.010110.40
   1   6   0131322.010645.30
  -1   6   0114194.0 9088.51
  -1  -6   0118865.0 9240.63
   1   6   0123887.0 9697.10
   1  -6   0100394.0 7948.49
   1   6   1 6462.84  690.71
  -1  -6   1 4347.28  412.56
   1   6   1 5029.05  620.92
   1  -6  -1 3928.11  463.31
  -1   6  -1 6035.39  723.27
  -1   6   1 4710.41  572.35
  -1   6   1 3767.75  460.87
   1   6  -1 5646.46  722.59
   1   6  -1 3471.01  468.61
  -1  -6  -1 5815.93  528.99
   1  -6   1 7096.14  920.54
   1   6   240667.00 2481.64
   1   6   239566.10 2459.07
  -1  -6   241090.90 2467.17
   1  -6  -232385.60 2221.87
  -1   6  -243898.40 3291.78
  -1   6   239732.60 2638.31
   1  -6   240062.20 2956.86
   1   6  -246296.10 3379.85
   1   6  -235522.80 2043.65
  -1   6   240407.20 2645.87
  -1  -6   3 9210.80  563.57
   1   6   3 8990.51  585.32
   1   6   3 9857.21  678.47
  -1   6  -312589.50  874.62
   1  -6  -3 7478.12  563.79
   1   6  -3 6744.90  601.40
  -1   6   3 8012.83  623.54
   1   6  -310250.00 1085.82
  -1   6   3 9600.28 1040.73
   1  -6   3 7057.30  567.88
   1   6   456293.90 4319.84
  -1   6  -460247.60 4684.05
  -1  -6   453289.70 3185.53
  -1  -6   436986.30 2354.51
   1   6   457790.40 3899.70
   1  -6  -444812.70 2683.69
   1  -6   451583.30 3291.33
   1   6  -459635.70 3848.61
  -1   6   443742.10 2744.38
  -1   6   451469.50 3417.30
  -1   6  -520337.30 1852.62
   1  -6  -514462.00  794.26
  -1  -6   515664.70  877.95
  -1  -6   517692.80 1080.43
   1   6   519009.70 1297.92
   1   6   517674.30 1195.77
  -1   6   514532.80  862.39
  -1  -6  -513038.30  789.00
   1   6  -520660.00 1725.73
  -1   6   515713.00 1073.58
   1  -6   515231.90  953.11
  -1   6  -6 7482.44  668.93
  -1  -6   6 4157.61  340.95
  -1  -6   6 5463.44  380.94
   1   6   6 7775.71  610.98
   1   6   6 5943.87  589.17
  -1  -6  -6 5364.26  487.01
   1   6  -6 6977.61  907.23
   1  -6   6 4453.17  393.74
  -1   6   6 5376.97  799.95
  -1  -6   7 6132.42  415.61
   1   6   7 8418.96  708.50
   1   6   7 8046.39 1060.61
  -1  -6   7 6798.08  467.83
  -1   6  -7 9792.60 1195.45
   1   6  -7 7986.99  694.43
  -1   6   7 9475.78 1031.63
   1  -6   7 7834.10  821.96
   1   6   8 2084.10  391.68
   1   6   8 4127.99  467.70
  -1  -6   8 2972.84  336.10
  -1   6  -8 1752.66  482.49
   1  -6   8 2101.75  299.00
   1   6  -8 5401.72  754.14
   1   6  -8 3084.11  361.74
  -1   6   8 1680.01  621.75
   1   6   936537.50 3351.59
  -1  -6   935410.50 2270.75
   1   6   935042.20 2453.52
  -1   6  -938795.60 3547.85
   1   6  -934793.20 2080.29
   1   6  -934063.60 2504.54
   1  -6   935928.10 2716.29
  -1   6   932625.40 2345.46
  -1   6 -1014322.90 1157.83
   1   6  1013479.50 1011.70
   1   6  1012934.00 1077.94
  -1  -6  1013408.90  797.00
   1   6 -1013097.60  783.60
   1   6 -1015837.70 1637.97
   1  -6  1014331.00 1240.68
  -1   6  1013634.20 1004.98
  -1   6 -1110799.00 1427.86
   1   6  11 9788.71  972.53
  -1  -6  1111052.80  715.30
   1   6  11 9203.06  794.67
   1   6 -11 9832.33 1341.36
   1  -6  1110638.40 1076.18
  -1   6  1111179.40 1296.75
   1   6  1266053.50 4918.76
   1   6  1266004.30 5987.84
  -1  -6  1263173.80 4378.07
  -1   6 -1270632.00 6218.75
   1   6 -1270264.40 5320.46
   1  -6  1261798.60 4475.87
  -1   6  1268317.30 5853.63
  -1  -6  13 1188.71  245.88
   1   6  13 1200.09  300.62
   1   6  13 1801.84  586.78
  -1   6 -13 2137.34  351.00
  -1   6  13 1404.31  318.81
   1   6 -13 1833.06  350.74
   1  -6  13 1419.59  425.12
  -1  -6  1430379.60 2070.86
   1   6  1431354.30 3188.90
   1   6  1433445.80 2353.63
  -1   6 -1434559.40 3245.01
  -1   6  1433589.50 3036.34
   1   6 -1435327.60 3239.97
   1  -6  1434187.00 2745.02
   1   6  15 4510.57  984.14
   1   6  15 4249.04  516.24
  -1  -6  15 4402.97  488.23
  -1   6 -15 4048.62  607.06
   1  -6  15 4853.41  740.41
  -1   6  15 5233.22  910.59
   1   6 -15 5316.84 1011.74
  -1   6 -1642590.50 3988.97
   1   6  1639876.30 3022.02
  -1  -6  1640112.60 2921.39
   1   6  1639481.90 3263.80
   1   6 -1644584.40 4198.70
   1  -6  1643246.10 3570.34
  -1   6  1642196.70 3255.77
   1   6  17 6466.78  845.55
   1   6  17 6192.26  714.22
  -1  -6  17 7531.68  729.07
  -1   6 -17 7069.85 1224.74
   1   6 -17 7451.40 1263.08
   1  -6  17 7814.39 1002.45
  -1   6  17 6986.91  780.72
   1   6  1816946.90 1554.62
   1   6  1814946.90 1288.93
  -1  -6  1815102.40 1305.63
  -1   6 -1816847.20 1471.25
  -1   6  1816953.10 1415.54
   1   6 -1817807.20 1980.10
   1  -6  1816343.30 1717.62
   1   6  19 2909.35 1183.95
   1   6  19 4452.68  598.03
  -1  -6  19 5564.56  705.25
  -1   6 -19 2121.40 1087.30
   1  -6  19 5976.06  611.01
  -1   6  19 6684.15  726.03
   1   6 -19 3783.39 1088.79
   1   6  20 3436.70  982.72
   1   6  20 1717.57  468.61
  -1  -6  20 2598.98  552.04
  -1   6 -20 3896.85  573.11
  -1   6  20 3876.85  547.34
   1   6 -20 3551.18  545.68
   1  -6  20 3070.79  748.97
   1   6  21 7019.30  998.26
  -1  -6  21 7991.25  944.43
  -1   6 -21 7528.71  967.22
   1  -6  21 6616.42 1216.95
  -1   6  21 7050.40  908.88
   1   6 -21 8421.77  930.88
   1   6  22 1315.78  499.67
  -1  -6  22 1681.88  473.29
  -1   6 -22  -39.76  727.56
   1   6 -22 1638.37  417.85
   1  -6  22 1172.58  614.00
  -1   6  22 1877.21  431.77
  -1   6 -23 3858.70 1194.30
   1   6  23 1257.39 1308.20
   1   6 -23 5395.88  751.42
  -1   6  23 4971.05  785.85
   1  -6  23 5490.42 1043.15
  -1   6 -2410554.60 1215.57
   1   6  2410718.40 1289.26
  -1   6  2410847.50 1743.30
   1   6 -2410023.80 1092.45
   1  -6  24 9560.86 1566.49
  -1   6 -25 1097.76  719.96
   1   6  25 1101.59  508.13
   1  -6  25 1513.16  664.75
   1   6 -25  888.85  402.40
  -1   6  25 1651.76  736.51
   1   6  2618170.90 2852.50
  -1   6 -2617129.80 2603.62
   1  -6  2617952.20 2441.98
  -1   6  2616609.80 2640.50
  -1   6 -27  -69.01  221.25
   1   6  27  326.50  262.71
   1  -6  27  253.30  367.78
  -1   6  27   -5.66  243.60
   1   6  2811299.00 2246.14
  -1   6  28 9130.17 2026.44
   1  -6  28 8630.41 1843.07
   1   6  29  440.73  401.66
  -1   6  29   90.61  627.42
  -1   7   0 3950.79  398.11
   1   7   0 3659.57  525.29
  -1   7   0 1585.72  704.22
   1   7   0 4053.51  628.91
  -1   7  -117884.40 1292.54
   1   7   119973.40 1580.84
   1  -7  -115228.20 1222.61
  -1  -7   116799.40 1153.83
   1   7   117765.00 1432.15
  -1   7   117853.50 1480.68
   1  -7   118788.10 1378.18
  -1   7   118344.70 1736.36
   1   7  -117002.00 1190.52
   1   7   2 4701.60  653.12
   1   7   2 3679.09  581.43
   1  -7  -2 3804.69  418.61
  -1   7  -2 4883.21  724.42
   1  -7   2 5041.42  724.29
  -1   7   2 2983.29  436.70
  -1   7   2 3559.59  504.26
   1   7  -2 4959.69  714.04
   1   7  -2 3133.47  454.51
  -1  -7   3 2192.68  261.27
   1   7   3 2581.30  513.31
   1   7   3 2065.46  245.98
  -1   7  -3 2004.66  333.12
   1  -7   3 3099.97  489.24
  -1   7   3 2586.67  340.43
   1   7  -3 3059.03  358.24
  -1   7   3 1655.97  192.86
   1   7  -3 2992.22  538.38
   1  -7  -412956.10  769.93
  -1  -7   414307.90  867.48
   1   7   414498.70 1038.66
   1   7   413632.10  865.90
  -1   7  -416886.40 1263.90
   1  -7   415801.80 1322.09
  -1   7   413963.00 1030.82
  -1   7   414793.10  974.79
   1   7  -418462.70 1202.05
  -1   7  -574615.50 6134.65
   1   7   571160.00 5208.79
   1  -7  -553109.90 3448.06
  -1  -7   567655.60 4474.55
  -1  -7   569078.90 4504.26
   1   7   574430.10 5927.65
   1  -7   570199.50 5256.60
  -1   7   553474.70 3588.33
  -1   7   569936.80 4993.81
   1   7  -581785.40 6395.68
   1   7   614590.60 1477.10
  -1  -7   613777.50  824.75
  -1  -7   613096.30  778.90
   1   7   613742.00 1027.11
  -1   7  -613193.80 1078.01
   1  -7   611838.10  814.69
  -1   7   614761.90 1438.02
  -1   7   611597.20  719.00
   1   7  -615044.60 1094.52
  -1  -7   715422.10  944.29
   1   7   718053.10 1763.95
   1   7   715660.90 1145.99
  -1  -7   713121.40  814.10
  -1   7  -717859.70 1901.09
   1  -7   717087.50 1337.38
  -1   7   712547.50  647.91
   1   7  -717997.80 1335.04
  -1   7   716022.40 1154.11
  -1  -7   820417.00 1224.35
   1   7   824630.90 1681.33
  -1  -7   822623.00 1419.71
   1   7   822451.50 1708.53
  -1   7  -825965.00 1921.77
   1   7  -826629.30 2464.06
  -1   7   823821.40 2158.64
   1  -7   824201.00 1877.05
  -1  -7   913717.80  976.60
   1   7   913850.70 1016.64
   1   7   913464.50 1567.52
  -1   7  -914383.80 1664.80
   1   7  -914141.90 1122.63
   1   7  -916845.50 1040.47
  -1   7   913257.20 1424.89
   1  -7   912842.30  898.85
  -1  -7  10 1956.15  248.23
   1   7  10 2190.14  384.02
   1   7  10 1686.72  321.22
  -1   7 -10 1855.20  412.37
  -1   7  10 2415.91  578.37
   1   7 -10 2028.84  392.01
   1  -7  10 1781.91  454.71
   1   7  1116475.80 1442.17
   1   7  1119455.40 1373.35
  -1  -7  1118447.20 1132.89
  -1   7 -1119376.20 2121.66
  -1   7  1119965.50 2003.01
   1   7 -1121092.90 2157.65
   1  -7  1119768.70 1664.81
  -1   7 -1225381.90 2614.27
   1   7  1224312.10 2525.73
  -1  -7  1223902.70 1521.89
   1   7  1223473.40 1676.70
   1  -7  1223461.10 1560.23
  -1   7  1224976.30 1883.64
   1   7 -1227998.20 2749.05
  -1   7 -1316262.00 1546.53
  -1  -7  1318109.00 1186.37
   1   7  1317027.50 1298.30
   1   7  1317788.60 2073.39
   1  -7  1315159.20 1100.25
   1   7 -1318742.30 2151.69
  -1   7  1318550.20 1909.99
   1   7  14 2884.96  375.77
   1   7  14 2109.43  802.83
  -1  -7  14 3298.38  376.64
  -1   7 -14 1706.32  821.41
  -1   7  14 2103.81  462.21
   1   7 -14 2686.24  493.81
   1  -7  14 2740.69  586.36
  -1   7 -15 6192.72  782.32
   1   7  15 6130.07 1153.19
  -1  -7  15 6458.40  608.14
   1   7  15 4916.74  578.73
   1  -7  15 7090.69  600.22
  -1   7  15 6898.05 1113.30
   1   7 -15 7002.48  844.02
  -1   7 -1612996.90 1767.40
  -1  -7  1613480.90 1063.65
   1   7  1612454.80 1763.07
   1   7  1610848.90  975.15
  -1   7  1612009.00 1637.92
   1   7 -1616473.60 1490.26
   1  -7  1612037.90 1373.67
   1   7  17 9441.46  881.28
  -1  -7  1710705.50  934.66
   1   7  1710972.90 1677.97
  -1   7 -17 9846.27 1572.91
  -1   7  1710998.20 1071.52
   1   7 -1711175.00 1161.09
   1  -7  1710430.90  875.56
  -1   7 -1815540.60 1447.30
   1   7  1814200.00 1214.97
   1   7  1815011.80 2107.16
  -1  -7  1815347.00 1263.06
   1   7 -1818657.40 1581.21
  -1   7  1814816.60 1366.81
   1  -7  1815661.30 1629.39
  -1  -7  19 5607.74  697.93
   1   7  19 4922.58  627.80
   1   7  19 6926.42 1268.67
  -1   7 -19 4811.20 1221.96
  -1   7  19 6542.75  769.02
   1   7 -19 5451.82 1172.07
   1  -7  19 5818.98  948.16
   1   7  20 8960.35 1097.31
  -1  -7  20 8173.26  658.87
  -1   7 -20 8012.33 1541.86
  -1   7  20 9248.00 1000.33
   1   7 -20 8982.00 1490.86
   1  -7  20 8428.09  823.59
   1   7  21 4734.14  731.16
  -1  -7  21 3143.76  630.67
  -1   7 -21 4002.98  670.38
   1  -7  21 3934.89  547.96
   1   7 -21 4376.84 1073.20
  -1   7  21 3494.56  647.86
  -1   7 -2210330.00 1731.08
   1   7  22 9504.90 1793.59
   1  -7  22 8846.32 1379.97
  -1   7  22 9592.20 1100.30
   1   7 -2210234.60 1679.50
  -1   7 -23 7472.82 1498.46
   1   7  23 8564.38 1667.89
   1  -7  23 7013.91 1237.32
  -1   7  23 6732.69  929.34
   1   7 -23 7771.02 1444.06
   1   7  24 4911.66  839.38
  -1   7 -24 3880.97  763.83
   1  -7  24 3044.91  997.43
   1   7 -24 6139.37 1186.69
  -1   7  24 4496.29 1236.22
   1   7  25 3514.77 1483.22
  -1   7 -25 4196.94 1331.75
   1  -7  25 5098.74 1131.06
  -1   7  25 4452.69 1326.09
   1   7 -25 5171.15 1251.09
   1   7  26 2178.84 1228.98
  -1   7 -26 1829.43 1053.61
   1  -7  26 3112.82  979.58
   1   7 -26 2412.69 1025.13
  -1   7  26 4073.02 1109.55
   1   7  27 1718.90  568.66
  -1   7 -27  550.97  482.32
  -1   7  27 1412.59  509.22
   1  -7  27 1142.28  746.81
  -1   7 -28  881.52  471.67
   1   7  28 1375.99  885.63
  -1   7  28  713.12  469.21
   1   7  29 1083.66  726.82
  -1   7  29 -195.94  672.90
  -1   8   0 9405.61  786.27
   1   8   010497.30  726.07
  -1   8   0 8611.32  702.84
   1   8   0 9691.00  906.00
  -1   8  -169564.90 5732.93
   1   8   170781.40 5502.88
   1   8   177556.40 5957.40
  -1   8   165883.40 5227.77
  -1   8   170861.50 5945.83
   1   8  -169835.30 5171.18
   1   8  -176548.50 6073.88
  -1   8  -2 2784.97  646.23
   1   8   2 3761.46  549.93
   1   8   2 2748.64  324.69
   1  -8   2 6718.56  760.42
  -1   8   2 1752.31  665.96
   1   8  -2 1542.84  351.77
   1   8  -2 3018.12  426.85
  -1   8   2 1622.44  452.09
  -1   8  -341582.80 3035.11
   1   8   342364.10 3095.74
   1   8   341198.80 3277.99
   1  -8  -334849.50 2351.25
   1   8  -338333.90 2694.93
  -1   8   341837.40 3480.49
   1  -8   340386.90 3092.64
   1   8  -343753.50 3470.90
  -1   8   338614.50 2749.25
   1   8   422741.80 1690.19
  -1   8  -424474.70 2288.96
   1  -8  -418156.60 1133.91
   1   8   420403.50 1430.76
  -1   8   420347.20 1924.10
  -1   8   420981.10 1436.95
   1   8  -425599.20 2133.18
   1  -8   417811.00 1221.85
   1   8  -421151.10 1461.97
  -1  -8   521211.60 1294.12
  -1   8  -522986.10 1690.60
   1  -8  -517515.80 1034.09
   1   8   521634.30 1582.27
   1   8   521214.20 1473.09
  -1  -8   523389.60 1482.79
   1   8  -523586.40 1626.67
   1  -8   522703.10 1769.98
  -1   8   521105.00 1508.29
  -1   8   517739.40 1170.82
  -1  -8   612258.90  829.65
  -1  -8   610872.30  761.80
   1   8   613915.90 1528.67
   1   8   614953.10 1140.66
  -1   8  -613487.70 1639.32
   1  -8   614490.80 1220.71
  -1   8   614143.70 1496.44
   1   8  -615380.60 1621.71
  -1   8   610578.20  706.58
  -1   8  -7  693.17  370.57
  -1  -8   7 2048.01  238.58
   1   8   7 1916.84  347.39
  -1  -8   7 2152.53  253.34
   1   8   7 1032.43  328.57
   1  -8   7 2072.65  429.08
  -1   8   7  731.17  201.97
   1   8  -7 1386.36  623.66
  -1   8   7 1556.83  321.24
  -1  -8   813121.10  805.06
   1   8   814888.30 1148.69
   1   8   813593.10 1018.31
  -1   8  -815541.70 1720.60
  -1   8   815286.90 1579.70
   1  -8   811666.50  815.52
   1   8  -814232.50 1150.47
  -1   8   810045.10  544.86
  -1  -8   9 3328.39  343.96
  -1   8  -9 3373.79  515.06
   1   8   9 2942.02  403.45
   1   8   9 3371.65  792.89
   1  -8   9 4375.22  596.48
   1   8  -9 4983.56  544.52
  -1   8   9 3522.11  756.72
  -1   8 -10 9990.33 1375.54
   1   8  10 9523.86  870.47
  -1  -8  10 8562.33  590.12
   1   8  10 7448.53  662.05
   1  -8  10 9089.95  958.59
   1   8 -10 7566.20  809.01
  -1   8  10 7442.89  772.30
  -1   8 -1146060.90 3553.20
  -1  -8  1141064.30 2611.61
   1   8  1140026.00 2860.10
   1   8  1139954.60 3808.83
  -1   8  1139814.30 3072.92
   1  -8  1140859.00 3204.59
   1   8 -1145053.00 4147.82
  -1   8 -12 5786.06 1137.53
   1   8  12 5420.13  592.65
   1   8  12 6558.44 1141.67
  -1  -8  12 7130.94  543.59
   1  -8  12 6290.84  854.45
   1   8 -12 7896.58 1211.70
  -1   8  12 6413.79 1064.37
   1   8  1345717.70 3265.75
  -1   8 -1350659.00 3905.92
  -1  -8  1343957.20 2981.19
   1   8  1344248.60 3557.88
   1  -8  1344587.50 3110.92
  -1   8  1346362.20 4242.82
   1   8 -1350961.60 4762.34
   1   8  14  102.54  338.56
   1   8  14  720.88  242.53
  -1  -8  14  591.76  234.60
  -1   8 -14 1058.74  545.75
   1   8 -14 1461.99  556.98
   1  -8  14  862.48  226.52
  -1   8  14  955.45  506.22
   1   8  1540478.90 3258.54
   1   8  1541388.50 3453.14
  -1  -8  1542274.30 2957.67
  -1   8 -1545144.20 4522.28
   1  -8  1542793.70 3618.55
   1   8 -1550060.00 4864.10
  -1   8  1541966.50 3417.96
  -1   8 -16 8091.52  961.07
   1   8  16 7867.00  947.20
   1   8  16 7039.63  698.48
  -1  -8  16 8119.99  736.04
  -1   8  16 9409.44 1382.16
   1  -8  16 8531.96  714.83
   1   8 -1610439.00 1572.85
  -1   8 -1734535.80 3691.57
   1   8  1732223.10 2433.76
  -1  -8  1732800.80 2435.47
   1   8  1733165.30 2878.36
  -1   8  1736700.50 3622.84
   1   8 -1737936.00 3866.11
   1  -8  1733705.40 2983.59
  -1   8 -18  541.64  493.84
   1   8  18  362.03  298.71
  -1  -8  18  527.05  223.33
   1   8  18  187.18  193.18
  -1   8  18  560.52  274.07
   1  -8  18  395.83  206.53
   1   8 -18  522.64  508.01
  -1   8 -19 5242.36  776.11
   1   8  19 5034.45  789.84
  -1  -8  19 4998.25  422.52
   1  -8  19 5743.10  906.77
   1   8 -19 6559.56 1218.57
  -1   8  19 4481.46  704.14
  -1   8 -20 3376.79 1228.10
  -1  -8  20 4629.27  646.81
   1   8  20 4338.85  773.94
  -1   8  20 5082.30  730.08
   1   8 -20 3928.70 1234.58
   1  -8  20 5122.18  911.84
  -1   8 -21  489.78  334.52
   1   8  21  561.00  592.08
  -1  -8  21  505.62  293.31
   1  -8  21  388.58  413.29
   1   8 -21  216.80  544.19
  -1   8  21  666.72  319.98
   1   8  22 2320.94 1061.31
  -1   8 -22 1590.00  584.76
   1  -8  22 3308.39  481.56
   1   8 -22 3495.21  975.25
  -1   8  22 2263.84  587.46
  -1   8 -23 2967.45 1065.10
   1   8  23 2520.52  693.88
   1  -8  23 2857.16  808.28
   1   8 -23 3646.30  999.27
  -1   8  23 2604.50  626.35
   1   8  24  945.35  548.88
  -1   8 -24 1477.63  846.95
   1  -8  24 1561.97  668.51
  -1   8  24 1935.45  830.98
   1   8 -24 1691.24  815.24
  -1   8 -2517617.20 1912.96
   1   8  2515576.30 2741.14
   1   8 -2517560.20 2539.30
   1  -8  2516176.40 2149.63
  -1   8  2519372.70 2714.94
  -1   8 -26  969.45  863.39
   1   8  26 1360.04  951.61
   1  -8  26 1298.63  724.09
  -1   8  26 1888.89  889.51
   1   8  2713545.70 1716.39
  -1   8 -2711592.90 2387.26
  -1   8  2714073.90 2467.43
   1  -8  2712743.60 2078.67
  -1   8 -28  561.89  297.63
   1   8  28 -295.40  546.72
  -1   8  28 -141.60  306.51
   1   8  29 8102.27 2315.24
  -1   8  2910390.40 2199.52
  -1   9   015631.60 1538.00
   1   9   017292.30 1578.90
  -1   9   012274.20 1050.10
   1   9   015314.70 1342.85
   1   9   1 5631.32  710.41
  -1   9  -1 4749.12  506.84
   1   9   1 5852.41  758.50
  -1   9  -1 4828.49  816.18
  -1   9   1 4283.94  517.78
   1   9  -1 2936.27  439.93
   1   9  -1 4815.05  608.08
  -1   9   1 4613.31  471.37
  -1   9  -215697.90 1223.49
   1   9   217402.80 1513.78
   1   9   213564.00  981.29
  -1   9   215142.60 1140.37
  -1   9   212923.50  956.06
   1   9  -216711.10 1172.62
   1   9  -216180.50 1258.83
  -1   9  -315952.90 1734.77
   1   9   316203.50 1557.22
   1   9   315440.30 1396.26
   1  -9   318630.60 1714.59
   1   9  -315723.50 1260.71
   1   9  -318232.10 1708.21
  -1   9   315600.40 1215.77
  -1   9   314699.70 1267.79
  -1   9  -410724.80  986.85
   1   9   411313.60 1023.03
   1   9   411066.70  869.79
   1  -9  -4 9496.31  685.27
  -1   9   413049.20 1352.28
  -1   9   4 8767.23  835.95
   1   9  -414321.20 1400.30
   1   9  -412568.50  986.32
   1  -9   410196.00  774.64
  -1   9  -5 9430.46 1293.74
  -1  -9   510007.40  848.18
   1   9   5 7754.94  813.61
   1   9   5 7831.58 1084.77
   1  -9  -5 5997.34  484.16
   1  -9   5 8817.14  924.20
  -1   9   5 8719.60 1137.37
   1   9  -5 9392.24 1228.34
  -1   9   5 5865.22  607.17
   1  -9  -653700.10 3546.10
  -1  -9   663298.20 4285.13
  -1   9  -663240.30 5728.34
   1   9   667116.00 4950.27
   1   9   669419.00 5772.80
  -1   9   664936.90 5635.59
   1   9  -667255.60 5087.56
  -1   9   649508.00 3473.20
   1  -9   663342.00 4384.14
  -1   9  -719700.80 1576.00
   1  -9  -715692.70  882.34
   1   9   720181.90 1981.14
   1   9   719270.20 1423.93
  -1  -9   720615.80 1260.07
   1  -9   720943.80 1646.11
  -1   9   720960.70 1502.90
   1   9  -721032.10 1633.37
  -1   9   715598.30 1080.26
   1   9   8 1546.72  204.93
   1  -9  -8 1875.19  190.16
   1   9   8 2309.70  379.43
  -1   9  -8 2410.39  679.63
  -1  -9   8 2618.03  286.92
   1  -9   8 2042.21  451.15
   1   9  -8 2516.75  417.40
  -1   9   8 1304.82  148.56
  -1   9   8 2276.36  358.41
   1   9   930221.90 2089.94
   1  -9  -923792.30 1235.57
  -1  -9   930549.60 1799.34
   1   9   930888.90 2756.27
  -1   9  -931508.30 2960.28
   1  -9   929864.50 2291.01
  -1   9   927246.80 2047.28
   1   9  -927375.60 2143.94
  -1   9   922135.70 1193.75
   1   9  1014729.10 1733.29
  -1  -9  1014123.20  934.37
   1   9  1014075.10 1080.09
  -1   9 -1016028.40 1371.22
   1  -9  1012196.40  905.88
   1   9 -1014677.50 1863.96
  -1   9  1014420.90 1219.34
  -1   9 -1113484.70 1677.22
  -1  -9  1111345.50  793.38
   1   9  1110466.90  842.49
   1   9  1110344.40 1496.15
  -1   9  1111568.20 1009.63
   1  -9  1111155.80  813.00
   1   9 -1113076.90 1660.75
  -1   9 -12 3067.96  502.13
   1   9  12 2153.80  454.80
  -1  -9  12 3307.11  346.24
   1   9  12 2597.72  352.52
  -1   9  12 -351.99  749.18
   1   9 -12 2862.72  830.23
   1  -9  12 3377.88  580.29
  -1   9 -13 7319.22 1245.62
   1   9  13 5603.85 1127.59
   1   9  13 5870.31  561.43
  -1  -9  13 6700.93  564.65
   1   9 -13 7218.28 1242.81
   1  -9  13 5994.75  864.51
  -1   9  13 5928.18  713.42
  -1   9 -14 9126.92 1013.60
   1   9  14 7287.01 1415.71
  -1  -9  1410125.40  776.98
   1   9  14 7120.40  698.18
   1  -9  14 9866.43 1131.73
  -1   9  14 9056.25 1393.43
   1   9 -1410223.30 1560.67
  -1  -9  15 5812.28  554.44
   1   9  15 4551.36  682.10
   1   9  15 2770.00 1173.49
  -1   9 -15 3994.52 1169.55
   1   9 -15 7160.78 1354.87
  -1   9  15 5532.57  743.47
   1  -9  15 5715.11  543.35
  -1   9 -16 6937.36 1420.39
   1   9  16 7692.48 1407.82
   1   9  16 6187.48  663.47
  -1  -9  16 8306.41  729.08
   1  -9  16 7401.71  993.32
  -1   9  16 7380.78 1328.38
   1   9  17 4543.23  714.20
  -1  -9  17 5926.79  629.23
   1   9  17 6236.60 1271.39
  -1   9 -17 7076.74  853.38
   1  -9  17 5151.50  577.07
  -1   9  17 4911.39 1197.12
   1   9 -17 8311.05 1459.12
  -1  -9  1811943.30 1097.95
  -1   9 -1811726.20 1923.28
   1   9  1812154.40 1971.00
  -1   9  1812210.10 1864.96
   1   9 -1814990.80 2129.89
   1  -9  1811911.90 1447.77
  -1   9 -1912308.00 1944.51
  -1  -9  1911903.50 1058.76
   1   9  1911260.10 1910.36
   1  -9  1910646.90  962.09
  -1   9  1911453.70 1221.83
   1   9 -1914234.50 2068.59
   1   9  20 4117.21 1379.82
  -1   9 -20 5246.87  864.31
  -1  -9  20 5405.67  690.47
  -1   9  20 6096.28  828.31
   1  -9  20 5009.20  954.73
   1   9 -20 7327.15 1387.03
  -1   9 -21 4489.54 1316.78
   1   9  21 5663.54 1356.49
   1  -9  21 5131.00  969.61
   1   9 -21 5443.87 1300.86
  -1   9  21 5297.73  803.04
   1   9  22 4351.29 1313.14
  -1   9 -22 4493.30  824.69
  -1   9  22 4854.86  795.00
   1   9 -22 3892.52 1306.85
   1  -9  22 5191.07  621.40
  -1   9 -23 4180.31  775.86
   1   9  23 3198.26  766.32
   1  -9  23 4646.56  600.96
  -1   9  23 3563.89  735.58
   1   9 -23 3360.65  747.24
  -1   9 -24 5338.20 1628.98
   1   9  24 5108.85 1035.83
   1  -9  24 6974.25 1257.71
  -1   9  24 6270.32 1015.39
   1   9 -24 8608.11 1051.53
  -1   9 -25 3343.68 1373.52
   1   9  25 2655.53 1397.49
   1  -9  25 3171.98 1078.15
  -1   9  25 4556.60 1341.17
   1   9 -25 5542.43  843.90
  -1   9 -26 1711.15  651.49
   1   9  26 3282.40 1152.49
   1   9 -26 2643.13  652.26
   1  -9  26 2281.45  841.06
  -1   9  26  626.30 1067.85
  -1   9 -27 2436.05  933.69
   1   9  27 1759.20  615.62
  -1   9  27 1825.30  980.79
   1   9 -27  749.93  547.77
  -1   9 -28  251.80  761.23
   1   9  28  286.35  835.90
  -1   9  28 1630.92  811.56
  -1  10   0109518.0 8747.39
   1  10   096358.20 7713.15
   1  10   0109846.0 8353.94
  -1  10   090592.90 7486.88
  -1  10  -1  763.22  487.61
   1  10   1 1118.23  433.92
   1  10   1  452.85  365.88
  -1  10  -1  859.00  275.08
  -1  10   1 1327.78  423.81
  -1  10   1  613.94  275.72
   1  10  -1  530.98  264.27
   1  10  -1 1327.43  344.34
   1  10   249597.60 3496.53
   1  10   258793.00 4519.17
  -1  10  -249879.10 4440.08
   1 -10   269261.20 5728.58
  -1  10   247322.10 3632.42
   1  10  -250377.20 3429.42
   1  10  -254874.00 3917.95
  -1  10   246410.10 3826.27
  -1  10  -3 4132.97  555.12
   1  10   3 4295.96  628.37
   1  10   3 4787.93  708.50
  -1  10   3 5364.68  824.02
   1 -10   3 2654.97  748.88
   1  10  -3 3848.58  482.80
   1  10  -3 2565.58  333.79
  -1  10  -426557.10 2583.24
   1  10   426089.30 2323.46
   1  10   424848.60 1963.40
   1 -10   426135.80 2153.21
  -1  10   423897.50 1767.09
   1  10  -422382.80 1432.19
   1  10  -424766.00 2427.74
  -1  10   420628.00 1643.07
   1  10   544255.20 3704.93
  -1 -10   530963.90 2684.82
   1  10   539660.90 3090.15
  -1  10  -541343.20 3217.05
   1 -10   544967.10 3411.40
   1  10  -544743.20 3920.49
  -1  10   543914.00 3786.34
  -1  10   535403.80 2630.92
  -1  10  -6 7947.51 1254.57
   1 -10  -6 5729.70  449.23
  -1 -10   6 7472.03  640.02
   1  10   6 6709.80  523.14
   1  10   6 9056.15 1158.99
  -1  10   6 6204.86  582.47
   1 -10   6 7669.38  594.93
  -1  10   6 8305.74  777.80
   1  10  -6 8703.76 1255.75
   1 -10  -711366.70  738.72
  -1  10  -716653.90 1396.59
   1  10   716084.60 1277.83
   1  10   718012.40 1810.32
  -1 -10   715829.30 1055.04
  -1  10   712864.90  872.85
  -1  10   716629.90 1295.21
   1  10  -716598.70 1899.85
   1 -10   713650.70  965.24
   1 -10  -8 5476.51  414.41
  -1  10  -8 7601.50 1208.34
  -1 -10   8 7660.98  594.99
   1  10   8 8926.37 1158.12
   1  10   8 7191.56  705.20
   1  10  -8 8305.08 1273.91
  -1  10   8 6244.20  536.05
   1 -10   8 7992.87  888.00
  -1  10   8 6736.16  735.72
   1  10   9 7470.43  769.56
   1  10   9 6602.79  675.86
  -1 -10   9 6978.73  578.82
  -1  10  -9 7401.99  832.59
   1 -10   9 8281.93  862.72
  -1  10   9 7567.89  769.65
   1  10  -9 9982.22 1315.32
  -1  10   9 4721.96  386.38
  -1 -10  1011469.20  773.72
   1 -10 -10 8462.62  413.23
   1  10  1010731.90  837.93
   1  10  1010168.50 1376.90
  -1  10 -1011211.20 1490.04
  -1  10  10 7577.40  407.75
   1  10 -1013976.30 1595.11
   1 -10  1012165.60 1124.52
  -1  10  1011469.60  979.71
   1  10  11 3670.47  468.00
  -1 -10  11 4218.78  449.34
  -1  10 -11 4206.17  651.86
   1  10  11 4851.82  653.72
  -1  10  11 3164.93  940.93
   1  10 -11 6378.33 1104.33
   1 -10  11 5162.56  736.05
   1  10  1248094.80 4649.05
  -1  10 -1251993.90 5013.52
   1  10  1239455.40 2961.52
  -1 -10  1246986.50 3206.42
   1  10 -1253849.30 5034.61
   1 -10  1249320.90 3941.94
  -1  10  1250629.80 4672.02
   1  10  13  895.15  272.78
  -1 -10  13 2011.06  306.73
   1  10  13  747.19  395.04
  -1  10 -13 1898.20  434.94
  -1  10  13 1237.85  423.02
   1 -10  13 1805.61  494.29
   1  10 -13 1342.57  715.63
   1  10  1430953.30 2230.08
   1  10  1432225.40 2737.08
  -1  10 -1436700.50 3728.65
  -1  10  1436590.70 3594.51
   1  10 -1435098.50 3812.75
   1 -10  1433528.30 2349.84
  -1  10 -15 1255.17  376.96
  -1 -10  15  701.48  256.17
   1  10  15  696.39  297.81
   1  10  15  391.26  353.83
   1 -10  15 1161.23  408.01
   1  10 -15 1116.61  629.19
  -1  10  15  947.21  354.95
   1  10  1631912.90 3460.80
   1  10  1626596.60 1999.96
  -1 -10  1629532.80 2171.03
  -1  10 -1633441.20 2891.66
   1 -10  1632277.80 2837.94
  -1  10  1628483.40 2503.56
   1  10 -1633343.90 3921.76
  -1  10 -17 9189.17 1713.13
   1  10  17 9765.59 1647.83
   1  10  17 6960.92  868.66
  -1 -10  17 9643.19  888.75
  -1  10  17 8962.55 1608.18
   1  10 -1711585.90 1917.46
   1 -10  17 8989.29 1163.04
  -1  10 -1814958.50 1594.44
  -1 -10  1814564.20 1249.75
   1  10  1814250.40 2226.70
   1 -10  1816323.20 1749.55
   1  10 -1817459.80 1754.64
  -1  10  1816065.80 2187.31
  -1  10 -19 6017.20 1513.13
   1  10  19 7292.40 1518.83
  -1  10  19 6717.54  929.56
   1 -10  19 8146.37 1103.70
   1  10 -19 6837.04 1041.25
  -1  10 -20 1824.18  764.13
   1  10  20 1389.70  757.70
  -1  10  20 1267.03  438.50
   1  10 -20 1421.13  456.23
   1 -10  20  920.85  319.01
   1  10  21 1905.69  898.12
  -1  10 -21 1783.41  548.14
   1 -10  21  573.48  635.89
  -1  10  21 2046.90  521.12
   1  10 -21 1677.39  533.05
  -1  10 -22  667.65  578.01
   1  10  22  591.40  342.28
   1 -10  22  334.82  397.20
   1  10 -22  265.51  331.62
  -1  10  22  297.30  331.38
   1  10  23 1823.86  597.59
  -1  10 -23 2418.22  969.84
   1 -10  23 1484.96  419.48
   1  10 -23 2387.09  954.48
  -1  10  23 1814.45  572.60
  -1  10 -24 5833.01  999.26
   1  10  24 6084.92 1594.54
  -1  10  24 5435.96  958.49
   1  10 -24 5780.55 1504.45
   1 -10  24 6353.61 1193.23
  -1  10 -25 2410.47 1104.50
   1  10  25 1520.13 1115.54
   1 -10  25 2171.40  813.49
   1  10 -25 2224.40 1071.03
  -1  10  25 2454.50  664.35
  -1  10 -26 9078.99 2104.52
   1  10  2610043.80 2169.30
   1  10 -2610279.80 2035.10
  -1  10  26 9197.42 2021.64
  -1  10 -27  395.24  309.95
   1  10  27  234.50  332.00
   1  10 -27 -342.79  508.02
  -1  10  27 -126.58  533.43
   1  10  28 7843.61 2289.31
  -1  10 -28 8343.54 2141.75
  -1  10  2810925.90 2126.10
   1  11   0 7000.38  621.06
  -1  11   0 6169.44  979.19
  -1  11   0 5456.04  649.58
   1  11   0 4680.72  499.32
   1  11   112261.00  958.80
  -1  11  -113821.40 1149.87
   1  11   114200.40 1085.26
  -1  11  -114766.20 1221.42
   1  11  -114098.80 1381.54
   1  11  -115915.10 1217.52
  -1  11   114586.10 1533.45
  -1  11   115408.10 1769.22
  -1  11  -224684.20 2584.29
   1  11   224530.50 1774.27
   1  11   227165.50 2399.74
  -1  11   228579.90 2745.17
   1 -11   233428.20 3140.59
   1  11  -227989.70 2232.53
  -1  11   223895.40 2206.39
   1  11  -228411.90 2045.12
   1  11   310456.60  840.95
   1  11   312806.50 1395.87
  -1  11  -312265.90 1561.09
   1 -11   314625.20 1546.94
  -1  11   313652.50 1090.27
   1  11  -313954.40 1106.14
   1  11  -312303.90 1169.52
  -1  11   310324.70 1126.38
   1  11   411495.10 1312.01
  -1  11  -4 9839.29  965.26
   1  11   4 9645.76  742.42
   1 -11   411316.00  844.26
  -1  11   4 8768.50  934.62
  -1  11   411529.00 1441.21
   1  11  -412889.90 1020.51
   1  11  -4 9944.58  730.09
  -1 -11   511793.10 1099.52
   1  11   5 8958.42  960.18
   1  11   5 8621.14  800.44
  -1  11  -5 8517.41 1389.18
  -1  11   5 8687.14  840.39
  -1  11   5 8116.34  793.01
   1  11  -5 9657.55  936.76
   1 -11   5 8646.17  723.60
   1  11   627626.40 2077.03
  -1 -11   627760.60 1957.76
   1  11   626262.20 2053.22
  -1  11  -630964.00 2424.47
  -1  11   624790.60 1805.60
  -1  11   629330.40 2162.18
   1  11  -631191.20 2356.15
   1 -11   628815.90 1942.32
  -1 -11   726006.50 1768.01
   1  11   726217.90 1966.00
   1  11   724915.80 1855.56
  -1  11  -728392.10 2884.50
  -1  11   724125.00 1874.11
   1 -11   727584.40 2228.07
  -1  11   718783.10 1394.44
   1  11  -727722.80 2109.12
   1 -11  -824804.80 1541.40
   1  11   835916.90 2720.74
  -1  11  -835386.40 2823.02
  -1 -11   836305.20 2366.21
   1  11   833747.40 2450.57
   1 -11   839379.70 3006.23
  -1  11   830850.70 2149.73
   1  11  -837477.20 2858.36
  -1  11   836680.00 3331.95
   1 -11  -921742.90 1339.82
   1  11   924767.70 2636.47
  -1  11  -929067.20 2916.40
  -1 -11   926902.50 1743.65
   1  11   924262.40 1831.09
   1 -11   929481.90 2306.18
  -1  11   918629.10 1187.95
  -1  11   926212.50 2100.43
   1  11  -927309.20 2198.23
   1  11  1025996.50 2135.34
  -1  11 -1029520.00 2383.58
   1  11  1026423.40 1911.89
  -1 -11  1025005.30 1668.59
   1 -11 -1021708.90 1286.55
   1 -11  1027381.80 2212.80
  -1  11  1019437.30 1220.51
  -1  11  1026252.10 2074.00
   1  11 -1027347.40 2945.12
  -1  11 -1113417.80 1864.89
   1  11  1112261.30 1043.96
   1  11  1113238.50 1718.63
  -1 -11  1112917.40  963.39
  -1  11  1112167.70 1682.58
   1 -11  1114025.40 1371.02
   1  11 -1113200.10 1993.78
   1  11  12 7222.83  716.43
  -1  11 -12 9775.07 1052.55
  -1 -11  12 9351.32  746.04
   1  11  12 9129.21 1001.54
  -1  11  1210787.00 1499.74
   1 -11  12 9562.25 1109.44
   1  11 -1210900.60 1629.23
  -1 -11  13 8112.30  707.66
  -1  11 -13 8140.36 1494.42
   1  11  13 7463.14  699.74
   1  11  13 9908.05 1451.64
  -1  11  13 7873.26  913.21
   1  11 -13 9515.93 1572.08
   1 -11  13 8158.70  688.82
  -1  11 -14 2533.70  540.17
   1  11  14 1776.81  793.13
   1  11  14 1515.82  430.66
  -1 -11  14 1939.84  356.00
   1 -11  14 2407.71  575.88
  -1  11  14 2233.12  784.41
   1  11 -14 2139.96  872.94
   1  11  15 2823.15  525.35
  -1  11 -15 2807.62  581.52
   1  11  15 1611.09  329.72
  -1 -11  15 3013.62  394.23
   1 -11  15 2277.17  634.70
   1  11 -15 2538.31  962.45
  -1  11  15 2262.89  518.38
   1  11  16 4002.14  669.21
  -1 -11  16 3357.61  486.95
  -1  11 -16 5266.51 1119.79
   1  11  16 2849.05  377.35
   1 -11  16 4158.32  470.81
  -1  11  16 3120.37  600.67
   1  11 -16 5376.97 1231.36
  -1 -11  17  844.92  293.31
  -1  11 -17 1336.72  444.40
   1  11  17 1252.73  408.19
  -1  11  17  969.56  646.91
   1  11 -17  645.81  487.91
   1 -11  17 1192.58  464.50
   1  11  18 7398.42 1118.14
  -1 -11  18 8216.00  860.56
  -1  11 -18 9051.66 1788.15
  -1  11  1810495.00 1692.73
   1 -11  18 9584.25  853.38
   1  11 -1811488.60 1298.49
  -1  11 -1911926.20 2248.47
   1  11  1913287.30 1506.13
   1  11 -1915911.10 1695.02
  -1  11  1913212.10 1520.30
   1 -11  1914994.40 1739.03
  -1  11 -2018775.30 1879.09
   1  11  2016483.90 1820.62
   1 -11  2018464.90 1487.94
  -1  11  2016881.20 1772.41
   1  11 -2017459.90 2614.41
   1  11  21 9029.89 1236.80
  -1  11 -21 9103.80 1899.33
  -1  11  21 9370.47 1151.58
   1 -11  21 8598.95 1297.31
   1  11 -21 9713.34 1873.57
  -1  11 -2215328.30 1738.52
   1  11  2214870.50 1717.78
  -1  11  2213289.10 1543.19
   1 -11  2214111.80 1793.11
   1  11 -2214767.70 2504.75
  -1  11 -23 8490.88 1231.56
   1  11  23 9353.14 1307.69
   1  11 -23 8804.45 1944.37
  -1  11  23 8744.05 1186.79
   1 -11  23 7648.99  909.21
   1  11  24 6095.82 1568.12
  -1  11 -24 4446.80 1576.29
   1 -11  24 4507.01 1098.61
   1  11 -24 5864.91 1581.12
  -1  11  24 5218.26  937.22
  -1  11 -25 2302.90  714.63
   1  11  25 2080.21 1184.91
  -1  11  25 2344.07  670.08
   1  11 -25 2655.81 1163.31
  -1  11 -26 1207.06  659.68
   1  11  26 1803.87 1171.83
  -1  11  26 1985.04  652.41
   1  11 -26 2736.71  659.52
   1  11  27  843.41  613.74
  -1  11 -27 3054.71  970.12
  -1  11  27 1363.24  947.57
   1  11 -27  942.97  565.66
  -1  12   0 1954.60  664.93
   1  12   0 3097.86  409.94
   1  12   0 2082.12  336.96
  -1  12   0 2381.91  753.77
   1  12   164317.50 5271.94
  -1  12  -157960.80 4525.42
   1  12   160201.10 5057.83
  -1  12  -152520.40 4282.27
  -1  12   164652.20 5735.77
   1  12  -164516.00 4837.96
   1  12  -157460.20 4193.73
  -1  12  -2 8507.77 1154.68
   1  12   2 7014.18  898.21
   1  12   2 8113.78  992.97
   1  12  -2 6740.04  705.89
  -1  12   2 6249.47  712.53
  -1  12   2 4841.45  864.27
   1 -12   2 3796.12  731.64
   1  12  -2 5984.21  848.02
   1  12   336649.30 2963.38
  -1  12  -336378.00 3415.79
   1  12   336555.50 2594.61
   1  12  -334265.30 2643.87
  -1  12   338374.70 3573.61
   1  12  -336745.80 2961.39
  -1  12   328394.60 2561.62
   1  12   4 9034.07 1172.42
   1  12   4 8833.19  965.50
  -1  12  -4 8060.58  849.29
   1  12  -4 7315.21  897.20
  -1  12   4 7899.85  782.03
  -1  12   4 5264.72  819.04
   1  12  -4 7746.11 1284.17
   1 -12   4 9646.64 1082.20
  -1  12  -510378.40 1440.83
   1  12   510026.30 1330.38
   1  12   5 8705.14  683.97
  -1 -12   514274.40 1265.52
  -1  12   5 9837.92  940.93
   1 -12   511074.40 1188.12
   1  12  -510552.20 1462.86
  -1  12   5 7926.18  888.85
  -1  12  -6 9462.37 1054.72
   1  12   6 8746.87  692.53
  -1 -12   612474.70 1080.41
   1  12   611569.10 1419.90
   1 -12   611139.40 1210.65
  -1  12   6 9371.99  878.76
   1  12  -611511.80 1565.51
  -1  12   612456.40 1508.51
   1  12   7 4727.27  630.58
  -1 -12   7 4829.12  556.95
  -1  12  -7 4748.60 1091.89
   1  12   7 4516.85  945.89
  -1  12   7 5807.93  998.01
  -1  12   7 3616.66  475.51
   1  12  -7 4789.02 1055.87
   1 -12   7 5652.89  810.76
  -1  12  -815079.60 1983.41
   1  12   814475.40 1317.18
  -1 -12   815013.10 1134.45
   1  12   814518.10 1797.74
  -1  12   814235.90 1818.94
  -1  12   811355.70  896.22
   1  12  -815429.90 2011.21
   1 -12   815807.70 1511.20
   1  12   920771.40 1636.14
  -1  12  -917978.10 1702.45
   1  12   920604.60 1735.25
  -1 -12   918219.50 1360.32
   1 -12   919553.50 1821.44
  -1  12   920028.30 1760.38
   1  12  -921162.70 1916.26
  -1  12   915115.20 1232.23
   1  12  10 7296.77 1248.47
   1  12  10 6412.16  682.85
  -1  12 -10 7453.43 1298.45
  -1 -12  10 7205.89  658.28
  -1  12  10 7116.00  816.06
  -1  12  10 4643.87  361.28
   1  12 -10 8418.94  928.41
   1 -12  10 7592.20  917.23
  -1  12 -1114970.30 1875.20
   1  12  1113864.80 1242.77
  -1 -12  1113069.60  770.51
   1  12  1111961.10 1000.20
  -1  12  1114289.70 1732.68
  -1  12  11 8391.82  493.15
   1  12 -1115273.90 1365.86
   1 -12  1114700.10 1391.01
   1  12  12 3172.66 1019.98
   1  12  12 2919.69  478.89
  -1  12 -12 3689.27  691.71
  -1 -12  12 4604.56  500.44
   1 -12  12 4503.36  472.30
  -1  12  12 3814.75  981.66
   1  12 -12 4783.17  739.09
  -1  12 -1327270.60 3162.52
   1  12  1322695.90 1715.13
  -1 -12  1324811.50 1774.75
   1  12  1324487.90 2180.89
   1  12 -1328733.30 3256.35
   1 -12  1325036.80 1800.53
  -1  12  1326972.00 2276.41
  -1  12 -14  827.29  269.57
  -1 -12  14  169.51  181.83
   1  12  14  194.87  421.13
   1  12  14    4.08  217.65
   1 -12  14    9.66  293.60
   1  12 -14  397.04  480.79
  -1  12  14  -30.84  411.21
   1  12  1520906.40 2608.13
  -1  12 -1522703.40 2823.02
   1  12  1517079.10 1367.44
  -1 -12  1518542.70 1455.48
  -1  12  1521106.80 1853.35
   1 -12  1520547.80 1995.09
   1  12 -1520619.90 2785.26
  -1  12 -16 1172.54  417.09
  -1 -12  16  720.67  292.26
   1  12  16  362.58  649.15
   1 -12  16  860.27  277.03
  -1  12  16  838.81  397.64
   1  12 -16 1082.28  759.16
  -1  12 -1711082.90 1953.78
   1  12  1710438.90 1254.73
  -1 -12  1710546.80  984.92
  -1  12  1711025.00 1861.11
   1 -12  1710378.30 1350.17
   1  12 -1713893.20 1516.46
   1  12  18 2659.40  670.34
  -1  12 -18 1943.05 1101.19
   1 -12  18 3628.07  456.15
   1  12 -18 2898.23  701.44
  -1  12  18 1604.34 1032.43
   1  12  19 6392.39  976.94
  -1  12 -19 6192.96  995.45
  -1  12  19 6369.70  948.91
   1 -12  19 7093.15 1089.20
   1  12 -19 7969.38 1697.49
  -1  12 -20 8352.08 1860.10
   1  12  20 7879.60 1155.52
   1 -12  20 8673.37  864.86
   1  12 -20 8794.93 1856.03
  -1  12  20 9224.85 1134.10
   1  12  21  548.77  398.21
  -1  12 -21 1048.13  412.86
   1 -12  21  825.35  448.65
   1  12 -21 -197.65  687.60
  -1  12  21  393.52  394.81
   1  12  22 2372.90  798.30
  -1  12 -22 3234.55 1270.59
   1 -12  22 3344.69  846.29
   1  12 -22 3447.26 1285.22
  -1  12  22 3887.87  746.82
   1  12  23 3789.54 1327.73
  -1  12 -23 3868.01 1360.34
   1 -12  23 3646.32  892.67
  -1  12  23 3433.35 1243.90
   1  12 -23 3178.14 1348.02
  -1  12 -24 1394.35  581.96
   1  12  24  965.59  967.20
   1 -12  24 1462.12  655.14
  -1  12  24 1015.71  535.26
   1  12 -24 1796.70  583.46
   1  12  25 2798.30 1464.32
  -1  12 -25 3675.62 1471.94
  -1  12  25 3942.76  866.78
   1  12 -25 4655.98  903.47
   1  12  26  702.75  732.64
  -1  12 -26  261.34  707.37
  -1  12  26  218.34  399.79
   1  12 -26  818.48  692.94
  -1  12 -27 7670.75 1476.84
   1  12  2710561.40 1572.76
  -1  12  27 9308.85 1424.31
   1  12 -2710101.60 2257.73
  -1  13   0  514.42  437.53
   1  13   0  135.85  378.56
   1  13   0  491.38  209.39
  -1  13   0  846.63  384.52
  -1  13  -1 7981.24  846.31
   1  13   1 9937.75 1173.49
   1  13   1 9344.85 1104.64
  -1  13  -1 8155.34  837.14
  -1  13   1 7935.06 1137.32
  -1  13   1 9524.57  898.00
   1  13  -1 8791.38  821.21
   1  13  -1 7963.16  714.82
   1  13   2 7105.74 1008.16
   1  13   2 7156.75  944.72
  -1  13  -2 6649.10 1118.40
   1  13  -2 5672.89  593.10
  -1  13   2 5888.34  912.45
  -1  13   2 6794.82 1168.68
   1  13  -2 6218.65  714.90
   1  13   3 7179.57  695.15
   1  13   3 9774.46 1254.28
  -1  13  -3 9407.08 1343.14
   1  13  -311146.20 1414.22
  -1  13   3 9501.08  926.09
  -1  13   3 7841.55 1018.27
   1  13  -3 8714.88  725.80
   1  13   410200.70 1104.30
  -1  13  -411344.70 1091.18
   1  13   410836.40  960.42
  -1  13   410278.10 1052.93
  -1  13   4 8639.10 1070.71
   1  13  -413407.80 1671.86
   1  13  -411986.60 1226.96
  -1  13  -526352.80 2937.77
   1  13   527402.50 2199.15
   1  13   525310.00 1991.56
  -1  13   522474.80 1941.39
   1 -13   526525.30 1864.82
   1  13  -528618.90 2242.68
  -1  13   528874.90 2870.84
  -1  13  -619313.10 2342.54
  -1 -13   615163.80 1536.81
   1  13   620109.50 1702.39
   1  13   619394.10 1596.27
  -1  13   617770.40 1453.64
  -1  13   620693.50 2254.30
   1 -13   618958.30 1356.38
   1  13  -619876.30 1733.21
  -1 -13   735630.60 2286.47
   1  13   734420.60 2727.61
   1  13   738785.50 2979.76
  -1  13  -740056.10 3270.47
   1 -13   738914.50 2708.27
  -1  13   729973.20 2367.82
  -1  13   740179.30 3847.89
   1  13  -738411.10 3133.35
  -1  13  -819734.30 2351.88
   1  13   820570.50 1660.13
   1  13   819657.90 1645.98
  -1 -13   821059.40 1553.34
  -1  13   819053.40 2300.41
   1  13  -819319.10 2503.58
   1 -13   819690.60 1407.56
  -1  13   815356.30 1217.92
  -1 -13   924866.80 1827.36
   1  13   925072.20 2728.09
  -1  13  -924698.00 2143.30
   1  13   923095.50 1911.99
   1 -13   925654.90 2267.46
  -1  13   918254.90 1334.63
   1  13  -927859.00 3081.05
  -1  13   925119.20 2720.34
   1  13  1031205.50 3296.86
  -1 -13  1030270.70 2200.22
   1  13  1027364.30 2169.15
  -1  13 -1031026.10 3415.16
   1 -13  1031620.50 2667.81
  -1  13  1022346.60 1647.87
  -1  13  1031334.80 2562.28
   1  13 -1032182.80 3508.41
  -1  13 -1110605.90 1063.39
  -1 -13  11 9180.03  777.43
   1  13  11 8818.68  959.12
   1  13  11 8496.80  846.86
  -1  13  11 7282.89  902.91
  -1  13  11 5282.40  416.59
   1 -13  11 8716.69 1035.81
   1  13 -11 8549.12 1056.22
   1  13  12 4444.83  563.35
   1  13  12 3958.24 1124.46
  -1 -13  12 5366.43  583.51
  -1  13 -12 3886.36 1236.06
   1 -13  12 5381.03  544.08
  -1  13  12 4907.03 1110.79
   1  13 -12 4685.03  795.51
  -1 -13  13 3927.20  513.15
  -1  13 -13 3817.47  697.34
   1  13  13 2989.00 1027.67
   1  13  13 2257.95  448.04
   1  13 -13 4534.08  715.95
  -1  13  13 3753.46  630.46
   1 -13  13 4147.79  475.19
  -1 -13  14 1294.30  328.23
  -1  13 -14 1366.01  764.81
   1  13  14 1341.37  425.85
   1  13  14  639.51  272.86
  -1  13  14 1958.75  697.83
   1  13 -14 1428.07  813.09
   1 -13  14 1443.31  506.33
  -1  13 -15 1100.32  830.81
  -1 -13  15 1625.37  358.24
   1  13  15 1310.36  785.37
   1 -13  15 1630.46  555.34
  -1  13  15 1576.59  458.87
   1  13 -15  873.78  861.64
  -1  13 -16 2159.64  550.89
  -1 -13  16 1820.07  233.66
   1  13  16 1804.01  855.39
   1  13 -16 2252.24 1009.42
  -1  13  16 1492.46  842.03
   1 -13  16 1336.84  352.07
  -1 -13  17 6003.16  697.88
  -1  13 -17 6966.13 1548.86
   1  13  17 5074.73 1463.01
  -1  13  17 7330.21 1449.95
   1 -13  17 6090.54 1012.08
   1  13 -17 6846.76 1092.62
  -1  13 -18 2759.31  719.49
   1  13  18 3732.46 1151.82
  -1  13  18 3091.60  689.73
   1  13 -18 3317.53  758.83
   1 -13  18 3088.57  776.42
  -1  13 -1920565.30 2951.56
   1  13  1920123.80 2087.87
  -1  13  1918687.00 1978.40
   1 -13  1919870.20 2069.49
   1  13 -1920390.10 3076.93
  -1  13 -20 2630.43  878.84
   1  13  20 3841.93  864.87
   1  13 -20 5370.80 1428.68
  -1  13  20 4978.73  820.86
   1 -13  20 4550.97  584.87
  -1  13 -2113533.90 1652.65
   1  13  2113853.60 1726.01
  -1  13  2114212.50 2374.00
   1 -13  2113339.30 1751.08
   1  13 -2115934.80 2516.32
  -1  13 -22 6247.43 1874.98
   1  13  22 6802.90 1191.36
  -1  13  22 9690.95 1849.44
   1 -13  22 8017.27  851.57
   1  13 -22 8414.95 1258.79
  -1  13 -23 7048.29 1129.28
   1  13  23 5991.92 1840.03
   1 -13  23 6554.14 1218.52
  -1  13  23 7295.63 1760.24
   1  13 -23 7675.37 1215.87
   1  13  24 1336.22 1159.86
  -1  13 -24 2008.93 1126.73
  -1  13  24 2568.20 1120.55
   1  13 -24 1931.27  721.59
  -1  13 -25 1355.80 1484.72
   1  13  25 3109.39 1487.92
   1  13 -25 5377.28 1461.30
  -1  13  25 4257.92 1405.05
   1  13  26  865.60  888.89
  -1  13 -26  647.42  509.13
  -1  13  26 1152.86  831.46
   1  13 -26  118.56  851.62
  -1  14   023903.90 2021.20
   1  14   034891.40 3015.23
   1  14   028099.20 2066.98
  -1  14   029263.10 2319.09
   1  14   1 6148.38 1021.44
  -1  14  -1 4533.38  703.95
   1  14   1 7757.12 1081.43
  -1  14   1 8452.92 1274.53
  -1  14   1 6207.60 1024.40
   1  14  -1 6645.92  983.72
   1  14  -1 6376.05  698.02
  -1  14  -237750.60 3724.32
   1  14   234342.00 2646.74
   1  14   232355.70 2487.55
   1  14  -238988.00 3349.10
  -1  14   238309.20 3030.19
   1  14  -242712.70 3878.98
  -1  14   238798.70 3356.39
   1  14   3 3109.17  655.94
  -1  14  -3 4382.65  831.52
   1  14   3 3907.16  772.41
  -1  14   3 2770.52  613.57
   1 -14   3 1039.08  477.69
  -1  14   3 3213.65  888.40
   1  14  -3 3527.06  684.26
   1  14  -3 3169.92  861.29
   1  14   4 6614.09  879.21
  -1  14  -4 6535.26  765.44
   1  14   4 5959.78  651.00
   1  14  -4 6506.32  761.34
  -1  14   4 4679.30  794.39
   1 -14   4 5871.65 1006.84
   1  14  -4 5666.56  903.08
  -1  14   4 6778.50 1221.82
   1  14   5 5018.57  520.72
   1  14   5 5075.04  643.32
  -1  14  -5 6440.06 1180.60
   1  14  -5 5694.45  763.12
  -1  14   5 6704.74 1173.22
  -1  14   5 5648.26  773.20
   1 -14   5 5922.57  597.32
  -1 -14   6 8962.81 1074.00
  -1  14  -6 9477.55 1558.14
   1  14   6 8199.72  966.00
   1  14   6 8772.29  925.47
   1  14  -6 9627.05 1540.75
  -1  14   6 7631.74  900.79
  -1  14   6 8674.51  998.89
   1 -14   610129.30 1208.37
  -1  14  -716923.30 1594.52
  -1 -14   717188.20 1394.60
   1  14   716475.60 1481.89
   1  14   714069.40 1391.77
   1  14  -717230.20 2215.30
  -1  14   711472.30 1188.50
  -1  14   716211.20 2061.68
   1 -14   718063.20 1768.64
   1  14   8  830.95  364.60
  -1  14  -8 1940.24  661.49
   1  14   8 1686.82  615.39
  -1 -14   8 1076.41  353.30
  -1  14   8 1194.25  279.54
   1 -14   8 1087.67  490.26
   1  14  -8  862.16  421.86
  -1  14   8 1549.10  657.95
  -1  14  -9 9008.79 1095.22
   1  14   9 7782.61 1431.44
  -1 -14   9 9436.90  888.00
   1  14   9 8721.17  954.98
   1  14  -9 8927.27 1127.70
   1 -14   9 7884.05  737.10
  -1  14   9 6975.80  679.62
  -1  14   9 9428.04 1472.88
  -1  14 -1021002.80 2616.24
   1  14  1018289.90 1535.75
  -1 -14  1022170.50 1645.25
   1  14  1021009.60 1855.82
  -1  14  1014131.00 1063.01
   1 -14  1018590.00 1435.44
   1  14 -1023604.70 2820.94
  -1  14  1019918.50 1864.94
  -1  14 -1111903.70 1301.30
  -1 -14  1111663.30  991.88
   1  14  1111433.30 1776.46
   1  14  11 8465.93  931.29
   1  14 -1114346.00 2017.42
  -1  14  11 7741.47  594.78
   1 -14  1112050.60 1355.03
  -1  14  1113888.30 1304.35
  -1 -14  1221215.40 1657.40
   1  14  1218175.50 1579.50
  -1  14 -1221193.00 2802.00
   1  14  1220270.90 1940.44
  -1  14  1220843.00 2612.67
   1 -14  1221298.30 2086.75
   1  14 -1224121.80 2177.32
  -1 -14  13 1407.67  378.79
   1  14  13 1502.35  770.71
   1  14  13  441.69  314.07
  -1  14 -13 2457.61  520.24
   1  14 -13 2277.86  515.50
  -1  14  13 1566.84  461.77
   1 -14  13 1400.63  549.56
  -1  14 -1423739.20 3041.37
  -1 -14  1421825.50 1679.82
   1  14  1421573.00 2791.27
  -1  14  1421779.40 2726.09
   1  14 -1422574.60 2207.96
   1 -14  1421381.30 1624.59
  -1 -14  15  470.65  296.06
  -1  14 -15  386.80  420.77
   1  14  15  653.02  378.77
   1  14 -15  449.73  766.52
   1 -14  15  785.09  451.05
  -1  14  15 1251.42  355.80
  -1 -14  1612251.10 1148.10
   1  14  1612233.70 2065.54
  -1  14 -1613541.70 2203.68
  -1  14  1614039.90 2076.66
   1  14 -1612239.00 2447.50
   1 -14  1613517.30 1126.95
   1  14  17  842.05  701.35
  -1  14 -17  768.23  431.24
  -1  14  17  564.45  691.55
   1  14 -17  752.62  499.65
   1 -14  17  981.44  469.61
  -1  14 -1811547.50 2027.77
   1  14  18 9053.66 1896.34
   1 -14  1810367.20 1359.43
  -1  14  18 9688.33 1266.71
   1  14 -1810015.50 1386.74
  -1  14 -19 2080.69 1111.46
   1  14  19 2583.20 1068.56
   1 -14  19 2790.41  701.33
  -1  14  19 2067.17  634.18
   1  14 -19 1772.93 1159.64
   1  14  20  146.04  624.24
  -1  14 -20  255.25  378.44
   1 -14  20  370.31  400.13
  -1  14  20  812.29  608.61
   1  14 -20  663.73  690.49
  -1  14 -21 1849.48 1159.09
   1  14  21 2716.15 1146.53
  -1  14  21 2462.79 1118.35
   1  14 -21 2929.83 1202.75
   1 -14  21 2359.50  770.92
   1  14  22  448.12  752.44
  -1  14 -22  743.93  451.22
   1  14 -22 1044.78  448.71
   1 -14  22  362.26  286.33
  -1  14  22  740.12  715.67
  -1  14 -23 4769.66 1807.29
   1  14  23 6622.72 1840.94
  -1  14  23 5140.03 1723.89
   1  14 -23 7703.67 1193.36
   1  14  24  218.54 1261.58
  -1  14 -24 2267.53 1260.26
  -1  14  24 3273.39 1227.00
   1  14 -24 3615.59 1310.56
  -1  14 -25  319.26  445.35
   1  14  25 1053.90  755.36
  -1  14  25  -17.64  721.69
   1  14 -25  638.45  747.01
   1  15   0 5711.83  712.59
   1  15   0 6059.71 1083.05
  -1  15   0 6974.77  758.21
  -1  15   0 6630.99  821.85
   1  15   1 7123.30 1109.94
   1  15   1 8043.38 1156.16
  -1  15  -1 6919.95 1197.79
  -1  15   1 9583.32 1368.74
   1  15  -1 7442.36 1104.08
  -1  15   1 5957.62  703.12
   1  15  -1 5034.68  760.82
   1  15   2 5419.73  678.24
  -1  15  -2 6671.81 1208.33
   1  15   2 5328.11  640.72
  -1  15   2 6615.50 1317.19
   1 -15   213530.00 1627.10
  -1  15   2 5871.27 1009.34
   1  15  -2 7016.48 1194.20
   1  15  -2 7575.52 1034.56
   1  15   3 8205.46 1219.09
   1  15   3 8545.83 1065.15
  -1  15  -3 7366.44 1309.47
  -1  15   3 7031.10  896.51
   1  15  -3 6821.48  709.26
  -1  15   3 6239.07 1026.51
   1  15  -3 7542.44  864.93
   1  15   422738.30 2143.32
  -1  15  -420445.20 1830.90
   1  15   421411.30 2365.80
   1  15  -422201.40 2620.83
   1 -15   418438.00 2199.86
   1  15  -421172.80 1589.63
  -1  15   421150.70 2008.44
  -1  15   421908.90 1911.51
   1  15   513214.30 1822.00
  -1  15  -513429.50 2013.67
   1  15   513395.40 1462.12
  -1  15   515202.20 1487.24
   1  15  -513986.50 2039.64
   1 -15   515572.70 1678.72
  -1  15   513344.40 1374.88
   1  15   634569.70 2873.77
  -1  15  -629498.50 2690.44
   1  15   633512.60 3293.18
  -1 -15   622779.30 2469.09
   1  15  -637133.20 2919.06
  -1  15   624555.40 2271.47
   1 -15   634736.80 3102.03
  -1  15   631865.60 2678.57
   1  15   717367.00 1612.55
  -1 -15   721069.40 1722.07
  -1  15  -720231.90 1871.87
   1  15   720553.90 2351.23
   1  15  -718511.70 1821.70
  -1  15   719476.00 1768.82
  -1  15   713450.30 1363.81
   1 -15   718566.90 1432.56
   1  15   821960.90 2471.89
   1  15   815218.00 1155.17
  -1 -15   821690.80 1721.04
  -1  15  -822825.10 2622.86
   1  15  -822531.10 2724.36
   1 -15   820351.60 1516.43
  -1  15   814088.10 1339.79
  -1  15   819838.10 1764.12
  -1  15  -915579.00 1626.73
   1  15   916779.20 1586.39
  -1 -15   917002.10 1468.73
   1  15   915818.00 1474.69
   1  15  -918807.40 2498.98
   1 -15   918808.10 1840.58
  -1  15   917420.50 2259.12
  -1  15   913537.00 1166.53
   1  15  10 9706.98 1033.11
  -1 -15  1012741.10 1142.59
  -1  15 -1012917.50 2015.08
   1  15  1011584.20 1820.69
   1  15 -1013549.30 1471.54
   1 -15  1013839.60 1519.56
  -1  15  10 8039.20  754.08
  -1  15  1012627.90 1882.28
   1  15  1121263.80 2598.75
   1  15  1115772.00 1441.91
  -1 -15  1120972.80 1343.66
  -1  15 -1121931.50 2086.87
   1 -15  1121321.20 1549.26
   1  15 -1122827.90 2136.02
  -1  15  1120327.80 1888.51
   1  15  12 1873.45  471.75
  -1 -15  12 4175.90  538.17
   1  15  12 3636.18  631.87
  -1  15 -12 2627.00 1094.48
   1  15 -12 2674.77 1166.78
   1 -15  12 2490.77  746.15
  -1  15  12 3995.28 1036.42
  -1 -15  13 4739.27  628.04
  -1  15 -13 3071.78  790.16
   1  15  13 3505.14  523.43
   1  15  13 3551.13  698.16
   1  15 -13 4790.63 1332.50
   1 -15  13 5360.72  874.49
  -1  15  13 3307.82  720.78
  -1 -15  14 5784.10  738.05
  -1  15 -14 7905.19 1582.89
   1  15  14 3782.94 1487.50
   1  15 -14 8667.78 1117.63
  -1  15  14 6019.16 1430.16
   1 -15  14 6662.45  697.55
  -1 -15  15 3880.15  538.66
  -1  15 -15 3268.80  732.84
   1  15  15 2434.67  660.95
   1 -15  15 2825.98  747.69
   1  15 -15 3503.19 1299.94
  -1  15  15 2323.35  627.35
   1  15  16 4853.80  824.27
  -1  15 -16 3966.69 1406.92
   1 -15  16 5406.08  959.52
  -1  15  16 5087.60 1283.73
   1  15  17 4456.73 1423.58
  -1  15 -17 5680.81  976.32
   1  15 -17 4822.26 1737.47
  -1  15  17 3597.97 1365.88
   1 -15  17 5673.79  637.39
   1  15  18 4646.94 1548.79
  -1  15 -18 6619.35 1659.45
   1  15 -18 7471.92 1139.83
   1 -15  18 5985.64 1075.98
  -1  15  18 5743.40  935.11
   1  15  19 2602.05 1332.91
  -1  15 -19 3618.84  859.70
   1 -15  19 4336.98  569.11
   1  15 -19 5507.54 1541.67
  -1  15  19 3118.26  785.11
   1  15  2010601.90 2278.91
  -1  15 -2012016.00 2339.07
  -1  15  2012943.40 2255.47
   1 -15  2011209.00 1601.95
   1  15 -2013843.20 2411.58
  -1  15 -21 5360.88 1741.84
   1  15  21 5439.30 1695.81
  -1  15  21 4751.69 1638.79
   1  15 -21 6138.05 1736.46
   1 -15  21 6069.64  732.02
   1  15  22 5669.02 1498.60
  -1  15 -22 3250.37  962.82
   1  15 -22 5925.32  985.43
  -1  15  22 1612.12 1462.84
   1  15  23 3830.37 1309.31
  -1  15 -23 2091.01 1315.28
   1  15 -23 2784.22  862.77
  -1  15  23 2670.35 1288.73
   1  15  24  913.24 1329.05
  -1  15 -24 1886.96  819.29
   1  15 -24 4778.46 1400.53
  -1  15  24 3576.94 1321.20
  -1  15 -25 1617.13  642.73
   1  15  25  519.84 1052.76
   1  15 -25  350.01 1071.07
  -1  15  25 1267.01 1033.70
  -1  16   0 3221.19  955.00
   1  16   0 3301.86  972.62
   1  16   0 4106.52  630.04
  -1  16   0 4422.56 1114.24
   1  16   146314.60 4284.93
   1  16   139932.20 3181.70
  -1  16  -141969.10 4220.65
  -1  16   136797.60 3238.65
   1  16  -138373.50 3060.36
   1  16  -142466.30 4270.42
  -1  16   138220.60 3758.74
   1  16   210036.40  997.60
   1  16   2 9290.01  969.78
  -1  16  -210567.50 1562.64
   1  16  -212878.00 1504.39
  -1  16   2 8381.54  915.48
   1  16  -2 9138.66 1572.02
  -1  16   2 9903.58 1101.82
   1  16   318858.60 1879.44
   1  16   317449.70 2009.12
  -1  16  -315160.50 1474.00
   1  16  -315117.50 1456.12
  -1  16   312067.00 1158.51
   1  16  -315385.80 1804.47
  -1  16   316456.80 1543.15
   1  16   4 3216.48  472.34
   1  16   4 3476.90  882.00
  -1  16  -4 3197.85  984.51
  -1  16   4 3203.38 1036.76
  -1  16   4 2968.86  700.36
   1  16  -4 2803.82  994.79
   1  16   5 5528.72 1164.37
   1  16   5 7176.70  946.63
  -1  16  -5 5264.13 1251.91
   1 -16   5 5677.27 1061.87
  -1  16   5 4232.24 1307.05
   1  16  -5 5839.03  816.25
  -1  16   5 4675.76  831.00
   1  16   614311.80 1808.73
   1  16   611324.50 1340.81
  -1 -16   6 6527.41 1343.35
  -1  16  -613031.50 1393.77
   1  16  -615978.00 2139.00
  -1  16   611619.80 1272.58
   1 -16   614328.80 1598.33
  -1  16   614479.60 2002.23
   1  16   7  664.76  506.36
  -1 -16   7  294.00  336.61
   1  16   7  849.62  344.34
  -1  16  -7  565.94  578.91
   1  16  -7  927.85  590.71
   1 -16   7  540.65  246.63
  -1  16   7  400.86  553.57
  -1  16   7  338.26  284.71
  -1 -16   811100.10 1116.83
   1  16   8 9447.83 1596.02
  -1  16  -8 9637.66 1731.98
   1  16   8 8781.46 1101.49
   1  16  -810586.10 1344.36
  -1  16   8 8205.93  946.97
   1 -16   811787.50 1397.17
  -1  16   810797.50 1202.40
  -1 -16   9 3910.30  409.96
   1  16   9 4018.66  646.88
  -1  16  -9 4048.15  687.46
   1  16   9 3310.43  626.09
   1  16  -9 5412.52 1254.68
  -1  16   9 3693.73  663.93
   1 -16   9 3567.05  834.65
  -1  16   9 3013.86  492.79
   1  16  10 4451.77 1390.58
  -1 -16  10 7667.00  852.06
   1  16  10 5674.46  831.93
  -1  16 -10 6119.18 1496.31
   1  16 -10 7019.99 1576.24
  -1  16  10 5026.52 1420.12
   1 -16  10 6961.23  704.73
  -1 -16  1121254.30 1750.93
   1  16  1119740.40 1897.40
   1  16  1116695.00 1678.14
  -1  16 -1121095.60 2029.73
   1  16 -1120716.60 2119.96
  -1  16  1119910.10 1916.13
   1 -16  1119886.40 2073.01
   1  16  12 7974.62 1629.50
  -1 -16  12 8309.38  905.64
  -1  16 -12 9059.03 1804.78
   1  16  12 7326.05  879.56
  -1  16  12 9826.24 1724.66
   1  16 -12 8821.73 1256.82
   1 -16  12 7998.68 1201.58
   1  16  1330883.50 2917.01
  -1 -16  1331757.90 2588.47
  -1  16 -1334976.90 3219.09
  -1  16  1332318.90 3887.69
   1  16 -1330332.20 4181.27
   1 -16  1334718.00 2579.28
  -1 -16  14 1742.46  492.26
  -1  16 -14 2882.53 1059.45
   1  16  14 1828.51  953.73
   1  16 -14 4083.88 1106.47
  -1  16  14 2397.60  995.22
   1 -16  14 1902.94  704.18
   1  16  1518363.10 2804.25
  -1  16 -1522994.90 2355.99
   1  16 -1523185.60 2478.82
  -1  16  1518827.10 2017.98
   1 -16  1520588.70 2172.01
   1  16  16 2513.22  629.51
  -1  16 -16 2218.24 1096.63
   1  16 -16 2258.88 1261.86
  -1  16  16 1475.65 1005.60
   1 -16  16 2665.72  712.82
   1  16  17 9434.89 1267.25
  -1  16 -1710084.20 1323.70
   1  16 -1710823.60 2283.82
   1 -16  17 9450.86 1396.76
  -1  16  17 8798.12 1205.04
   1  16  18 1468.48  848.69
  -1  16 -18  868.96  892.28
  -1  16  18 1433.07  506.42
   1  16 -18  487.24  562.71
   1 -16  18 1511.09  583.79
   1  16  19 2029.21 1573.55
  -1  16 -19 4004.68 1000.74
   1  16 -19 7044.14 1135.44
   1 -16  19 6581.36 1090.44
  -1  16  19 5440.04 1510.18
   1  16  20 2215.79 1471.12
  -1  16 -20 4379.41 1550.48
   1  16 -20 5789.72 1575.30
   1 -16  20 4537.96 1001.92
  -1  16  20 4759.07 1478.66
   1  16  21 1082.37  682.15
  -1  16 -21  386.69  699.64
   1  16 -21  143.76  715.83
  -1  16  21   69.00  656.02
   1  16  22 4271.12 1328.32
  -1  16 -22 2331.12  837.54
   1  16 -22 3227.15  865.23
  -1  16  22 2610.27 1268.33
   1  16  23 2312.31 1217.36
  -1  16 -23 1443.16 1233.25
   1  16 -23 1899.10  750.86
  -1  16  23 2476.61  707.26
   1  16  24  916.52  987.24
  -1  16 -24  691.58  592.06
   1  16 -24 1092.17 1045.30
  -1  16  24 1328.30  574.16
   1  17   010018.90 1504.77
   1  17   0 9182.15 1040.46
  -1  17   0 8951.02 1061.17
  -1  17   0 9496.21 1470.95
   1  17   1 2727.48  497.35
  -1  17  -1 2907.88  816.74
   1  17  -1 2392.10  839.31
  -1  17   1 3820.81  784.20
   1  17  -1 2243.61  472.65
  -1  17   1 2742.62  934.16
   1 -17   1  442.80  611.52
   1  17   2 5058.82  716.35
   1  17   2 6858.58 1160.91
  -1  17  -2 5340.44  780.91
   1  17  -2 4665.38 1118.42
   1  17  -2 5677.60  819.59
   1 -17   2 3532.16 1525.33
  -1  17   2 6807.49 1096.21
  -1  17   2 7594.20 1364.46
   1  17   3 5698.13 1106.44
   1  17   3 5151.67 1228.51
  -1  17  -3 5554.96  834.30
   1  17  -3 6995.84 1374.36
   1 -17   3 5804.15  818.61
   1  17  -3 6580.08  736.91
  -1  17   3 6216.74 1064.66
  -1  17   3 6636.50 1413.51
   1  17   414213.60 1903.84
   1  17   412294.60 1519.07
  -1  17  -414873.90 2040.05
   1 -17   4 7926.40 1606.90
   1  17  -412648.70 1377.17
  -1  17   415379.30 2115.05
  -1  17   413582.00 1597.22
   1  17   523601.60 2391.63
  -1 -17   516963.00 2529.67
   1  17   522989.10 2730.21
  -1  17  -522719.40 2888.33
   1  17  -524295.10 3015.83
  -1  17   521980.50 2885.96
   1 -17   523331.90 2468.86
  -1  17   521429.40 2105.34
  -1 -17   615437.90 1689.00
   1  17   610247.20 1423.16
   1  17   610607.50 1799.29
  -1  17  -611113.10 1360.60
   1  17  -612163.90 2108.32
  -1  17   611517.30 1291.57
  -1  17   610693.50 1974.04
   1 -17   613204.20 1660.46
   1  17   712382.30 1446.17
  -1 -17   714932.20 1458.71
   1  17   714109.70 1997.05
  -1  17  -713622.60 2241.56
   1  17  -715076.20 1565.85
  -1  17   710510.00 1279.98
   1 -17   714230.00 1212.03
  -1  17   713363.40 2095.57
   1  17   812516.00 1495.50
   1  17   812482.90 1329.16
  -1 -17   813621.30 1375.01
  -1  17  -812290.70 1371.96
   1  17  -813731.00 2247.38
   1 -17   814421.60 1713.90
  -1  17   811713.30 2075.13
  -1  17   812047.80 1211.04
  -1 -17   912439.90 1290.22
   1  17   910788.80 1261.43
   1  17   911643.90 1354.01
  -1  17  -912949.80 1435.12
   1  17  -914002.10 1517.53
  -1  17   912092.10 1379.41
   1 -17   912746.10 1112.31
   1  17  10 5138.94 1308.09
   1  17  10 4877.99  793.51
  -1 -17  10 5639.47  824.03
  -1  17 -10 5791.04 1470.37
   1  17 -10 5769.87  940.66
   1 -17  10 6865.64 1051.05
  -1  17  10 5905.82 1383.15
  -1  17 -11 9123.07 1162.18
   1  17  11 5993.10  853.80
   1  17  11 7252.86 1029.48
  -1 -17  11 7710.91  644.08
   1  17 -11 8385.89 1794.37
  -1  17  11 7850.32 1638.54
   1 -17  11 8294.39 1222.89
  -1 -17  1215004.60 1395.74
   1  17  1215589.90 2339.09
  -1  17 -1218419.30 2622.07
   1 -17  1214822.70 1769.00
   1  17 -1217255.00 1844.50
  -1  17  1214859.00 1635.57
   1  17  13 2500.28  675.95
  -1 -17  13 4097.38  599.48
  -1  17 -13 2115.57  719.24
   1  17 -13 2405.40  725.31
  -1  17  13 3001.78 1106.38
   1 -17  13 3093.97  821.30
   1  17  14 4069.63 1337.91
  -1  17 -14 4531.31 1443.51
   1  17 -14 3213.21 1639.44
  -1  17  14 4138.61  850.54
   1 -17  14 5546.14  636.67
   1  17  15 3304.09 1254.42
  -1  17 -15 2973.78  846.66
   1  17 -15 4163.20  949.12
  -1  17  15 4650.08 1315.50
   1 -17  15 4512.24  906.62
   1  17  16 3111.51  829.04
  -1  17 -16 3596.23 1463.73
   1  17 -16 6171.99 1009.00
   1 -17  16 4085.47  923.45
  -1  17  16 4089.08 1351.37
   1  17  17 8005.76 1144.07
  -1  17 -17 7770.75 1238.27
  -1  17  17 7909.83 1205.65
   1  17 -17 8276.10 2094.72
   1 -17  17 8796.74 1339.92
   1  17  18 6846.22 1607.36
  -1  17 -18 2840.00 1671.42
   1  17 -18 5908.06 1850.33
   1 -17  18 6324.79 1153.40
  -1  17  18 6216.42 1615.00
   1  17  1911355.20 2415.06
  -1  17 -1912899.30 1737.02
   1  17 -1914601.20 1852.32
  -1  17  1913401.80 2480.78
   1 -17  1913458.30 1795.50
   1  17  20 3480.18 1575.82
  -1  17 -20 4072.03 1582.79
   1  17 -20 6621.69 1676.22
  -1  17  20 4473.27 1516.59
   1 -17  20 4075.05 1039.15
   1  17  2110129.90 2194.33
  -1  17 -21 8729.85 1460.37
   1  17 -21 8758.42 2337.53
  -1  17  2111033.90 2178.33
  -1  17 -22 3943.11 1733.31
   1  17  22 3900.16 1683.59
   1  17 -22 4329.76 1117.74
  -1  17  22 6426.80 1062.64
   1  17  23 4389.51 1771.13
  -1  17 -23 2744.32 1784.31
   1  17 -23 5088.45 1198.01
  -1  17  23 6406.12 1101.56
   1  18   019232.40 1860.14
   1  18   022525.00 1932.32
  -1  18   018912.60 1774.81
   1  18   1 1887.40  458.93
   1  18   1 1502.86  756.50
  -1  18  -1 1859.88  472.92
   1  18  -1 1397.35  807.23
   1  18  -1 1182.79  757.80
   1 -18   1 3144.21  636.56
  -1  18   1 1089.07  418.21
  -1  18   1 1964.66  519.66
   1  18   210043.00 1523.52
   1  18   2 7646.21  923.30
  -1  18  -2 8955.54 1516.62
   1  18  -2 8270.77 1583.53
   1  18  -2 7316.84  900.66
  -1  18   2 9297.79 1127.19
  -1  18   2 6908.70 1281.30
   1  18   3 4861.75 1422.24
   1  18   3 8963.87 1356.73
  -1  18  -3 8073.51 1522.06
   1  18  -3 7294.11 1325.38
   1 -18   3 9894.25 1648.12
   1  18  -3 7750.19 1542.50
  -1  18   3 7537.37 1206.42
  -1  18   3 7952.01 1053.51
   1  18   4 8356.83 1487.03
   1  18   4 9108.96 1311.87
  -1  18  -4 8989.00 1638.75
   1  18  -4 7336.84 1065.84
   1 -18   4 8397.69 1473.58
  -1  18   410515.50 1150.79
  -1  18   4 6066.50  758.32
   1  18   5 6474.04 1369.57
   1  18   5 5735.25  738.72
  -1  18  -5 6972.09 1003.82
  -1  18   5 5925.58  682.56
   1  18  -5 8262.92 1578.50
  -1  18   5 6936.46  995.63
   1 -18   5 7344.48  805.75
   1  18   6 1354.30  636.32
  -1 -18   6  484.57  307.25
   1  18   6 1318.32  491.56
  -1  18  -6  552.43  722.81
   1  18  -6  734.92  443.45
  -1  18   6  827.97  417.21
   1 -18   6 1370.97  559.33
  -1  18   6 1076.72  426.52
   1  18   7 7687.49 1537.83
  -1 -18   7 8438.19 1107.89
   1  18   7 5539.46 1079.96
  -1  18  -7 6904.75 1583.84
   1  18  -7 9167.44 1748.88
  -1  18   7 8437.54 1077.03
  -1  18   7 7879.47 1028.49
   1 -18   7 7504.21 1277.12
   1  18   8 2443.65  602.48
  -1 -18   8 3616.53  634.40
   1  18   8 2659.62  646.53
  -1  18  -8 2677.88  636.97
   1  18  -8 2855.72  678.80
  -1  18   8 1554.49  543.37
   1 -18   8 3295.21  785.03
  -1  18   8 2191.67 1043.97
  -1 -18   9 3793.99  703.72
   1  18   9 2672.37  422.01
   1  18   9 3447.14 1072.41
  -1  18  -9 3587.90 1177.63
   1  18  -9 4088.31 1246.13
  -1  18   9 3329.46 1177.28
   1 -18   9 3949.95  546.85
  -1 -18  10 3265.36  667.55
   1  18  10 3452.56 1121.62
  -1  18 -10 3178.92 1195.98
   1  18  10 2702.34  406.24
   1  18 -10 3883.78 1218.34
   1 -18  10 4257.55  870.78
  -1  18  10 3276.00  719.88
   1  18  11 1657.57  552.96
  -1 -18  11 1769.74  521.92
  -1  18 -11 1835.38  585.13
   1  18 -11 2468.49  641.88
  -1  18  11 1199.21  918.61
   1 -18  11 2016.39  410.05
   1  18  1213629.10 2257.38
  -1  18 -1215742.80 2491.14
  -1 -18  1213965.60 1416.09
   1 -18  1213308.80 1678.25
   1  18 -1214266.20 2554.05
  -1  18  1214304.90 1587.29
   1  18  13 2514.88  690.58
  -1  18 -13 1860.94  750.13
   1 -18  13 3464.20  499.42
   1  18 -13 4454.70  798.20
  -1  18  13 2606.96 1169.39
   1  18  1420165.00 2169.12
  -1  18 -1422766.50 3236.78
   1  18 -1422502.40 2512.55
   1 -18  1422731.30 2428.99
  -1  18  1417751.70 2080.93
   1  18  15 1224.05  914.96
  -1  18 -15 1363.69  608.64
   1  18 -15 1128.22 1120.44
   1 -18  15 1630.90  397.76
  -1  18  15 1162.48  924.83
   1  18  1610252.00 1427.51
  -1  18 -1612918.90 2452.72
   1  18 -1610722.40 1679.05
   1 -18  1612368.60 1624.44
  -1  18  1610702.10 1470.42
   1  18  17  510.78  474.48
  -1  18 -17  771.12  506.36
   1  18 -17  897.44  551.01
   1 -18  17  787.63  559.41
  -1  18  17 1221.83  483.56
   1  18  18 7643.65 1703.72
  -1  18 -18  -11.55 1803.22
   1 -18  18 6824.16 1207.17
   1  18 -18 8337.15 2006.71
  -1  18  18 7428.24 1748.65
   1  18  19 3957.36 1449.08
  -1  18 -19 3725.45  946.02
   1  18 -19 4285.14  985.22
   1 -18  19 4508.98  979.43
  -1  18  19 2044.62 1461.14
   1  18  20  873.11 1001.64
  -1  18 -20 1304.36 1067.26
   1  18 -20 1368.05  636.59
  -1  18  20 1534.18  600.72
   1  18  21 3136.19 1464.00
  -1  18 -21 3736.28  932.00
   1  18 -21 2583.61 1547.44
  -1  18  21 3437.37  904.82
   1  18  22   52.35  798.76
  -1  18 -22  970.67  827.13
   1  18 -22  468.81  843.44
  -1  18  22  556.52  465.64
   1  19   0 1603.46  499.29
   1  19   0 3118.12  875.62
  -1  19   0 2330.01  832.46
   1  19   1 2031.54  833.57
   1  19   1 1137.70  850.35
  -1  19  -1 1815.81  826.45
  -1  19   1 1216.11  754.15
  -1  19   1 2102.53  938.20
   1  19  -1 2008.69  529.11
   1  19  -1 1656.25  806.41
   1 -19   1 2816.18  675.35
  -1  19  -2 3676.65 1045.35
   1  19   2 2235.61  576.53
   1  19   2 3753.38 1028.78
   1  19  -2 2331.65  965.92
   1  19  -2 4443.20 1100.22
   1 -19   2 2680.84 1272.89
  -1  19   2 3558.98 1193.48
  -1  19   2 3580.26  865.33
   1  19   314222.40 1946.51
   1  19   314729.40 2063.97
  -1  19  -313525.10 2118.82
  -1  19   313563.90 2271.48
   1  19  -314732.50 1570.03
   1 -19   3 5717.73 1902.27
  -1  19   313401.40 1755.99
   1  19   4 8768.63 1347.99
   1  19   4 7821.67 1574.27
  -1  19  -4 8619.98 1091.76
  -1  19   4 9654.53 1791.14
   1 -19   4 5525.24  883.26
   1  19  -4 8334.52 1723.03
   1 -19   4 7876.31 1428.95
  -1  19   4 8657.29 1256.66
  -1 -19   5  357.19 1438.79
   1  19   5 7172.32 1422.94
   1  19   5 5958.34  786.52
  -1  19  -5 7805.48 1614.16
   1  19  -5 7133.72 1055.83
  -1  19   5 9831.96 1676.80
   1 -19   5 7226.18  834.50
  -1  19   5 7539.21 1139.17
   1  19   623225.70 3069.64
   1  19   626006.10 2794.90
  -1  19  -621875.30 3031.35
  -1  19   624391.90 3432.03
   1  19  -625097.50 3448.52
   1 -19   624665.70 2806.84
  -1  19   622498.50 2385.97
  -1 -19   711160.40 1306.05
   1  19   7 7614.19 1711.93
  -1  19  -7 7797.95 1135.92
   1  19   7 8582.10 1393.73
   1  19  -7 8569.74 1272.24
   1 -19   710963.40 1483.86
  -1  19   7 7048.07 1111.05
  -1  19   7 8815.54 1258.04
   1  19   812705.50 1670.10
   1  19   813608.80 1519.41
  -1  19  -813569.30 1592.30
  -1 -19   815744.60 1652.92
   1  19  -814868.70 2555.57
   1 -19   815030.90 1888.91
  -1  19   814304.30 1657.65
  -1  19  -9 5537.50 1474.94
  -1 -19   9 5917.12  904.55
   1  19   9 4432.52  920.66
   1  19   9 5557.32 1388.90
   1  19  -9 5467.07  984.68
   1 -19   9 6456.66 1149.05
  -1  19   9 3856.16 1451.71
   1  19  10 5170.57 1405.97
  -1 -19  10 5522.22  872.30
  -1  19 -10 5742.68  944.57
   1  19 -10 4799.20 1628.52
   1 -19  10 6070.79 1100.61
  -1  19  10 5162.80  896.33
  -1 -19  11  659.14  418.49
   1  19  11  778.60  431.55
  -1  19 -11  657.45  773.24
   1 -19  11 1225.99  554.48
  -1  19  11  849.16  765.25
   1  19 -11 1211.67  815.88
   1  19  12 8362.82 1727.56
  -1 -19  12 7915.83 1062.77
  -1  19 -12 8194.61 1190.36
   1 -19  12 7318.34 1264.49
   1  19 -12 7479.55 1261.51
  -1  19  12 9022.43 1819.85
   1  19  13 2254.71  629.67
  -1  19 -13 1563.92  657.84
  -1  19  13 2248.01  675.99
   1  19 -13 1825.22 1246.18
   1 -19  13 2785.68  765.87
   1  19  14 1187.41  550.26
  -1  19 -14 1698.88 1003.11
   1 -19  14 1043.82  669.92
   1  19 -14 2186.60  658.66
  -1  19  14 1610.89  563.89
  -1  19 -15 4011.37  891.40
   1  19  15  940.43 1289.18
   1  19 -15 5477.54 1544.54
   1 -19  15 3266.85  926.49
  -1  19  15 3775.35 1339.71
   1  19  16 3264.19  739.13
  -1  19 -16 1807.88 1264.98
   1 -19  16 2799.19  856.83
  -1  19  16 3046.73  752.06
   1  19 -16 1923.96 1416.11
  -1  19 -17 3623.19  870.18
   1  19  17 3352.17  817.66
   1  19 -17 3705.50  910.98
   1 -19  17 2832.94  933.84
  -1  19  17 3459.61 1367.15
   1  19  18 5899.04 1611.88
  -1  19 -18 4184.64 1740.43
  -1  19  18  324.15 1638.34
   1 -19  18 6462.52 1150.92
   1  19 -18 7031.90 1897.60
   1  19  19 2226.27 1245.50
  -1  19 -19 2064.43  804.79
  -1  19  19 2459.09  778.59
   1  19 -19 3326.71 1430.07
   1  19  20 4643.98 2137.98
  -1  19 -20 8381.96 2238.98
   1  19 -20 8800.39 1487.74
  -1  19  20 9829.32 1451.93
   1  19  21 2355.40 1365.27
  -1  19 -21 1878.62  871.51
   1  19 -21 2853.49 1472.10
  -1  19  21 3093.16  851.68
   1 -20   0 -307.46  527.98
   1  20   0 1541.27  719.95
   1  20   0 1686.84  714.63
  -1  20   0 2100.90  667.68
  -1  20  -1 7773.90 1095.13
   1  20   1 9091.46 1741.85
   1  20   110518.70 1186.37
   1  20  -1 9295.04 1134.72
   1  20  -1 9723.25 1208.42
   1 -20   1 2943.78 1975.18
  -1  20   110496.90 1246.29
  -1  20   110887.20 1657.03
   1  20   2 1963.13  904.28
   1  20   2 2173.69  840.08
  -1  20  -2 2029.40  557.53
   1  20  -2 1571.53  828.77
   1  20  -2 1642.40  943.90
  -1  20   2 1870.33  584.32
  -1  20   2 1848.75  762.55
   1  20   313984.00 2223.97
   1  20   312965.80 2004.15
  -1  20  -314539.30 1569.70
   1  20  -312784.60 2330.04
  -1  20   312714.60 1856.90
  -1  20   313566.80 1610.16
   1  20   4 7511.91 1483.89
   1  20   4 8425.10 1735.93
  -1 -20   417099.10 2033.23
  -1  20  -4 9708.55 1848.91
   1 -20   411476.70 1156.16
   1  20  -4 7148.70 1196.16
  -1  20   4 8134.20 1217.11
  -1  20   4 6507.06 1354.55
   1 -20   4 7795.62 1011.97
   1  20   5 8235.98 1724.17
  -1 -20   5 8600.19 1461.49
   1  20   5 7588.84  954.95
  -1  20  -5 8466.24 1710.33
   1  20  -510241.70 1860.94
  -1  20   5 9396.97 1871.54
   1 -20   5 9463.17 1020.92
  -1  20   5 6396.90  827.73
  -1  20  -6 5635.09  942.82
   1  20   6 6486.54 1504.89
   1  20   6 7805.01 1251.59
   1 -20   6 7623.93 1297.37
   1  20  -6 5431.82 1009.30
  -1  20   6 5603.99 1654.12
  -1  20   6 5521.83 1028.15
  -1 -20   7  453.97  251.66
   1  20   7  897.87  632.21
   1  20   7  513.66  480.34
  -1  20  -7 1083.76  403.38
   1  20  -7  688.26  713.34
   1 -20   7  489.39  313.59
  -1  20   7  459.72  720.10
  -1  20  -8 5657.70 1626.45
  -1 -20   8 6539.58 1054.33
   1  20   8 5743.98  985.54
   1  20   8 7300.04 1222.64
   1 -20   8 7147.77 1262.54
   1  20  -8 6553.18 1080.91
  -1  20   8 6154.48 1077.79
   1  20   9 3257.23 1203.08
   1  20   9 1960.16  814.67
  -1 -20   9 3446.01  778.06
  -1  20  -9 4150.66  778.57
   1  20  -9 3395.78 1401.07
  -1  20   9 4146.26  841.12
   1 -20   9 3464.33  969.89
  -1 -20  10 3353.25  716.39
   1  20  10 2896.34 1144.51
  -1  20 -10 2771.92  712.39
   1  20 -10 2555.68 1271.94
  -1  20  10 3586.10 1226.14
   1 -20  10 2613.96  552.49
   1  20  11 7874.52 1172.07
  -1 -20  11 8075.04 1132.06
  -1  20 -11 8101.60 1897.71
   1  20 -11 8599.47 1273.64
   1 -20  11 8525.64 1413.96
  -1  20  11 7548.00 1189.56
   1  20  12  561.75  931.48
  -1  20 -12 1872.37  604.08
  -1  20  12  516.06  958.35
   1  20 -12 2913.07 1054.52
   1 -20  12 1545.24  402.97
  -1  20 -1319539.00 3056.85
   1  20  1314251.90 2700.16
  -1  20  1318260.30 2021.28
   1  20 -1318912.60 2337.63
   1 -20  1316478.80 2083.97
   1  20  14   -0.37  415.36
  -1  20 -14  220.99  449.55
  -1  20  14  722.61  715.24
   1 -20  14  831.83  299.56
  -1  20 -1515979.00 2848.61
   1  20  1515242.80 2666.67
  -1  20  1512986.70 1749.03
   1  20 -1516498.30 2166.18
   1 -20  1514783.20 2015.82
   1  20  16  941.47  596.04
  -1  20 -16 2154.79 1073.34
   1  20 -16 2018.06 1146.71
  -1  20  16 1819.22  631.12
   1 -20  16 1536.39  439.37
  -1  20 -17 9118.61 1458.79
   1  20  17 8954.89 1368.71
   1  20 -1710640.00 2472.78
   1 -20  17 9606.77 1574.17
  -1  20  17 9905.61 2201.15
   1  20  18 2168.91 1060.70
  -1  20 -18 1246.04 1159.00
   1  20 -18 1925.65  738.94
  -1  20  18  681.41 1093.26
  -1  20 -19 3094.80  823.47
   1  20  19 2618.26 1280.14
   1  20 -19 1675.53 1364.90
  -1  20  19 2093.26  792.01
   1  20  20  636.74 1098.17
  -1  20 -20 1105.20 1166.61
   1  20 -20 2645.29 1196.10
  -1  20  20 1537.33  659.20
   1  21   0 1594.79  988.91
   1  21   0 3034.87  983.41
  -1  21   0 3749.16  932.93
   1 -21   0 1111.99  734.34
  -1  21  -1 2016.88  907.59
   1  21   1 1260.25  542.73
   1  21   1 1538.74  918.97
   1  21  -1 1663.12  952.58
   1  21  -1 1662.37  897.04
   1 -21   1 4631.91  768.88
  -1  21   1 1464.87  487.52
  -1  21  -2 6211.76 1377.26
   1  21   2 5963.26  899.76
   1  21   2 5759.37 1368.88
   1  21  -2 5315.51  917.54
   1  21  -2 6672.14  848.02
  -1  21   2 4768.02 1208.48
  -1  21   2 4442.27 1514.17
   1 -21   2 1906.11  837.18
   1  21   313892.20 1548.96
   1  21   313398.40 1999.41
  -1  21  -313068.60 2050.64
   1  21  -315149.20 2307.24
  -1  21   312093.10 1816.79
   1 -21   3 6381.94 1304.34
  -1  21   313736.20 2369.01
  -1  21  -4 8946.28 1819.96
  -1 -21   419491.60 2287.51
   1  21   4 6416.78 1592.79
   1  21   4 9523.32 1290.63
   1  21  -4 7639.76 1303.39
  -1  21   4 8874.04 1537.67
   1 -21   4 8895.18 1135.42
  -1  21   4 7976.16 2083.90
   1 -21   415672.30 1917.72
   1  21   520456.30 1985.54
  -1 -21   5 9776.78 2414.53
   1  21   525213.30 3256.06
  -1  21  -523203.10 2323.05
   1  21  -526833.20 3555.08
  -1  21   524925.30 2586.11
   1 -21   527982.40 3034.84
  -1  21   525669.20 2598.00
  -1  21  -6 8322.03 1185.78
   1  21   6 7466.96 1491.68
   1  21   6 6689.34 1831.23
  -1 -21   6 8845.34 1382.46
   1  21  -610211.60 1984.89
   1 -21   6 9446.03 1551.46
  -1  21   6 7507.53 1262.37
   1  21   714161.20 2114.28
  -1 -21   717347.90 2044.12
   1  21   715935.80 2695.03
  -1  21  -717270.30 2728.65
   1  21  -717219.80 2004.39
  -1  21   715011.50 2847.35
   1 -21   718167.90 1623.79
   1  21   8 3328.84  829.09
  -1 -21   8 4031.13  551.24
   1  21   8 3762.01  991.05
  -1  21  -8 3346.00 1325.92
   1  21  -8 4541.53 1477.04
  -1  21   8 3328.56 1455.82
   1 -21   8 4508.13 1104.01
   1  21   913205.20 2433.19
  -1 -21   914704.60 1719.08
  -1  21  -912822.00 1687.24
  -1  21   913089.90 1753.82
   1 -21   915130.40 1987.47
   1  21  -914216.40 1806.60
   1  21  10 6821.84 1776.10
  -1 -21  10 7681.18 1158.29
  -1  21 -10 6944.04 1893.03
   1  21 -10 6691.14 1969.00
   1 -21  10 8358.86  944.54
  -1  21  10 5795.41 1957.56
   1  21  11 6512.84 1109.28
  -1  21 -11 7074.41 1168.36
   1  21 -11 6446.96 1943.25
  -1  21  11 6461.38 1183.03
   1  21  12 4568.53 1466.40
  -1  21 -12 5002.31  975.14
   1  21 -12 4085.36 1055.32
   1 -21  12 4415.67  664.42
  -1  21  12 4576.52 1490.03
   1  21  13 2932.22 1246.80
  -1  21 -13 2449.69 1332.01
   1  21 -13 3026.82 1459.23
  -1  21  13 3101.16  789.76
   1 -21  13 2692.92  878.38
   1  21  14 1193.84  608.35
  -1  21 -14 1984.37  652.50
  -1  21  14  829.44 1035.39
   1  21 -14 2045.95  722.48
   1 -21  14 1294.57  730.29
   1  21  15 1947.04 1200.05
  -1  21 -15 2552.75 1246.39
   1  21 -15 2448.51 1428.74
   1 -21  15 2345.64  864.63
  -1  21  15 2235.71  745.47
   1  21  16 1877.60  700.80
  -1  21 -16 3004.39  745.29
   1  21 -16 1487.82  812.14
   1 -21  16 2152.90  828.28
  -1  21  16 1932.58 1222.38
   1  21  17 3620.31  900.94
  -1  21 -17 3551.56 1591.38
  -1  21  17 4825.87 1538.44
   1  21 -17 3580.95 1691.39
   1  21  18 1007.12 1187.01
  -1  21 -18 1818.91  748.92
   1  21 -18 2922.49 1396.60
  -1  21  18 2205.05  746.36
   1  22   018254.20 1729.79
   1  22   014766.50 1583.17
  -1  22   013740.40 2077.25
   1 -22   0 3392.34 1587.99
   1  22   1 1641.61  644.83
   1  22   1 2479.12  640.19
  -1  22  -1 3453.60  958.27
   1  22  -1 2432.30 1051.22
   1  22  -1 2121.24 1092.50
  -1  22   1 1901.77  873.78
   1  22   225036.30 3329.77
   1  22   223247.30 2456.65
  -1  22  -224485.60 3216.48
   1  22  -223553.50 3560.10
  -1  22   222642.60 2871.82
  -1  22   224354.80 2583.84
   1  22   3 1437.65  894.21
   1  22   3 1728.29  588.19
  -1  22  -3 1757.70  571.80
  -1  22   3 1940.12  653.81
   1  22  -3 1323.67  613.30
  -1  22   3 1902.52  733.56
  -1 -22   4 3561.55 2236.95
   1  22   415884.20 1836.15
   1  22   417476.90 1777.23
  -1  22  -418184.80 1860.58
  -1  22   412571.50 1400.59
   1  22  -418436.70 2810.88
  -1  22   416866.50 2841.17
   1 -22   420599.60 2518.69
   1  22   5 6027.88 1009.91
   1  22   5 5148.89  851.42
  -1  22  -5 6057.98 1521.26
   1 -22   5 6727.72 1345.79
  -1  22   5 5398.03 1740.37
   1  22  -5 4323.79  989.65
  -1 -22   6 3476.00  819.18
  -1 -22   6 2227.98  477.92
   1  22   6 1652.92  506.79
   1  22   6 1238.96 1060.35
  -1  22  -6 2067.29 1043.44
   1  22  -6 2391.69 1142.47
  -1  22   6 2455.26 1172.41
   1 -22   6 1559.52  520.58
   1  22   7 8817.89 1843.77
   1  22   7 6390.95 1462.22
  -1 -22   7 8175.16 1331.10
  -1  22  -7 6561.73 1162.84
   1  22  -7 6850.16 1244.75
   1 -22   7 8670.44 1010.97
  -1  22   7 7518.72 1255.76
   1  22   8 1495.54  642.73
  -1 -22   8 1964.71  711.42
  -1  22  -8 2367.42  656.07
   1  22  -8 2384.51 1181.81
   1 -22   8 2156.41  879.20
  -1  22   8 1118.29 1151.19
  -1  22  -9 5376.20 1722.61
  -1 -22   9 5954.39  695.22
   1  22   9 5678.26 1600.22
   1 -22   9 5459.01  820.74
   1  22  -9 6601.01 1833.43
  -1  22   9 8593.60 1799.70
   1  22  10 8938.64 1985.77
  -1  22 -10 7114.51 2114.20
  -1  22  1010099.10 1468.49
   1  22 -10 9188.91 1457.53
   1 -22  10 8754.91 1061.22
   1  22  11 2676.86  766.52
  -1  22 -11 3192.86  830.09
   1  22 -11 3672.28 1507.17
  -1  22  11 2060.29 1401.32
   1  22  1212201.70 2363.20
  -1  22 -1213257.40 2559.11
   1  22 -1211312.20 2727.20
  -1  22  1212748.30 1680.02
   1 -22  1210093.80 1131.99
   1  22  13 1324.25 1088.25
  -1  22 -13 1762.56  706.89
   1 -22  13 1723.93  783.66
   1  22 -13 2084.44 1286.64
  -1  22  13 1732.83 1171.08
   1  22  1413057.10 1802.81
  -1  22 -1413085.50 2793.62
   1  22 -1412768.90 3036.63
   1 -22  1413399.60 1987.91
  -1  22  1412130.50 1723.48
   1  22  15  251.96  872.07
  -1  22 -15 1657.94  928.20
   1 -22  15  584.64  375.05
   1  22 -15 1128.24  589.69
  -1  22  15  744.13  530.37
   1  22  1611092.70 1678.53
  -1  22 -1612685.60 1828.31
   1  22 -1612223.90 2855.17
  -1  22  1612674.60 2695.22
   1  22  17  775.56  495.57
  -1  22 -17  165.44  850.98
  -1  22  17  610.21  510.73
   1  22 -17  401.73  546.06
   1  23   0 1118.85  549.17
   1  23   0 1500.12  581.80
   1 -23   0 4749.50 1320.36
  -1  23   0 1384.13  500.10
   1  23   1 4786.31 1330.43
   1  23   1 5395.09 1409.71
   1 -23  -1  -74.82 1026.70
  -1  23  -1 4669.10 1220.95
   1  23  -1 4733.03  808.99
   1  23  -1 4099.51 1367.10
  -1  23   1 4572.54  735.72
   1 -23   1 1063.14 1442.84
  -1  23  -2 3872.86 1315.74
   1  23   2 4190.24 1456.03
   1  23   2 3999.66 1333.64
   1 -23   2 6603.32 1538.42
   1  23  -2 3791.57 1449.71
  -1  23   2 3687.08 1140.76
  -1 -23   3 5298.00 1701.64
   1  23   3 6595.99 1018.84
   1  23   3 5140.87 1428.46
  -1  23  -3 5027.99 1475.01
   1 -23   3 4571.30  875.65
  -1  23   3 3839.72 1216.45
   1 -23   3 6240.79 1424.32
   1  23  -3 3480.48 1005.49
  -1  23   3 6362.83 1034.86
   1  23   4 8255.36 1382.94
   1  23   4 8981.04 1243.22
  -1 -23   4 7915.81 1890.11
  -1  23  -410505.10 2057.37
   1  23  -411757.80 2254.10
   1 -23   412853.10 1943.88
  -1  23   410471.40 1505.57
  -1  23  -5 5316.03 1528.25
   1  23   5 4582.93  827.55
   1  23   5 5715.40 1010.94
  -1  23   5 4416.21 1030.23
   1  23  -5 -759.46 1635.00
   1 -23   5 5475.54  822.08
   1  23   6 9776.13 2117.30
   1  23   6 6955.46 1101.29
  -1 -23   610204.70 1626.28
  -1  23  -611302.90 1414.09
  -1  23   6 4938.01 2204.24
   1 -23   6 8959.39 1141.87
   1  23  -610867.10 1463.05
   1  23   7 4361.42 1551.81
  -1 -23   7 4998.86  691.42
  -1  23  -7 4494.98  952.46
   1  23  -7 -312.20 1592.47
   1 -23   7 4629.06 1267.60
  -1  23   7 3898.35 1631.31
   1  23   8 9426.26 1455.45
  -1 -23   811128.10 1593.02
  -1  23  -812394.00 2357.81
   1  23  -8 9415.12 1570.73
   1 -23   811418.70 1908.55
  -1  23   810896.20 1598.50
   1  23   9 6599.19 1805.65
  -1  23  -9 4848.92 1804.88
  -1  23   9 1298.34 1857.78
   1  23  -9 5424.08 1927.19
   1 -23   9 7332.83  909.16
   1  23  10 8750.50 2164.63
  -1  23 -10 9493.23 1458.58
   1  23 -10 8142.48 2444.52
   1 -23  10 9972.62 1674.69
  -1  23  10 7224.91 1397.45
   1  23  11 6357.30 1057.58
  -1  23 -11 5130.76 1790.57
   1  23 -11 4151.93 1206.03
  -1  23  11 5196.75 1836.44
   1 -23  11 5360.30 1304.64
   1  23  12 1549.81 1077.71
  -1  23 -12 1808.09 1146.62
   1 -23  12 1493.57  463.02
   1  23 -12 2200.67 1258.78
  -1  23  12 1253.46  685.39
   1  23  13 2099.46  722.95
  -1  23 -13 2328.59  755.92
   1  23 -13 1995.86  830.19
   1 -23  13 1445.30  826.44
  -1  23  13 1402.40 1243.18
   1  23  14 1666.03  669.65
  -1  23 -14 1408.72 1162.91
  -1  23  14 1226.35  711.11
   1 -23  14 1507.71  787.26
   1  23 -14 1294.44 1205.98
   1  23  15 1364.58 1255.82
  -1  23 -15 2264.06  779.45
   1  23 -15 3466.31 1447.52
  -1  23  15  858.68 1323.86
   1  24   0 1044.53  877.00
   1  24   0 1208.76  891.18
  -1  24   0  816.89  766.59
  -1  24  -113714.30 2287.32
   1  24   114527.90 2453.61
   1  24   114275.30 2558.64
   1 -24  -1   17.25 2695.11
   1  24  -112993.60 1717.59
  -1  24   113431.90 2182.67
  -1  24  -2 3329.60 1087.99
   1 -24  -2   82.56  865.71
   1  24   2 2870.38 1222.19
   1  24   2 2252.16 1119.48
   1  24  -2 3012.04 1206.77
  -1  24   2 2774.99  949.84
   1  24   3 6046.95 1559.67
   1  24   3 6146.72 1723.08
  -1 -24   3 4600.69 1100.69
  -1  24  -3 5202.57  963.57
   1  24  -3    4.22 1756.07
   1 -24   3 8836.04  995.80
   1 -24   3  -95.32 1448.33
   1  24   4 1141.84  595.57
   1  24   4 1653.23 1193.08
  -1 -24   4 8652.67 1154.94
  -1  24  -4 2446.79  680.51
   1 -24   4 2663.18  605.21
   1  24  -4   85.80  743.88
  -1  24   4 1941.06 1278.81
   1  24   5 5335.30  960.11
  -1 -24   5 2117.86 1111.01
   1  24   5 2999.48  774.45
  -1 -24   5 2941.11 1133.01
  -1  24  -5 4005.16  898.47
   1  24  -5 -298.91 1603.95
   1 -24   5 5599.00 1313.51
  -1  24   5 5624.79 1034.15
   1  24   6 4002.60 1000.89
  -1 -24   6 5571.79  781.62
  -1  24  -6 5673.38 1608.54
  -1  24   6 5548.70 1103.92
   1  24  -6   25.58 1711.76
   1 -24   6 4707.25 1345.10
   1  24   7  101.90  765.54
  -1  24  -7  447.69  743.14
   1  24  -7  121.50  475.43
  -1  24   7  938.45  831.09
   1 -24   7 1085.85  598.23
  -1  24  -8 2570.91  826.32
   1  24   8 3340.57 1448.72
   1  24  -8 -132.16 1457.42
  -1  24   8 2642.17 1494.28
   1 -24   8 3912.46  654.50
  -1  24  -9  897.37  674.11
   1  24   9 1312.79  702.55
  -1  24   9 1448.18  720.13
   1  24  -9 1720.76  788.99
   1 -24   9 2586.24  540.73
   1  24  10 3314.60 1516.85
  -1  24 -10 2957.69 1506.05
   1  24 -10 4128.35 1717.01
   1 -24  10 3488.04 1141.26
  -1  24  10 3649.11 1601.41
  -1  24 -11 6198.44 2170.19
   1  24  11 7762.69 1386.83
   1  24 -11 7318.09 2472.82
  -1  24  11 7244.46 1434.68
   1 -24  11 8492.78 1628.47
   1  24  12 1990.77 1393.22
  -1  24 -12 2855.04  871.95
   1  24 -12 3514.70  947.65
  -1  24  12 2437.45 1436.12
   1 -24  12 2020.18  582.77
   1  25   0 1614.60 1027.48
  -1  25   0 1925.89  898.60
   1 -25   0  -58.74 1107.17
   1  25   1  -77.39  784.16
  -1 -25   1 -242.46  522.39
   1  25   1 1071.78  751.74
  -1  25  -1 1226.13  716.86
   1 -25  -1   46.43 1022.67
   1  25  -1 1660.43  797.24
  -1  25   1  850.38  661.00
   1 -25   1  -47.17  846.47
  -1  25  -2 2865.75  870.44
  -1 -25   2 2342.21 1044.06
   1  25   2  -80.27  967.74
   1  25   2 3210.44  890.09
   1 -25  -2   95.75  709.72
   1  25  -2  170.91  584.34
   1 -25   2   21.96  835.23
   1  25   3 -125.61 1424.18
  -1 -25   3 3746.63 1271.31
   1  25   3 3508.58  770.64
  -1  25  -3 3366.11 1288.71
   1  25  -3 -129.13 1417.19
   1 -25   3 4591.31 1250.81
  -1  25  -4 1863.40 1301.47
  -1 -25   4 5460.70 1317.67
   1  25   4 3145.85  747.46
   1  25   4 2858.79 1429.37
   1  25  -4  -32.05 1471.94
   1 -25   4 2644.57 1192.47
  -1 -25   5 2895.99  948.80
  -1 -25   5 8573.61 1065.46
   1  25   5 8535.49 2123.48
  -1  25  -5 9917.54 2021.48
   1 -25   511757.80 1775.32
   1  25  -5 8313.72 1347.05
  -1  25   5 5813.49 2305.51
   1  25   6 6014.47 1094.00
  -1  25  -6 5125.54 1070.07
   1 -25   6 4414.10 1378.18
   1  25  -6   38.90 1749.62
  -1  25   6 4613.34 1878.16
   1  25   7 8507.18 2311.91
  -1  25  -7 8961.98 1448.66
   1  25  -7 -266.31 2485.27
  -1  25   7 9722.03 1562.88
   1 -25   7 9800.04 1214.70
  -1  25  -8 5205.12 1581.58
   1  25   8 4219.56 1545.58
   1 -25   8 5230.41  780.46
   1  25  -8 -343.08 1044.67
  -1  25   8 1104.36 1677.80
  -1  25  -9 3343.82 1944.02
   1  25   9 7160.68 1254.56
  -1  25   9 6909.72 1289.38
   1  25  -9  346.14 2136.69
   1 -25   9 5113.67 1481.88
   1  26   010117.70 2135.43
   1 -26   0 -210.98 2055.05
  -1  26   0 8624.87 1202.08
   1  26   1  -94.20  274.52
   1  26   1 1175.49  444.09
  -1  26  -1 -342.49  243.92
   1 -26  -1  -91.66  598.05
   1  26  -1  612.51  469.96
  -1 -26   2  501.55 1105.97
   1  26   2 7996.68 1158.69
   1  26   2 7099.42 1150.06
  -1  26  -2 5931.50 1018.51
   1 -26  -2   37.08 2176.31
   1  26  -2 6307.32 1853.07
   1 -26   2  -17.41  919.98
   1 -26   2 8295.56 1077.83
   1 -26  -3 -152.63  580.46
   1  26   3 -142.04  798.75
   1  26   3 1201.52  421.40
  -1  26  -3  -96.17  424.69
   1  26  -3  -14.91  469.27
   1 -26   3  919.03  403.32
  -1  26  -4  -19.61  644.86
  -1 -26   4 1399.64  964.92
   1  26   4  217.84 1148.50
   1  26  -4   11.98 1129.28
   1 -26   4 2850.09  582.27
   1  26   5 2961.52 1515.38
  -1  26  -5  -31.68  878.84
   1  26  -5 -199.98 1634.56
   1 -26   5 4724.25  752.20
  -1  26   5 4592.15 1000.64
   2   0   0228454.021210.10
   2   0   0259805.024842.30
   2   0   0258153.023388.90
  -2   0   0183021.016641.00
   2   0   146308.20 3378.51
  -2   0   134072.80 1995.72
   2   0   140140.00 2811.29
  -2   0   134043.60 2047.62
   2   0  -128928.60 1608.81
   2   0  -133432.80 2113.06
   2   0   139131.80 2554.88
  -2   0  -139588.30 2388.35
  -2   0  -2114775.0 9197.18
  -2   0   2119536.0 9757.97
   2   0   2128959.010423.70
   2   0  -2116387.0 8646.04
  -2   0  -2124857.0 9988.23
   2   0  -2123394.010064.20
   2   0  -398133.60 6862.77
  -2   0  -3108350.0 8224.28
   2   0   3107276.0 8399.62
  -2   0   3103693.0 7997.18
   2   0  -399519.30 7739.90
   2   0  -388410.90 6409.43
   2   0  -432182.70 1879.59
   2   0  -426143.40 1600.80
  -2   0  -436121.40 2899.23
   2   0   433597.50 2481.24
  -2   0   436000.80 2283.23
  -2   0  -522189.30 1470.11
   2   0  -521540.10 1390.30
   2   0   519043.70 1215.81
  -2   0   520857.30 1264.68
  -2   0   517919.80  978.71
   2   0  -519745.50 1125.92
   2   0  -6 1976.60  238.07
  -2   0  -6 1625.90  323.90
  -2   0   6 1999.79  218.81
  -2   0   6 2361.00  285.23
   2   0   6 2343.90  283.96
   2   0  -6 1746.89  310.76
  -2   0   734514.90 2251.11
  -2   0  -738845.30 2593.33
  -2   0   735025.50 2001.48
   2   0  -734418.60 1922.00
   2   0  -739565.10 2448.34
   2   0   736702.50 2831.66
  -2   0   8 5192.74  460.77
   2   0  -8 4619.85  328.15
   2   0  -8 5744.08  501.32
  -2   0   8 5369.80  486.56
  -2   0  -8 5298.71  536.53
   2   0   8 5235.15  739.16
  -2   0   935809.30 2281.79
  -2   0  -938605.40 3151.26
   2   0   936577.10 2954.93
   2   0  -933669.30 2025.47
  -2   0   933398.40 2026.34
   2   0  -936977.50 2365.56
   2   0 -1024100.60 1495.95
  -2   0  1026144.70 1596.97
   2   0 -1026940.40 1760.91
  -2   0 -1027163.40 1955.85
   2   0  1026767.80 2290.11
  -2   0  1159198.40 4020.84
   2   0  1162850.70 5216.35
  -2   0 -1162835.60 4616.17
   2   0 -1151072.60 3738.37
   2   0 -1222061.60 1562.35
  -2   0  1220638.30 1480.65
  -2   0 -1222211.60 2096.01
   2   0  1221659.70 2135.44
   2   0  13 2163.92  636.08
  -2   0 -13 1543.21  592.82
  -2   0  13 2800.74  371.55
   2   0 -13 2084.06  376.18
  -2   0  1416907.50 1282.62
   2   0 -1418170.60 1351.77
  -2   0 -1415979.90 1699.44
   2   0  1418312.20 1462.48
   2   0  15 1614.51  356.86
  -2   0  15 1691.87  205.49
  -2   0 -15 1096.77  518.60
   2   0 -15 1306.04  359.30
   2   0 -1612534.90 1093.99
  -2   0 -1611704.70 1439.69
   2   0  1612204.50 1605.20
  -2   0  1612055.60 1080.70
   2   0 -1715175.60 1278.87
  -2   0  1714418.00 1239.73
  -2   0 -1714792.80 1685.09
   2   0  1715975.20 1848.31
  -2   0 -18 2223.44  429.10
   2   0  18 2838.03  477.69
   2   0 -18 2688.46  430.40
  -2   0  18 1890.56  464.24
   2   0 -1914630.00 1270.73
  -2   0 -1914162.30 1702.76
  -2   0  1913315.50 1275.70
   2   0  1913790.10 1325.32
  -2   0  20 2228.77  533.07
   2   0  20 2568.06  839.04
  -2   0 -20 1737.43  689.17
   2   0 -20 2430.19  466.03
  -2   0 -2116525.00 1547.12
   2   0  2118539.30 2369.57
  -2   0  2117875.50 1733.95
   2   0  22  297.19  278.30
  -2   0 -22  168.25  382.48
  -2   0  22  365.37  292.11
   2   0  23 2657.93  867.18
  -2   0 -23 1772.90  707.36
  -2   0  23 1517.08  333.52
   2   0  24  393.59  383.18
  -2   0 -24 -113.30  309.48
   2   0  25 6160.24  990.88
   2   0  26 5887.65 1567.69
   2   0  27  322.50  601.70
   2   0  28 2511.70  742.07
   2   0  29   82.20  269.55
   2   0  30  -43.09  443.43
  -2  -1   0130719.010152.70
   2   1   0145541.011239.50
  -2   1   0104727.0 8131.49
  -2  -1   0137260.011522.20
   2   1   0147287.012419.60
   2  -1   0128295.010178.20
   2  -1   0139947.011577.10
  -2   1  -1165039.014078.90
  -2  -1   1149214.012144.00
   2  -1  -1130615.010756.50
   2   1   1181673.016332.50
  -2  -1   1172083.015222.60
  -2   1  -1168163.014381.50
   2  -1  -1177240.015459.80
   2  -1  -1159126.013399.00
   2   1   1176776.014914.30
   2  -1   1164792.014033.90
   2   1  -1179096.015857.20
   2   1  -1174024.014039.60
  -2   1   1173127.014474.50
   2  -1   1154524.012789.30
  -2  -1  -1164859.013929.70
   2  -1  -282213.90 5621.18
   2  -1  -289294.70 6387.14
   2   1   283320.60 5706.43
  -2   1  -291072.50 7167.14
   2  -1  -270396.00 4910.85
   2   1   281596.10 5906.53
  -2  -1   272472.20 5151.45
  -2   1  -284244.20 6124.06
  -2  -1   269244.30 4518.77
   2   1  -291715.50 6867.67
  -2  -1  -289853.90 6396.32
   2   1  -284373.20 5360.01
  -2   1   273065.80 5150.61
   2  -1   273450.30 5142.97
   2  -1  -331265.40 2012.74
  -2  -1   324730.20 1496.48
   2   1   329478.80 1897.80
  -2   1  -331517.30 1991.41
   2   1   333261.90 2277.17
   2  -1  -326803.20 1623.81
  -2   1   330076.10 1915.32
   2   1  -326448.60 1647.89
  -2  -1  -325606.60 1499.03
   2  -1   330113.60 1790.03
   2   1  -326522.40 1333.28
   2  -1  -458052.00 3814.11
   2   1   459078.00 4308.41
  -2  -1   459052.40 4105.84
  -2   1  -459824.20 4708.40
   2  -1  -450885.00 3258.62
   2   1  -461810.80 4298.03
  -2   1   453661.20 3307.87
   2  -1   462621.60 4590.46
   2   1  -449333.50 2925.34
  -2  -1  -455676.30 3902.89
   2   1  -447869.50 2695.18
   2  -1  -5 6210.96  422.61
   2  -1  -5 6895.99  525.29
   2   1   5 5946.90  499.91
  -2  -1   5 6921.07  594.01
  -2   1  -5 8053.79  965.42
  -2   1   5 6668.79  507.00
   2   1  -5 5438.75  322.29
  -2  -1  -5 8216.11  959.58
   2   1  -5 5397.22  429.64
   2  -1   5 7075.22  536.91
  -2   1   5 6688.30  522.92
   2  -1  -6 4539.93  391.83
   2  -1  -6 3843.90  313.26
  -2  -1   6 3986.97  286.12
  -2  -1   6 3941.09  433.74
   2   1   6 4694.20  649.09
  -2   1  -6 5429.65  756.50
   2  -1   6 4011.82  629.08
   2   1  -6 3979.42  253.03
  -2  -1  -6 4461.84  704.37
   2   1  -6 4452.47  503.89
  -2   1   6 4022.24  379.24
  -2   1   6 4110.99  352.97
  -2   1  -711215.50 1204.05
  -2  -1   7 9869.71  564.90
   2   1   7 9994.74 1063.72
   2  -1  -7 9311.73  584.35
   2  -1  -710190.80  628.61
  -2   1   7 9315.38  621.31
   2   1  -710205.60  819.71
  -2  -1  -711734.40 1193.18
   2   1  -7 9720.69  517.40
  -2   1   710181.60  688.24
   2  -1   710672.10 1078.96
   2   1   831342.70 2559.99
  -2  -1   827767.60 1476.76
  -2   1  -831516.20 2224.40
   2  -1  -828595.90 1727.82
   2  -1  -825182.60 1566.97
   2   1  -830817.70 2097.25
  -2   1   829522.80 1794.17
  -2  -1  -831887.80 2649.14
   2   1  -830935.80 1732.65
   2  -1   830620.50 2456.45
  -2   1   831210.90 1894.79
   2  -1  -910108.90  692.07
   2   1   910730.90 1225.65
  -2  -1   910373.50  589.50
   2  -1  -912236.70  910.01
  -2   1  -913528.40  991.11
   2  -1   9 9499.14  781.63
  -2   1   910307.30  770.83
   2   1  -910752.80  896.89
   2   1  -910444.40  566.37
  -2  -1  -911932.20 1273.08
  -2   1   9 9785.46  650.48
   2   1  10 7435.10  686.53
  -2  -1  10 7952.33  516.83
   2  -1 -10 5593.45  516.43
  -2   1 -10 8042.22 1039.28
  -2   1  10 7292.88  523.60
  -2  -1 -10 7853.19  687.40
   2   1 -10 7096.94  437.31
   2   1 -10 6977.00  692.04
   2  -1  10 6984.96  640.02
  -2   1  10 8588.49  677.47
  -2   1 -1128078.50 2527.70
   2   1  1126432.70 1953.89
  -2  -1  1130726.10 1837.90
   2  -1 -1125498.70 1673.96
  -2   1  1130386.40 2039.38
   2  -1  1127599.10 1974.95
   2   1 -1127730.40 1650.31
  -2  -1 -1129999.70 2467.46
   2   1 -1130800.10 2129.82
  -2   1  1127169.30 1704.75
  -2   1 -1217575.50 1690.86
   2   1  1217454.70 1744.79
   2  -1 -1213091.30  964.34
  -2  -1  1217098.60 1082.33
   2   1 -1214909.00 1230.59
  -2  -1 -1216740.20 1606.18
  -2   1  1214419.30  946.93
   2  -1  1216497.00 1232.78
  -2   1  1219089.20 1314.07
   2  -1 -1320524.40 1383.47
  -2   1 -1323768.60 2206.10
   2   1  1322326.70 2186.89
  -2  -1  1321193.00 1420.26
   2  -1  1324003.00 1725.83
  -2  -1 -1322449.00 1604.65
   2   1 -1317948.10 1224.44
  -2   1  1323337.40 1687.06
   2  -1 -1430406.90 2066.23
  -2  -1  1430790.30 2122.93
   2   1  1433642.90 2505.12
  -2   1 -1432066.90 2871.75
   2  -1  1431446.90 2356.84
  -2  -1 -1430038.60 2212.86
   2   1 -1433346.30 2486.08
  -2   1  1431748.30 2027.95
   2   1  1515119.40 1775.13
  -2  -1  1515480.30 1163.53
   2  -1 -1515629.10 1157.25
  -2   1 -1515356.40 1696.37
  -2  -1 -1516313.00 1242.88
   2  -1  1514775.80 1282.53
  -2   1  1516273.90 1356.12
   2   1 -1517623.30 1419.68
   2  -1 -1612898.00 1022.98
   2   1  1613977.70 1716.29
  -2  -1  1612582.90 1066.37
  -2   1 -1613682.20 1589.57
  -2  -1 -1614793.90 1159.23
   2   1 -1616689.10 1373.13
   2  -1  1613895.40 1191.39
  -2   1  1614415.80  983.12
   2   1  1715497.50 1354.63
   2  -1 -1713704.70 1083.83
  -2   1 -1715119.70 1716.68
  -2  -1  1714175.50 1175.00
  -2   1  1714986.90 1367.26
   2  -1  1714521.00 1778.35
   2   1 -1715399.50 1388.00
  -2  -1 -1714842.60 1222.27
   2  -1 -1810627.50  885.68
  -2  -1  1810524.90  991.34
   2   1  1811714.70 1633.47
  -2   1 -1812208.90 1083.06
  -2   1  1811030.50 1140.00
  -2  -1 -1811072.80  991.81
   2   1 -1813912.20 1223.46
   2  -1  1811606.70 1569.08
  -2   1 -19 5333.69 1032.22
   2  -1 -19 5590.54  580.57
   2   1  19 4277.51 1172.94
  -2  -1  19 5538.91  692.01
   2   1 -19 7372.30  784.44
  -2  -1 -19 5350.66  948.26
   2  -1  19 5917.85 1138.95
  -2   1  19 5008.97  781.10
   2   1  20 4949.18  707.52
  -2  -1  20 3737.10  624.91
  -2   1 -20 4042.95  985.13
  -2   1  20 5156.31  753.15
   2  -1  20 4136.68  646.63
  -2  -1 -20 3769.09  861.32
   2   1 -20 4296.93  683.17
  -2   1 -21 1629.60  478.95
   2   1  21 3110.00  942.61
  -2  -1  21 1908.50  531.55
  -2   1  21 2532.73  611.66
  -2  -1 -21 2767.59  734.40
   2  -1  21 4758.17  590.02
   2   1  22 1340.94  784.35
  -2  -1  22 1517.07  457.97
  -2   1 -22 1556.31  676.65
   2  -1  22 1596.99  768.02
  -2   1  22 1500.98  522.45
  -2  -1 -22 1490.50  622.06
  -2   1 -23  918.04  382.27
  -2  -1  23 1152.50  266.81
   2   1  23  917.53  445.12
   2  -1  23  503.86  696.90
  -2   1  23 1009.82  300.70
  -2  -1 -23 1203.54  581.68
  -2   1 -24   95.48  621.91
   2   1  24 1576.23  750.91
  -2  -1 -24 1104.60  353.51
   2  -1  24 1407.87  738.76
  -2   1  24 1145.22  499.94
   2   1  25 8778.61 1757.62
  -2   1 -25 7495.72  986.55
   2  -1  25 8173.84 1079.10
   2   1  26 8173.48 1184.16
   2  -1  26 8047.59 1820.94
   2   1  27 3528.69 1268.31
   2  -1  27 2445.11 1249.55
   2   1  28 2382.37  763.61
   2  -1  28 2865.93  755.12
   2   1  29 2686.55  638.08
   2  -1  29 -125.38  622.47
   2   1  30 -104.15  521.05
   2  -1  30  -74.94  514.23
  -2  -2   0 3693.66  322.01
   2   2   0 4997.30  694.00
   2   2   0 5146.71  431.06
   2  -2   0 5021.90  528.73
  -2   2   0 2793.62  351.77
   2  -2   0 3294.56  500.69
   2  -2  -181024.00 5888.57
   2   2   187820.90 6767.58
   2   2   1103691.0 7317.51
  -2  -2   197130.50 6739.68
  -2   2  -198221.60 7480.52
  -2   2  -1110015.0 8824.10
   2  -2  -1109548.0 8307.69
   2  -2   199587.30 7616.48
  -2  -2  -192943.90 6567.58
   2   2  -1104059.0 7219.63
   2   2  -187718.60 6696.73
  -2   2   1132339.010052.10
   2  -2   1107044.0 8425.52
  -2   2   1102954.0 7976.91
  -2  -2   233749.80 1825.44
   2  -2  -225712.40 1599.52
   2  -2  -236341.40 2323.54
   2   2   239288.60 3072.55
   2   2   238031.20 2538.81
   2  -2  -238613.70 2380.00
   2  -2  -231920.10 1905.26
  -2   2  -238176.70 2440.50
  -2  -2  -236364.20 2296.75
   2   2  -237308.80 2043.95
   2   2  -233266.30 2140.85
   2  -2   239205.60 2722.88
  -2   2  -318924.30 1609.41
   2  -2  -317135.30 1094.24
   2   2   317437.90 1162.84
  -2  -2   314125.70  674.95
   2  -2  -316446.60  859.13
   2   2   318885.50 1406.47
   2  -2  -321167.00 1497.55
   2  -2  -316356.70 1117.34
   2   2  -318375.20  771.50
   2   2  -315187.30 1011.98
   2  -2   320082.70 1531.17
   2  -2  -4 8013.77  625.54
   2   2   410215.80  692.02
   2   2   4 9087.66 1075.47
   2  -2  -4 8241.75  597.07
  -2   2  -4 8867.18  723.53
   2  -2  -4 9727.81  626.99
   2   2  -410189.50  940.69
   2  -2   410002.20  985.92
   2   2  -4 8432.11  317.21
  -2   2   4 8420.75  770.70
   2   2   5 5570.54  804.57
  -2   2  -5 6992.67  606.95
   2   2   5 6612.76  859.82
   2  -2  -5 5577.28  454.07
   2  -2  -5 5164.92  447.08
   2  -2   5 6919.49  819.89
   2   2  -5 6676.98  718.71
  -2   2   5 7019.61  497.00
  -2   2   5 6639.52  624.61
   2  -2  -623959.40 1373.92
   2   2   626937.50 2142.30
   2   2   626815.20 1763.80
   2  -2  -624920.70 1507.26
  -2   2  -627540.10 2310.23
  -2   2   626004.70 1708.88
   2   2  -629327.70 2008.40
   2   2  -623605.70  988.12
   2  -2   628150.90 2182.12
  -2   2   626224.50 1497.11
   2  -2  -7  358.84  121.37
   2   2   7  599.62  218.07
  -2  -2   7  333.04   60.88
   2  -2  -7  204.53  158.02
  -2   2  -7  938.35  238.72
   2   2  -7 1134.46  151.91
  -2  -2  -7  848.09  337.23
  -2   2   7  922.33  216.07
   2  -2   7  375.30  315.12
   2   2   875901.70 6234.87
  -2  -2   865318.00 3959.93
   2  -2  -863473.50 4160.54
  -2   2  -877626.60 6486.72
   2   2  -884579.80 6182.00
   2  -2   867217.10 4936.23
  -2   2   874651.20 5316.70
  -2  -2  -878271.40 6330.55
   2   2  -874109.00 4547.36
  -2   2   875499.70 5192.87
   2   2   9 8530.06  750.30
  -2  -2   9 8633.50  513.56
   2  -2  -9 6744.07  458.53
  -2   2  -9 9415.29 1090.66
  -2   2   9 9383.09  770.84
  -2   2   9 7583.21  467.65
  -2  -2  -9 9449.96 1059.57
   2   2  -9 8036.54  453.50
   2   2  -9 8950.17  839.44
   2  -2   9 8222.30  687.22
  -2  -2  1022172.60 1291.50
   2   2  1019092.00 1917.33
  -2   2 -1022521.90 1607.02
   2  -2 -1016908.40  991.48
  -2   2  1020769.70 1286.23
  -2  -2 -1021652.20 1513.19
   2   2 -1019663.00 1113.01
   2   2 -1021827.70 1648.32
   2  -2  1020131.30 1808.88
  -2   2  1021393.20 1502.70
   2   2  1123238.80 2086.81
  -2  -2  1120642.00 1140.36
  -2   2 -1124058.20 1682.09
   2  -2 -1120493.70 1323.19
  -2   2  1121448.20 1247.97
  -2   2  1121039.90 1305.23
   2  -2  1118174.60 1320.66
   2   2 -1119016.50 1234.08
  -2  -2 -1120577.80 1874.98
   2   2 -1117219.70 1040.30
  -2   2 -1221811.00 1603.07
   2   2  1220916.70 1584.69
  -2  -2  1221197.40 1385.71
   2  -2 -1216079.40 1033.14
  -2   2  1220604.70 1282.82
   2   2 -1223579.60 1771.48
  -2  -2 -1221640.30 1527.62
   2   2 -1218415.50 1043.38
  -2   2  1223321.20 1681.76
   2  -2  1222394.90 1526.15
   2   2  1321861.30 2241.32
  -2  -2  1322110.90 1378.07
   2  -2 -1320262.10 1388.40
  -2   2 -1323951.70 2281.13
   2  -2  1322284.20 1665.75
  -2   2  1319901.40 1227.91
  -2  -2 -1322465.20 2115.06
   2   2 -1323482.30 1857.43
  -2   2  1323241.70 1474.43
   2   2  14 2078.37  437.96
  -2  -2  14 3209.30  333.67
  -2   2 -14 3176.84  657.76
   2  -2 -14 2901.84  385.87
  -2  -2 -14 1934.77  579.80
   2   2 -14 2592.68  528.41
  -2   2  14 2757.55  472.13
   2  -2  14 2681.41  393.11
  -2   2  14 2238.65  234.44
  -2  -2  1513698.90  970.10
   2   2  1514873.60 1705.40
   2  -2 -1512272.00  810.99
  -2   2 -1513687.60 1529.87
   2  -2  1513995.30 1082.58
  -2  -2 -1513865.40 1434.65
   2   2 -1514166.30 1264.31
  -2   2  1513903.40 1264.46
  -2   2  1510629.00  697.61
   2  -2 -16 3517.81  367.88
   2   2  16 4148.33  570.38
  -2  -2  16 3647.12  449.92
  -2   2 -16 4561.77  833.09
   2  -2  16 4220.01  553.31
   2   2 -16 2645.02  624.85
  -2  -2 -16 4416.71  743.45
  -2   2  16 4928.23  634.57
   2   2  17 6053.70 1199.70
  -2  -2  17 6047.17  651.51
  -2   2 -17 5911.45  731.63
   2  -2 -17 5812.22  513.83
  -2   2  17 7391.56  624.81
  -2  -2 -17 6125.45  985.34
   2   2 -17 7879.63  995.64
   2  -2  17 7339.87  759.76
  -2   2 -1814647.60 1797.83
   2   2  1815687.90 1967.42
  -2  -2  1814383.30 1210.24
   2  -2 -1813624.60  971.99
   2  -2  1815647.20 1366.64
   2   2 -1817024.90 1593.81
  -2  -2 -1813444.30 1617.30
  -2   2  1815373.20 1507.95
  -2   2 -19 2790.58  925.00
   2   2  19 4121.27  680.83
  -2  -2  19 3986.66  589.26
  -2   2  19 4799.95  764.11
  -2  -2 -19 1256.44  831.38
   2   2 -19 5128.21  740.87
   2  -2  19 5044.06  625.59
  -2   2 -2019573.30 1768.40
   2   2  2018402.70 2459.64
  -2  -2  2019181.00 1339.54
   2  -2  2018138.70 2336.40
  -2  -2 -2018160.60 2171.90
   2   2 -2021290.20 1950.82
  -2   2  2018429.00 1895.66
   2   2  21   16.93  255.27
  -2  -2  21  386.32  239.60
  -2   2 -21  372.61  391.45
  -2  -2 -21  153.44  203.09
   2   2 -21  143.26  284.19
  -2   2  21  386.62  299.09
   2  -2  21  656.83  413.05
   2   2  22 8975.42 1725.73
  -2  -2  22 9216.98 1049.04
  -2   2 -22 8874.72 1050.65
   2  -2  22 8594.26 1550.28
  -2  -2 -22 9457.96 1433.99
  -2   2  22 9377.45 1266.63
   2   2  23 1279.36  435.42
  -2   2 -23 1399.34  629.50
   2  -2  23  525.17  686.98
  -2   2  23 1035.97  311.04
  -2  -2 -23  205.76  543.27
   2   2  24 5546.54 1392.71
  -2   2 -24 4246.62  762.46
   2  -2  24 5395.23  843.71
  -2   2  24 5353.03  997.28
   2   2  25 9857.58 1937.08
  -2   2 -25 8172.35 1651.61
   2  -2  25 9575.72 1211.48
  -2   2  25 8712.56 1422.71
   2   2  26 5597.11  895.54
  -2   2 -26 3923.77  772.50
   2  -2  26 4832.14 1353.37
   2   2  27 2672.66 1305.43
   2  -2  27 3768.75 1251.29
   2   2  28   44.53  215.72
   2  -2  28    3.96  206.41
   2   2  29 2393.08  787.95
   2  -2  29  -33.93  453.22
   2   2  30  483.27  630.98
   2  -2  30    1.54  606.11
  -2  -3   023502.60 1310.54
   2   3   023067.60 1462.06
   2   3   023499.10 1418.70
   2  -3   023369.40 1591.37
   2  -3   017124.90 1114.52
  -2   3   024315.90 1831.15
   2   3   133770.50 2715.19
   2  -3  -135146.80 2256.60
  -2  -3   132854.60 1806.61
  -2   3  -135765.40 2709.32
   2  -3  -129112.90 1809.31
   2   3   132229.90 2102.83
   2  -3   134864.00 2464.23
  -2   3   131747.70 1908.65
   2   3  -134573.00 1991.81
   2   3  -136694.80 2815.79
  -2  -3  -131612.10 1990.51
   2  -3  -238671.40 2370.62
  -2  -3   232640.30 1665.39
   2   3   239048.30 2641.45
   2   3   238938.60 3026.59
  -2   3  -237253.20 2361.32
   2  -3  -226669.40 1689.84
   2   3  -238991.30 2028.51
   2  -3   228896.80 1867.17
  -2  -3  -234471.50 1995.54
   2   3  -238994.00 2875.32
  -2   3   230543.10 1828.68
   2  -3  -314084.40  838.61
   2   3   314994.60 1166.71
   2   3   313027.10  888.45
   2  -3  -3 9542.94  598.23
  -2  -3   310852.10  469.67
  -2   3  -314791.60  968.50
   2   3  -312601.30  582.25
   2   3  -312241.10  845.23
   2  -3   310869.00  735.48
   2  -3  -411309.30  784.79
  -2   3  -412926.10  968.66
   2   3   413038.40  925.49
   2   3   415067.80 1293.78
   2  -3  -4 9384.95  583.99
   2  -3  -414709.50  839.06
   2  -3   414129.50 1242.73
   2   3  -414357.30 1226.00
  -2   3   412875.40 1090.55
   2   3   542283.90 3211.64
   2   3   540161.00 3230.07
  -2   3  -543242.60 3431.52
   2  -3  -541543.70 2404.43
   2  -3  -537007.30 2176.50
   2  -3   541967.60 3149.96
   2   3  -536991.30 2363.09
  -2   3   532360.30 2077.85
  -2   3  -617769.90 1264.61
   2   3   613782.90 1000.64
   2  -3  -612212.00  707.03
   2   3   614787.00 1071.78
   2  -3  -614265.10  778.13
   2   3  -618614.70 1424.27
   2  -3   615579.40 1441.91
  -2   3   616096.30 1184.79
   2  -3  -716341.00  873.14
  -2   3  -720739.60 1872.77
   2   3   720006.90 1344.34
   2   3   719041.50 1676.99
   2  -3  -719584.20 1108.83
  -2   3   716481.10 1019.45
   2   3  -719229.50 1202.71
   2  -3   720370.50 1694.08
  -2  -3   814799.00  610.88
   2   3   816697.70 1615.19
  -2   3  -818006.20 1711.37
   2   3   816813.90 1565.96
   2  -3  -815149.80  828.85
   2   3  -814841.10  609.35
   2   3  -818915.80 1515.76
  -2   3   817813.90 1004.76
   2  -3   815097.30 1071.21
  -2   3   816648.50 1278.42
   2   3   9 8669.08  752.08
   2   3   9 7973.27  992.29
  -2  -3   9 7343.65  380.29
   2  -3  -9 6387.53  428.91
  -2   3  -9 8618.57  803.85
   2  -3   9 7613.45  953.73
   2   3  -9 6901.25  339.86
   2   3  -9 9522.50  905.32
  -2   3   9 7330.15  388.19
  -2   3   9 6535.50  502.04
   2  -3 -1022025.40 1319.50
   2   3  1029269.60 2122.98
  -2  -3  1028229.80 1565.48
  -2   3 -1030665.70 2228.37
   2  -3  1026711.20 1872.70
   2   3 -1029054.30 1824.46
  -2   3  1032405.80 2293.06
   2   3 -1028032.10 1490.17
  -2   3  1027100.60 1424.47
  -2   3 -1111622.60  962.06
   2  -3 -11 8360.33  562.39
   2   3  11 9685.55 1317.85
  -2  -3  1111084.20  585.98
  -2   3  1110274.10  599.58
  -2  -3 -1111717.10 1198.59
   2   3 -11 9388.77  728.20
   2   3 -11 9661.14  584.93
   2  -3  1110549.80 1224.66
  -2   3  1111611.40 1019.96
  -2  -3  1222721.10 1278.88
   2   3  1222554.30 1726.18
  -2   3 -1224846.10 2256.64
  -2   3  1223741.50 1463.64
  -2   3  1220923.80 1185.86
  -2  -3 -1221946.80 1528.15
   2   3 -1220583.90 1418.50
   2   3 -1219453.30 1131.33
   2  -3  1221468.60 1533.96
  -2  -3  1312996.70  922.58
   2   3  1312742.30 1540.93
  -2   3 -1312918.30 1468.65
   2  -3 -1312223.60  747.49
  -2   3  1312255.00  714.89
   2   3 -1310997.10  686.37
  -2  -3 -1313305.30 1332.12
   2   3 -1313338.10 1284.56
  -2   3  1313546.60 1187.72
   2  -3  1313125.20 1005.75
   2   3  14 6286.20  688.56
  -2  -3  14 6166.71  482.43
  -2   3 -14 6424.40  988.73
   2  -3 -14 5802.57  451.45
  -2   3  14 6474.45  776.38
   2  -3  14 6381.89  938.37
  -2  -3 -14 6623.56  869.36
   2   3 -14 7222.49  874.94
  -2   3  14 5729.65  339.66
   2  -3 -1512329.60  782.98
  -2  -3  1512449.80  887.43
   2   3  1512199.60 1611.66
  -2   3 -1511531.30 1036.32
  -2   3  1511059.60  893.46
   2  -3  1513095.60 1441.96
  -2  -3 -1511488.60  964.42
   2   3 -1514101.80 1368.59
  -2   3  1511601.40  734.93
  -2  -3  1614628.30 1067.96
   2   3  1615710.60 1365.55
  -2   3 -1614773.10 1259.78
   2  -3 -1614855.30  950.55
   2  -3  1614216.00 1644.22
  -2  -3 -1614781.50 1143.89
   2   3 -1614366.10 1098.18
  -2   3  1615405.50 1453.90
  -2   3  1613820.20  902.04
  -2  -3  17 9295.32  806.63
   2   3  1710747.30 1512.98
  -2   3 -1710618.50 1369.00
   2  -3 -17 9116.14  670.89
   2  -3  1710015.90 1327.47
  -2   3  17 9116.92 1125.85
  -2  -3 -17 8286.64 1136.24
   2   3 -1710500.60 1245.19
  -2  -3  18 7869.54  737.72
   2   3  18 8233.66  928.64
  -2   3 -18 7610.00  851.02
  -2   3  18 7643.67  715.56
   2  -3  18 7474.91 1255.03
  -2  -3 -18 7822.99 1089.27
   2   3 -18 7797.84  766.42
   2   3  19 4080.96 1318.98
  -2  -3  19 6359.74  675.96
  -2   3 -19 6416.41 1168.24
   2  -3  19 7138.48 1177.29
  -2  -3 -19 6252.86  693.04
   2   3 -19 6619.19 1020.10
  -2   3  19 7017.91  984.71
   2   3  20 2310.75  639.27
  -2  -3  20 3765.51  532.80
  -2   3 -20 3420.12  942.36
   2  -3  20 3244.10  947.44
   2   3 -20 4070.65  474.14
  -2  -3 -20 3724.38  516.49
  -2   3  20 4762.16  790.47
   2   3  21 3098.24 1031.03
  -2  -3  21 3187.24  530.19
  -2   3 -21 2984.52  557.75
  -2  -3 -21 1558.99  751.15
   2   3 -21 3715.60  739.63
   2  -3  21 3639.35  894.41
  -2   3  21 3565.36  757.36
   2   3  22 1249.96  483.94
  -2   3 -22 1206.76  709.40
  -2  -3 -22  466.31  578.68
   2  -3  22 2036.78  440.58
   2   3 -22 1613.81  576.01
  -2   3  22 1674.36  600.34
  -2   3 -23 5001.80  758.11
   2   3  23 3131.53 1320.80
   2  -3  23 5761.27  780.42
  -2   3  23 4312.71  993.61
   2   3  24 5601.49  948.76
  -2   3 -24 4046.19 1359.31
  -2   3  24 6132.49  752.92
   2  -3  24 5529.51  874.38
  -2   3 -25 5160.91  833.88
   2   3  25 4208.87 1424.38
  -2   3  25 5307.66 1082.69
   2  -3  25 3864.08 1323.69
   2   3  26 7838.67 1130.68
  -2   3 -26 3976.95 1467.88
   2  -3  26 6399.87 1573.52
   2   3  27 6821.20 1915.54
   2  -3  27 9160.91 1840.12
   2   3  28 6555.80  992.70
   2  -3  28 -124.29 1424.59
   2   3  29 3857.30  986.22
   2  -3  29   77.61  577.22
   2  -4   015602.50 1009.01
  -2   4   017826.00 1405.36
  -2  -4   017148.00 1017.64
   2   4   017721.60 1172.21
   2  -4   018394.50 1317.82
   2   4   015556.50 1110.79
  -2  -4   1 2270.03  221.22
   2   4   1 3389.37  351.42
   2   4   1 2255.72  402.11
   2  -4  -1 2788.02  347.07
  -2   4  -1 2261.80  474.23
   2  -4  -1 2475.78  576.44
   2   4  -1 1301.63  568.74
  -2  -4  -1 2653.79  299.01
   2   4  -1 2781.14  281.18
   2  -4   1 2517.35  504.71
  -2   4   1 2299.93  412.59
  -2   4  -217900.00 1174.71
   2  -4  -224918.10 1944.10
   2  -4  -218093.60 1144.66
  -2  -4   216332.00  912.54
   2   4   217899.30 1375.39
   2   4   217145.20 1581.07
   2  -4   217609.50 1466.40
   2   4  -216671.20  884.47
  -2  -4  -216152.10 1140.08
  -2   4   217016.60 1238.11
   2   4  -216648.20 1150.94
   2   4   312318.40 1113.57
  -2  -4   311555.30  543.74
   2   4   313005.90 1225.95
  -2   4  -312238.90  886.71
   2  -4  -312851.40  768.21
   2   4  -311504.50  834.46
   2   4  -311186.50  575.86
  -2   4   313215.50  873.12
   2  -4   311409.60  776.27
  -2   4   310305.50  761.04
   2   4   4 1329.60  232.18
  -2  -4   4 1022.94   44.35
   2   4   4 1200.89  359.71
  -2   4  -4  589.07  394.70
   2  -4  -4 1599.30  164.31
   2  -4   4 1058.70  369.82
  -2   4   4 1423.38  367.40
   2   4  -4  793.60   59.92
   2   4  -4 1472.14  394.09
  -2   4   4  630.60  192.68
   2  -4  -517848.40 1011.99
   2   4   519982.50 1352.11
   2   4   519984.10 1309.66
  -2   4  -519621.90 1381.12
   2  -4  -519083.10 1038.63
   2   4  -520494.40 1268.67
  -2   4   520114.00 1613.68
   2  -4   517244.40 1171.15
   2  -4  -6 6891.18  376.04
   2   4   6 6716.01  869.42
   2   4   6 7362.00  643.40
   2  -4  -6 4831.86  413.66
  -2   4  -6 7707.87  978.03
   2  -4   6 5846.97  519.64
   2   4  -6 5241.19  499.06
  -2   4   6 6101.96  737.41
   2   4   770581.90 5289.46
   2   4   772528.90 5248.95
  -2   4  -769935.20 5952.34
   2  -4  -767699.20 4338.69
   2  -4  -763088.20 4013.88
   2   4  -781916.80 6305.90
   2  -4   764842.10 4689.35
  -2   4   771339.60 5490.02
   2  -4  -8 1622.02  156.49
   2   4   8 2037.56  344.19
   2   4   8 1760.60  289.71
  -2   4  -8 1902.91  577.22
   2  -4  -8 2022.92  157.65
   2  -4   8 1574.99  507.05
   2   4  -8 2511.23  513.15
  -2   4   8 1631.86  436.50
  -2  -4   917100.40  756.24
   2   4   917934.80 1560.92
  -2   4  -919407.10 1889.64
   2   4   917170.50 1798.21
   2  -4  -919070.20  922.11
   2   4  -915445.30  684.08
   2   4  -920595.40 1744.31
   2  -4   919394.50 1739.34
  -2   4   918731.40 1518.37
   2  -4 -1011171.90  528.94
  -2  -4  1010901.90  575.47
   2   4  1010437.70 1173.44
   2   4  1012337.20 1433.11
  -2   4 -1012907.60 1490.08
  -2   4  1012464.40 1131.78
   2   4 -1011136.80  544.24
   2   4 -1013140.80 1267.09
   2  -4  1010972.70  871.07
   2   4  1125362.30 1881.73
   2   4  1123564.00 1618.33
  -2  -4  1125115.90 1290.33
  -2   4 -1125803.80 2413.95
   2  -4 -1122913.30 1079.47
  -2   4  1125390.50 1635.71
   2   4 -1120670.40 1112.96
   2   4 -1123346.90 1612.86
   2  -4  1126205.20 2206.91
  -2   4 -1217263.30 1803.24
   2   4  1215728.60 1578.25
   2   4  1218368.70 1413.66
  -2  -4  1217201.60 1014.63
   2  -4  1217120.50 1227.36
  -2   4  1217312.60 1149.31
   2   4 -1213906.80  810.37
   2   4 -1216716.00 1171.56
  -2   4  1215170.70  680.76
  -2  -4  13 3339.37  333.19
   2   4  13 2653.31  758.13
   2   4  13 2209.21  578.44
   2  -4 -13 2326.48  156.93
  -2   4 -13 3177.15  452.43
  -2   4  13 3046.36  552.80
   2   4 -13 2303.88  265.57
   2  -4  13 3179.37  638.76
   2   4 -13 2846.16  621.40
  -2   4  13 3381.41  176.34
  -2   4 -1412711.70 1047.46
  -2  -4  1411270.70  826.15
   2   4  1410686.30 1018.48
   2   4  1411495.70 1190.98
   2  -4 -14 9273.36  458.08
   2  -4  1411993.00 1314.79
   2   4 -1411607.50 1259.40
  -2   4  1411143.90 1131.97
  -2   4  14 9214.67  419.50
   2   4  15 2909.44  378.76
   2   4  15 2093.95  486.29
  -2  -4  15 2530.43  291.24
   2  -4 -15 2935.50  185.69
  -2   4 -15 2307.66  727.08
  -2   4  15 2875.91  364.29
  -2   4  15 2383.65  157.20
   2   4 -15 2510.86  386.66
   2  -4  15 2790.75  646.67
   2   4  1610001.50  871.73
   2   4  1610781.10 1536.22
  -2  -4  16 9993.54  762.40
  -2   4 -1610311.20 1420.81
   2  -4 -1610997.80  556.55
  -2   4  1611627.50 1224.97
   2  -4  1610775.20  946.34
   2   4 -1612274.90 1341.24
  -2   4  16 8767.15  480.27
  -2   4 -17 8937.74  930.13
   2   4  17 8970.19  813.18
   2   4  17 9856.84 1029.58
  -2  -4  17 9330.59  739.37
   2   4 -17 9373.09  856.34
   2  -4  17 9194.30  880.28
  -2   4  17 9277.72 1172.51
  -2   4 -18 5891.28 1191.67
   2   4  18 5503.03  641.34
   2   4  18 6770.03 1333.68
  -2  -4  18 6546.36  641.46
  -2   4  18 7493.41  734.72
   2   4 -18 7818.07 1159.65
   2  -4  18 7253.16  781.32
   2   4  1918299.50 1709.51
   2   4  1913592.90 1247.56
  -2  -4  1917648.70 1406.17
  -2   4 -1917537.30 1634.87
   2   4 -1920864.90 2102.78
  -2   4  1918929.90 1940.72
   2  -4  1917332.30 1510.89
  -2   4 -20  245.34  427.49
   2   4  20  -25.29  205.54
   2   4  20  373.38  492.32
  -2  -4  20  622.05  214.84
   2  -4  20  320.51  251.20
   2   4 -20  614.88  236.19
  -2   4  20  145.05  363.06
  -2   4 -2116319.90 2100.38
   2   4  2114375.20 2222.53
   2   4  2112857.50 1226.50
  -2   4  2114814.90 1770.39
   2   4 -2116810.20 1814.88
   2  -4  2115069.90 1389.87
   2   4  22  232.97  183.47
   2   4  22  338.51  267.07
  -2   4 -22   26.03  400.82
   2   4 -22  293.67  334.90
  -2   4  22   74.02  335.18
   2  -4  22   67.47  232.91
  -2   4 -2319996.00 2811.24
   2   4  2320178.50 2402.68
   2   4  2321328.50 3005.02
   2   4 -2323092.70 1949.83
  -2   4  2321598.30 2535.91
   2  -4  2322042.00 2055.55
  -2   4 -24 5032.21 1450.08
   2   4  24 7357.94 1056.44
   2  -4  24 6185.10 1433.57
  -2   4  24 6463.91 1269.10
   2   4  25 5723.45 1689.26
  -2   4 -25 6827.12 1022.61
  -2   4  25 7484.66  916.07
   2  -4  25 7347.84 1576.48
  -2   4 -26 3310.54 1422.77
   2   4  26 5455.53 1018.22
   2  -4  26 5590.92 1499.97
  -2   4  26 7135.77 1264.17
  -2   4 -27  335.95  358.66
   2   4  27  397.66  664.16
   2  -4  27  748.97  603.58
   2   4  28 2978.01 1007.47
   2  -4  28 -180.88  897.90
   2   4  29  711.79  521.33
   2  -4  29  -66.46  281.64
   2   5   025335.60 1400.30
   2   5   026159.10 1689.54
  -2  -5   023488.40 1231.06
   2  -5   024636.70 1575.71
  -2   5   028693.30 2043.03
   2  -5  -124204.30 1579.53
   2   5   119614.20 1319.33
   2   5   120413.70 1197.35
  -2  -5   119935.10 1174.94
  -2   5  -122231.80 1769.39
   2   5  -120896.90 1268.98
  -2  -5  -119838.90 1324.31
   2   5  -120667.70 1396.87
  -2   5   119898.80 1188.70
   2  -5   122884.00 1783.30
   2  -5  -216705.40 1081.91
   2   5   217084.00 1159.56
   2   5   218052.90 1411.50
  -2  -5   216711.80  899.47
  -2   5  -218102.70 1556.84
   2   5  -217155.70 1159.46
   2   5  -216074.80  901.60
  -2   5   216320.60  922.79
   2  -5   218077.00 1499.55
   2   5   318101.40 1222.28
  -2   5  -318673.80 1650.52
   2   5   318366.60 1530.69
  -2  -5   317592.30  867.02
   2  -5  -318502.70 1136.95
   2   5  -317348.30 1185.42
   2   5  -317691.30  975.16
  -2   5   318947.50 1213.01
   2  -5   315889.80 1085.66
  -2   5   318858.40 1663.79
  -2   5  -414006.80 1344.17
   2   5   414140.40 1315.11
  -2  -5   412547.90  591.11
   2   5   413123.50  903.00
   2  -5  -414160.20  803.17
  -2   5   411268.30  749.05
   2   5  -415587.20 1403.96
   2   5  -410606.20  558.42
  -2   5   412418.60  889.47
   2  -5   411777.20  834.67
   2   5   515719.90 1524.29
  -2  -5   514569.90  592.49
   2   5   515031.50 1387.76
   2  -5  -515225.50  968.66
  -2   5  -516059.50 1183.09
  -2   5   511907.20  744.67
   2   5  -517548.60 1561.04
   2  -5   514189.40 1325.47
  -2   5   517453.50 1476.30
   2  -5  -626499.00 1491.77
   2   5   632184.30 2146.61
   2   5   634715.00 2388.13
  -2   5  -636005.90 3014.36
   2  -5  -630340.50 1812.59
   2  -5   631689.80 2588.94
  -2   5   633916.50 2607.56
   2   5  -637491.80 2934.06
   2  -5  -716957.60  905.49
  -2   5  -719228.80 1876.47
   2   5   719193.50 1622.84
   2   5   718689.10 1392.70
   2  -5  -714502.30  774.56
  -2   5   718356.10 1550.31
   2   5  -717817.50 1242.10
   2  -5   719601.90 1648.54
  -2   5  -8 2916.06  824.72
   2   5   8 5026.91  718.89
  -2  -5   8 3992.62  135.46
   2   5   8 3642.22  480.67
   2  -5  -8 3006.80  193.64
  -2   5   8 3861.95  392.50
   2   5  -8 3982.32  445.94
   2  -5   8 4752.88  723.58
  -2  -5   910311.90  455.63
   2   5   912948.70 1222.03
   2   5   911892.60 1020.57
  -2  -5   911747.70  498.26
  -2   5  -912601.30 1502.00
  -2   5   912030.00 1213.54
   2   5  -912622.10  916.21
   2  -5   912267.90 1321.82
  -2  -5  10 3526.40  223.96
   2   5  10 2446.34  641.01
   2   5  10 3665.66  540.13
  -2   5 -10 3554.63  817.56
   2  -5  10 4639.28  442.91
   2   5 -10 4765.49  776.37
  -2   5  10 4256.22  634.65
  -2   5 -1122255.40 1798.17
   2   5  1123380.90 1830.56
  -2  -5  1122363.30 1195.13
   2   5  1122631.40 1920.51
   2   5 -1125775.60 2237.55
   2   5 -1119542.70 1026.70
  -2   5  1122871.60 1558.35
   2  -5  1124666.20 2148.27
   2   5  1214195.20 1371.01
  -2  -5  1212343.20  742.15
   2   5  1216150.50 1342.45
  -2   5 -1214543.70 1249.13
   2  -5  1214824.00 1083.34
   2   5 -1214766.60 1124.68
   2   5 -1214073.00  810.81
  -2   5  1214641.20 1061.79
   2   5  1324066.30 2550.14
   2   5  1324115.60 1698.87
  -2  -5  1322068.20 1232.62
  -2   5 -1325569.90 2583.21
  -2   5  1325948.30 2227.73
   2   5 -1326846.60 2453.39
   2   5 -1322686.30 1390.35
   2  -5  1324701.40 2271.60
  -2  -5  1421288.40 1421.06
   2   5  1421680.60 1946.86
   2   5  1422497.40 2438.31
  -2   5 -1420947.70 2298.44
   2  -5  1422797.30 2212.47
   2   5 -1421616.20 1674.80
  -2   5  1422426.40 2078.83
  -2  -5  1518307.00 1155.32
   2   5  1518147.00 1349.18
   2   5  1517798.90 1575.82
  -2   5 -1518164.30 1542.72
   2  -5  1518089.20 1432.20
  -2   5  1519387.20 1420.88
   2   5 -1519176.00 2035.81
  -2   5 -1610499.50 1489.70
   2   5  1610430.00 1165.74
   2   5  1610627.10 1115.85
  -2  -5  16 9767.19  705.61
  -2   5  1611055.50 1249.90
   2   5 -1610547.40  960.58
   2  -5  1610442.00 1354.86
   2   5  1712432.60 1733.85
   2   5  1711148.30 1257.04
  -2  -5  1710333.70  818.27
  -2   5 -1710596.30 1590.42
   2  -5  1711462.30 1446.44
  -2   5  1710603.60 1378.88
   2   5 -1713569.30 1544.29
   2   5  1817992.00 1552.13
  -2  -5  1813033.30 1024.33
   2   5  1812990.60 1485.84
  -2   5 -1814712.80 1377.14
   2   5 -1816412.10 1876.85
   2  -5  1813341.20 1707.62
  -2   5  1813885.50 1201.14
   2   5  19 3459.82 1104.34
   2   5  19 1541.93  716.08
  -2  -5  19 4148.91  474.22
  -2   5 -19 3407.15 1018.48
  -2   5  19 4093.21  849.78
   2   5 -19 5544.86  615.16
   2  -5  19 3587.65  920.46
  -2   5 -20 6279.59  756.76
   2   5  20 4674.90 1245.09
   2   5  20 1673.17  804.63
   2  -5  20 6406.31 1085.05
   2   5 -20 7148.84 1103.82
  -2   5  20 6099.78  974.98
   2   5  21 2543.93  556.40
   2   5  21  776.05  588.00
  -2   5 -21   32.66  821.27
   2  -5  21 2766.59  777.31
   2   5 -21 2569.70  732.45
  -2   5  21 3449.34  727.00
   2   5  22 1864.85  753.47
   2   5  22 3195.66 1172.93
   2  -5  22 4789.57 1020.16
   2   5 -22 4458.71  923.98
  -2   5  22 4458.02  935.40
   2   5  23 6653.08  936.71
  -2   5 -23 4352.54 1301.41
  -2   5  23 7126.82 1170.10
   2  -5  23 4715.98 1252.81
   2   5 -23 5048.98  708.98
   2   5  24 3809.38 1377.41
  -2   5 -24 4248.86 1257.36
   2  -5  24 4485.46 1216.44
  -2   5  24 4928.75 1089.44
   2   5  25 7563.40 1235.17
  -2   5 -25 8615.53 1812.99
   2  -5  25 9746.53 1718.44
  -2   5  25 9843.56 1612.19
   2   5  26 5316.91 1694.42
  -2   5 -26 3942.09 1548.69
   2  -5  26 7515.55 1537.20
  -2   5  26 6633.69  916.78
   2   5  27 4790.66 1231.10
  -2   5 -27 2020.40  654.09
   2  -5  27 1939.62 1071.86
  -2   5 -28 2031.77  940.23
   2   5  28 2295.37 1019.55
   2  -5  28 -251.50  919.97
   2   5  29 5110.00 1344.23
   2  -5  29  -68.17 1172.95
  -2   6   0 3261.44  456.63
  -2  -6   0 1459.73  298.05
   2   6   0 3162.77  370.80
   2  -6   0 2093.33  634.67
   2  -6  -118461.70 1571.19
  -2  -6   124153.70 1460.24
   2   6   125191.60 2120.93
   2   6   122908.70 1362.56
  -2   6  -125725.70 1634.87
   2   6  -124681.30 1502.33
   2   6  -125748.30 2132.40
   2  -6   120002.10 1400.87
  -2   6   122976.70 1406.32
   2   6   216361.30 1120.56
   2   6   217374.40 1389.97
  -2  -6   216052.10  949.11
  -2   6  -218304.20 1224.38
   2  -6  -218062.80 1225.75
   2  -6   219643.30 1623.47
   2   6  -216044.20  962.15
   2   6  -217185.70 1195.73
  -2   6   215340.30 1159.21
  -2   6   216980.60 1237.96
  -2   6  -319383.00 1726.20
  -2  -6   319216.50 1008.23
   2   6   318141.60 1238.52
   2  -6  -316749.20 1094.05
   2   6   319107.70 1576.30
  -2   6   315576.90 1167.89
   2   6  -318192.00 1273.94
   2   6  -315946.00  886.11
   2  -6   315996.30 1104.86
  -2   6   318127.40 1194.58
   2  -6  -421879.10 1303.44
   2   6   424640.30 1973.90
  -2  -6   421308.70 1170.49
   2   6   420760.00 1823.68
  -2   6  -420499.20 1976.83
   2  -6   422595.80 1832.34
   2   6  -420694.50 1415.64
   2   6  -417840.70 1060.48
  -2   6   419323.20 1226.06
  -2   6   420999.80 1918.89
   2  -6  -5 5654.85  497.74
   2   6   5 5312.41  518.28
   2   6   5 6404.00  890.86
  -2  -6   5 5759.27  279.86
  -2   6  -5 6857.00  697.06
   2   6  -5 8240.60 1004.03
  -2   6   5 5505.68  523.75
  -2   6   5 7608.20  937.66
   2  -6   5 7401.16  871.41
  -2   6  -672786.10 5460.13
  -2  -6   655731.40 3292.31
   2   6   674055.60 5819.46
   2   6   671284.70 5291.37
  -2  -6   668757.80 4049.41
   2  -6  -655561.70 3682.29
   2   6  -681435.50 6432.13
  -2   6   669864.60 5599.17
   2  -6   668080.50 5439.94
  -2   6   663694.10 4212.73
  -2   6  -7  173.58  229.54
   2  -6  -7  354.81  107.47
   2   6   7  494.88  365.33
   2   6   7  625.54  177.05
  -2  -6   7  582.54   61.42
  -2  -6   7  426.78   61.87
   2  -6  -7  210.17  110.70
  -2   6   7  374.42  191.17
   2   6  -7  464.30  213.99
   2  -6   7  841.93  344.39
  -2   6  -8 8421.59  783.27
   2   6   8 7711.99 1090.25
   2   6   8 7163.07  869.60
  -2  -6   8 7229.04  308.66
  -2  -6   8 7088.68  310.93
   2   6  -8 7877.40 1039.34
  -2   6   8 8469.66  989.18
   2  -6   8 7374.75  961.63
  -2  -6   913395.80  626.55
  -2  -6   914645.80  653.24
   2   6   915154.30 1197.52
   2   6   916229.50 1396.89
  -2   6  -915909.00 1265.16
   2  -6   914808.00 1483.29
   2   6  -917918.10 1689.02
  -2   6   914429.40 1055.22
  -2   6 -1020580.60 2159.95
  -2  -6  1019443.70  942.00
   2   6  1020854.60 1740.02
   2   6  1018514.80 1542.84
  -2  -6  1018339.70  953.40
   2   6 -1023276.50 1587.60
  -2   6  1018366.10 1357.52
   2  -6  1020014.10 1394.86
  -2   6 -1126264.80 2497.26
   2   6  1122596.20 1817.50
  -2  -6  1120767.20 1128.60
   2   6  1121937.20 1974.21
   2   6 -1126778.60 2346.69
   2   6 -1122033.60 1177.69
   2  -6  1124478.30 2162.46
  -2   6  1121469.30 1555.72
   2   6  12 6753.21  821.60
   2   6  12 6683.38  717.28
  -2  -6  12 5976.29  389.22
  -2   6 -12 6213.12  708.36
  -2   6  12 7722.66  644.02
   2   6 -12 4768.32  301.95
   2   6 -12 6372.55  627.51
   2  -6  12 7387.85  918.84
  -2   6 -1319563.20 1552.20
   2   6  1317337.40 2098.20
   2   6  1319431.80 1668.15
  -2  -6  1316923.90  898.02
   2   6 -1314657.70  795.80
   2   6 -1319037.60 1935.80
   2  -6  1319202.80 1805.94
  -2   6  1319423.80 1833.45
  -2   6 -14  958.32  518.78
  -2  -6  14  860.62  144.79
   2   6  14  369.23  339.33
   2   6  14  441.21  520.49
   2   6 -14 1007.47  288.58
   2  -6  14  753.34  253.24
  -2   6  14 1522.05  433.77
   2   6  1514427.80 1448.31
   2   6  1514828.00 1936.10
  -2  -6  1514453.80  916.63
  -2   6 -1514132.30 1333.67
   2  -6  1515979.80 1682.11
   2   6 -1516948.70 1856.56
  -2   6  1513932.60 1158.34
   2   6  16 5490.90  820.84
   2   6  16 5668.26  771.93
  -2  -6  16 5831.67  464.35
  -2   6 -16 5851.60 1150.13
   2  -6  16 6850.53 1031.45
   2   6 -16 6749.88 1096.50
  -2   6  16 6485.29  990.58
   2   6  17 7489.86 1014.01
  -2  -6  17 8718.59  674.01
   2   6  17 8844.89 1046.46
  -2   6 -17 6327.56 1439.61
   2   6 -17 9186.34  931.03
  -2   6  17 9229.99 1240.35
   2  -6  17 9787.98  887.72
  -2   6 -1820001.00 1862.62
  -2  -6  1819638.00 1384.53
   2   6  1822209.50 2710.85
   2   6  1820224.80 1957.72
  -2   6  1821990.30 1771.68
   2   6 -1822593.20 2546.57
   2  -6  1821712.10 1742.00
   2   6  19 1205.65  644.70
   2   6  19  786.08  378.14
  -2   6 -19  976.26  602.09
   2  -6  19  445.82  513.63
  -2   6  19  843.95  500.00
  -2   6 -2010834.70 1213.59
   2   6  2010556.30 1357.45
   2   6  2013855.70 1409.59
   2   6 -2012118.60 1767.72
   2  -6  2013212.10 1683.28
  -2   6  2013505.60 1659.25
   2   6  21 1479.94  727.96
   2   6  21  585.33  414.13
  -2   6 -21 -164.53  643.36
  -2   6  21  824.41  577.18
   2   6 -21 1659.43  381.85
   2  -6  21  782.34  591.26
  -2   6 -2218007.10 1755.26
   2   6  2216971.10 2655.09
   2   6 -2216052.40 1612.64
   2  -6  2221190.50 2365.80
  -2   6  2217961.20 2234.71
   2   6  23 1651.68  571.78
  -2   6 -23   34.30  834.89
   2   6 -23 2486.53  769.06
   2  -6  23 1706.44  755.89
  -2   6  23 2318.49  751.00
   2   6  2412729.00 2250.77
  -2   6 -2410193.20 1363.49
  -2   6  2412681.70 1843.21
   2  -6  2411962.30 1884.25
   2   6 -2413874.30 1898.26
   2   6  25 1535.63  659.11
  -2   6 -25 1589.42  958.17
  -2   6  25 2594.19  831.17
   2  -6  25 2378.33  895.79
   2   6  26 2772.40 1179.74
  -2   6 -26 1495.31 1062.21
   2  -6  26 2489.92 1012.36
  -2   6  26 2811.86  939.28
   2   6  27 5588.89 1667.04
  -2   6 -27 5085.19  953.78
  -2   6  27 5569.36  848.55
   2  -6  27 2879.51 1418.94
  -2   6 -28 -496.89  414.98
   2   6  28  518.74  472.96
   2  -6  28  -65.18  402.04
   2   6  29 3637.11 1155.93
   2  -6  29 -244.18  998.66
   2   7   0 9861.66  867.52
   2   7   011125.60 1226.99
  -2   7   010850.10 1052.63
   2  -7   012551.70 1398.51
  -2   7  -120480.80 1354.31
   2   7   119625.30 1528.27
  -2  -7   118205.00 1205.16
   2   7   119125.60 1342.06
   2  -7   117743.60 1264.75
   2   7  -122603.00 1943.77
   2   7  -119860.60 1319.88
  -2   7   119528.60 1551.32
   2   7   263912.80 5223.83
  -2  -7   256789.40 3885.00
   2   7   262941.20 4845.77
  -2   7  -263950.30 5193.61
  -2   7   264744.40 4689.05
   2   7  -259265.90 4349.18
   2   7  -259700.90 4023.98
   2  -7   264539.70 5145.05
  -2   7   263061.60 5297.73
  -2   7  -352913.00 3808.80
   2   7   346206.50 3312.38
  -2  -7   348798.40 3104.73
   2   7   351501.20 4086.55
   2  -7  -350245.90 3584.60
   2   7  -356264.20 4590.90
   2   7  -346496.70 2959.72
   2  -7   350349.70 4015.68
  -2   7   348783.80 3384.68
  -2   7   354427.40 4509.97
   2   7   429703.30 2517.84
   2   7   430026.40 2551.68
  -2  -7   429552.60 1688.23
  -2   7  -431896.00 2333.16
   2  -7  -429958.80 1999.49
  -2   7   429098.80 1881.15
   2  -7   429805.80 2499.53
   2   7  -434969.70 2921.30
   2   7  -425665.00 1550.16
  -2   7   433234.40 2840.57
  -2   7  -5 9743.18 1214.09
  -2  -7   5 9645.01  590.87
   2   7   5 8504.04 1088.28
   2   7   5 9705.53  732.17
   2  -7  -5 8441.09  598.51
  -2   7   5 7361.38  502.98
   2   7  -5 6850.34  447.15
   2   7  -510117.60  799.71
   2  -7   5 7910.91  656.27
  -2   7   5 9613.25 1177.54
   2  -7  -6 8837.87  572.14
   2   7   612617.30 1179.70
  -2  -7   611814.90  634.50
   2   7   612778.40 1386.53
  -2  -7   611147.70  592.31
  -2   7  -611488.40 1387.38
  -2   7   611114.20  634.38
   2   7  -614472.50 1474.89
   2  -7   610938.60  804.82
  -2   7   612186.50  915.56
   2  -7  -710159.50  644.07
  -2   7  -713938.90 1596.52
   2   7   712188.90  886.12
   2   7   714103.70 1084.61
  -2  -7   713250.20  658.55
  -2  -7   712448.80  621.51
  -2   7   714608.60 1458.56
   2   7  -714135.20 1069.48
   2  -7   712417.50  909.91
  -2   7   711654.70  678.13
  -2  -7   8 3508.24  218.43
   2   7   8 3544.91  375.65
  -2  -7   8 3125.25  204.59
   2   7   8 2963.14  461.68
   2  -7  -8 2497.74  163.57
  -2   7  -8 3739.58  521.98
  -2   7   8 4181.20  433.44
   2   7  -8 3176.39  746.44
   2  -7   8 3920.89  406.07
  -2   7  -913171.40 1184.64
   2   7   911794.90 1206.89
   2   7   912568.30 1540.40
  -2  -7   912132.10  602.14
  -2  -7   912292.60  624.72
  -2   7   911968.30  970.14
   2  -7   914728.40 1435.97
   2   7  -914569.50 1098.22
   2   7  1011551.30 1436.04
   2   7  1011278.40 1127.70
  -2  -7  1010800.20  596.92
  -2  -7  1010501.20  549.25
  -2   7 -1011693.30 1075.21
   2   7 -1012910.40 1467.41
  -2   7  1012747.90 1364.97
   2  -7  1012424.10 1307.28
  -2   7 -11 6893.64 1220.87
   2   7  11 9204.22  850.52
  -2  -7  11 6937.18  391.46
   2   7  11 8343.86  890.82
  -2  -7  11 7275.93  419.79
  -2   7  11 7878.65 1044.64
   2   7 -11 8232.26 1210.73
   2  -7  11 7545.69  672.88
  -2  -7  1212976.20  720.33
   2   7  1213941.50 1003.78
  -2  -7  1213154.00  837.30
   2   7  1213627.70 1239.76
  -2   7 -1213661.10 1258.50
   2  -7  1214423.10 1520.22
   2   7 -1213455.80 1185.83
  -2   7  1215008.90 1135.26
  -2   7 -1313646.10 1266.03
   2   7  1314180.70 1288.91
   2   7  1312863.00 1279.22
  -2  -7  1313070.60  781.05
   2   7 -1314054.50 1680.46
  -2   7  1314979.10 1151.37
   2  -7  1312799.30 1053.48
   2   7  1410233.10 1093.85
  -2  -7  1410056.60  719.22
   2   7  1410219.20 1026.72
  -2   7 -14 9299.20 1486.72
  -2   7  1410665.50 1352.64
   2   7 -1410084.20 1026.46
   2  -7  1411150.90 1313.49
  -2   7 -1516838.20 1519.80
   2   7  1515582.20 1528.90
   2   7  1515339.30 2038.63
  -2  -7  1515360.90  958.04
   2   7 -1517253.50 1472.47
  -2   7  1515271.40 1345.91
   2  -7  1515960.50 1244.87
   2   7  1617984.60 1796.57
  -2  -7  1620092.80 1449.26
   2   7  1620829.00 2533.22
  -2   7 -1621409.00 2524.82
   2   7 -1624151.20 2527.17
   2  -7  1620721.30 2137.82
  -2   7  1621565.70 2231.88
   2   7  17 5895.55  886.36
  -2  -7  17 6696.63  519.14
   2   7  17 7363.75 1347.55
  -2   7 -17 6416.17 1269.32
  -2   7  17 6552.96  733.65
   2   7 -17 8128.33 1291.09
   2  -7  17 6078.90 1066.83
   2   7  18 2246.10  647.83
  -2  -7  18 3246.48  379.54
   2   7  18 3808.22  644.18
  -2   7 -18 3814.20  626.46
  -2   7  18 3088.24  855.89
   2  -7  18 3959.48  530.31
   2   7 -18 4530.81  605.88
   2   7  19 4259.11  731.48
   2   7  19 4769.06  770.39
  -2   7 -19   19.34 1150.59
   2   7 -19 5978.53  799.23
  -2   7  19 5037.52  977.65
   2  -7  19 5273.31  636.56
  -2   7 -20  -16.07  405.92
   2   7  20 1217.79  411.87
   2   7  20 1391.77  735.72
   2  -7  20 1539.83  571.78
  -2   7  20 1387.56  587.13
   2   7 -20 2341.59  702.76
  -2   7 -21   24.31  856.68
   2   7  21 2721.83  947.21
  -2   7  21 2484.51  761.88
   2   7 -21 2877.49  863.72
   2  -7  21 2028.00  745.39
   2   7  22 2384.71  533.26
  -2   7 -22 -112.32  488.13
   2  -7  22 1896.64  696.59
   2   7 -22 2358.00  741.92
  -2   7  22 2250.42  713.62
  -2   7 -23   85.92  897.48
   2   7  23 2451.14  971.63
  -2   7  23 2181.11  804.67
   2  -7  23 2094.72  786.10
   2   7 -23 2431.46  830.46
   2   7  24 8533.87 1732.98
  -2   7 -24 -325.59 1547.94
  -2   7  24 8342.93 1408.64
   2   7 -24 7638.78  945.93
   2  -7  24 8232.65 1418.96
   2   7  25 5781.94  939.59
  -2   7 -25 2441.90  833.98
  -2   7  25 3858.66 1183.34
   2  -7  25 5607.94 1247.13
   2   7 -25 5262.01  793.75
   2   7  26 1437.55 1663.29
  -2   7 -26 3418.72 1530.14
  -2   7  26 7024.44 1381.22
   2  -7  26 7684.83 1423.09
   2   7  27 2065.23  715.53
  -2   7 -27 1367.05  649.45
   2  -7  27 2685.65  976.27
  -2   7  27 2503.91  954.48
   2   7  28 2483.78  819.82
  -2   7 -28 -177.27  749.18
   2  -7  28 -249.25  729.94
   2   7  29 1616.81  777.23
  -2   7 -29 -182.62  704.17
   2  -7  29    6.32  673.20
  -2   8   021347.60 1866.28
   2   8   023383.40 2112.25
   2   8   021669.60 1644.96
   2  -8   022510.60 2243.78
   2  -8  -1 9741.45  992.80
   2   8   1 9297.33  903.42
   2   8   1 8469.35  723.01
  -2   8  -1 9009.66 1029.41
   2  -8   1 9897.64 1154.42
   2   8  -1 8713.82  749.16
   2   8  -1 9729.71  820.00
  -2   8   1 9465.72  935.77
   2   8   212714.30 1352.10
   2   8   212685.00 1191.22
  -2   8  -212152.30  956.82
  -2   8   212740.50 1063.31
   2  -8   212180.90 1327.22
   2   8  -213996.10 1468.84
   2   8  -212755.40  908.05
  -2   8   213281.70 1514.62
  -2   8  -333504.10 2878.34
  -2  -8   329825.00 1897.80
   2   8   332191.50 2751.40
   2   8   330070.80 2021.43
   2  -8   332191.50 2675.99
  -2   8   334245.70 3046.09
  -2   8   331090.10 2192.17
   2   8  -334962.30 2391.98
   2   8  -329113.60 1883.34
   2   8   4 6667.48  652.56
  -2  -8   4 7221.39  499.64
   2   8   4 7613.40  644.17
   2  -8  -4 5113.92  553.36
  -2   8  -4 8067.07 1091.68
  -2   8   4 8669.20 1176.51
  -2   8   4 7336.16  614.67
   2  -8   4 7919.29 1001.76
   2   8  -4 9431.83 1153.85
   2   8  -4 7019.01  525.92
   2  -8  -529413.50 2066.00
  -2   8  -539456.70 3529.54
  -2  -8   536609.30 2168.80
   2   8   538756.20 3150.82
   2   8   538723.10 2767.58
   2  -8   540125.60 3233.08
  -2   8   536392.60 2646.87
   2   8  -532806.80 2040.30
   2   8  -543591.20 3026.79
  -2   8   539027.40 2444.57
   2  -8  -6 4221.36  448.76
   2   8   6 5553.76  603.44
  -2  -8   6 4962.41  391.83
  -2  -8   6 5837.26  432.98
   2   8   6 4929.71  746.75
  -2   8  -6 5756.42  974.69
  -2   8   6 4607.46  350.64
   2   8  -6 7910.88 1036.78
  -2   8   6 6410.34  936.44
   2   8   711158.20 1345.83
  -2  -8   711021.90  667.00
  -2  -8   711623.00  662.49
   2   8   712170.30  868.88
  -2   8  -712040.30 1484.31
   2  -8  -7 7793.72  576.19
   2  -8   712367.50 1208.32
  -2   8   710257.80  900.32
  -2   8   711341.10  696.86
   2   8  -713397.20 1027.50
   2   8   8  732.16  285.66
  -2  -8   8 1376.02  120.29
  -2  -8   8  775.04  107.53
  -2   8  -8  717.48  331.15
  -2   8   8 1131.73  482.22
   2  -8   8 1279.52  446.85
  -2   8   8  793.78  117.67
   2   8  -8  942.83  296.90
   2   8   924753.50 2051.89
   2   8   925221.70 2485.28
  -2  -8   921981.30 1144.34
  -2  -8   920975.90 1071.99
  -2   8  -925321.10 2016.42
   2  -8   924432.40 1697.37
   2   8  -928708.90 2601.99
  -2   8   926900.50 2415.64
  -2   8 -10 8064.44 1267.16
   2   8  10 8094.07 1246.08
  -2  -8  10 7554.41  471.67
   2   8  10 7026.55  616.31
  -2  -8  10 7327.04  439.67
  -2   8  10 9085.44 1160.82
   2  -8  10 8490.45  704.25
   2   8 -10 8814.75  803.95
   2   8  11 9578.50  908.73
  -2  -8  11 8122.07  473.44
  -2  -8  11 9003.74  521.89
   2   8  11 9846.14  729.29
  -2   8 -11 9444.77 1363.35
   2  -8  11 9466.50 1154.39
  -2   8  11 8504.88 1208.58
   2   8 -1110225.30  923.28
  -2   8 -1214843.60 1390.16
   2   8  1216078.20 1412.35
  -2  -8  1214317.50  831.72
   2   8  1214674.20 1382.22
  -2  -8  1214904.60  844.15
   2  -8  1215109.80 1172.64
   2   8 -1215302.20 1843.38
  -2   8  1215495.00 1672.67
  -2   8 -13 3527.82  538.17
   2   8  13 1676.09  524.26
  -2  -8  13 3126.46  232.87
  -2  -8  13 2799.48  256.91
   2   8  13 2092.84  513.44
  -2   8  13 3423.64  453.26
   2   8 -13 3809.82  843.20
   2  -8  13 2783.83  713.92
   2   8  1418495.60 1661.60
   2   8  1416566.50 1604.01
  -2  -8  1416546.50  961.88
  -2   8 -1417769.30 2279.57
  -2   8  1418802.50 2049.64
   2  -8  1419416.60 1936.33
   2   8 -1419111.20 1654.94
  -2   8 -15 2820.69  593.26
   2   8  15 2239.90  570.34
  -2  -8  15 3210.50  281.46
   2   8  15 2007.12  560.37
   2  -8  15 3594.45  750.13
   2   8 -15 2855.77  556.23
  -2   8  15 3813.04  529.44
  -2   8 -1616931.30 2287.33
   2   8  1616400.40 1682.49
   2   8  1615226.20 1538.08
  -2  -8  1618351.90 1311.23
  -2   8  1620164.30 2133.91
   2   8 -1618554.30 2306.45
   2  -8  1617577.10 1430.60
  -2   8 -17 9504.24 1076.79
   2   8  17 8601.88 1050.93
  -2  -8  17 7996.29  619.57
   2   8  17 8130.61  996.96
   2   8 -1710162.20 1560.20
   2  -8  17 8873.14 1288.69
  -2   8  1710156.90  978.68
  -2   8 -18 2694.03  942.85
   2   8  18 1947.30  563.79
   2   8  18 2867.57  959.37
  -2   8  18 2925.15  815.99
   2   8 -18 2562.36  922.35
   2  -8  18 3159.16  762.23
   2   8  1912688.60 1448.44
   2   8  1916918.10 2317.92
  -2   8 -1913913.10 1471.88
   2  -8  1915964.80 1362.67
   2   8 -1918069.30 1726.96
  -2   8  1915831.60 2010.42
  -2   8 -20   13.60  430.95
   2   8  20   93.68  140.01
   2   8  20 -309.36  449.27
   2  -8  20   20.13  201.67
  -2   8  20  464.26  374.39
   2   8 -20  801.17  279.88
  -2   8 -21 6145.97  919.20
   2   8  21 8028.36 1010.35
   2  -8  21 6284.37 1208.36
  -2   8  21 6542.13  838.64
   2   8 -21 5978.54  927.76
  -2   8 -22  109.08  829.93
   2   8  22 1342.82  543.67
  -2   8  22 1954.76  449.78
   2   8 -22 2117.34  852.34
   2  -8  22 1031.89  684.39
  -2   8 -23 8549.89 1191.73
   2   8  23 9446.47 1978.32
   2   8 -2311455.40 1753.77
   2  -8  23 8933.67 1558.76
  -2   8  23 9289.44 1080.07
  -2   8 -24  -71.45 1531.96
   2   8  24 5761.26 1063.38
  -2   8  24 6589.28  885.43
   2  -8  24 7763.35 1346.08
   2   8 -24 7881.82 1477.71
  -2   8 -25 3589.40  988.11
   2   8  25 7632.02 1138.09
  -2   8  25 6296.49  911.47
   2   8 -25 6523.42 1479.96
   2  -8  25 5736.14 1343.51
   2   8  26 2003.80 1378.97
  -2   8 -26 2835.34 1308.67
  -2   8  26 3778.36 1174.25
   2  -8  26 4107.83 1119.94
  -2   8 -27  463.23  831.44
   2   8  27 1064.79  546.38
   2  -8  27  939.25  749.55
  -2   8  27 1162.66  769.87
  -2   8 -28 -345.17  607.98
   2   8  28 4416.83 1071.61
  -2   8  28 3560.80  919.09
   2  -8  28  -80.51  884.74
  -2   9   053138.30 4323.44
   2   9   052454.60 3974.42
   2   9   056119.90 4843.81
  -2   9  -136017.20 2597.36
   2   9   135789.40 2646.13
   2   9   137596.90 2907.12
  -2   9   137365.80 3036.86
   2   9  -137960.50 2716.81
   2   9  -141794.40 3517.42
  -2   9  -222979.10 2064.69
   2   9   219888.70 1465.78
   2   9   220424.20 1390.34
   2  -9   222679.80 2053.62
  -2   9   221481.50 1704.82
  -2   9   220602.70 1604.81
   2   9  -221399.00 1591.44
   2   9  -220696.40 1446.18
  -2   9  -338991.10 3532.33
   2   9   340556.50 3326.74
   2   9   338735.60 3319.15
   2  -9   342042.90 3457.67
  -2   9   340966.60 3721.75
  -2   9   339593.70 2897.44
   2   9  -336117.90 2485.89
   2   9  -342532.90 3775.80
  -2   9  -415448.00 1704.23
   2   9   416284.70 1586.10
   2   9   414513.70 1098.62
   2  -9   415680.20 1578.94
  -2   9   415578.10 1778.74
  -2   9   416203.80 1182.72
   2   9  -414261.40 1016.34
   2   9  -416869.40 1822.42
  -2   9  -514466.60 1568.93
   2  -9  -5 7835.16  695.39
   2   9   511025.80  975.51
   2   9   511985.40  908.09
  -2  -9   511545.50  731.59
   2  -9   513499.40 1387.42
  -2   9   511861.30  839.99
  -2   9   512733.00 1061.11
   2   9  -511899.70  814.87
   2   9  -514170.40 1110.09
  -2   9  -639597.80 3736.35
   2  -9  -631134.20 2295.21
   2   9   635401.70 2542.58
  -2  -9   641198.90 2662.29
  -2  -9   634356.50 2149.44
   2   9   639340.00 3523.14
   2  -9   639531.20 3313.32
  -2   9   641067.40 3677.19
  -2   9   636648.40 2514.19
   2   9  -643563.80 3779.86
  -2   9  -7 9987.52 1362.12
   2  -9  -7 5989.76  418.49
  -2  -9   7 7953.58  569.03
   2   9   7 8915.01  967.94
  -2  -9   7 8607.39  593.00
   2   9   7 9194.91 1257.21
   2  -9   7 8010.35  706.33
  -2   9   710881.50 1287.49
  -2   9   7 7693.29  473.26
   2   9  -710578.50 1301.23
  -2   9  -8 8727.75  906.93
  -2  -9   8 8026.31  476.97
   2   9   8 9267.33  883.88
   2   9   8 9460.58  978.46
  -2  -9   8 7696.32  454.70
   2  -9   8 9429.60  708.36
  -2   9   8 7128.32  470.92
  -2   9   8 9172.44 1200.18
   2   9  -8 9044.49  850.39
  -2   9  -9 8625.67  907.43
   2   9   9 8429.03  934.03
  -2  -9   9 9417.21  586.33
  -2  -9   9 8460.76  500.67
   2   9   9 9964.56 1339.36
   2  -9   9 9222.71  761.06
  -2   9   9 8855.17  829.55
   2   9  -9 9802.67  900.23
  -2   9 -10 3708.88  881.50
   2   9  10 3173.88  613.47
  -2  -9  10 4104.31  329.95
  -2  -9  10 3493.01  319.84
   2   9  10 3525.53  544.36
   2  -9  10 3436.45  754.18
  -2   9  10 3732.40  507.84
   2   9 -10 3583.06  870.23
  -2   9 -1117187.40 2056.15
  -2  -9  1114136.90  821.16
   2   9  1116781.80 1457.58
  -2  -9  1114775.70  781.50
   2   9  1116505.50 1165.57
   2  -9  1115796.80 1692.38
  -2   9  1117019.80 1876.37
   2   9 -1117867.90 2036.35
  -2   9 -1215733.70 1515.00
  -2  -9  1215214.70  825.25
  -2  -9  1214159.40  867.17
   2   9  1215184.10 1451.10
   2   9  1217523.50 2051.46
   2  -9  1215531.30 1218.31
  -2   9  1219649.60 2018.48
   2   9 -1216534.10 1987.22
  -2   9 -1311350.00 1646.14
  -2  -9  1310205.30  581.80
   2   9  1310535.00 1593.67
   2   9  1310419.90 1121.04
   2  -9  1310942.00 1334.61
  -2   9  13 8748.82  955.11
   2   9 -1312327.40 1159.65
  -2   9 -1414772.20 1492.33
   2   9  1414144.90 1438.31
   2   9  1415487.00 2087.74
  -2  -9  1415028.10  890.19
   2  -9  1416172.20 1292.04
  -2   9  1417193.90 1418.25
   2   9 -1417610.10 1605.28
  -2   9 -1520695.50 1986.23
  -2  -9  1521214.40 1439.55
   2   9  1523782.70 2777.25
   2   9  1521263.70 1958.45
   2  -9  1524780.60 2406.69
  -2   9  1523807.60 2516.42
   2   9 -1523038.90 2028.45
  -2   9 -16 7523.47 1501.54
  -2  -9  16 7179.94  535.48
   2   9  16 8921.11 1504.57
   2   9  16 6612.01  904.82
   2  -9  16 7984.17 1175.94
  -2   9  16 8812.35 1379.04
   2   9 -16 9466.64 1581.52
  -2   9 -1712308.70 1367.71
   2   9  1711774.40 1257.59
   2   9  1712593.50 1997.84
   2  -9  1713089.50 1138.90
  -2   9  1712733.60 1268.41
   2   9 -1715005.30 2061.80
  -2   9 -18 2735.13  815.24
   2   9  18  786.06  433.19
   2   9  18 2206.19  819.91
   2  -9  18 1205.88  643.55
  -2   9  18 2093.94  724.94
   2   9 -18 2171.79  821.07
  -2   9 -19 5781.93  916.02
   2   9  19 5731.48  927.26
   2   9  19 4967.02  816.12
   2  -9  19 6714.61 1167.43
  -2   9  19 7467.09 1308.16
   2   9 -19 9073.91 1553.86
  -2   9 -20 -194.26  907.80
   2   9  20 2517.48  587.94
   2  -9  20 1430.39  438.66
  -2   9  20 2867.58  516.22
   2   9 -20 3368.53  984.42
  -2   9 -21   39.76  524.17
   2   9  21 2117.63  570.95
   2  -9  21 2053.21  433.96
  -2   9  21 2408.32  501.29
   2   9 -21 2409.93  908.31
  -2   9 -22 -134.85  947.07
   2   9  22 1724.73 1018.13
   2  -9  22 2073.70  792.75
  -2   9  22 2498.56  548.03
   2   9 -22 2760.70  600.80
  -2   9 -23 -117.33  609.82
   2   9  23 2616.27 1096.27
   2  -9  23 2419.10  848.49
  -2   9  23 3048.11  576.53
   2   9 -23 3525.73  615.01
  -2   9 -24   26.36 1094.88
   2   9  24 2337.22  724.68
   2  -9  24 2394.10  938.23
  -2   9  24 3155.24  617.16
   2   9 -24 2999.69  665.72
  -2   9 -25  -42.71 1466.21
   2   9  25 5252.48 1599.81
   2  -9  25 5231.57 1244.92
  -2   9  25 5408.82  860.62
   2   9 -25 6008.35  899.87
  -2   9 -26 4639.98  936.76
   2   9  26 4140.16 1616.61
  -2   9  26 5807.69  909.72
   2   9 -26 3756.40  900.95
   2  -9  26 4894.99 1294.33
   2   9  27 8629.08 1335.97
  -2   9 -27 4525.28 1809.06
   2  -9  27 6839.00 1022.21
  -2   9  27 7012.95 1128.47
  -2   9 -28 3745.26  942.43
   2   9  28 4502.77 1689.51
   2  -9  28 4856.16  851.37
  -2   9  28 3029.25 1459.67
  -2  10   0  863.47  348.82
   2  10   0  384.58  245.69
   2  10   0 1272.23  323.78
  -2  10  -115438.40 1220.82
   2  10   116435.80 1290.14
   2  10   118447.40 1562.84
   2 -10   118497.60 2015.44
  -2  10   117529.10 1573.62
   2  10  -121234.50 1982.72
   2  10  -117724.40 1389.09
  -2  10  -2 9816.56 1211.56
   2  10   2 9802.63  746.49
   2  10   210539.40 1188.30
   2 -10   210670.40 1282.00
  -2  10   2 9567.23  919.53
  -2  10   2 7455.73  857.73
   2  10  -2 9306.53  844.15
   2  10  -211073.00 1333.53
  -2  10  -321897.60 2143.54
   2  10   322757.00 1997.74
   2  10   322208.50 2004.06
   2 -10   320776.50 1953.22
  -2  10   324612.10 2384.20
  -2  10   317196.90 1188.89
   2  10  -324685.90 2318.06
   2  10  -317023.90 1060.50
  -2  10  -435541.10 3235.26
   2  10   434043.30 2994.20
   2  10   435266.90 2964.19
   2 -10   437958.70 3126.62
  -2  10   431330.70 2470.32
  -2  10   429053.70 2145.08
   2  10  -432055.20 2239.72
   2  10  -434671.70 2556.34
  -2  10  -5 2550.62  594.86
   2  10   5 1264.74  481.63
   2  10   5 1291.98  314.41
   2 -10   5 1699.06  514.34
  -2  10   5 1148.19  259.82
  -2  10   5 1204.44  648.32
   2  10  -5 1421.96  284.69
   2  10  -5 1407.98  343.77
  -2  10  -633868.40 2680.63
   2 -10  -623442.80 1668.98
  -2 -10   640328.90 2581.86
   2  10   634057.60 3103.68
   2  10   637520.00 3032.32
   2 -10   635398.30 3020.38
  -2  10   633598.20 2139.35
  -2  10   634201.30 2621.82
   2  10  -635662.80 2638.99
  -2  10  -7 1762.58  407.43
   2  10   7 1754.95  562.66
   2  10   7 1617.50  436.63
  -2 -10   7  971.97  199.44
   2 -10   7 1529.50  309.66
  -2  10   7 1865.81  360.52
  -2  10   7 1228.95  250.71
   2  10  -7 2148.67  628.48
  -2  10  -835213.30 2824.22
   2  10   835121.40 2869.32
   2  10   832353.70 2574.67
  -2 -10   834140.50 2019.77
  -2 -10   829892.30 2031.06
   2 -10   834840.70 2430.78
  -2  10   836110.50 2752.06
  -2  10   833038.40 2025.70
   2  10  -840809.30 3637.01
  -2  10  -9 6637.65 1190.68
  -2 -10   9 5702.08  373.12
   2  10   9 5064.89 1070.85
  -2 -10   9 6051.15  513.99
   2  10   9 5860.85  772.28
   2 -10   9 7070.32  987.51
  -2  10   9 5927.54  687.60
  -2  10   9 4884.95  317.34
   2  10  -9 7184.68 1140.28
  -2  10 -1019243.90 2250.78
  -2 -10  1016547.20 1018.72
   2  10  1016773.40 1518.01
   2  10  1018098.70 1598.32
  -2 -10  1018173.90 1016.75
   2 -10  1020330.90 1892.08
  -2  10  1017629.10 1489.11
   2  10 -1022022.00 2314.28
  -2  10 -11 5777.08  774.58
  -2 -10  11 5917.64  386.34
   2  10  11 5859.57  753.40
   2  10  11 7263.19 1184.04
   2 -10  11 5791.35  626.85
  -2  10  11 6202.67  724.33
   2  10 -11 7636.86  806.57
  -2  10 -12 6312.98 1251.66
   2  10  12 5686.68  506.96
  -2 -10  12 6085.37  394.33
   2  10  12 6476.95 1232.70
   2 -10  12 7004.15  998.13
  -2  10  12 7300.00 1150.74
   2  10 -12 6319.10  793.40
  -2  10 -1315685.40 1573.11
   2  10  1317047.60 1579.48
  -2 -10  1317519.50 1130.14
   2  10  1315537.00 1523.50
   2 -10  1317570.00 1881.74
  -2  10  1319649.30 2145.77
   2  10 -1316395.60 1574.02
  -2  10 -14 1135.37  407.10
   2  10  14 1148.44  387.00
  -2 -10  14 1127.04  176.44
   2  10  14 1096.07  388.13
   2 -10  14 1322.48  524.12
  -2  10  14 1170.06  356.60
   2  10 -14  926.26  404.86
  -2  10 -15 5726.25 1437.20
   2  10  15 7790.06  963.09
  -2 -10  15 7730.33  649.38
   2  10  15 7508.12  921.69
   2 -10  15 8662.56 1233.10
  -2  10  15 7097.25 1315.37
   2  10 -15 8300.05 1515.04
  -2  10 -1611879.20 1316.51
   2  10  1610848.10 1183.86
   2  10  1612011.70 1241.37
   2 -10  1611740.30 1482.56
  -2  10  1610725.50 1101.39
   2  10 -1611984.00 1932.65
  -2  10 -17 8105.35 1637.54
   2  10  17 7042.79  947.34
   2  10  17 8516.56 1106.66
   2 -10  17 7824.40  821.10
  -2  10  17 9095.20 1476.82
   2  10 -17 9137.44 1683.31
  -2  10 -1813149.10 1552.69
   2  10  1812289.90 1369.21
   2  10  1813068.30 1528.73
   2 -10  1815621.70 1824.05
  -2  10  1817279.10 2137.87
   2  10 -1815957.60 2339.91
  -2  10 -19 1173.59  918.04
   2  10  19 1930.54  569.47
   2 -10  19 2044.48  754.09
  -2  10  19 2127.64  537.54
   2  10 -19 1340.18  987.96
  -2  10 -2023722.80 2406.67
   2  10  2023879.20 3275.52
   2 -10  2022947.10 1985.74
  -2  10  2024775.50 2295.27
   2  10 -2027792.50 3588.99
  -2  10 -21  148.80  503.73
   2  10  21  194.02  526.92
   2 -10  21  286.10  227.69
  -2  10  21   96.55  447.44
   2  10 -21  144.16  518.86
  -2  10 -2211472.40 1413.21
   2  10  2211544.50 2277.76
   2 -10  2212776.80 1789.93
  -2  10  2211195.80 1988.10
   2  10 -2214211.30 2324.77
  -2  10 -23 -108.71  763.22
   2  10  23 1094.02  494.27
   2 -10  23 1065.82  622.71
  -2  10  23  686.38  733.55
   2  10 -23 1369.46  744.09
  -2  10 -2411009.10 1462.37
   2  10  2411266.80 1584.20
   2 -10  2411502.10 1882.01
  -2  10  2412819.30 2116.62
   2  10 -2413447.30 2266.31
  -2  10 -25 2817.18 1453.33
   2  10  25 4785.11 1511.27
   2 -10  25 4713.46 1168.71
  -2  10  25 3963.45 1319.51
   2  10 -25 4355.97 1394.74
  -2  10 -26  310.46  831.46
   2  10  26  972.80  893.29
   2 -10  26  817.97  404.08
  -2  10  26  844.72  800.75
   2  10 -26 1697.20  836.69
  -2  10 -27 2502.01  662.03
   2  10  27 3025.37  724.30
   2 -10  27  -35.23  573.89
  -2  10  27 2302.06  640.69
  -2  11   030523.10 2778.69
   2 -11   044399.40 4174.33
   2  11   034099.00 3202.81
   2  11   031562.40 2628.83
  -2  11  -123274.20 1817.16
   2  11   127006.90 2283.03
   2  11   129672.20 2676.02
  -2  11   125538.10 2213.38
   2  11  -126588.00 2099.88
   2  11  -129347.40 2730.13
  -2  11  -233218.50 2419.02
   2  11   230122.40 2123.49
   2  11   233630.60 2987.90
  -2  11   232179.10 2495.02
  -2  11   229743.50 2414.42
   2  11  -230075.10 2308.15
   2  11  -236214.30 3233.78
  -2  11  -311481.50  992.91
   2  11   313772.80 1394.23
   2  11   313446.30 1375.92
   2 -11   3 9982.80  921.93
  -2  11   312913.40 1634.82
  -2  11   312737.00 1081.37
   2  11  -312211.30 1077.52
   2  11  -310133.90  682.80
  -2  11  -415998.50 1251.19
   2  11   412791.70 1055.76
   2  11   415394.00 1495.09
   2 -11   412755.40 1047.67
  -2  11   413586.60 1113.62
  -2  11   412708.30 1200.49
   2  11  -414905.50 1195.55
   2  11  -413692.80 1099.51
  -2  11  -5 8479.44  885.68
   2  11   5 7976.96  757.35
   2  11   5 8425.35 1054.80
   2 -11   5 8014.78 1118.00
  -2  11   5 7941.71  713.81
  -2  11   5 8952.53  880.58
   2  11  -5 8775.15  766.39
   2  11  -5 8765.91  845.70
  -2  11  -6 4810.69  640.92
   2  11   6 4993.19  575.75
  -2 -11   6 3747.18  546.30
   2  11   6 5933.71  784.53
   2 -11   6 6594.89  885.07
  -2  11   6 4792.60  454.45
  -2  11   6 6017.58 1034.35
   2  11  -6 5087.46  641.04
  -2  11  -710459.70 1454.57
   2  11   7 9908.19 1331.93
   2  11   710465.60 1122.71
  -2 -11   7 9900.58  685.75
   2 -11   710976.90 1298.13
  -2  11   7 8977.51  646.07
  -2  11   711313.00 1454.01
   2  11  -710655.50 1007.83
  -2  11  -817799.60 2047.42
  -2 -11   814826.30  931.51
   2  11   816008.20 1872.60
   2  11   815548.50 1528.13
   2 -11   815395.90 1190.96
  -2  11   819376.10 2044.46
  -2  11   813518.50  820.59
   2  11  -817360.60 1451.70
  -2  11  -910452.10 1047.85
   2  11   9 9880.70  971.60
  -2 -11   9 8929.40  587.72
   2  11   9 7826.56  720.15
   2 -11   9 9723.52 1165.31
  -2  11   9 7399.32  500.24
  -2  11   9 9790.12 1352.45
   2  11  -9 9503.21  986.10
  -2  11 -1018556.20 1654.57
   2  11  1016842.10 1547.33
   2  11  1016008.00 2001.54
  -2 -11  1016267.50  970.30
   2 -11  1017830.80 1781.93
  -2  11  1018493.90 2081.08
   2  11 -1018754.20 2242.32
  -2  11 -11 8912.78 1446.28
   2  11  11 8572.87 1364.87
  -2 -11  11 7529.51  513.25
   2  11  11 8030.99  913.17
   2 -11  11 8725.32  776.52
  -2  11  11 8198.98 1397.89
   2  11 -1110368.80 1500.12
  -2  11 -1219249.90 1806.03
  -2 -11  1220412.50 1191.43
   2  11  1219664.70 1783.21
   2  11  1218181.60 1716.70
   2 -11  1221302.30 2132.58
  -2  11  1221194.00 1829.66
   2  11 -1221459.80 2638.94
  -2  11 -1313509.00 2073.06
   2  11  1312753.80 1308.77
  -2 -11  1313256.20  836.67
   2  11  1314668.50 2034.06
   2 -11  1315286.50 1696.75
  -2  11  1314209.60 1908.61
   2  11 -1316273.30 2167.38
  -2  11 -1413583.40 2115.38
  -2 -11  1414357.40  889.77
   2  11  1413162.50 1343.48
   2  11  1414020.30 2012.11
   2 -11  1416244.60 1752.79
  -2  11  1413453.30 1331.28
   2  11 -1414981.10 2179.60
  -2  11 -15 8715.34 1153.46
   2  11  1510141.60 1711.42
   2  11  15 9076.25 1013.84
   2 -11  1511711.60  992.60
  -2  11  15 9757.98 1575.40
   2  11 -1511081.10 1860.55
  -2  11 -1619922.30 2655.15
   2  11  1615992.50 1585.07
   2  11  1617998.50 2521.57
   2 -11  1619407.10 2078.24
  -2  11  1618126.40 1756.63
   2  11 -1620541.70 2730.26
  -2  11 -1710243.30 1246.40
   2  11  17 8232.31 1800.78
   2  11  17 8676.01 1028.24
   2 -11  1711105.30 1003.35
  -2  11  1710231.80 1654.63
   2  11 -17 9663.20 1872.29
  -2  11 -1816797.70 2517.55
   2  11  1815785.70 2436.50
   2 -11  1815063.30 1901.47
  -2  11  1816070.30 1608.06
   2  11 -1817812.30 2563.40
  -2  11 -19 3424.07  766.90
   2  11  19 3013.84 1216.67
   2 -11  19 3984.66  944.28
  -2  11  19 4293.97  703.15
   2  11 -19 4103.22 1333.29
  -2  11 -20 3237.88 1319.53
   2  11  20 3424.91 1300.79
   2 -11  20 4526.52  662.52
  -2  11  20 5241.74 1229.66
   2  11 -20 4298.28 1457.03
  -2  11 -21 5486.66  918.88
   2  11  21 5526.08 1480.97
   2 -11  21 4667.42 1111.55
  -2  11  21 4961.76 1332.77
   2  11 -21 4982.72 1589.08
  -2  11 -22 4923.51 1475.79
   2  11  22 5475.91  927.99
   2 -11  22 4508.14 1096.46
  -2  11  22 4111.52 1387.76
   2  11 -22 3992.66 1511.05
  -2  11 -23  152.88  626.45
   2  11  23 2761.76  662.97
   2 -11  23 3142.04  833.37
  -2  11  23 2212.10  978.07
   2  11 -23 2876.01 1105.28
  -2  11 -24 2228.93 1303.82
   2  11  24 3568.92  849.58
   2 -11  24 3237.62 1020.75
  -2  11  24 3326.65 1195.41
   2  11 -24 3230.63 1289.70
   2  11  25    7.08  953.09
  -2  11 -25 1279.53  555.81
   2 -11  25 1354.18  438.67
  -2  11  25  525.58  857.78
   2  11 -25 1981.42  919.39
  -2  11 -26 2522.41 1380.30
   2  11  26 3103.77 1410.66
   2 -11  26 4357.33  705.38
  -2  11  26  554.61 1294.01
   2  11 -26 2370.84 1335.78
  -2  11 -27 2646.23 1144.23
   2  11  27 2389.55  720.84
   2 -11  27   15.41  933.75
  -2  11  27 1806.92 1042.59
   2  11 -27 1615.41 1134.17
  -2  12   036121.40 3169.58
   2 -12   037439.90 4185.06
   2  12   032843.60 2297.55
   2  12   038924.60 2911.90
  -2  12  -1 8616.65 1153.66
   2  12   1 9871.19  736.39
   2  12   111540.90  918.03
   2 -12   1 5686.03  840.33
  -2  12   1 8564.79  716.20
   2  12  -1 8566.04  651.21
   2  12  -1 9467.29  878.35
  -2  12  -217223.80 1822.56
   2  12   216821.10 1342.44
   2  12   216531.40 1642.06
   2 -12   220809.30 2061.18
  -2  12   216755.90 1489.18
  -2  12   216002.70 1506.77
   2  12  -218680.90 1465.50
   2  12  -216889.80 1423.22
  -2  12  -3 5583.97  983.02
   2  12   3 6051.91  615.84
   2  12   3 4354.65  555.10
   2 -12   3 6499.39  639.84
  -2  12   3 6132.74  718.25
  -2  12   3 6221.90  746.51
   2  12  -3 6522.80  742.30
   2  12  -3 6382.38  694.52
  -2  12  -4 5349.03  976.33
   2  12   4 4585.58  821.78
   2  12   4 4325.04  547.71
   2 -12   4 5795.88  916.37
  -2  12   4 6300.37 1084.05
  -2  12   4 4202.75  595.36
   2  12  -4 4694.82  618.02
   2  12  -4 5506.72  643.88
  -2  12  -523913.30 2435.87
   2  12   523115.60 2134.64
   2  12   522091.40 2247.92
   2 -12   521036.00 1628.09
  -2  12   521807.40 1630.90
  -2  12   521428.70 1821.03
   2  12  -524706.60 1911.99
   2  12  -521610.40 1653.77
  -2  12  -6 2181.10  763.16
  -2 -12   6 2273.53  463.01
   2  12   6 2204.06  444.82
   2  12   6 2130.16  573.26
   2 -12   6 2994.15  400.20
  -2  12   6 2258.53  336.80
  -2  12   6 2571.96  499.36
   2  12  -6 2248.65  479.84
  -2  12  -727052.10 2313.05
   2  12   727289.20 2181.87
  -2 -12   727410.20 1802.32
   2  12   729985.10 2594.30
   2 -12   728325.70 2593.29
  -2  12   725983.10 1761.05
  -2  12   726336.40 2228.27
   2  12  -730329.00 2363.49
  -2  12  -8 6015.97  804.43
  -2 -12   8 5948.88  512.57
   2  12   8 6652.61 1127.34
   2  12   8 6251.78  588.65
   2 -12   8 6028.13 1006.04
  -2  12   8 7042.78  781.38
  -2  12   8 5470.24  536.65
   2  12  -8 7259.32  816.46
  -2  12  -938269.50 3928.59
   2  12   938350.40 3153.79
  -2 -12   937212.20 2357.97
   2  12   938182.70 3754.41
   2 -12   934716.60 2593.97
  -2  12   928833.60 1839.91
  -2  12   939017.80 3128.65
   2  12  -943071.40 3409.19
  -2  12 -10 4932.85 1282.76
   2  12  10 6595.59  855.94
  -2 -12  10 5811.43  462.10
   2  12  10 6858.39 1233.93
   2 -12  10 7313.61 1015.14
  -2  12  10 6186.22  752.16
   2  12 -10 6818.07 1318.50
  -2  12 -1117934.50 1733.98
  -2 -12  1117590.20 1077.36
   2  12  1116897.10 1532.89
   2  12  1116878.30 1605.11
   2 -12  1115905.90 1302.66
  -2  12  1117650.50 2166.34
   2  12 -1118567.80 2370.81
  -2  12 -1214702.60 2147.43
   2  12  1214965.30 2065.75
   2  12  1216157.30 1535.22
  -2 -12  1214326.00  929.12
   2 -12  1216451.70 1832.59
  -2  12  1216953.50 2129.34
   2  12 -1214476.10 2178.37
  -2  12 -13  632.56  329.23
  -2 -12  13  586.19  159.15
   2  12  13  646.05  315.66
   2  12  13  434.64  310.23
   2 -12  13  643.34  432.00
  -2  12  13  532.26  313.32
   2  12 -13  391.13  601.39
  -2  12 -14 4471.64  834.03
  -2 -12  14 5675.68  449.67
   2  12  14 5646.64  782.76
   2  12  14 4066.01  720.54
   2 -12  14 5293.54 1001.44
  -2  12  14 5529.46 1209.47
   2  12 -14 5783.70 1357.32
  -2  12 -15 3891.35 1144.35
   2  12  15 2735.57  371.61
   2  12  15 5132.45  683.98
   2 -12  15 3767.89  898.90
  -2  12  15 4473.51  684.29
   2  12 -15 4004.20 1212.76
  -2  12 -16 3865.32  779.52
   2  12  16 5710.19 1250.54
   2  12  16 2701.12  633.34
   2 -12  16 4955.11  974.91
  -2  12  16 5331.27 1164.19
   2  12 -16 7605.17 1324.84
  -2  12 -17 5886.40 1525.09
   2  12  17 5724.59 1460.26
   2 -12  17 7752.53  799.14
  -2  12  17 5887.31 1374.34
   2  12 -17 6452.51 1594.74
  -2  12 -18 3137.07  714.19
   2  12  18 2821.89 1068.68
   2 -12  18 2679.55  852.27
  -2  12  18 2983.96  654.60
   2  12 -18 3916.53 1174.96
  -2  12 -1919554.70 2960.89
   2  12  1919552.30 2805.21
   2 -12  1917902.00 2216.43
  -2  12  1919859.40 2695.73
   2  12 -1922200.60 3256.49
  -2  12 -20 1943.85  709.62
   2  12  20 3199.00 1121.49
   2 -12  20 3301.23  550.48
  -2  12  20 2824.39 1061.97
   2  12 -20 3418.94 1291.19
  -2  12 -2123265.50 3461.28
   2  12  2121574.40 2407.72
   2 -12  2123664.10 2793.13
  -2  12  2124788.40 3134.86
   2  12 -2125239.50 3766.83
  -2  12 -22  270.58  390.15
   2  12  22  338.48  366.39
   2 -12  22  548.76  475.21
  -2  12  22  668.41  584.06
   2  12 -22  350.76  676.30
  -2  12 -23 6063.07 1994.89
   2  12  23 8182.74 1271.05
   2 -12  23 8920.11 1537.07
  -2  12  23 9260.44 1237.42
   2  12 -2311281.30 2176.77
  -2  12 -24  812.11  550.55
   2  12  24  732.21  916.97
   2 -12  24 1371.32  419.73
  -2  12  24 1386.24  515.53
   2  12 -24  672.38  909.88
  -2  12 -25 3282.55 1381.23
   2  12  25  878.63 1355.33
   2 -12  25 4505.90 1096.18
  -2  12  25 3354.01  785.56
   2  12 -25 3014.51  841.36
  -2  12 -26 1511.26 1190.04
   2  12  26 2891.83 1271.02
   2 -12  26  607.58  911.68
  -2  12  26 2382.12  687.26
   2  12 -26 2782.26  744.32
  -2  13   012576.60 1509.64
   2 -13   027628.70 2732.81
   2  13   012926.80 1749.56
   2  13   014061.90 1463.74
  -2  13  -120403.50 1588.83
   2  13   120295.10 1918.90
   2  13   123335.30 2327.09
  -2  13   120808.30 1915.51
   2  13  -121561.20 1759.12
   2  13  -120089.40 1827.46
  -2  13  -2 9628.61  887.40
   2  13   2 9078.11  829.71
   2  13   2 9357.56 1301.46
   2 -13   217964.90 1826.39
  -2  13   211128.60 1580.19
  -2  13   2 9013.40 1039.88
   2  13  -2 9056.17 1022.55
   2  13  -2 9882.92  921.92
  -2  13  -3 8933.82  878.38
   2  13   3 7686.46 1142.05
   2  13   3 9163.74 1198.26
   2 -13   310185.50 1256.15
  -2  13   3 8171.75  936.28
  -2  13   3 7160.91  891.06
   2  13  -3 8994.75  863.42
   2  13  -3 7292.40  911.10
  -2  13  -414225.30 1255.71
   2  13   413596.70 1589.04
   2  13   412804.60 1060.03
   2 -13   412683.70 1085.32
  -2  13   413792.10 1301.07
  -2  13   412260.90 1132.53
   2  13  -413587.50 1207.72
   2  13  -413461.80 1219.04
  -2  13  -5 8307.15 1379.07
   2  13   5 8669.20 1275.45
   2  13   5 7372.85  771.89
   2 -13   5 9991.38 1275.00
  -2  13   510155.40  898.10
  -2  13   510242.50 1551.62
   2  13  -5 9752.78  947.52
   2  13  -512025.30 1516.69
  -2  13  -6 9546.54 1548.46
   2  13   610894.40 1309.61
   2  13   6 8727.76 1406.77
  -2 -13   613101.00 1186.47
   2 -13   612754.40 1464.05
  -2  13   611936.90 1731.23
  -2  13   6 9839.20  883.98
   2  13  -612640.90 1678.11
  -2  13  -7 4780.54  989.93
   2  13   7 3731.08  937.46
  -2 -13   7 4081.36  462.11
   2  13   7 4588.35  746.59
   2 -13   7 3709.73  512.91
  -2  13   7 3422.85  416.95
  -2  13   7 4318.92 1082.16
   2  13  -7 2635.14 1001.15
  -2  13  -811212.90 1216.55
   2  13   8 9582.68  844.40
   2  13   811645.30 1131.05
  -2 -13   812668.40  891.86
   2 -13   812739.80 1492.50
  -2  13   812582.60 1813.97
  -2  13   811245.20  963.82
   2  13  -813647.90 1798.91
  -2  13  -918658.90 1776.50
   2  13   920218.40 1924.45
   2  13   920711.50 2389.63
  -2 -13   919860.50 1569.63
   2 -13   920164.30 1589.86
  -2  13   917585.60 1111.12
  -2  13   921944.70 2522.38
   2  13  -922516.90 2656.64
  -2  13 -10 3540.27 1046.40
   2  13  10 2858.52 1049.16
  -2 -13  10 4132.45  404.30
   2  13  10 4220.17  699.97
   2 -13  10 3173.72  804.84
  -2  13  10 3267.93  307.40
  -2  13  10 3479.25  662.39
   2  13 -10 3812.55 1106.49
  -2  13 -1113681.60 1983.47
  -2 -13  1113581.70  915.53
   2  13  1112784.50 1925.41
   2  13  1112587.10 1333.26
   2 -13  1114587.80 1703.12
  -2  13  1112784.20 1331.24
   2  13 -1113356.60 1407.74
  -2  13 -1213638.60 1451.17
   2  13  1213507.30 1421.14
  -2 -13  1213845.10  951.37
   2  13  1213380.40 1413.76
   2 -13  1213080.00 1165.44
  -2  13  1214582.70 2011.27
   2  13 -1214878.70 1545.83
  -2  13 -1317730.70 2356.38
   2  13  1315948.50 2278.63
   2  13  1314917.80 1490.39
  -2 -13  1316743.90 1110.76
   2 -13  1318707.00 2008.10
  -2  13  1314577.30 1501.71
   2  13 -1316598.00 1783.13
  -2  13 -14 4982.84  793.61
   2  13  14 4150.01 1211.13
   2  13  14 4151.13  668.09
   2 -13  14 4139.95  587.26
  -2  13  14 4851.89 1178.44
   2  13 -14 5941.61  865.96
  -2  13 -15 8775.12 1619.90
   2  13  15 7422.81  967.76
   2  13  15 6156.20  855.28
   2 -13  15 8628.03 1231.47
  -2  13  15 5674.31  911.02
   2  13 -15 8112.68 1088.87
  -2  13 -16 5839.05 1461.41
   2  13  16 6027.36  899.42
   2  13  16 4388.31  730.79
   2 -13  16 6239.50 1122.67
  -2  13  16 5004.72 1371.99
   2  13 -16 6618.24  993.70
  -2  13 -17 6036.30 1028.93
   2  13  17 6886.07 1004.67
   2 -13  17 7356.71 1221.41
  -2  13  17 7856.21  986.89
   2  13 -17 7131.52 1707.02
  -2  13 -18 7480.71 1734.03
   2  13  18 7703.35 1100.88
   2 -13  18 8284.10 1337.45
  -2  13  18 8334.43 1672.23
   2  13 -18 8552.93 1843.61
  -2  13 -19 1939.94  714.91
   2  13  19 3076.30  714.15
   2 -13  19 3413.19  544.51
  -2  13  19 2765.05 1089.66
   2  13 -19 3843.75 1312.45
  -2  13 -20 8788.89 1908.56
   2  13  20 8792.73 1259.09
   2 -13  20 8591.73 1433.34
  -2  13  20 7859.28 1732.37
  -2  13 -21 4064.80  923.09
   2  13  21 4610.63  877.76
   2 -13  21 4136.74 1084.36
  -2  13  21 5795.46  866.53
   2  13 -21 3214.56 1615.47
  -2  13 -22 1831.91 1242.06
   2  13  22 3276.70  731.69
   2 -13  22 3082.88  910.58
  -2  13  22 2216.17  700.47
   2  13 -22 3499.60 1331.51
  -2  13 -23 2120.44  898.18
   2  13  23 3285.55  879.19
   2 -13  23 4617.67  680.21
  -2  13  23 3663.53  825.90
   2  13 -23 4592.56 1524.02
  -2  13 -24 1698.20 1333.89
   2  13  24 4028.76 1383.20
   2 -13  24 3130.81 1038.28
  -2  13  24 3500.03  789.38
   2  13 -24 3033.81  838.35
  -2  13 -25 2076.17 1297.85
   2  13  25 2314.10 1331.03
   2 -13  25 2177.96 1012.35
  -2  13  25 3355.27  766.51
   2  13 -25 2556.17  805.82
  -2  13 -26  315.90  510.18
   2  13  26 1061.33  872.86
  -2  13  26  796.76  491.31
   2  13 -26  889.62  511.34
  -2  14   0 -104.22  132.08
   2  14   0  413.73  272.23
   2  14   0  280.99  222.21
  -2  14  -116511.80 1835.35
   2  14   118019.20 1341.76
   2  14   120315.40 2109.19
  -2  14   114493.00 1236.29
   2  14  -117830.50 1682.48
   2  14  -118939.10 2051.27
  -2  14  -2 9120.72 1341.77
   2  14   210238.50 1280.12
   2  14   2 9386.31  960.46
   2 -14   217980.00 1949.01
  -2  14   210248.50 1179.60
  -2  14   211653.50 1696.11
   2  14  -210415.10 1007.13
   2  14  -2 9390.96 1128.56
  -2  14  -3 6599.95 1133.87
   2  14   3 6867.90  714.87
   2  14   3 6025.29  677.46
   2 -14   3 8283.62 1170.41
  -2  14   3 6909.49 1370.28
  -2  14   3 5996.44  813.82
   2  14  -3 6324.30  887.42
   2  14  -3 6347.46  795.91
  -2  14  -412617.40 1261.12
   2  14   416266.40 1339.37
   2  14   418523.10 1841.35
   2 -14   415732.40 1306.24
  -2  14   417806.10 1554.41
  -2  14   415009.00 1405.62
   2  14  -414980.90 1104.63
   2  14  -417640.40 2051.20
  -2  14  -5  750.52  341.12
   2  14   5 1237.03  322.27
   2  14   5 1156.67  471.33
   2 -14   5  760.39  519.09
  -2  14   5  912.65  410.23
  -2  14   5  761.47  302.36
   2  14  -5 1008.79  595.95
   2  14  -5 1243.51  382.01
  -2  14  -620854.80 1861.20
   2  14   621464.60 1660.49
  -2 -14   624877.90 2108.08
   2  14   620468.10 1734.27
   2 -14   621982.60 1703.15
  -2  14   617006.30 1471.32
  -2  14   622396.60 1955.99
   2  14  -626139.10 2783.31
  -2  14  -7 4258.81 1171.58
  -2 -14   7 4308.17  637.76
   2  14   7 5135.51  854.56
   2  14   7 4618.08  680.97
   2 -14   7 6474.15 1040.33
  -2  14   7 3995.46  503.25
  -2  14   7 5954.72  779.66
   2  14  -7 5049.01 1219.41
  -2  14  -828215.50 3167.55
   2  14   827660.70 2537.73
  -2 -14   825961.40 1865.05
   2  14   825997.60 2941.54
   2 -14   825877.30 2025.06
  -2  14   825370.70 2323.39
  -2  14   825625.90 1780.67
   2  14  -828905.80 2522.07
  -2  14  -9 3970.63  706.05
   2  14   9 3185.23 1060.74
  -2 -14   9 4707.12  506.62
   2  14   9 3323.25  747.74
   2 -14   9 3878.07  929.93
  -2  14   9 3742.39 1140.53
  -2  14   9 3794.88  471.49
   2  14  -9 6216.07  778.80
  -2  14 -1030068.60 2745.84
   2  14  1031910.00 2895.47
  -2 -14  1030812.90 2126.35
   2  14  1030582.50 2673.98
   2 -14  1031424.80 2334.89
  -2  14  1032023.80 3583.36
   2  14 -1032420.20 2876.99
  -2  14 -11 7050.34 1451.01
   2  14  11 5104.83  877.88
  -2 -14  11 6848.77  586.06
   2  14  11 6824.72 1365.31
   2 -14  11 7475.05 1176.45
  -2  14  11 6572.96  941.47
   2  14 -11 7339.66 1517.03
  -2  14 -12 1798.59  499.40
   2  14  12 1405.41  456.30
   2  14  12 1594.04  792.61
  -2 -14  12 1525.49  283.88
   2 -14  12 1570.84  370.63
  -2  14  12 1483.91  454.74
   2  14 -12  797.98  878.27
  -2  14 -13 6576.47 1007.38
   2  14  13 6631.59  926.78
   2  14  13 8570.71 1018.29
   2 -14  13 9268.30 1294.00
  -2  14  13 8478.36 1528.89
   2  14 -13 8883.93 1751.53
  -2  14 -14  229.15  539.34
   2  14  14  172.15  272.82
   2  14  14  564.89  526.95
   2 -14  14  329.77  412.56
  -2  14  14  428.52  295.35
   2  14 -14  575.51  582.89
  -2  14 -15 8277.97 1149.67
   2  14  15 8437.47 1710.81
   2  14  15 7528.43  983.14
   2 -14  15 7703.17 1350.96
  -2  14  1510357.90 1680.30
   2  14 -15 9746.07 1238.27
  -2  14 -16 2744.43 1223.14
   2  14  16 2962.67 1149.91
   2 -14  16 3518.19  552.50
  -2  14  16 3745.72  688.97
   2  14 -16 3628.19  798.41
  -2  14 -17 5518.10  905.87
   2  14  17 4978.82  899.47
   2 -14  17 4390.70 1092.37
  -2  14  17 4629.62  832.71
   2  14 -17 6395.25  983.02
  -2  14 -18 6368.27 1793.29
   2  14  18 7088.00 1105.82
   2 -14  18 8191.35  874.52
  -2  14  18 6951.43 1653.34
   2  14 -18 8192.54 1196.45
  -2  14 -19 1616.78 1020.82
   2  14  19 1445.76  572.85
   2 -14  19 2530.38  741.48
  -2  14  19 1390.98  944.93
   2  14 -19 2174.91 1150.04
  -2  14 -2010548.30 2209.26
   2  14  2010372.40 1464.95
   2 -14  2011007.40 1662.80
  -2  14  2011238.20 1373.70
   2  14 -2010095.90 2422.56
  -2  14 -21  569.47  564.32
   2  14  21  183.84  323.23
   2 -14  21  406.19  406.26
  -2  14  21 -129.63  307.38
   2  14 -21  734.54  647.25
  -2  14 -2210785.40 2298.30
   2  14  2210257.00 1501.39
   2 -14  2210970.00 1210.17
  -2  14  22 9984.13 2156.64
   2  14 -2211943.80 2466.32
  -2  14 -23  394.52  524.52
   2  14  23 1248.68  868.93
   2 -14  23  872.20  642.43
  -2  14  23 1316.62  849.00
   2  14 -23 1037.24  550.99
  -2  14 -24 3744.76 1873.45
   2  14  24 2879.58 1830.27
   2 -14  24 7194.89 1406.79
  -2  14  24 5922.59 1770.12
   2  14 -24 7560.89 1202.54
  -2  14 -25  670.17  570.65
   2  14  25 1820.16 1006.47
   2 -14  25  965.96  723.31
  -2  14  25 1175.50  936.97
   2  14 -25 1116.44  583.63
  -2  15   032323.80 3134.67
   2 -15   029068.90 4077.23
   2  15   036068.70 3523.24
   2  15   036054.70 3158.35
  -2  15  -1 9044.90 1297.74
   2  15   1 9465.20  888.62
   2  15   110963.50 1034.52
   2 -15   1 7141.71 1059.08
  -2  15   1 7882.08  821.85
   2  15  -112542.90 1533.20
   2  15  -112723.70 1348.83
  -2  15  -211715.10 1612.66
   2  15   213316.10 1632.28
   2  15   214112.40 1753.38
   2 -15   215354.10 2156.91
  -2  15   211367.70 1387.94
  -2  15   213256.30 1364.44
   2  15  -214484.00 1330.22
   2  15  -213250.00 1488.63
  -2  15  -3 6364.44 1218.33
   2  15   3 7052.26 1166.03
   2  15   3 8670.85 1239.26
   2 -15   3 7775.33 1275.77
  -2  15   3 9982.98 1569.82
  -2  15   3 7532.24  949.02
   2  15  -3 9342.44 1067.63
   2  15  -3 6315.25  847.02
  -2  15  -411464.50 1610.02
   2  15   411681.40 1024.22
   2  15   412556.00 1574.91
   2 -15   413374.80 1611.80
  -2  15   4 7463.92  710.72
  -2  15   413337.00 1926.16
   2  15  -413726.30 1347.06
   2  15  -414842.20 1821.97
  -2  15  -5 9435.51 1204.36
   2  15   513217.00 1756.44
   2  15   515468.60 1668.11
   2 -15   514049.50 1223.88
  -2  15   516464.40 2154.94
  -2  15   511840.50 1135.01
   2  15  -512892.20 1352.62
   2  15  -515748.50 2036.06
  -2  15  -612784.60 1282.56
   2  15   612721.00 1685.12
   2  15   613303.60 1533.68
  -2 -15   6 6713.01 1273.36
   2 -15   614157.30 1683.85
  -2  15   612951.40 1129.60
  -2  15   611256.60 1954.88
   2  15  -612215.90 1305.94
  -2  15  -7 9470.63 1070.66
   2  15   7 9226.69 1240.55
  -2 -15   711321.80 1112.52
   2  15   7 9982.91 1533.07
   2 -15   7 9036.34  926.88
  -2  15   7 8394.01  851.77
  -2  15   712961.40 1877.75
   2  15  -7 9705.97 1166.20
  -2  15  -8 4420.70 1194.80
   2  15   8 4862.86  871.47
   2  15   8 5217.31  725.38
  -2 -15   8 4658.56  593.48
   2 -15   8 5379.12 1030.12
  -2  15   8 4761.15  656.96
  -2  15   8 6000.51 1297.40
   2  15  -8 5191.89 1272.86
  -2  15  -9 3690.97 1031.82
   2  15   9 2581.24  591.50
   2  15   9 3052.08  691.21
  -2 -15   9 3691.50  474.03
   2 -15   9 3406.84  508.70
  -2  15   9 3813.03  666.80
  -2  15   9 2422.54  353.21
   2  15  -9 3148.81 1095.21
  -2  15 -1017871.50 1880.04
   2  15  1018583.80 2446.21
   2  15  1017937.20 1884.64
  -2 -15  1020171.30 1445.33
   2 -15  1019736.40 2093.65
  -2  15  1018467.40 1807.06
   2  15 -1018363.20 2627.35
  -2  15 -11 1205.39  670.90
   2  15  11  898.25  383.75
   2  15  11  371.06  386.33
  -2 -15  11  666.04  257.85
   2 -15  11  887.76  308.70
  -2  15  11  822.83  701.74
   2  15 -11 1059.96  427.33
  -2  15 -1225492.70 3382.70
   2  15  1227910.80 3352.33
   2  15  1222204.50 1724.48
   2 -15  1229119.30 2895.55
  -2  15  1225890.30 2420.49
   2  15 -1228738.30 2703.52
  -2  15 -1310404.60 1325.91
   2  15  13 7833.15 1101.12
   2  15  13 9968.61 1833.29
   2 -15  1310618.30 1057.67
  -2  15  1310379.20 1840.75
   2  15 -1312021.40 1405.41
  -2  15 -14 6493.55 1581.45
   2  15  14 4710.92  840.24
   2  15  14 7572.97 1004.90
   2 -15  14 7923.21 1246.66
  -2  15  14 6695.68 1531.63
   2  15 -14 7047.98 1719.76
  -2  15 -15 3914.13 1393.84
   2  15  15 4166.51 1402.78
   2 -15  15 6081.01  686.12
  -2  15  15 4112.48 1345.92
   2  15 -15 3640.90 1512.84
  -2  15 -16 8017.00 1150.40
   2  15  16 7320.31 1740.39
   2 -15  16 8364.34 1395.92
  -2  15  16 7409.50 1118.09
   2  15 -16 9577.82 1942.94
  -2  15 -17 4136.88 1391.67
   2  15  17 4137.61 1365.97
   2 -15  17 4704.09 1052.28
  -2  15  17 5108.14 1307.38
   2  15 -17 3997.23  918.62
  -2  15 -18 3645.03  890.84
   2  15  18 2909.11 1377.40
   2 -15  18 5326.89  689.92
  -2  15  18 3778.67 1327.75
   2  15 -18 4195.95  949.12
  -2  15 -19 4789.35 1739.90
   2  15  19 5210.20 1656.74
   2 -15  19 7588.91 1274.63
  -2  15  19 5671.56  999.35
   2  15 -19 6757.01 1199.52
  -2  15 -20 2535.98  723.77
   2  15  20 1983.24  712.74
   2 -15  20 2736.01  858.14
  -2  15  20 2034.97 1102.18
   2  15 -20 2416.59 1316.35
  -2  15 -21  744.46 1204.79
   2  15  21 3104.26  730.89
   2 -15  21 2478.56  533.33
  -2  15  21 2986.10 1159.02
   2  15 -21 -291.75 1299.87
  -2  15 -22 3013.63  818.21
   2  15  22 3648.13 1347.96
   2 -15  22 2884.51  982.57
  -2  15  22 2328.24 1304.56
   2  15 -22 3430.64 1460.70
  -2  15 -23  355.63  894.53
   2  15  23 1080.00  894.89
   2 -15  23  993.49  657.66
  -2  15  23  669.70  849.51
   2  15 -23 1072.30  989.40
  -2  15 -24 1590.37  802.62
   2  15  24  640.86 1338.87
   2 -15  24 2431.25  604.28
  -2  15  24 2833.16 1286.29
   2  15 -24 4086.09  854.89
  -2  16   018417.50 2066.16
   2 -16   0 9681.52 2700.50
   2  16   022085.60 2164.22
   2  16   024205.40 2488.27
   2 -16  -1 1025.53  755.45
  -2  16  -1 2205.80  756.53
   2  16   1 3570.45  509.53
   2  16   1 2833.80  775.76
  -2  16   1 2929.94  704.54
   2  16  -1 3373.83  887.13
   2  16  -1 3341.82  735.32
  -2  16  -214062.50 1842.22
   2  16   215824.60 1331.20
   2  16   215501.20 1841.74
  -2  16   211899.10 1123.92
   2  16  -214623.00 1644.12
  -2  16   216186.10 1539.18
   2 -16   212229.80 2178.28
   2  16  -215948.40 1485.97
  -2  16  -3 7716.52 1340.86
   2  16   3 8791.60 1322.48
   2  16   3 7504.47  818.00
  -2  16   3 8566.75 1045.47
  -2  16   310431.80 1133.44
   2 -16   3 8226.43  914.46
   2  16  -313513.50 1652.65
   2  16  -3 7900.76  779.41
  -2  16  -4 6301.99 1222.83
   2  16   4 6655.24 1189.49
   2  16   4 5389.82 1128.51
   2 -16   4 7231.89 1215.23
  -2  16   4 5207.81  871.74
  -2  16   4 6059.69  906.15
   2  16  -4 6889.55  983.86
   2  16  -4 7566.88 1410.82
  -2  16  -525275.60 3084.85
   2  16   525732.80 2867.16
   2  16   529486.00 2950.61
  -2  16   524431.80 2261.37
   2 -16   528101.50 2217.85
  -2  16   525123.20 2493.79
   2  16  -530302.00 2607.51
  -2  16  -6 1978.25  458.78
   2  16   6 1555.43  585.96
   2  16   6 1228.17  720.61
  -2 -16   6  579.78  600.16
  -2  16   6 2144.20  502.56
  -2  16   6  999.27  381.53
   2 -16   6 1907.08  688.64
   2  16  -6 1451.92  488.09
  -2  16  -721167.80 2024.49
  -2 -16   717875.30 1821.45
   2  16   723927.60 2402.68
   2  16   719496.10 1826.26
   2 -16   723489.50 1837.93
  -2  16   723433.10 2133.79
  -2  16   717931.70 1568.38
   2  16  -722311.40 2868.60
  -2  16  -8 3104.31 1092.37
   2  16   8 2581.97  605.26
   2  16   8 2530.98  754.12
  -2 -16   8 3736.03  548.83
  -2  16   8 3729.87 1173.24
   2 -16   8 4377.69  949.29
  -2  16   8 3140.36  454.11
   2  16  -8 3905.56 1158.78
  -2  16  -9 7658.00 1533.69
   2  16   9 7908.09 1419.17
  -2 -16   9 7519.81  775.72
   2  16   9 5895.85 1047.67
  -2  16   9 8754.76 1642.17
   2 -16   9 7204.37 1252.25
   2  16  -9 7891.13 1061.08
  -2  16 -10 2427.27  623.33
   2  16  10 2308.18  564.59
   2  16  10 1440.65  641.08
  -2 -16  10 2667.25  279.52
   2 -16  10 3480.93  493.93
  -2  16  10 2396.21  638.10
   2  16 -10 2918.10  652.19
  -2  16 -11 8412.06 1216.34
   2  16  11 8202.10 1157.47
  -2 -16  11 9151.98  861.88
   2  16  11 9374.55 1724.57
   2 -16  1110587.50 1460.42
  -2  16  11 9041.72 1188.00
   2  16 -1110786.20 1942.35
  -2  16 -1215381.00 2341.43
   2  16  1212450.50 1522.40
   2  16  1212779.90 1537.85
   2 -16  1215784.70 1368.38
  -2  16  1214409.60 2303.81
   2  16 -1216196.10 2565.13
  -2  16 -13 4744.37  854.24
   2  16  13 3807.95  744.35
   2  16  13 4255.77 1287.13
   2 -16  13 5069.94 1037.51
  -2  16  13 4753.87  818.49
   2  16 -13 4404.20 1442.82
  -2  16 -1415608.00 1777.71
   2  16  1414704.70 2411.75
   2 -16  1415917.60 1413.40
  -2  16  1413735.50 2309.89
   2  16 -1416776.80 1867.17
  -2  16 -15  817.12  894.01
   2  16  15 1497.30  534.91
   2 -16  15 1596.89  682.90
  -2  16  15 1377.95  516.32
   2  16 -15 1598.46  592.42
  -2  16 -16 5098.68  840.36
   2  16  16 4213.49 1312.26
   2 -16  16 3789.20  634.94
  -2  16  16 2926.15 1285.70
   2  16 -16 3842.52 1455.50
  -2  16 -17 4038.52 1348.68
   2  16  17 4058.54 1337.99
   2 -16  17 4335.27  635.40
  -2  16  17 2150.78 1266.35
   2  16 -17 4370.67 1492.19
  -2  16 -18 1688.65  674.80
   2  16  18 2857.41 1118.10
   2 -16  18 2515.56  838.53
  -2  16  18 2407.17  667.67
   2  16 -18 2024.69 1218.71
  -2  16 -1913467.80 2701.38
   2  16  1917400.70 2770.39
  -2  16  1915543.70 2644.85
   2 -16  1915507.90 1490.08
   2  16 -1915532.00 2067.84
  -2  16 -20 1224.65  582.52
   2  16  20 1146.33  963.99
   2 -16  20 1213.25  708.01
  -2  16  20 1108.42  950.10
   2  16 -20 1497.20  676.35
  -2  16 -21 6081.42 2179.62
   2  16  21 6648.71 2099.89
  -2  16  21 9403.13 2039.92
   2 -16  21 9916.22 1623.71
   2  16 -2110708.70 2335.31
  -2  16 -22  352.68  306.10
   2  16  22   36.86  485.37
  -2  16  22  131.91  293.28
   2 -16  22  -73.22  362.13
   2  16 -22 -465.76  555.51
  -2  16 -23 4734.18 1975.40
   2  16  23 3277.35 1958.08
   2 -16  23 6872.66  948.27
  -2  16  23 7317.55 1207.91
   2  16 -23 6852.50 2148.26
   2 -17   013966.10 1863.57
   2  17   017353.30 1611.94
  -2  17   017600.70 2064.79
   2  17   018015.10 1480.36
  -2  17  -114106.00 1955.40
   2  17   119005.40 2266.99
   2  17   115876.00 1973.98
   2 -17   119214.80 1906.19
  -2  17   115953.50 1909.37
   2  17  -117031.00 2010.25
   2  17  -116900.90 2320.24
  -2  17  -2 5088.64 1231.50
   2  17   2 8220.65 1321.93
   2  17   2 6535.33  779.40
   2 -17   219217.40 1870.71
  -2  17   2 4926.72  672.11
   2  17  -2 7658.42  959.88
   2  17  -2 7056.77  731.62
  -2  17  -311066.80 1743.67
   2  17   312066.30 1174.88
   2  17   311847.20 1144.53
  -2  17   311661.10 1391.79
  -2  17   313425.80 2105.00
   2 -17   313312.00 1798.92
   2  17  -311969.10 1928.10
   2  17  -311914.20 1545.51
  -2  17  -4 2434.72  874.76
   2  17   4 3191.53  774.02
   2  17   4 2276.34  511.13
   2 -17   4 2044.32  892.26
  -2  17   4 3162.81  643.09
  -2  17   4 2262.44 1080.88
   2  17  -4 2688.39  717.66
   2  17  -4 3504.88  952.54
  -2  17  -5 8725.43 1579.02
   2  17   5 8300.40  899.28
   2  17   5 8633.07  998.32
   2 -17   510597.10 1000.67
  -2  17   5 7270.66 1026.33
  -2  17   510860.70 1865.54
   2  17  -5 9896.49 1191.91
  -2  17  -6 4449.54  747.26
   2  17   6 5482.90  985.82
   2  17   6 5920.59  731.77
  -2  17   6 5114.76 1376.53
  -2  17   6 3660.58  443.16
   2 -17   6 5485.59 1100.38
   2  17  -6 5681.53 1331.10
  -2  17  -7 3848.93  742.70
   2  17   7 4191.12  686.56
   2  17   7 3551.12  849.03
  -2 -17   7 2674.28  731.52
  -2  17   7 4349.37  593.30
  -2  17   7 4557.39 1272.24
   2 -17   7 4993.57 1012.14
   2  17  -7 4374.98 1232.97
  -2  17  -8 4282.01 1202.44
   2  17   8 2837.48 1113.65
   2  17   8 3298.31  879.10
  -2 -17   8 4629.18  637.26
   2 -17   8 4859.78  635.32
  -2  17   8 4167.18  799.97
   2  17  -8 4003.11  773.93
  -2  17  -9 4191.89 1281.99
   2  17   9 1803.93  873.70
   2  17   9 5102.46 1227.29
  -2 -17   9 4865.88  426.19
  -2  17   9 5766.77  872.19
   2 -17   9 6289.78 1091.77
   2  17  -9 4799.42 1356.52
  -2  17 -10 1933.18  893.33
   2  17  10 1605.20  504.69
   2  17  10  819.87  552.70
  -2 -17  10 1651.82  384.67
   2 -17  10 2143.44  435.58
  -2  17  10 1613.73  927.36
   2  17 -10 1599.29  943.71
  -2  17 -1115781.80 1706.47
   2  17  1113892.60 1660.72
   2  17  1113985.70 2290.42
   2 -17  1116228.40 1900.05
  -2  17  1115632.20 1735.04
   2  17 -1115417.50 1738.37
  -2  17 -12 4399.76 1368.95
   2  17  12 3566.04  776.92
   2  17  12 2806.52  767.39
  -2  17  12 5106.34  830.37
   2 -17  12 4924.40 1050.11
   2  17 -12 5267.89  903.15
  -2  17 -1310544.80 2045.15
   2  17  13 9654.07 1332.60
  -2  17  1310902.40 2019.72
   2 -17  1310804.80 1099.51
   2  17 -1310728.60 2236.30
  -2  17 -1413338.00 1733.81
   2  17  1412277.50 2304.49
   2 -17  1413656.00 1960.51
  -2  17  1414948.30 1704.75
   2  17 -1414948.00 2663.10
  -2  17 -1510711.70 2064.09
   2  17  1510339.20 1325.79
   2 -17  15 9514.47 1024.40
  -2  17  1510591.50 2056.13
   2  17 -1510130.20 1434.66
  -2  17 -16 2477.02  750.52
   2  17  16 2454.29  737.40
   2 -17  16 2618.23  911.99
   2  17 -16 4281.05  812.75
  -2  17  16 3050.99 1200.66
  -2  17 -17 9888.59 2105.46
   2  17  17 9325.08 2028.53
   2 -17  17 9969.80 1600.80
  -2  17  17 8899.04 1309.50
   2  17 -17 8780.90 2195.69
  -2  17 -18 9259.58 1821.11
   2  17  18 4657.61 1731.23
   2 -17  18 6957.63  872.16
  -2  17  18 6228.95 1688.65
   2  17 -18 4725.30 1957.80
  -2  17 -19 3263.27  852.36
   2  17  19 3566.38 1300.92
   2 -17  19 2520.07 1006.18
  -2  17  19 2279.42 1291.47
   2  17 -19 3920.15 1554.04
  -2  17 -20 4231.38 1781.35
   2  17  20 4904.08 1711.62
   2 -17  20 5756.22 1304.88
  -2  17  20 6313.83 1763.54
   2  17 -20 7073.31 1282.89
  -2  17 -21  871.06  559.53
   2  17  21  602.29  886.21
  -2  17  21 1039.04  545.50
   2 -17  21 1078.68  410.39
   2  17 -21  715.06  608.97
  -2  17 -22 2012.34 1335.01
   2  17  22 1802.58 1279.75
  -2  17  22 2452.50  769.25
   2 -17  22 2608.52  941.59
   2  17 -22 2470.15 1468.32
  -2  18   0  163.52  299.14
   2  18   0   18.36  201.07
   2  18   0  217.60  316.11
   2 -18  -1 2689.95 1020.49
  -2  18  -1 6356.54 1205.77
   2  18   1 9391.39 1343.18
   2  18   1 8206.02 1260.63
  -2  18   1 8600.35 1164.97
   2 -18   1  469.39 1390.63
   2  18  -1 8584.39 1406.29
   2  18  -1 7822.02 1201.15
  -2  18  -2 1407.39  831.22
   2  18   2 2283.13  853.10
   2  18   2 2998.95  868.57
   2 -18   2 7710.94 1026.00
  -2  18   2 2405.89  427.35
   2  18  -2 2052.66  483.96
   2  18  -2 2717.02  593.29
  -2  18  -3 3388.48 1038.53
   2  18   3 4297.16  627.44
   2  18   3 3546.74 1004.15
   2 -18   3 4084.50 1096.71
  -2  18   3 5019.63 1302.85
   2  18  -3 3625.45  897.56
  -2  18   3 4117.57  813.88
   2  18  -3 2886.88 1192.47
   2  18   4 8329.43  958.07
  -2  18  -4 8216.93 1592.96
   2  18   4 8055.25 1003.04
  -2  18   410456.90 1240.78
   2 -18   410251.00 1585.22
  -2  18   4 8721.70 1219.69
   2  18  -410630.50 1260.76
   2  18  -4 8818.86 1308.50
  -2  18  -5 5390.55 1292.87
   2  18   5 4017.76 1052.13
   2  18   5 4355.15  745.98
   2 -18   5 5901.42  750.34
  -2  18   5 4639.86  821.24
  -2  18   5 5420.71  894.49
   2  18  -5 5062.26 1408.92
  -2  18  -616287.30 1642.13
   2  18   615450.30 1372.71
   2  18   616599.30 1582.33
  -2 -18   6 6724.09 1773.61
   2 -18   615880.20 1501.73
  -2  18   618158.00 1830.87
  -2  18   616794.40 1603.42
   2  18  -618098.50 2573.67
   2  18   7  912.65  500.19
   2  18   7  725.30  621.02
  -2 -18   7  126.11  393.64
  -2  18  -7 1583.63  407.49
  -2  18   7  620.83  453.90
   2 -18   7 1208.22  592.08
   2  18  -7  879.16  461.93
   2  18   8 7864.50 1533.84
  -2  18  -8 7609.45 1634.75
   2  18   8 6248.62 1127.02
  -2 -18   8 8864.75  967.51
   2 -18   8 8175.02  902.03
  -2  18   8 5607.56 1752.72
   2  18  -8 9037.82 1793.22
  -2  18  -9  821.65  678.34
   2  18   9  474.61  261.18
   2  18   9  690.38  389.51
  -2 -18   9  868.17  330.89
   2 -18   9  948.14  556.12
  -2  18   9  868.15  738.33
   2  18  -9  749.93  748.15
  -2  18 -10 4944.24 1488.41
   2  18  10 4552.24 1364.78
   2  18  10 3952.65  921.62
   2 -18  10 7353.16 1207.27
  -2  18  10 5732.28  956.23
   2  18 -10 5807.88  972.25
  -2  18 -11 5426.76  983.22
   2  18  11 5252.07  902.96
   2  18  11 3351.10  910.51
   2 -18  11 6771.38  760.46
  -2  18  11 6433.27 1599.82
   2  18 -11 7416.31 1688.73
  -2  18 -12 5888.93 1504.68
   2  18  12 5757.62 1435.69
   2  18  12 1522.29  879.48
  -2  18  12 6025.20  973.63
   2 -18  12 7111.99 1185.80
   2  18 -12 7126.19 1636.67
  -2  18 -1313335.30 2435.09
   2  18  1312837.60 1565.43
   2 -18  1313262.30 1941.17
  -2  18  1315326.10 2413.57
   2  18 -1314531.00 1804.65
  -2  18 -14  251.25  350.73
   2  18  14  308.13  589.66
   2 -18  14  622.78  276.15
   2  18 -14  396.24  399.60
  -2  18  14  -55.78  363.36
  -2  18 -15 6153.99 1727.36
   2  18  15 6325.22 1661.29
  -2  18  15 5748.69 1747.49
   2 -18  15 7561.83 1323.03
   2  18 -15 5128.90 1859.15
  -2  18 -16 3074.57  781.05
   2  18  16 3145.44  757.74
  -2  18  16 2813.58  799.16
   2  18 -16 2514.98 1413.21
   2 -18  16 3062.29  578.15
  -2  18 -17 2630.35 1365.86
   2  18  17 2888.45  794.02
  -2  18  17 4573.59 1373.14
   2 -18  17 4070.00 1059.67
   2  18 -17 3586.93  905.75
  -2  18 -18 6127.80 1855.21
   2  18  18 7218.74 1753.13
   2 -18  18 8068.90 1429.76
  -2  18  18 1810.43 1832.33
   2  18 -18 7967.24 1370.97
  -2  18 -19 1052.48  697.81
   2  18  19 2974.51 1147.50
   2 -18  19 2790.29  528.87
  -2  18  19 1611.23  703.16
   2  18 -19  925.83 1385.72
  -2  18 -2013036.80 2662.81
   2  18  2012334.20 2593.00
   2 -18  2011534.00 1987.92
  -2  18  2012410.40 1726.45
   2  18 -2015105.60 3064.02
  -2  18 -21 1743.41  657.96
   2  18  21 1001.46 1051.50
  -2  18  21  809.63 1036.56
   2  18 -21 1164.59  698.94
   2  19   0 1729.03  815.97
   2 -19   0 9977.89 1347.37
  -2  19   0 1301.71  760.98
   2  19   0 1756.34  522.11
   2 -19  -110682.60 1945.63
  -2  19  -1 6925.64 1226.41
   2  19   1 5835.19 1328.09
   2  19   1 6686.89 1287.25
   2 -19   1 1291.67 1422.34
  -2  19   1 4552.82  702.08
   2  19  -1 7391.83 1386.56
   2  19  -1 6985.87 1225.70
   2  19   2 6036.30  868.77
  -2  19  -2 7670.53 1391.35
   2  19   2 7317.61 1389.00
   2 -19   2 8626.81 1480.45
  -2  19   2 6249.41 1153.88
   2  19  -2 6589.40 1303.88
   2  19  -2 6563.09 1025.99
  -2  19  -3 5258.30 1267.17
   2  19   3 5651.36  788.26
   2  19   3 4127.74 1231.86
   2  19  -3 4576.63 1137.24
   2 -19   3 5460.67 1341.21
  -2  19   3 6386.80 1034.63
   2  19  -3 6568.52 1458.76
  -2  19   3 6481.51  969.84
  -2  19  -4 7229.55 1513.25
   2  19   4 8360.73  974.36
   2  19   4 6516.97  877.08
  -2  19   4 8466.20 1153.84
   2 -19   4 8463.74 1530.93
  -2  19   4 9479.23 1844.89
   2  19  -4 7870.57  867.71
   2  19  -4 6725.19 1112.90
  -2  19  -510580.90 1379.82
   2  19   514931.00 1537.46
   2  19   516361.50 2036.82
  -2  19   510932.00 1477.69
   2 -19   515233.70 1432.24
  -2  19   514411.20 2503.10
   2  19  -516885.80 2477.55
  -2  19  -6 3793.24  623.22
   2  19   6 2057.12  787.37
   2  19   6 2010.48  907.43
  -2 -19   6   24.00  752.40
  -2  19   6 2548.90 1164.19
   2 -19   6 2496.30  542.66
  -2  19   6 1866.54  357.21
   2  19  -6 3138.01  669.82
  -2  19  -7 8579.00 1126.00
   2  19   7 7034.36  879.93
   2  19   7 8160.64 1625.09
  -2 -19   7 9785.04 1124.42
   2 -19   7 7972.37 1484.19
  -2  19   7 8991.12 1921.87
   2  19  -710397.60 1905.53
   2  19   8 6256.83 1137.93
  -2  19  -8 6143.06 1485.87
   2  19   8 4605.56 1379.01
  -2 -19   8 6972.44  889.17
   2  19  -8 5620.84 1619.81
   2 -19   8 6555.21  838.61
  -2  19   8 5606.87 1026.27
  -2  19  -9 2599.61 1093.93
   2  19   9 1858.68  614.53
   2 -19   9 3117.32  543.55
  -2  19   9 2971.77 1173.53
   2  19  -9 2509.20  711.04
   2  19  10 1945.34 1031.90
  -2  19 -10 2518.16  692.08
   2  19  10 1774.55  695.59
  -2  19  10 3974.90 1208.21
   2 -19  10 3558.01  910.94
   2  19 -10 3122.53 1241.36
   2  19  11 1998.29  697.47
  -2  19 -11 2984.63  746.76
   2  19  11 3453.50  731.51
  -2  19  11 2976.68  768.92
   2 -19  11 3289.12  939.33
   2  19 -11 3347.85 1322.32
  -2  19 -12 2324.20 1298.48
   2  19  12 2864.03 1250.31
   2 -19  12 4420.50  614.05
  -2  19  12 3377.47 1375.35
   2  19 -12 2740.45  848.67
  -2  19 -13 5929.98 1809.34
   2  19  13 7329.76 1124.29
   2 -19  13 8500.95 1485.00
  -2  19  13 8455.54 1257.07
   2  19 -13 5771.32 1969.55
  -2  19 -1413738.00 1810.59
   2  19  1413015.50 1706.05
   2 -19  1415611.70 1515.94
  -2  19  1416952.80 2832.02
   2  19 -1415299.70 2783.03
   2  19  15 1164.91 1605.11
  -2  19 -15 4179.64 1627.66
   2 -19  15 7216.33  859.12
  -2  19  15 5659.71 1051.95
   2  19 -15 4957.63 1103.91
  -2  19 -16 5279.83  992.47
   2  19  16 3531.83  909.35
   2 -19  16 4543.66 1189.92
   2  19 -16 4848.51 1739.88
  -2  19  16 4777.43  969.51
   2  19  17 2376.71  663.98
  -2  19 -17 1669.67 1132.97
   2 -19  17 1599.69  534.46
  -2  19  17 2155.42 1170.40
   2  19 -17 2791.83 1243.65
  -2  19 -18 3861.85 1578.20
   2  19  18 2557.14  942.68
   2 -19  18 4781.43  755.00
  -2  19  18 4084.08  969.63
   2  19 -18 5660.33 1140.33
  -2  19 -19 6418.75 1249.96
   2  19  19 6204.86 1870.53
   2 -19  19 6456.21 1457.67
  -2  19  19 5562.87 1229.54
   2  19 -19 9331.71 1455.31
  -2  19 -20  644.28 1113.73
   2  19  20 2153.35 1068.18
   2 -19  20 1678.53  823.59
  -2  19  20 2444.16 1131.59
   2  19 -20 -210.31 1235.04
   2 -20   0 1304.15  972.57
  -2  20   0 1032.58  411.38
   2  20   0 2037.84  781.92
   2  20   0 2159.98  513.18
  -2  20  -1 1074.05  386.53
   2 -20  -1 4938.66 1124.78
   2  20   1  627.74  710.44
   2  20   1 1498.25  682.69
  -2  20   1  869.88  352.53
   2 -20   1  998.40  510.03
   2  20  -1  618.20  385.27
   2  20  -1 1272.03  760.96
   2 -20  -2 5122.55 1065.09
  -2  20  -2 4910.84  706.24
   2  20   2 4309.70  715.81
   2  20   2 5908.91 1172.90
  -2  20   2 5652.57  994.40
   2 -20   2 5345.14 1237.06
   2  20  -2 4640.16 1137.40
   2  20  -2 5311.31 1351.53
   2 -20   2 1154.54  699.96
  -2  20  -3 4470.09  832.03
   2  20   3 6768.34 1316.66
   2  20   3 5115.59  845.38
   2 -20   3 7864.58 1404.57
  -2  20   3 5633.12 1095.20
   2  20  -3 6129.46  791.04
   2  20  -3 6663.57 1582.34
   2  20   4 4488.34 1172.09
   2  20   4 5045.12  791.02
  -2  20  -4 4284.60  776.28
   2 -20   4 5658.64  785.31
  -2  20   4 3420.55  559.43
  -2  20   4 6433.86 1559.19
   2  20  -4 3943.23 1516.34
  -2  20  -517680.40 1907.16
   2  20   515054.00 1631.51
   2  20   518492.50 2560.02
  -2  20   518719.20 2038.76
  -2  20   520704.30 2241.31
   2 -20   519851.20 1814.29
   2  20  -520417.30 3024.89
  -2  20  -6 1301.39  525.88
   2  20   6 1771.20  694.86
   2  20   6  768.22  818.56
   2 -20   6 1706.28  796.34
  -2  20   6 1179.75  624.93
   2  20  -6 1370.94  603.30
   2  20   722879.90 3042.59
  -2  20  -721651.40 3097.75
   2  20   720138.30 2541.83
  -2 -20   721894.30 1683.47
   2 -20   724551.10 2876.12
   2  20  -720721.30 3288.98
  -2  20   721675.00 3445.20
  -2  20  -8  -83.69  885.96
   2  20   8 1879.51  389.52
   2  20   8 1004.88  510.03
  -2  20   8 1462.62 1038.88
   2  20  -8 1765.50  609.24
   2 -20   8 1060.68  765.56
  -2  20  -912575.90 2360.13
   2  20   912552.90 1755.55
   2  20   912964.70 2197.91
   2 -20   913590.80 1377.96
  -2  20   912414.20 1645.28
   2  20  -913303.30 2561.55
  -2  20 -10 6497.39 1009.12
   2  20  10 3119.33 1033.42
   2  20  10 4958.61 1444.51
  -2  20  10 4040.02 1635.07
   2 -20  10 5288.28 1265.11
   2  20 -10 6639.31 1070.09
  -2  20 -11 6670.61 1228.42
   2  20  11 8286.60 1161.74
  -2  20  11 8734.53 2031.14
   2 -20  11 8210.69 1466.76
   2  20 -11 9884.54 1362.75
  -2  20 -12 1103.12 1127.72
   2  20  12 2250.12 1056.34
   2  20 -12  997.51 1257.17
   2 -20  12 2385.43  522.50
  -2  20  12 3145.65  717.08
  -2  20 -13 -690.27  286.32
   2  20  13  317.52  481.87
  -2  20  13  181.66  511.45
   2 -20  13 -118.81  379.26
   2  20 -13  267.13  309.23
  -2  20 -14 8106.47 1295.14
   2  20  14 8109.73 1236.92
  -2  20  14 7325.47 2015.70
   2 -20  14 7486.63 1541.72
   2  20 -14 6950.72 2093.30
  -2  20 -15  -42.99  624.44
   2  20  15  263.74  615.27
   2  20 -15 -205.37  683.24
   2 -20  15  248.46  291.71
  -2  20  15  662.98  388.18
  -2  20 -16 6512.82 1163.05
   2  20  16 5941.73 1773.46
   2 -20  16 5137.41 1357.27
  -2  20  16 4957.63 1809.06
   2  20 -16 6814.95 1262.21
  -2  20 -17 4304.02 1639.85
   2  20  17 3490.51 1004.57
  -2  20  17 4500.36 1001.60
   2 -20  17 5138.74 1274.01
   2  20 -17 5562.73 1904.83
  -2  20 -18 2424.84 1364.57
   2  20  18 2445.57  829.59
  -2  20  18 3061.07  835.78
   2 -20  18 2787.81  636.21
   2  20 -18 2937.09 1598.49
  -2  20 -19 4053.05 1198.73
   2  20  19 6844.78 1878.68
   2 -20  19 6309.86  924.45
   2  20 -19 7930.17 1426.91
  -2  20  19 4465.23 1904.15
  -2  21   0 7919.21 1401.42
   2 -21   0 5996.83 1120.16
   2  21   0 8195.20 1701.09
   2  21   0 7705.80 1538.38
  -2  21  -1 5067.45  812.84
   2 -21  -110717.90 1380.75
   2  21   1 5318.86 1342.39
   2  21   1 3861.95 1449.99
  -2  21   1 4372.48 1205.97
   2  21  -1 4438.57  826.53
   2  21  -1 3810.28  936.63
   2 -21   110890.30 1159.99
  -2  21  -2 6424.93  985.97
   2  21   2 8775.57 1605.94
   2  21   2 8083.80 1040.32
   2 -21   2 7736.92 1051.71
   2 -21   2 4630.14  943.22
  -2  21   2 6471.53 1318.39
   2  21  -2 7611.21 1789.06
   2  21  -2 8500.65 1510.15
   2  21   310768.50 2173.37
   2  21   313542.40 1520.78
  -2  21  -315126.70 1603.83
   2 -21   313117.20 1467.92
  -2  21   313591.50 1864.96
   2  21  -313978.30 1739.49
   2  21  -314553.60 2075.11
  -2  21  -416536.00 1830.00
   2  21   416776.90 2482.21
   2  21   417371.80 1860.30
  -2  21   414333.70 1968.74
   2  21  -417170.60 2875.90
   2 -21   419261.10 1853.41
  -2  21   418416.50 2157.79
  -2  21  -5 6555.03  938.66
   2  21   5 4978.06 1426.71
   2  21   5 4699.77  839.68
   2  21  -5 5017.62  983.28
   2 -21   5 5995.59  884.61
  -2  21   5 7225.52 1777.97
  -2  21  -6 7829.24 1694.40
   2  21   6 7394.16 1460.10
   2  21   6 6314.83 1674.56
  -2 -21   6 7851.16 1395.27
  -2  21   6 8387.27 1960.41
   2 -21   6 7758.63 1553.16
   2  21  -6 9527.18 2013.99
  -2  21  -7 3741.41 1379.51
   2  21   7 5149.72 1085.30
   2  21   7 2488.73 1252.69
  -2 -21   7 2322.02  931.37
   2 -21   7 6446.55 1234.45
   2  21  -7 4026.48  951.86
  -2  21   7 5427.49  934.98
   2  21   8 6516.31 1047.16
  -2  21  -8 6411.26 1713.41
   2  21   8 6851.62 1298.46
   2 -21   8 7386.44 1432.19
  -2  21   8 6617.54 1163.01
   2  21  -8 6193.38 1890.54
  -2  21  -9 3975.50  890.13
   2  21   9 3773.36 1399.88
   2  21   9 3719.55 1003.23
  -2  21   9 4595.71 1580.52
   2 -21   9 4933.56  742.43
   2  21  -9 4859.09  990.41
   2  21  10 5724.65 1541.34
  -2  21 -10 5689.32 1019.16
   2 -21  10 4633.10 1281.97
   2  21 -10 5013.22 1088.85
  -2  21  10 5059.25 1055.04
  -2  21 -1110228.00 2313.44
   2  21  1111568.80 2174.74
   2 -21  1111709.00 1896.12
  -2  21  1111230.80 2370.24
   2  21 -1110220.70 2427.50
  -2  21 -12 3708.68 1446.14
   2  21  12 3644.44 1347.26
   2 -21  12 3342.49 1101.80
  -2  21  12 3739.60  912.10
   2  21 -12 4549.81 1002.04
  -2  21 -13 7550.69 1197.02
   2  21  13 4701.70 1720.81
   2 -21  13 6213.83  911.97
  -2  21  13 6159.88 1893.61
   2  21 -13 5637.11 1930.10
  -2  21 -14 4748.75 1683.28
   2  21  14 3470.71  966.84
  -2  21  14 4911.45 1071.99
   2 -21  14 5349.87 1275.18
   2  21 -14 5898.42 1128.00
  -2  21 -1511987.40 2559.15
   2  21  1511962.00 2492.24
  -2  21  1511680.00 2643.24
   2 -21  1513134.80 2065.45
   2  21 -1512451.80 1808.38
  -2  21 -16 3100.05  994.41
   2  21  16 3415.56 1561.22
  -2  21  16 3580.79  988.37
   2  21 -16 3745.86 1725.16
   2 -21  16 4972.91  753.99
  -2  21 -17 1949.71 1284.81
   2  21  17 2232.56  771.15
   2 -21  17 2121.97  961.81
  -2  21  17 1844.31  815.08
   2  21 -17 2836.28  907.16
   2 -22   010862.20 1357.18
   2  22   0 1193.23 1084.54
  -2  22   0 1198.87  887.38
   2  22   0  141.90  948.91
   2 -22  -1 4983.97 2243.34
  -2  22  -1 7255.69 1503.86
   2  22   1 8053.41 1619.02
   2  22   1 8517.54 1681.51
   2 -22   1 1257.76 1722.15
   2  22  -1 6472.15 1111.35
   2  22  -1 8417.22 1591.90
  -2  22   1 8162.35 1424.73
  -2  22  -2 3461.59 1207.25
   2 -22  -2 1910.18 1937.71
   2  22   2 3200.04  780.92
   2  22   2 4308.52  808.33
   2 -22   2 4519.67  774.54
   2 -22   2 7834.70 1357.57
   2  22  -2 3955.37 1405.91
  -2  22   2 3282.46 1036.76
   2  22  -2 3314.98  705.28
  -2  22  -3 6027.27 1520.13
   2 -22  -310982.30 1549.31
   2  22   3 5730.17 1539.41
   2  22   3 5840.89 1022.63
  -2  22   3 5154.83 1210.99
   2  22  -3 5655.90 1121.37
   2 -22   3 6895.71  983.15
  -2  22  -423551.90 3149.81
   2  22   419075.70 2137.74
   2  22   422041.40 3034.87
   2 -22   421984.20 2972.02
   2  22  -419945.40 3346.12
  -2  22  -5 3496.27 1613.52
   2  22   5 5189.76 1555.46
   2  22   5 5452.45  853.79
  -2  22   5 7646.55 1185.39
   2 -22   5 5974.89 1499.51
   2  22  -5 4970.79 1105.16
  -2  22  -614672.80 2455.26
   2  22   614242.70 2361.68
   2  22   610508.20 1376.24
   2 -22   615224.90 2245.03
  -2  22   613889.80 1824.26
   2  22  -615306.00 2749.72
  -2  22  -7  333.46  902.88
   2  22   7 1182.68  749.45
   2  22   7 1646.90  919.24
  -2  22   7  374.54 1052.32
   2 -22   7 1986.27  829.70
   2  22  -7 2025.87 1096.11
  -2  22  -817176.20 2122.27
   2  22   817620.60 2090.98
   2  22   819832.00 2728.53
   2 -22   820519.40 1964.76
  -2  22   819229.30 2324.97
   2  22  -820407.70 3399.25
  -2  22  -9 2833.46  798.03
   2  22   9 2256.62 1235.43
  -2  22   9 3249.25  883.43
   2 -22   9 3341.87  659.84
   2  22  -9 2717.78  895.79
  -2  22 -10 9191.71 2327.56
   2  22  1010189.20 1506.64
  -2  22  1013588.20 2612.95
   2 -22  1013950.50 2040.83
   2  22 -1012309.70 2644.78
  -2  22 -11 1643.06 1180.10
   2  22  11 2398.63 1164.29
  -2  22  11 3047.24  795.72
   2  22 -11 3310.77  806.83
   2 -22  11    4.92  989.23
  -2  22 -12 3067.88  831.19
   2  22  12 3325.96  805.93
   2 -22  12 3642.72 1034.86
  -2  22  12 2551.91 1432.09
   2  22 -12  921.77 1464.10
  -2  22 -13 3240.41  903.38
   2  22  13 1906.78 1399.18
   2 -22  13 4241.12  706.58
  -2  22  13 2897.55  939.61
   2  22 -13 3620.99  975.62
  -2  22 -14  771.86  596.68
   2  22  14  176.45  341.59
   2 -22  14   35.13  461.56
  -2  22  14 -326.57  630.46
   2  22 -14  275.29  650.79
  -2  22 -15 6043.68 1914.50
   2  22  15 6703.82 1848.33
   2 -22  15 5286.90 1494.64
  -2  22  15 6129.31 1953.83
   2  22 -15 6534.86 2055.76
  -2  22 -16  935.49  500.64
   2  22  16  539.79  806.06
   2 -22  16  594.73  383.77
  -2  22  16  210.89  526.69
   2  22 -16  582.88  572.09
   2  23   012700.70 2020.18
   2  23   015140.40 2321.89
  -2  23   013797.20 1925.46
   2 -23   0 2270.82 1413.66
  -2  23  -1 4837.30 1409.29
   2 -23  -111766.70 1292.87
   2  23   1 4549.90  951.90
   2  23   1 4133.69 1615.01
  -2  23   1 3665.23  826.89
   2 -23   114423.10 1776.79
   2  23  -1 2379.33 1479.58
   2  23  -1 4940.12 1065.16
   2 -23  -2 4751.97 1771.60
  -2  23  -211737.40 2101.79
   2  23   210632.50 1464.01
   2  23   212074.50 1484.49
   2 -23   212942.30 2202.75
   2  23  -211891.80 2045.96
   2  23  -213515.90 2472.56
  -2  23   210981.50 1832.33
   2 -23  -310419.30 1753.11
  -2  23  -3 5821.22 1605.63
   2  23   3 6856.95 1650.04
   2  23   3 5992.86 1079.77
   2 -23   3 5732.04 1681.62
   2  23  -3 6590.04 1939.54
  -2  23  -4 6980.60 1728.82
   2 -23  -4  983.57 1342.22
   2  23   4 8613.91 1167.42
   2  23   4 4721.18 1686.48
  -2 -23   410259.40 1794.50
   2 -23   4 8915.95 1665.91
   2  23  -4 7679.70 1257.58
   2  23   5 6368.12 1051.72
  -2 -23   5 9053.12 1531.33
   2  23   5 5932.45 1726.30
  -2  23  -5 6113.27 1737.29
   2 -23   5 8202.59 1660.77
   2  23  -5 5252.24 2023.54
  -2  23  -6 2361.16 1144.90
   2  23   6 1825.63 1176.67
   2  23   6 1905.23  614.18
  -2  23   6 3418.69 1371.59
   2 -23   6 3415.03 1091.67
   2  23  -6 2902.11  790.12
  -2  23  -7 5303.91  927.47
   2  23   7 5814.69 1528.84
   2  23   7 3714.75 1270.98
  -2  23   7 4744.46 1036.76
   2 -23   7 4224.06  815.09
   2  23  -7 1690.11 1711.51
   2  23   8 3179.37  778.66
  -2  23  -8 3219.87  800.21
   2 -23   8 2995.30  678.20
  -2  23   8 1732.15 1463.08
   2  23  -8 3354.18  896.23
  -2  23  -9 5458.62 1588.28
   2  23   9 2638.66 1513.09
   2 -23   9 5126.60  811.06
  -2  23   9 5022.26 1754.68
   2  23  -9 1441.47 1688.65
  -2  23 -10 2966.72 2106.80
   2  23  10 8785.25 1301.28
  -2  23  10 9525.61 1488.51
   2  23 -10 8193.74 1466.63
   2 -23  10 9802.74 1761.65
  -2  23 -11 2248.56 1088.63
   2  23  11 2286.64 1071.23
   2 -23  11 -189.25  894.98
   2  23 -11 1877.11 1233.14
  -2  23  11 2694.50 1219.31
  -2  23 -12 8611.24 1372.59
   2  23  12 7353.23 1338.67
  -2  23  12 6862.93 1420.26
   2 -23  12 7864.17 1633.06
   2  23 -12 9004.69 1491.59
  -2  23 -13 2823.28 1324.07
   2  23  13  962.06 1304.17
   2 -23  13 2584.10  632.23
  -2  23  13 2740.61 1421.23
   2  23 -13 1776.28 1431.76
  -2  23 -14 1100.94 1428.42
   2  23  14 2375.86  875.28
  -2  23  14 2609.36 1532.84
   2  23 -14 3295.57  968.75
   2 -23  14 3118.41  692.04
   2 -24   0  622.80 1131.74
   2  24   0 8702.61 1163.49
   2  24   0 9549.68 1903.07
  -2  24   0 8310.63 1050.00
  -2  24  -1  807.40  414.23
   2 -24  -1 2168.28  989.66
   2  24   1  415.13  447.63
   2  24   1  737.26  464.59
  -2  24   1   53.08  640.82
   2 -24   1 1137.74  465.08
   2  24  -1  703.87  738.55
   2  24  -1  -25.47  820.75
  -2  24  -2 2596.83  718.51
   2  24   2 3581.80  778.68
   2 -24  -2 3333.96 1989.06
   2  24   2 2524.34  759.51
   2 -24   2 3458.35 1223.36
   2  24  -2 3063.13  837.81
   2 -24  -3 2655.42 2099.46
   2  24   3 6041.85  948.48
   2  24   3 4873.21 1440.37
  -2 -24   3 1619.81  928.56
  -2  24  -3 4290.01  862.18
   2  24  -3 2980.74 1613.88
   2 -24   3 4775.71 1430.40
   2 -24  -4 2348.47 1231.81
  -2  24  -4   99.74  841.52
   2  24   4 6503.24  916.09
   2  24   4 3497.89 1396.57
  -2 -24   4 5652.40  942.26
   2 -24   4 5075.99 1358.04
   2  24  -4 4213.13 1023.44
  -2  24  -510232.00 1507.70
   2  24   511193.60 2390.64
   2  24   510238.50 2206.58
   2 -24   511599.30 1432.31
   2  24  -512445.80 2610.91
  -2  24  -6  915.51  602.08
   2  24   6 1095.55 1025.30
   2  24   6 1073.40  536.32
   2 -24   6 2341.23  556.76
   2  24  -6  417.15 1128.33
   2  24   713297.30 2698.02
  -2  24  -714431.90 2673.42
  -2  24   714432.50 2945.93
   2  24  -712814.50 1917.24
   2 -24   713402.00 1609.23
  -2  24  -8  153.58  890.28
   2  24   8 1265.35  534.11
   2 -24   8  848.58  450.82
   2  24  -8  608.56  992.16
  -2  24   8  732.77  596.34
  -2  24  -9 5609.23 1974.05
   2  24   9 1967.79 1936.58
   2 -24   9 8473.73 1710.29
   2  24  -9 9694.07 1421.90
  -2  24   9 4234.96 2159.51
  -2  24 -10  900.10 1033.60
   2  24  10 1163.09  613.68
   2 -24  10 1428.70  871.95
  -2  24  10 1635.96  700.49
   2  24 -10  852.99 1182.03
  -2  24 -11 4060.36 1118.10
   2  24  11 3338.05 1737.60
  -2  24  11 4174.18 1911.79
   2  24 -11 7443.80 1268.05
   2 -24  11 4816.47 1365.13
   2 -25   0 4780.82 1551.16
   2  25   0 -183.29 1522.85
   2  25   0 3743.19  877.60
  -2  25   0 4876.39 1267.13
  -2  25  -1 4756.53 1607.71
   2 -25  -1 2132.98 1226.52
   2  25   1 6383.44 1122.82
   2  25   1 6464.83 1098.47
   2 -25   1 7501.43 1777.25
   2  25  -1 6650.79 1929.18
  -2  25  -2  -68.72 1017.86
   2 -25  -2 4183.91  885.67
   2  25   2 -149.56  693.35
   2  25   2  620.65  665.76
   2 -25   2 2672.41  645.76
   2  25  -2 3069.74  723.66
   2 -25  -3 1374.24  886.70
  -2  25  -3  142.71  926.78
   2  25   3   32.68  974.62
   2  25   3 -108.95  611.79
  -2 -25   3 2193.86 1067.05
   2  25  -3 5551.70 1082.87
   2 -25  -4 1783.92 1720.76
   2  25   4 -109.39 1100.18
   2  25   4 3511.31  726.24
  -2  25  -4 -170.49 1099.54
   2 -25   4 2522.73  641.59
   2  25  -4 -151.71 1278.67
  -2  25  -5   24.05 1129.50
   2 -25  -5  304.55  887.98
   2  25   5 1932.86 1055.77
   2  25   5 3882.01 1181.53
   2  25  -5   68.63  765.54
   2 -25   5 3911.50  658.69
  -2  25  -6  150.29 1119.14
   2  25   6 4447.82 1171.97
   2  25  -6 -226.44 1281.83
  -2  25  -7 1888.16 1085.42
   2  25   7 2094.06 1177.53
   2 -25   7 3012.27  988.19
  -2  25   7 2518.71  741.48
   2  25  -7 -374.07  733.52
  -2  25  -8 4248.72 1625.91
   2  25   8 5305.50 1050.89
   2  25  -8 -177.36 1800.98
  -2  25   8 3966.52 1789.90
   2 -25   8 5251.64 1406.33
   2 -26   0   49.92  525.44
   2 -26   0 1619.55  516.61
   2  26   0 -163.03  902.17
   2 -26  -1 1407.56 1165.17
   2  26   1 -157.55  602.85
   2  26   1   -7.05  960.02
   2 -26   1 3914.50  946.30
   2  26  -1 1911.62 1038.72
   3   0   0   58.71  157.41
   3   0   0  300.09  246.95
   3   0  -115118.90 1502.32
   3   0   114220.90 1545.78
   3   0   113662.90  839.71
   3   0  -114700.40  998.23
   3   0   252404.40 3791.67
  -3   0   248518.20 3102.13
   3   0  -253060.90 4086.30
   3   0   252034.20 3661.20
   3   0  -246025.40 2763.96
   3   0  -3  348.92  124.97
   3   0   3  604.82  251.85
   3   0   3  199.68  362.32
  -3   0   3  407.17  174.76
   3   0  -3  202.82  269.84
   3   0  -414739.80  860.42
  -3   0  -414734.50 1127.09
   3   0  -414965.50  903.48
   3   0   413939.20 1250.90
   3   0  -415462.50 1312.40
   3   0  -5 1596.27  445.65
  -3   0  -5 2989.72  412.14
   3   0  -5 1246.45  299.64
   3   0   5 2892.93  323.96
   3   0  -5 2456.27  322.22
   3   0  -658798.20 3670.22
   3   0   656274.80 3959.10
   3   0  -654200.90 3453.92
   3   0  -662500.50 4526.67
  -3   0  -657393.70 4324.94
  -3   0  -7   72.86  180.86
   3   0  -7  215.71  172.70
   3   0  -7  204.57   90.56
   3   0   7  248.02  148.16
   3   0  -7  251.71  196.35
   3   0  -862846.00 4541.46
  -3   0  -893010.20 7827.53
   3   0  -887114.10 6059.67
   3   0  -896024.30 7041.31
   3   0   888308.10 6555.02
   3   0  -9   47.17  139.93
   3   0  -9  120.49   67.83
  -3   0   9   78.83   87.55
  -3   0  -9 -189.28  142.55
   3   0   9  -19.87  125.32
  -3   0 -1034249.60 3087.15
   3   0  1032119.60 2284.70
  -3   0  1031729.90 1933.60
   3   0 -1037523.30 2490.24
   3   0 -1030265.80 1788.96
  -3   0 -11 4192.30  574.28
  -3   0  11 4726.33  402.86
   3   0 -11 4338.04  339.38
   3   0 -11 5526.39  564.34
   3   0  11 4930.64  534.14
  -3   0  1220031.70 1188.16
   3   0  1217537.90 1360.61
   3   0 -1217590.20 1300.41
  -3   0 -1221191.40 2064.93
   3   0  13 3209.73  713.66
  -3   0 -13 2817.07  715.82
   3   0 -13 1980.65  409.67
  -3   0  13 2902.09  323.43
   3   0 -14 2817.95  423.27
   3   0  14 2312.70  746.22
  -3   0  14 3213.45  466.79
  -3   0 -14 2445.30  758.11
  -3   0  15   85.53  115.60
   3   0  15  142.17  158.82
  -3   0 -15  -17.98  160.80
   3   0 -15  113.61  150.72
  -3   0 -16 4594.35  607.52
   3   0  16 4764.68  631.29
  -3   0  16 4253.67  467.06
   3   0 -16 4816.84  580.34
  -3   0 -17  875.29  269.02
   3   0 -17  360.46  254.03
  -3   0  17  276.83  215.04
   3   0  17  193.44  461.38
   3   0  1822608.50 2490.36
  -3   0 -1820732.50 2331.83
   3   0 -1819943.60 1637.11
  -3   0  1821188.50 1573.41
  -3   0  19  706.20  305.87
  -3   0 -19  287.57  543.93
   3   0  19 1099.72  351.24
   3   0  2045785.60 3949.28
  -3   0 -2046581.60 4842.44
  -3   0  2043803.40 3485.08
   3   0  21  323.31  501.41
  -3   0 -21  305.69  450.46
  -3   0 -22 7442.44  983.12
   3   0  22 8880.03 1611.76
  -3   0 -23  667.99  604.68
   3   0  23  742.11  404.25
  -3   0 -2414038.40 2272.77
   3   0  2416527.60 2494.67
   3   0  25  -46.96  474.27
  -3   0 -25  213.87  253.72
   3   0  26   75.22  280.49
   3   0  27  179.12  320.38
   3   0  28 -143.75  540.37
   3   0  29  284.86  663.12
   3   1   0121971.010755.30
   3  -1   0119861.0 9642.02
   3  -1   0120400.010518.40
   3   1   0112422.0 8490.13
   3  -1  -1111222.0 8483.53
   3   1   1115299.0 9355.92
   3   1   1124041.011092.90
   3  -1  -1119249.010415.10
  -3  -1   1117846.0 9150.72
   3   1  -1125529.010959.50
   3   1  -1119884.0 9315.87
   3  -1   1126058.011267.10
   3  -1   1118616.0 9845.39
   3   1   284974.90 6545.26
  -3   1  -285660.50 6595.71
   3  -1  -281290.70 5893.52
  -3  -1   282240.10 5754.07
   3   1   285522.50 6608.37
   3  -1  -286842.30 7052.89
   3   1  -286891.20 6043.42
   3  -1   286816.40 6780.15
   3   1  -284438.60 7014.14
   3  -1  -319165.90 1577.75
  -3   1  -320277.70 1905.95
   3   1   319690.10 1424.10
   3  -1  -320349.60 1229.01
   3   1   318190.00 1150.18
  -3  -1   320282.70 1216.47
   3   1  -319120.40 1069.34
   3  -1   317896.10 1163.69
   3   1  -320291.20 1317.99
   3   1   4 7207.24  705.35
  -3   1  -4 8029.51 1070.03
   3  -1  -4 7272.38  526.85
   3  -1  -4 6927.89  399.19
   3  -1  -4 7622.35  578.90
   3   1   4 7466.88  559.48
   3   1  -4 8301.56  456.04
   3  -1   4 9196.80  917.28
   3   1  -4 7593.16  892.66
   3   1   5 3473.82  352.78
   3   1   5 3612.47  736.64
  -3   1  -5 3169.85  721.81
   3  -1  -5 2703.35  284.86
   3  -1  -5 3024.57  333.94
   3  -1  -5 2865.89  315.28
   3   1  -5 3162.65  339.66
   3   1  -5 3343.21  307.44
   3   1  -5 3074.85  282.61
   3  -1   5 2852.59  362.54
   3  -1  -6 8176.58  657.53
   3  -1  -6 6564.15  486.46
   3   1   6 6184.44  704.57
   3   1   6 7390.08  618.62
  -3   1  -6 8219.68 1108.29
   3  -1  -6 6823.78  476.83
   3  -1   6 7417.08  911.20
   3   1  -6 7372.94  455.20
   3   1  -6 7421.88  831.94
   3   1  -6 7139.06  378.11
   3   1   7  271.86  162.89
   3  -1  -7  311.04  189.24
  -3   1  -7  208.40  354.01
   3  -1  -7  289.44  120.77
   3  -1  -7  374.47  203.41
   3   1  -7  198.29  111.97
   3   1  -7  275.03  249.13
   3  -1   7  466.49  288.99
  -3  -1  -7  417.20  350.69
   3   1  -7  351.67  106.91
   3   1   8 6315.85  858.39
  -3   1  -8 5911.07  628.26
   3  -1  -8 6294.93  584.58
   3  -1  -8 5928.23  427.21
   3   1  -8 6149.21  376.46
   3   1  -8 6647.71  712.22
   3  -1   8 6411.79  858.71
   3   1  -8 4415.59  335.60
  -3   1   8 6329.71  515.71
  -3  -1  -8 6759.46  650.24
   3  -1  -9 1500.56  308.71
   3   1   9 1804.68  563.18
  -3   1  -9 1968.45  626.90
   3   1  -9 1418.22  146.71
  -3  -1  -9 1944.94  398.11
   3   1  -9 2315.48  432.30
   3  -1   9 2881.96  359.79
  -3   1   9 3182.23  316.66
   3   1  -9 2329.34  158.52
   3   1  1028693.50 2572.15
  -3  -1  1028802.50 1587.08
  -3   1 -1029522.80 2203.84
   3  -1 -1033737.30 2121.69
  -3  -1 -1031689.10 2855.02
   3  -1  1027516.20 2016.27
  -3   1  1030148.50 2168.23
   3   1 -1026784.80 1580.52
   3   1 -1033589.60 2370.67
  -3  -1  1138969.30 2449.54
  -3   1 -1142537.20 3125.36
   3  -1 -1141968.20 2819.62
   3   1  1140413.60 2954.79
   3   1 -1145588.70 3246.91
   3   1 -1138284.80 2266.47
   3  -1  1139613.50 2835.20
  -3   1  1141667.60 2692.86
  -3  -1 -1140010.10 3023.40
  -3  -1  1214520.80  906.39
  -3   1 -1213309.90 1620.44
   3  -1 -1212126.10  902.92
   3   1  1212428.30 1101.09
   3   1 -1216300.40 1208.27
   3  -1  1213162.50 1084.46
   3   1 -1211513.70  743.70
  -3  -1 -1212678.10 1580.58
  -3   1  1214574.50 1188.77
  -3   1 -1346015.30 4314.94
  -3  -1  1345489.30 2894.97
   3   1  1348736.40 4343.46
   3  -1 -1338695.90 2820.39
   3   1 -1348766.20 3584.88
   3  -1  1349798.60 4376.78
  -3   1  1348785.80 3371.33
  -3  -1 -1348263.30 4333.30
  -3   1 -1441762.60 3818.28
   3   1  1441490.90 3102.43
  -3  -1  1440412.80 2728.35
   3  -1 -1434164.60 2480.52
   3  -1  1441947.30 3675.13
  -3  -1 -1441624.20 3768.96
   3   1 -1434281.10 2697.16
  -3   1  1438089.50 2637.54
  -3   1 -1514389.10 1746.66
   3   1  1515251.30 1268.59
   3  -1 -1511827.70  948.49
  -3  -1  1514212.40  910.64
   3  -1  1515678.10 1768.97
  -3   1  1514048.80 1049.06
  -3  -1 -1514060.30 1222.52
   3   1 -1514904.60 1239.94
   3   1  1614548.70 1880.26
  -3  -1  1616220.50 1043.29
  -3   1 -1615400.20 1899.59
   3  -1 -1614116.30 1095.11
  -3  -1 -1615702.00 1353.32
   3  -1  1615901.70 1853.59
   3   1 -1616184.80 1360.63
  -3   1  1614616.60 1139.38
   3   1  1712141.50 1680.24
  -3   1 -1713388.60 1665.06
  -3  -1  1711628.10  850.83
   3  -1 -17 9791.86  901.62
   3   1 -1712606.40 1166.34
  -3  -1 -1713675.20 1171.83
   3  -1  1711382.00 1123.68
  -3   1  1711967.30 1003.82
   3   1  1811198.50 1126.43
  -3   1 -1810335.30 1565.54
  -3  -1  18 9555.16  823.95
  -3  -1 -18 9416.92 1054.25
   3   1 -1810896.40 1131.71
   3  -1  1810621.20 1068.99
  -3   1  1810398.20  973.22
   3   1  19 8594.81 1441.37
  -3   1 -19 6508.24 1285.81
  -3  -1  19 6261.73  636.71
  -3  -1 -19 7699.89 1318.13
   3  -1  19 6713.28  864.00
  -3   1  19 6705.88  781.31
   3   1 -19 7531.60  900.94
   3   1  20 1809.20  763.44
  -3   1 -20 1687.38  413.86
   3  -1  20 1188.05  742.16
  -3   1  20 1175.37  394.73
  -3  -1 -20  812.29  687.39
  -3   1 -21 3598.40  913.82
   3   1  21 2841.71  629.98
  -3  -1 -21  976.88  879.05
   3  -1  21 3609.53  951.49
  -3   1  21 2436.04  543.23
   3   1  22 3437.98 1047.84
  -3   1 -22 2798.39  917.43
  -3  -1 -22 2114.91  901.35
   3  -1  22 2753.19  601.30
   3   1  23 4509.50 1186.54
  -3   1 -23 2655.09  620.44
   3  -1  23 4681.50  713.32
  -3  -1 -23 2703.56  619.21
   3   1  24 1631.89  540.07
  -3   1 -24 1839.90  823.28
  -3  -1 -24  839.66  790.81
   3  -1  24 2538.83  916.02
   3   1  25 5327.98 1373.71
  -3   1 -25 3690.07 1245.99
  -3  -1 -25 2217.62 1158.65
   3  -1  25 5206.56 1343.97
   3   1  2612847.10 2277.73
  -3   1 -2610625.60 1412.00
   3  -1  2610528.50 1425.13
   3   1  27 4718.41 1010.87
   3  -1  27 5453.31  993.02
   3   1  28 5237.47 1725.76
   3  -1  28 4901.40 1685.35
   3   1  29 5975.43 1117.11
   3  -1  29 4479.07 1759.28
   3   2   016340.40 1065.51
   3   2   013912.90 1062.57
   3  -2   012236.90  781.29
  -3  -2   014600.10  935.86
   3  -2  -1 9550.54  789.37
  -3  -2   1 8664.69  550.93
   3   2   1 8796.98  541.07
   3   2   1 9913.07 1188.54
  -3   2  -1 8754.28 1073.65
   3  -2  -1 9185.09 1033.93
   3   2  -1 8830.90  619.18
   3  -2   1 8247.68  580.29
   3   2  -1 9084.15  723.22
   3   2   2 2104.49  644.28
   3   2   2 2238.09  265.71
  -3  -2   2 2341.21  223.26
  -3   2  -2 2971.58  379.88
   3  -2  -2 3800.27  536.96
   3  -2  -2 2223.58  225.04
   3   2  -2 2738.06  250.16
   3   2  -2 2617.08  354.88
   3  -2   2 2832.58  315.97
  -3   2  -319388.80 1371.51
   3   2   318761.80 1428.88
   3   2   318638.90 1352.55
  -3  -2   317727.30  922.75
   3  -2  -319847.50 1296.76
   3  -2  -317794.00 1449.73
   3   2  -320830.40 1785.07
   3   2  -318225.60  933.54
   3  -2   318302.30 1174.39
   3   2   4 3892.37  696.73
   3   2   4 2367.47  512.31
  -3  -2   4 3165.41  286.28
  -3   2  -4 2881.23  418.97
   3  -2  -4 3265.15  296.64
   3  -2  -4 2924.80  373.96
   3   2  -4 2751.60  260.16
   3  -2   4 3079.11  560.05
   3   2  -4 2621.31  592.34
   3   2   543339.00 3759.37
  -3   2  -543767.60 3151.75
   3  -2  -542327.70 2868.44
   3  -2  -543088.00 2663.07
   3   2   542412.60 2801.59
   3   2  -543455.10 2415.98
   3   2  -542695.90 2448.56
   3  -2   542041.30 2870.43
   3   2  -544751.50 2922.92
   3   2   6 1284.84  513.23
   3   2   6 1387.31  240.13
  -3   2  -6 1617.67  315.13
   3  -2  -6 1329.18  283.14
   3  -2  -6  871.56  369.55
   3   2  -6 1406.31  406.32
   3   2  -6 1424.12  120.88
   3   2  -6  769.17  112.60
   3  -2   6 1399.88  435.19
  -3   2  -763253.50 5466.63
   3   2   763179.50 5108.66
   3   2   760594.00 5359.97
   3  -2  -764211.90 4479.30
   3   2  -760115.20 3426.74
   3   2  -758087.00 3367.55
   3  -2   759683.50 4335.61
   3   2  -765020.40 4470.45
   3   2   8 1500.99  535.41
   3   2   8 1663.55  465.23
  -3   2  -8  951.16  322.44
   3  -2  -8  939.29  253.75
   3   2  -8 1241.33   94.95
   3   2  -8 1498.63  399.09
   3  -2   8 1169.66  464.44
  -3   2   8 1140.52  298.33
   3   2  -8 1178.99   89.24
   3   2   952809.70 4000.48
   3   2   950622.70 3674.74
  -3   2  -956019.00 4833.96
   3  -2  -951734.40 3471.21
   3   2  -958256.40 4297.51
   3   2  -951546.50 2837.54
   3   2  -952379.00 2930.33
   3  -2   951372.60 4274.08
  -3   2   952376.60 3712.89
   3   2  10  861.46  461.29
  -3   2 -10 1241.70  330.50
   3  -2 -10 1097.47  216.73
  -3  -2 -10  662.05  303.98
   3   2 -10 1126.23  214.81
   3  -2  10 1074.95  456.49
  -3   2  10  915.48  292.41
   3   2 -10 1176.63  102.03
  -3   2 -1114578.10 1188.72
   3   2  1112771.50 1083.10
  -3  -2  1112924.90  696.87
   3  -2 -1114853.50 1093.07
   3   2 -1112728.40  595.67
  -3  -2 -1114285.60 1574.60
   3   2 -1116137.40 1291.12
   3  -2  1113093.00 1050.16
  -3   2  1114324.90 1070.52
  -3  -2  12 2554.06  178.66
   3   2  12 1502.14  391.98
  -3   2 -12 1858.03  673.82
   3  -2 -12 2271.81  276.89
   3   2 -12 2594.78  457.11
  -3  -2 -12 1931.12  398.60
   3  -2  12 3231.42  393.92
  -3   2  12 2050.34  368.81
   3   2 -12 1837.58  141.17
  -3  -2  13 1826.09  170.17
  -3   2 -13  868.59  620.34
   3  -2 -13 1529.40  246.33
   3   2  13 1482.85  595.18
  -3  -2 -13 2131.56  594.18
   3  -2  13 2096.73  351.88
  -3   2  13 2209.50  349.77
   3   2 -13 1616.40  415.12
   3   2 -13 1480.64  184.46
   3   2  14 4083.33  577.81
  -3   2 -14 4175.11  955.03
  -3  -2  14 4248.35  399.48
   3  -2 -14 3737.97  384.97
  -3  -2 -14 2953.18  876.82
   3  -2  14 3795.91  537.66
  -3   2  14 4170.04  548.31
   3   2 -14 5310.55  651.67
  -3  -2  15 1023.46  171.79
  -3   2 -15 1189.76  595.45
   3  -2 -15 1127.71  307.08
   3   2  15 1568.97  588.73
  -3  -2 -15 1006.18  537.08
   3  -2  15 1429.41  326.91
  -3   2  15 1244.90  314.93
   3   2 -15 1063.23  381.52
  -3  -2  16  412.26  198.58
   3  -2 -16  345.70  241.00
   3   2  16  729.72  270.38
  -3   2 -16  680.54  458.68
  -3  -2 -16  467.91  254.01
   3   2 -16  532.08  298.74
   3  -2  16  525.80  266.01
  -3   2  16  273.77  248.67
   3   2  1719389.70 1825.78
  -3   2 -1724115.10 1951.54
  -3  -2  1720875.90 1541.45
   3   2 -1720510.10 1858.70
  -3  -2 -1722054.40 1814.47
   3  -2  1722755.80 2435.78
  -3   2  1720038.80 1662.12
  -3  -2  18  287.89  166.81
  -3   2 -18  495.95  272.19
   3   2  18  806.08  497.76
   3   2 -18  546.50  315.20
   3  -2  18  585.44  449.60
  -3   2  18  359.30  268.92
  -3  -2 -18  258.61  247.53
  -3   2 -1924879.60 2917.67
   3   2  1925242.00 2269.32
   3   2 -1926503.30 2317.25
   3  -2  1925629.00 2896.74
  -3   2  1925280.20 2144.86
  -3  -2 -1924881.40 2169.31
   3   2  20 1331.56  672.91
  -3   2 -20  381.95  623.15
  -3  -2 -20  725.70  571.36
   3   2 -20 1108.00  455.26
   3  -2  20  936.64  626.10
  -3   2  20  818.53  382.99
   3   2  2119427.50 2669.11
  -3   2 -2117328.00 2475.06
   3  -2  2118863.70 1804.39
  -3   2  2117928.30 1765.39
  -3  -2 -2120552.60 2476.43
  -3   2 -22 3055.23  560.10
   3   2  22 1834.35  591.81
  -3  -2 -22  819.85  817.65
   3  -2  22 2010.00  564.44
   3   2  2320209.90 2895.45
  -3   2 -2321397.20 2771.63
   3  -2  2321718.80 2854.63
  -3  -2 -2318149.30 2584.85
   3   2  24  921.89  458.03
  -3   2 -24 1002.48  408.89
  -3  -2 -24  421.27  368.23
   3  -2  24 1420.67  737.80
   3   2  25 9685.24 1958.53
  -3   2 -25 8141.30 1729.11
   3  -2  25 8758.31 1842.64
   3   2  26   23.20  453.39
  -3   2 -26  273.54  399.21
   3  -2  26   26.94  251.98
   3   2  27 3091.35  658.16
  -3   2 -27 2265.13  927.14
   3  -2  27   -9.31  609.78
   3   2  28  280.65  577.94
   3  -2  28   99.61  559.82
   3   2  29 -101.68  266.49
   3  -2  29  111.33  430.14
   3   3   020836.90 1463.12
   3   3   021004.00 1356.50
   3  -3   021386.70 1290.98
  -3   3   021626.40 1863.86
  -3  -3   020374.20 1232.65
   3  -3  -119131.50 1144.08
   3   3   119302.40 1100.97
   3   3   120281.00 1393.54
  -3  -3   118278.10 1040.21
  -3   3  -120014.00 1366.46
   3   3  -119616.50 1145.46
   3  -3   119309.60 1538.39
  -3   3   119762.80 1652.59
   3   3  -118884.50 1811.46
  -3   3  -214558.50 1502.28
   3   3   214197.10 1589.00
  -3  -3   212275.40  703.68
   3  -3  -214810.90 1273.19
   3  -3  -214722.50 1137.36
   3   3   213879.40 1120.87
   3   3  -214374.90  821.51
   3   3  -215227.80 1489.30
   3  -3   214155.70 1293.19
   3  -3  -312709.80  791.43
  -3   3  -313934.10 1413.91
   3   3   312651.40 1100.35
   3   3   313751.50 1037.98
   3  -3  -312273.10  741.55
  -3  -3   313037.00  714.74
   3   3  -312832.30  645.58
   3   3  -312567.40  920.21
   3  -3   313721.60 1266.59
   3   3   410972.60 1248.72
   3   3   410238.40  709.41
  -3  -3   4 8215.82  392.57
   3  -3  -410910.40  845.90
   3  -3  -410064.60  848.10
  -3   3  -410823.30 1216.97
   3  -3   4 9874.36  724.43
   3   3  -410195.10  766.60
   3   3  -411016.80  558.55
   3   3   527914.60 2006.75
   3  -3  -527600.10 1611.90
   3  -3  -528995.10 2118.08
  -3   3  -528131.20 2566.46
   3   3   528298.50 2248.60
   3   3  -528994.40 1361.97
   3   3  -525926.80 1261.30
   3  -3   526605.50 2319.54
   3   3  -528476.70 1894.87
  -3   3  -6 4274.79  509.35
   3  -3  -6 3429.87  407.18
   3   3   6 3827.64  434.51
   3  -3  -6 2565.66  364.42
   3   3   6 3752.61  481.29
   3  -3   6 4293.34  698.74
   3   3  -6 3810.44  399.81
   3   3   7 1730.70  372.80
  -3   3  -7 2004.29  624.57
   3  -3  -7 2401.49  301.50
   3   3   7 1725.33  541.71
   3  -3   7 1796.84  328.50
   3   3  -7 2160.91  523.84
  -3   3   7 1840.21  420.28
   3   3   8 5681.88  583.62
  -3   3  -8 5033.87  618.60
   3   3   8 4770.66  535.22
   3  -3  -8 4598.79  420.43
   3  -3  -8 5294.46  457.18
   3  -3   8 5665.98  548.79
  -3   3   8 6133.47  654.18
   3   3  -8 6225.59  788.07
   3   3   916421.50 1669.70
   3   3   915231.50 1701.33
  -3   3  -917480.40 1878.57
   3  -3  -915591.00  984.06
   3   3  -917252.80 1498.68
  -3   3   917431.20 1336.69
   3   3  10 6550.50 1042.02
   3   3  10 6331.20  703.19
  -3   3 -10 6780.36 1134.52
   3  -3 -10 7596.30  627.37
   3   3 -10 9803.80  965.75
   3  -3  10 7787.39 1034.47
  -3   3  10 7808.07  539.87
  -3   3  10 6308.09  523.33
   3   3  1118503.70 1421.68
  -3   3 -1118245.10 1429.46
   3  -3 -1115616.10  921.02
   3   3  1117581.90 1828.92
   3   3 -1114561.10  576.87
   3   3 -1120463.60 1621.77
   3  -3  1119003.10 1356.78
  -3   3  1118400.60 1415.47
  -3   3  1116690.50 1059.35
   3   3  1216276.60 1255.41
   3   3  1218727.30 1818.71
  -3  -3  1215299.80  682.87
  -3   3 -1216248.80 1309.62
   3  -3 -1211789.00  761.72
   3   3 -1214253.80  637.79
   3  -3  1216889.60 1222.37
   3   3 -1216383.30 1417.63
  -3   3  1212809.70  835.82
  -3   3  1214965.80  936.07
   3   3  1319967.70 1513.71
  -3   3 -1319750.50 1562.87
  -3  -3  1317194.30  874.64
   3   3  1318537.70 1959.39
   3  -3 -1315756.80 1100.59
   3   3 -1318955.60 1628.19
   3  -3  1318957.70 1373.67
   3   3 -1316128.60  772.91
  -3   3  1318931.40 1453.15
  -3   3  1316533.10 1004.22
   3   3  14 9258.17  890.10
  -3   3 -14 9101.41  927.26
  -3  -3  14 9105.86  552.65
   3  -3 -14 7187.43  644.21
   3   3  14 8756.44  902.16
   3   3 -14 9461.91 1037.34
   3  -3  14 9769.37 1258.08
  -3   3  14 9362.46  926.54
   3   3  1525494.00 2619.39
  -3  -3  1523003.60 1257.95
  -3   3 -1525658.90 2044.76
   3  -3 -1519455.20 1419.76
   3   3 -1526350.70 2176.34
   3  -3  1524711.30 2425.80
  -3   3  1523916.30 1921.70
   3   3  1613138.70 1223.30
  -3   3 -1614443.30 1249.23
  -3  -3  1611643.70  810.62
   3  -3 -1610241.70  712.39
   3   3 -1613838.30 1347.92
   3  -3  1613018.90 1564.17
  -3   3  1612641.20  874.62
  -3   3 -1716739.70 2111.05
  -3  -3  1714314.70  914.66
   3   3  1715546.30 2052.18
  -3  -3 -1715278.60 1342.02
   3  -3  1715827.20 1913.74
   3   3 -1715848.80 1607.12
  -3   3  1715125.10 1407.21
  -3   3 -18 7777.57 1390.78
   3   3  18 6461.25  874.25
  -3  -3 -18 7497.08  803.60
   3   3 -18 6757.33  660.23
   3  -3  18 7513.60  837.44
  -3   3  18 6787.82  856.15
   3   3  19 3254.83  970.34
  -3   3 -19 2886.07  915.60
  -3  -3 -19 2256.49  525.97
   3  -3  19 3313.91  550.16
   3   3 -19 3540.23  700.47
  -3   3  19 2279.78  583.87
   3   3  20 1543.38  447.00
   3   3  20   25.26  347.24
  -3   3 -20  995.54  412.09
   3   3 -20 2120.64  528.86
   3  -3  20 1702.13  402.98
  -3  -3 -20 1244.40  377.58
  -3   3  20 1349.82  455.59
  -3   3 -21 4102.60 1148.77
   3   3  21 5904.18 1235.82
   3  -3  21 4105.13  684.64
   3   3 -21 3528.99  553.29
  -3   3  21 4238.13  479.38
   3   3  22  112.67  296.67
  -3   3 -22  439.82  578.85
   3   3  22  810.92  382.70
   3  -3  22  989.16  563.51
  -3   3  22  669.28  380.79
   3   3  23  718.13  412.16
  -3   3 -23  100.41  223.54
   3   3  23 -184.09  195.16
   3  -3  23  377.87  369.71
   3   3  24 5296.41  968.72
   3   3  24 5611.36  829.63
  -3   3 -24 5542.68 1403.84
   3  -3  24 5243.14 1443.13
  -3   3 -2510195.90 1308.71
   3   3  2510640.40 2128.43
   3  -3  25 9373.00 1951.40
   3   3  26 8086.61 2083.57
  -3   3 -2610194.40 2017.60
   3  -3  2610024.40 1322.34
   3   3  2711000.30 1529.73
  -3   3 -27 9790.08 1448.41
   3  -3  2711304.40 1462.68
   3   3  28 6348.05 1460.19
   3  -3  28 -161.90 1367.70
   3   3  29 4128.59  904.75
   3  -3  29  -63.81 1382.85
  -3  -4   0 1120.43  184.81
   3   4   0  734.41  157.23
   3   4   0 1247.07  460.45
   3  -4   0  932.57  206.47
  -3   4   0 1644.11  414.23
   3   4   1 5477.62  809.72
   3  -4  -1 4719.66  594.94
  -3   4  -1 4005.03  678.39
  -3  -4   1 3321.61  291.21
   3   4   1 3671.65  458.48
   3   4  -1 3278.06  464.62
   3  -4   1 4189.89  391.07
   3   4  -1 3752.79  367.03
  -3   4   1 3875.44  629.97
   3   4   2 6472.01  633.84
   3   4   2 6261.05  668.10
  -3  -4   2 6063.14  380.79
  -3   4  -2 6618.65  592.46
   3  -4  -2 6463.65  764.68
   3   4  -2 6688.84  606.34
  -3   4   2 6752.25  769.12
   3  -4   2 6982.37  525.23
   3   4  -2 6844.79  445.12
   3  -4  -310565.80  686.11
  -3  -4   3 9620.31  477.34
   3   4   3 9975.14 1241.35
  -3   4  -310739.60  853.30
   3  -4  -311394.90  993.63
   3   4   310458.50  965.20
   3  -4   3 9679.57  741.87
   3   4  -310061.70  814.05
   3   4  -310793.30  560.62
   3   4   444361.90 3362.50
   3   4   444548.90 3191.84
  -3  -4   440131.50 2193.81
   3  -4  -450780.50 3755.32
   3  -4  -444552.90 3088.14
  -3   4  -443016.90 3132.90
   3   4  -445438.70 2540.28
   3  -4   439997.20 2817.21
   3   4  -443704.60 3077.44
   3   4   5 2438.92  376.73
  -3  -4   5 2557.03  127.23
   3   4   5 2454.05  531.00
  -3   4  -5 2017.29  636.14
   3  -4  -5 2523.80  583.81
   3  -4  -5 2103.79  357.95
   3   4  -5 1835.16   95.07
   3   4  -5 2250.82  573.33
   3  -4   5 2434.67  560.16
   3   4   650284.80 4360.19
  -3   4  -649522.50 3717.20
   3  -4  -651812.90 3466.30
   3   4   648154.60 3410.18
   3   4  -653408.90 4238.73
   3  -4   652409.90 3644.86
  -3   4   648080.80 3288.86
   3   4   7  342.57  173.15
   3   4   7  415.45  328.87
   3  -4  -7  332.07  143.44
   3  -4  -7  210.23  126.84
  -3   4  -7  -69.20  328.12
   3  -4   7  583.57  308.02
  -3   4   7  306.22  143.83
   3   4  -7  182.98  291.23
  -3   4  -831386.70 2353.73
   3   4   831951.70 2758.68
   3  -4  -829249.70 1845.26
   3  -4  -831472.20 1939.15
   3   4   831733.00 2818.36
   3   4  -835122.30 2787.63
   3  -4   833407.80 2287.36
  -3   4   831895.40 2068.50
   3   4   9  582.58  227.18
   3   4   9  618.99  396.85
   3  -4  -9  532.85  143.86
  -3   4  -9  558.56  258.46
   3  -4  -9  291.17  183.00
   3  -4   9  954.91  372.44
  -3   4   9  336.15  298.07
   3   4  -9  710.16  350.26
   3   4  1051701.10 3815.61
  -3   4 -1051418.20 4656.15
   3  -4 -1046123.70 3194.58
   3  -4 -1044134.10 2748.65
   3   4  1051119.80 3852.53
   3   4 -1058634.90 4597.66
  -3   4  1054425.10 4132.93
   3  -4  1051569.10 3726.19
   3   4  11 2438.05  732.59
   3   4  11 2736.76  699.75
   3  -4 -11 2375.59  295.75
   3  -4 -11 2954.25  293.25
  -3   4 -11 1177.73  743.47
   3   4 -11 2817.18  617.84
   3  -4  11 2880.60  402.25
  -3   4  11 3708.75  526.13
   3   4  12 7814.74  742.41
   3   4  12 9085.08  812.88
   3  -4 -12 6138.71  399.24
   3  -4 -12 6340.37  468.47
  -3   4 -12 8684.45 1195.77
   3   4 -12 9612.07  958.73
  -3   4  12 7375.61  815.05
   3  -4  12 7891.25 1068.25
   3   4  13 7311.48  991.77
   3   4  13 7046.76  726.68
   3  -4 -13 4840.41  341.44
  -3   4 -13 6293.82 1085.33
   3   4 -13 5770.41  566.30
   3  -4  13 7255.00 1040.41
  -3   4  13 6455.28  519.38
   3   4  14 2060.02  702.13
   3   4  14 1712.73  366.11
  -3   4 -14 1332.19  689.37
   3  -4 -14 1131.13  207.07
  -3  -4  14 2058.37  142.90
   3   4 -14 2008.37  524.88
   3  -4  14 2082.90  612.41
  -3   4  14 1834.85  271.87
  -3  -4  15 1088.65  148.28
   3   4  15 1154.32  373.85
   3   4  15 1214.39  540.75
  -3   4 -15 1045.04  612.29
  -3   4  15 1080.76  402.77
   3  -4  15 1672.13  336.42
   3   4 -15 1550.04  486.43
   3   4  16 5363.67  942.48
  -3  -4  16 4289.19  350.64
   3   4  16 6234.31 1128.41
  -3   4 -16 5847.61  717.35
   3   4 -16 4898.07  875.17
   3  -4  16 5151.45  642.25
  -3   4  16 6189.84  786.82
   3   4  17  460.74  333.58
   3   4  17  573.26  483.26
  -3   4 -17  864.86  321.93
   3   4 -17  671.36  249.95
   3  -4  17  456.90  300.92
  -3   4  17  834.34  214.33
   3   4  1824447.30 2843.38
   3   4  1821785.00 2491.68
  -3   4 -1823855.40 2745.87
   3  -4  1824425.70 1977.03
  -3   4  1821424.80 2049.02
   3   4 -1825520.10 2387.32
   3   4  19 2118.31  526.78
   3   4  19 1028.64  721.83
  -3   4 -19 1682.15  818.90
  -3   4  19 1989.45  346.38
   3  -4  19 2062.27  474.83
   3   4 -19 2596.83  657.49
   3   4  2020977.20 2434.26
   3   4  2021937.50 2826.49
  -3   4 -2019544.90 1903.75
   3   4 -2021434.50 2200.63
  -3   4  2020269.00 1951.72
   3  -4  2020095.70 2460.61
   3   4  21  608.43  440.29
   3   4  21  691.16  340.30
  -3   4 -21   11.78  315.22
   3   4 -21  290.93  428.81
  -3   4  21  587.66  355.86
   3  -4  21   79.29  494.13
   3   4  2239970.30 4717.90
  -3   4 -2235688.80 4436.48
   3   4  2237363.00 4019.60
  -3   4  2238831.20 3637.43
   3  -4  2239278.60 4342.56
   3   4  23  538.51  528.20
   3   4  23  610.02  425.49
  -3   4 -23  840.83  414.03
   3  -4  23  583.13  632.45
  -3   4  23  733.09  467.28
   3   4  2424272.30 3449.90
   3   4  2423990.10 2293.58
  -3   4 -2423477.40 3268.95
   3  -4  2423866.00 3134.75
   3   4  25  932.07  497.04
  -3   4 -25  819.34  478.70
   3  -4  25 1478.14  765.65
   3   4  26 1753.49  771.89
  -3   4 -26 1608.12  714.09
   3  -4  26  -48.01  405.26
   3   4  27  705.62  402.58
  -3   4 -27  410.08  638.46
   3  -4  27  100.50  381.40
   3   4  28  502.74  705.29
  -3   4 -28  438.73  634.29
   3  -4  28  106.90  656.58
   3   5   053608.30 3425.23
   3   5   057888.20 4908.10
  -3   5   053703.00 4293.66
   3  -5   054274.10 3741.54
   3   5   120070.00 1503.50
   3   5   122045.10 1275.64
   3  -5  -122150.70 1409.34
  -3   5  -122470.00 1506.44
  -3  -5   119173.50 1148.00
   3   5  -121771.00 2046.83
   3   5  -123246.30 1428.65
   3  -5   120712.00 1396.64
  -3   5   122178.50 1781.16
  -3  -5   215321.20  827.27
   3   5   216583.20 1309.40
   3   5   217632.70 1723.38
   3  -5  -215821.60 1078.58
  -3   5  -216241.70 1586.66
   3   5  -216353.80  957.88
   3   5  -216495.30 1233.64
   3  -5   217135.40 1150.15
  -3   5   216175.80 1362.36
  -3  -5   322686.90 1296.71
  -3   5  -325256.40 1767.82
   3  -5  -329290.90 2412.14
   3   5   324764.80 1786.94
   3   5   325114.90 1593.08
   3   5  -325058.50 1478.17
   3   5  -325396.00 1792.51
   3  -5   324301.70 1593.91
  -3   5   325136.10 1869.98
   3  -5  -440341.00 3179.77
   3   5   429381.80 2056.13
  -3  -5   425816.40 1259.74
   3   5   427106.00 1842.27
  -3   5  -428814.50 2046.76
   3   5  -428259.40 1512.51
   3   5  -428821.30 2519.58
   3  -5   429942.20 2434.93
   3   5   5 4533.78  797.30
   3   5   5 4211.46  685.50
   3  -5  -5 3009.00  494.05
  -3   5  -5 4787.13  805.14
   3  -5  -5 4615.52  466.00
   3   5  -5 4643.12  759.34
   3   5  -5 3602.86  160.70
   3  -5   5 4919.98  738.12
   3   5   6 2362.58  714.90
   3   5   6 3661.29  647.76
  -3   5  -6 3262.85  479.35
   3  -5  -6 2697.13  302.75
   3  -5  -6 3192.50  371.99
   3   5  -6 3478.87  425.14
   3  -5   6 2767.65  406.24
  -3   5   6 4288.10  636.11
   3   5   7  461.23  310.32
   3   5   7  263.15  288.11
  -3   5  -7  563.97  329.21
   3  -5  -7  103.37  105.38
   3  -5  -7  229.11  184.35
   3   5  -7  245.48  177.14
  -3   5   7  267.28  256.77
   3  -5   7  368.03  168.39
   3   5   8 1120.14  425.67
   3   5   8  654.85  248.88
   3  -5  -8  753.17  156.18
  -3   5  -8  893.53  449.29
   3  -5  -8  400.93  139.13
   3   5  -8  972.74  246.49
   3  -5   8 1472.05  408.51
  -3   5   8  671.37  350.73
   3   5   9 9266.08 1221.00
   3   5   9 9891.26  851.40
  -3   5  -9 8724.11  869.39
   3  -5  -9 7165.48  563.14
   3  -5  -9 9074.75  654.21
   3   5  -9 9898.59 1188.51
   3  -5   9 8848.33 1162.40
  -3   5   9 9777.44 1052.21
   3   5  1034273.20 3003.73
   3   5  1031490.50 2917.16
   3  -5 -1029729.40 1699.13
  -3   5 -1033024.40 2472.68
   3  -5 -1027271.40 1650.94
   3   5 -1037546.60 2989.06
  -3   5  1032291.80 2603.01
   3  -5  1031011.50 2236.41
  -3   5 -11 3606.97  540.17
   3   5  11 4427.83  504.09
   3  -5 -11 2835.96  263.14
   3   5  11 2862.70  847.54
   3   5 -11 5167.74  473.47
  -3   5  11 4816.23  670.35
   3  -5  11 5053.68  792.28
   3   5  1237134.10 3205.92
   3   5  1234564.70 2581.38
  -3   5 -1235779.30 2729.85
   3  -5 -1228809.50 1672.98
   3  -5 -1225597.20 1465.19
   3   5 -1241170.10 3182.70
  -3   5  1238974.10 2923.83
   3  -5  1237705.00 3150.59
   3   5  1318840.90 1449.19
   3   5  1315689.40 1429.43
  -3   5 -1317104.30 1479.86
   3   5 -1318750.50 1776.17
   3  -5  1317661.90 1364.06
  -3   5  1316451.80 1563.08
   3   5  1413431.20 1531.80
   3   5  1413198.80 1701.09
  -3   5 -1412430.70 1670.75
   3   5 -1412491.60 1018.91
  -3   5  1413472.90 1323.82
   3  -5  1412829.10 1066.02
   3   5  15 8009.34 1085.46
  -3  -5  15 6231.31  296.09
   3   5  15 6055.06 1259.39
  -3   5 -15 7850.28 1276.08
   3   5 -15 8282.03 1087.38
  -3   5  15 8207.92  965.51
   3  -5  15 6899.30 1142.39
   3   5  1629413.90 2574.43
   3   5  1629227.60 2369.82
  -3   5 -1632465.90 3371.17
   3   5 -1630556.20 2900.46
   3  -5  1631036.90 3023.87
  -3   5  1630935.10 2234.03
   3   5  1716653.60 1972.06
   3   5  1718211.40 2375.19
  -3   5 -1720156.20 1783.17
   3   5 -1717860.20 2004.24
   3  -5  1718526.50 2115.55
  -3   5  1717406.10 1746.21
   3   5  18 4910.07  700.09
   3   5  18 3117.27  835.32
  -3   5 -18 3040.12  664.22
   3   5 -18 4429.43  865.07
  -3   5  18 3550.69  463.39
   3  -5  18 3999.95  934.08
   3   5  19 5039.18 1170.45
   3   5  19 2732.53  880.32
  -3   5 -19 4429.55 1131.38
   3   5 -19 3595.67  907.56
  -3   5  19 4542.37  766.77
   3  -5  19 3410.99  987.69
   3   5  20 1093.30  718.23
   3   5  20 3787.79 1005.54
  -3   5 -20 2567.89  952.79
   3   5 -20 2742.14  785.33
  -3   5  20 3135.41  652.64
   3  -5  20 2186.12  846.89
   3   5  21  401.83  289.12
   3   5  21  -36.39  358.01
  -3   5 -21  283.86  274.53
   3   5 -21  304.09  405.60
   3  -5  21  -52.73  438.83
  -3   5  21  261.75  198.29
   3   5  22 1566.80  790.84
  -3   5 -22  335.32  715.88
   3   5  22  916.26  569.25
   3   5 -22 1632.91  383.29
   3  -5  22  917.09  675.90
  -3   5  22  637.09  302.01
   3   5  23 1029.36  672.87
   3   5  23 1955.25  560.06
  -3   5 -23 1245.70  539.77
  -3   5  23 1857.14  639.56
   3  -5  23 1782.84  829.36
   3   5  24 8108.85 1840.21
  -3   5 -24 7244.48 1707.69
   3  -5  24 7930.21 1660.31
   3   5  25 8873.84 1260.26
  -3   5 -25 6896.25 1859.46
   3  -5  25 8155.10 1717.38
   3   5  26 6296.31 1758.40
  -3   5 -26 6240.05 1695.15
   3  -5  26 5955.42  994.51
   3   5  27 6391.64 1234.61
  -3   5 -27 3830.03 1777.25
   3  -5  27 8793.77 1146.48
   3   5  2812575.80 2588.45
  -3   5 -2810137.30 2389.54
   3  -5  2811448.00 1561.29
   3   6   0 5151.61  541.21
   3   6   0 4524.59  545.59
  -3   6   0 4527.08  468.82
   3  -6   0 5964.00  780.73
  -3  -6   1 6228.98  470.33
   3   6   1 7745.81  519.35
   3  -6  -1 7716.29  938.90
  -3   6  -1 6877.88  932.65
   3   6   1 7750.98 1119.46
   3   6  -1 7901.15  611.62
   3   6  -1 9093.60 1108.92
   3  -6   1 7657.24  949.11
  -3   6   1 6815.15  850.85
   3   6   2  319.04  231.51
  -3  -6   2  270.60  100.55
   3   6   2  402.63  197.47
   3  -6  -2  695.50  295.31
  -3   6  -2  689.24  303.80
   3   6  -2  259.15  131.33
   3   6  -2  -87.78  200.35
  -3   6   2  286.67  133.91
   3  -6   2  701.93  298.23
   3   6   325913.80 2458.63
   3   6   326446.40 2117.74
  -3  -6   322541.60 1238.31
   3  -6  -332504.20 2677.71
  -3   6  -326142.10 1887.27
   3   6  -324069.80 1353.98
   3   6  -326749.20 2404.42
   3  -6   324791.00 2204.59
  -3   6   324516.40 1565.60
  -3  -6   4 3696.14  216.47
   3   6   4 6967.57  896.06
  -3   6  -4 3455.10  812.06
   3  -6  -4 8192.19 1025.97
   3   6   4 4653.64  470.39
   3   6  -4 3683.30  304.38
   3   6  -4 5657.07  851.57
   3  -6   4 4435.12  453.07
  -3   6   4 4244.42  528.54
   3   6   523884.90 2115.40
  -3  -6   522509.80 1057.24
   3   6   524834.20 1778.49
  -3   6  -524251.70 1813.57
   3   6  -527150.30 1855.17
   3  -6   525189.50 2185.58
   3   6  -521798.10 1045.81
   3   6   6 1213.78  270.99
   3   6   6  956.60  423.62
   3  -6  -6  483.47  181.59
  -3   6  -6  836.58  465.74
   3  -6  -6  760.98  216.27
   3   6  -6 1526.73  466.75
   3  -6   6  899.57  422.66
  -3   6   6 1056.59  435.51
   3   6   753710.60 3987.29
   3   6   755151.30 4661.61
   3  -6  -754181.20 3544.22
   3  -6  -752612.60 3521.37
  -3   6  -753608.80 4132.93
   3   6  -759445.80 4240.65
   3  -6   749802.70 3701.74
  -3   6   753384.90 3863.18
   3   6   8  251.99  239.62
   3   6   8  798.59  415.85
  -3   6  -8 1001.58  273.14
   3  -6  -8  502.68  140.82
   3  -6  -8  638.08  127.39
   3   6  -8  904.45  251.44
  -3   6   8  583.30  376.01
   3  -6   8  992.42  389.89
   3   6   936202.30 2660.35
   3   6   937875.80 3416.76
  -3   6  -938654.30 2903.94
   3  -6  -933674.80 2043.22
   3  -6  -934216.40 2088.39
   3   6  -944339.50 3591.21
  -3   6   936518.00 2576.99
   3  -6   938485.70 2728.64
   3   6  10 8342.15 1172.17
   3   6  10 8262.67 1094.15
   3  -6 -10 7474.03  484.02
  -3   6 -10 8886.37 1243.21
   3  -6 -10 6227.91  437.52
   3   6 -10 9423.54  789.22
  -3   6  10 8138.64  694.79
   3  -6  10 8892.99 1131.52
   3   6  1117348.30 1888.38
   3   6  1117137.30 1736.84
  -3   6 -1115880.70 1876.93
   3   6 -1117219.40 1699.86
   3  -6  1114872.40 1210.50
  -3   6  1117230.50 1585.48
   3   6  12  850.20  283.11
   3   6  12  851.26  546.40
  -3   6 -12 1456.32  335.40
   3   6 -12  944.68  469.79
   3  -6  12  864.55  489.94
  -3   6  12  988.95  427.99
   3   6  13 5872.14  908.14
   3   6  13 5123.42  684.41
  -3   6 -13 4221.29  685.42
   3   6 -13 6249.51  955.50
  -3   6  13 5785.11  816.17
   3  -6  13 5206.53  932.57
   3   6  14 1049.25  364.43
  -3   6 -14 1026.39  352.32
   3   6  14  920.17  304.06
   3   6 -14 1066.87  512.14
   3  -6  14 1625.42  531.28
  -3   6  14 1457.11  273.13
   3   6  15 2318.56  671.27
   3   6  15 2345.27  846.76
  -3   6 -15 2472.93  507.59
   3   6 -15 3326.92  713.72
   3  -6  15 2050.97  436.82
  -3   6  15 2605.29  631.78
   3   6  16 1720.31  723.68
   3   6  16 1164.45  568.54
  -3   6 -16 1466.14  702.61
  -3   6  16 1677.88  531.73
   3   6 -16 1060.18  613.27
   3  -6  16 1555.64  393.09
   3   6  17 9220.24  896.64
  -3   6 -17 8566.68 1533.24
   3   6  17 9073.85 1039.53
   3   6 -1710845.00 1409.77
   3  -6  17 8470.23  907.42
  -3   6  17 7799.13  778.92
   3   6  1812109.00 1800.39
   3   6  1810611.90 1002.05
  -3   6 -1810268.10 1137.85
   3   6 -18 7860.12  956.89
  -3   6  1810834.20 1347.75
   3  -6  1810698.60 1497.99
   3   6  1919649.90 2205.13
   3   6  1919386.00 2716.06
  -3   6 -1920830.90 2673.22
   3   6 -1920547.20 2368.33
  -3   6  1921346.90 2147.71
   3  -6  1919681.90 2374.67
   3   6  20  210.91  371.57
   3   6  20  288.15  298.93
  -3   6 -20  656.19  491.18
   3   6 -20  297.04  252.58
  -3   6  20  169.87  219.41
   3  -6  20  467.24  434.86
   3   6  2130152.00 3191.82
   3   6  2128128.60 3673.84
  -3   6 -2129853.00 2787.08
   3   6 -2130713.90 3297.18
   3  -6  2130736.30 3388.32
  -3   6  2128081.80 2930.91
   3   6  22  309.88  339.35
   3   6  22  200.03  249.51
  -3   6 -22   25.48  557.52
   3   6 -22  738.74  500.86
  -3   6  22  356.98  409.55
   3  -6  22  773.32  494.91
   3   6  2316964.50 2605.20
  -3   6 -2315378.30 1737.47
   3   6 -2316000.00 1571.71
  -3   6  2315374.60 1890.08
   3  -6  2314328.30 2245.44
   3   6  24  690.51  637.60
  -3   6 -24  737.39  614.21
  -3   6  24  -78.54  440.34
   3  -6  24  593.35  556.36
   3   6  2512782.90 1640.97
  -3   6 -2511479.00 2352.79
   3  -6  2512363.50 2168.94
   3   6  26  881.60  771.53
  -3   6 -26  281.63  698.45
   3  -6  26  491.98  642.57
   3   6  27 1924.52  545.34
  -3   6 -27   29.34  846.85
   3  -6  27  451.14  458.51
   3   6  28  800.58  487.40
  -3   6 -28 -152.36  446.77
   3  -6  28  -72.80  248.64
   3   7   047462.40 3515.80
  -3   7   046067.50 3769.87
   3  -7   048360.10 4025.34
   3   7   046666.50 3342.85
   3   7   135857.00 2630.11
   3   7   138592.90 3344.59
   3  -7  -136454.00 3073.50
  -3   7  -137736.90 3045.25
   3   7  -136837.70 2444.25
   3   7  -136555.90 3292.73
   3  -7   133457.40 2405.72
  -3   7   136363.60 2435.76
   3   7   214737.90 1231.38
   3   7   214018.10 1090.09
  -3  -7   211856.00  729.09
  -3   7  -213467.90 1026.48
   3  -7  -218320.90 1762.77
   3   7  -213943.30 1106.23
   3  -7   213072.80 1005.99
  -3   7   214994.70 1211.87
   3   7  -213382.90  875.06
   3   7   323959.20 1952.78
   3   7   324580.00 1793.65
  -3  -7   320733.40 1185.37
   3  -7  -326824.40 2484.91
  -3   7  -321302.30 2067.36
   3   7  -323605.60 2300.86
  -3   7   323346.00 1753.66
   3  -7   322944.60 1595.17
   3   7  -323235.50 1331.62
   3   7   4 9599.14 1226.37
   3   7   4 9266.08  724.12
  -3  -7   4 8397.92  510.44
   3  -7  -4 4838.43  832.71
  -3   7  -410471.20 1168.03
   3   7  -410020.00 1233.01
   3   7  -4 9492.41  591.80
  -3   7   4 8453.83  763.90
   3  -7   410940.90 1147.82
  -3  -7   5 4698.49  265.42
   3   7   5 6375.97  907.75
   3   7   5 5244.99  797.26
  -3   7  -5 5341.83  892.98
   3   7  -5 6478.71  951.82
   3   7  -5 4762.97  255.90
   3  -7   5 5506.03  830.52
  -3   7   5 4948.62  505.60
  -3   7   5 5900.15  578.61
   3   7   6 9677.71  841.59
  -3   7  -610377.30  923.34
   3   7   612051.20 1341.69
   3   7  -611269.00  931.97
   3  -7   611385.30  886.44
  -3   7   611735.40 1319.33
   3   7   7 2419.25  616.85
   3   7   7 2412.03  624.48
  -3   7  -7 2966.35  406.29
   3  -7  -7 2726.78  377.25
   3  -7  -7 1171.82  300.17
   3   7  -7 3372.77  671.57
  -3   7   7 2190.97  372.66
   3  -7   7 2975.39  620.64
   3   7   8 1180.78  438.70
   3   7   8 1352.59  466.24
  -3   7  -8  959.85  493.56
   3  -7  -8  218.09  183.07
   3  -7  -8 1086.89  159.70
   3   7  -8  783.57  290.68
   3  -7   8 1580.92  267.15
  -3   7   8 1374.74  452.12
   3   7   9 9534.92 1127.18
   3   7   9 8863.95 1193.96
  -3   7  -9 9185.28 1246.01
   3  -7  -9 7693.24  428.03
   3   7  -910841.40 1262.54
  -3   7   9 8702.46  760.75
   3  -7   9 8033.88 1102.14
   3   7  10 1526.49  508.69
   3   7  10  834.28  424.01
  -3   7 -10 1278.62  526.23
   3  -7 -10  724.39   97.40
   3   7 -10 1353.07  464.28
   3  -7  10 1191.93  276.59
  -3   7  10 1210.94  263.51
   3   7  1115264.40 1821.50
   3   7  1115605.10 1241.95
  -3   7 -1116386.30 1878.26
   3   7 -1115209.30 1712.56
  -3   7  1114600.90 1159.84
   3  -7  1115717.10 1745.26
   3   7  1217792.00 2076.43
   3   7  1219128.00 1896.12
  -3   7 -1216365.60 2058.10
   3   7 -1220254.60 1993.95
   3  -7  1216193.30 1354.96
  -3   7  1217422.30 1353.32
   3   7  1334887.90 3541.56
   3   7  1333282.60 2566.80
  -3   7 -1336972.60 2954.80
   3  -7  1333789.40 2601.50
  -3   7  1335442.70 2587.78
   3   7 -1336694.90 2752.18
   3   7  1425243.20 2164.44
   3   7  1425551.10 2480.48
  -3   7 -1424300.30 2137.87
   3   7 -1427558.10 2770.21
  -3   7  1426284.70 2445.79
   3  -7  1424814.90 2582.34
   3   7  1528804.40 2439.55
   3   7  1527290.70 2186.27
  -3   7 -1529820.50 2510.17
   3   7 -1529674.90 2307.41
   3  -7  1529449.60 2940.12
  -3   7  1528822.30 2713.12
   3   7  1614961.60 2094.15
   3   7  1614736.70 1728.64
  -3   7 -1612848.80 2001.04
   3   7 -1616199.00 1900.34
  -3   7  1614727.10 1219.91
   3  -7  1613741.60 1268.71
   3   7  1712199.10 1500.46
   3   7  1712783.30 1852.73
  -3   7 -1710754.40 1819.89
  -3   7  1711095.80 1460.58
   3  -7  1710208.70 1080.81
   3   7 -1713364.70 1720.36
   3   7  18 7467.68 1194.19
   3   7  18 6706.14  985.29
  -3   7 -18 8600.75  995.64
   3   7 -18 8428.38  936.46
  -3   7  18 7519.27  812.67
   3  -7  18 8080.69  903.24
   3   7  19 2729.26  816.07
   3   7  19 3898.42  680.28
  -3   7 -19 -143.98 1062.43
   3   7 -19 4088.96  981.14
   3  -7  19 4565.99  947.33
  -3   7  19 3922.49  849.07
   3   7  20  384.77  214.37
   3   7  20  396.58  540.92
  -3   7 -20 -118.35  505.24
   3   7 -20  466.34  457.01
  -3   7  20  174.93  380.02
   3  -7  20  289.57  444.45
   3   7  21  700.99  270.39
   3   7  21  674.58  651.32
  -3   7 -21   44.38  350.16
   3   7 -21  718.25  324.54
  -3   7  21  529.81  475.20
   3  -7  21  996.99  551.71
   3   7  22  297.90  388.07
  -3   7 -22  578.83  647.65
   3   7 -22 1039.26  606.98
  -3   7  22  487.36  287.48
   3  -7  22  761.48  559.44
   3   7  23  481.82  673.72
  -3   7 -23  263.14  376.36
   3   7 -23  943.86  601.49
   3  -7  23  773.40  569.18
  -3   7  23  479.23  287.00
   3   7  24 3615.51  742.14
  -3   7 -24 1703.95 1176.79
   3  -7  24 2494.82 1041.80
  -3   7  24 2201.05  560.90
   3   7  2513698.30 2626.99
  -3   7 -2512392.10 1715.01
   3  -7  2513534.80 2244.91
  -3   7  2513193.60 1378.01
   3   7  26 4606.43 1300.93
  -3   7 -26 -208.84 1225.41
   3  -7  26 3300.12 1110.19
   3   7  27 7921.56 1228.13
  -3   7 -27 6586.94 1109.30
   3  -7  27  -78.39 1603.38
   3   7  28 5087.66 1174.34
  -3   7 -28 -153.00 1112.46
   3  -7  28  -37.98 1040.88
   3   8   0 3390.25  500.04
  -3   8   0 3282.21  370.78
   3  -8   0 5294.94  718.29
   3   8   0 2223.64  440.29
   3   8   1 6872.46  528.57
   3   8   1 9604.93 1181.82
   3  -8  -1 7461.95 1057.29
  -3   8  -1 7849.86  641.70
   3   8  -1 7647.25  663.13
  -3   8   1 6777.24  577.77
   3  -8   1 5978.75  630.60
   3   8  -1 7874.31  737.36
   3   8   2 3591.89  573.13
   3   8   2 4451.68  780.69
   3  -8  -2 7594.06  951.84
  -3   8  -2 3827.59  686.76
   3   8  -2 3257.50  804.20
   3   8  -2 3176.61  375.73
  -3   8   2 3349.47  523.76
   3  -8   2 3147.37  434.02
   3   8   3 6249.13  666.22
  -3  -8   3 4453.71  363.71
  -3   8  -3 6562.63  635.96
   3   8   3 7782.54  868.53
   3   8  -3 7583.23  694.72
   3   8  -3 5712.07  453.23
   3  -8   3 6540.14  942.76
  -3   8   3 5871.53  669.93
   3   8   428596.70 2404.84
   3   8   427041.50 2034.31
  -3  -8   426034.80 1630.19
  -3   8  -428284.70 2601.74
   3   8  -426891.40 1547.89
   3   8  -429962.40 2194.78
   3  -8   430430.10 2608.55
  -3   8   428558.80 2027.84
   3   8   5  240.65  213.25
   3   8   5  701.95  395.94
  -3  -8   5  403.15  117.05
  -3   8  -5  423.49  255.24
   3   8  -5  549.97  143.52
   3   8  -5  791.01  417.20
  -3   8   5  560.19  196.60
  -3   8   5  497.89  426.50
   3  -8   5  523.13  221.54
  -3  -8   654496.20 3359.91
   3   8   658858.80 5115.65
   3   8   663045.00 5448.85
  -3   8  -661426.40 5498.04
   3   8  -667999.90 5070.85
  -3   8   657770.10 4405.91
  -3   8   659313.30 4577.25
   3  -8   658998.80 5025.08
   3   8   7  380.99  232.60
   3   8   7  856.00  396.76
  -3  -8   7  427.02   46.00
  -3  -8   7  629.43   50.39
   3  -8  -7  158.57  128.93
   3  -8  -7  393.99   99.57
  -3   8  -7  875.93  426.07
   3   8  -7 1146.79  438.91
   3  -8   7  694.59  221.92
  -3   8   7  747.64  252.31
   3   8   840397.50 3090.34
   3   8   844720.30 3264.00
  -3   8  -839916.60 3830.20
   3  -8  -841155.00 2771.69
   3   8  -847546.30 4142.33
  -3   8   842103.90 3827.44
   3  -8   840535.30 3017.20
   3   8   9  540.77  276.50
   3   8   9   84.42  144.24
   3  -8  -9  -14.71   87.84
  -3   8  -9  120.38  286.20
   3  -8  -9   33.75   86.51
   3   8  -9  270.80  161.41
  -3   8   9  501.60  267.28
   3  -8   9  213.20  254.93
   3   8  1014293.60 1589.25
   3   8  1014869.40 1753.42
  -3   8 -1015382.30 1841.51
   3   8 -1016400.10 1756.61
  -3   8  1017188.30 1737.41
   3  -8  1014614.70 1205.63
   3   8  11  924.59  549.95
  -3   8 -11  909.61  559.26
   3   8  11  611.72  463.79
   3   8 -11 1714.00  320.73
   3  -8  11  823.14  510.48
  -3   8  11  417.73  483.97
   3   8  12 7507.83  723.95
   3   8  12 8310.37 1265.34
  -3   8 -12 7483.51 1310.26
   3   8 -12 7992.40  817.61
  -3   8  12 7628.65 1125.46
   3  -8  12 6692.19 1124.27
   3   8  13  472.00  523.71
   3   8  13  635.81  404.53
  -3   8 -13  696.41  321.01
   3   8 -13  589.88  485.13
  -3   8  13  436.62  439.00
   3  -8  13  811.75  275.81
   3   8  14 2149.61  703.66
   3   8  14 1036.97  326.09
  -3   8 -14 1000.47  435.58
   3   8 -14 2364.99  422.11
   3  -8  14 1636.31  372.59
  -3   8  14 1508.08  573.33
   3   8  15 5607.44 1173.23
   3   8  15 3338.53  884.04
  -3   8 -15 4615.39 1163.19
  -3   8  15 4937.53  629.73
   3  -8  15 5796.31 1031.44
   3   8 -15 5485.37  714.74
   3   8  16 7330.80  952.56
   3   8  16 7693.22 1090.80
  -3   8 -16 6864.95 1432.17
   3   8 -16 7719.98 1368.18
   3  -8  16 6939.69 1239.72
  -3   8  16 7123.29 1174.91
   3   8  17 1276.90  458.30
   3   8  17 1139.38  548.02
  -3   8 -17 1775.09  451.17
   3   8 -17 1751.00  737.66
   3  -8  17 1202.58  392.71
  -3   8  17 1362.01  375.78
   3   8  1818789.30 2579.66
   3   8  1816905.90 1956.02
  -3   8 -1817398.50 1793.74
   3   8 -1819907.20 1832.92
  -3   8  1818084.50 2144.43
   3  -8  1818705.50 1650.98
   3   8  19 2654.65  708.69
   3   8  19 1864.96 1009.78
  -3   8 -19 -250.49  979.36
   3   8 -19 3408.34  951.51
   3  -8  19 3322.38  554.66
  -3   8  19 2703.04  827.27
   3   8  2012995.60 2181.48
   3   8  2010368.80 1531.39
  -3   8 -2012225.30 1387.96
   3   8 -2013931.30 1962.68
  -3   8  2013245.70 1262.39
   3  -8  2011301.30 1789.48
   3   8  21  461.04  559.28
  -3   8 -21   76.15  822.46
   3   8  21 2148.13  528.02
   3   8 -21 1909.69  787.42
   3  -8  21 1414.07  696.02
  -3   8  21 1608.18  665.72
   3   8  22 9647.55 1943.69
  -3   8 -2210034.40 1898.19
   3   8 -22 9796.54 1239.04
  -3   8  22 9413.81 1579.84
   3  -8  2210231.40 1663.95
   3   8  23  873.49  865.41
  -3   8 -23  700.95  482.05
   3   8 -23 1616.07  491.16
   3  -8  23  390.14  697.40
  -3   8  23 1344.47  676.10
   3   8  2412640.80 1694.62
  -3   8 -2411138.60 2359.39
   3   8 -2413353.70 2201.42
  -3   8  2412004.10 1984.66
   3  -8  2412793.60 2037.64
  -3   8 -25  316.93  323.73
   3   8  25   82.31  582.58
   3  -8  25  352.38  501.03
  -3   8  25  -69.90  439.67
   3   8  26 4481.88 1173.79
  -3   8 -26 -119.58 1101.13
   3  -8  26 1260.40  972.13
   3   8  27  706.18  398.60
  -3   8 -27  -11.69  377.62
   3  -8  27  -10.64  563.37
   3   9   071863.30 5644.93
   3  -9   077205.40 5923.56
  -3   9   072428.70 6094.53
   3   9   078077.70 6966.67
   3   9   120188.70 1669.86
   3   9   122963.30 2321.57
   3  -9  -128189.20 2458.89
  -3   9  -121086.70 1940.37
   3   9  -123474.30 2344.19
   3   9  -120941.00 1544.56
   3  -9   121797.60 2144.21
  -3   9   120701.50 1792.40
   3   9   216235.80 1472.00
   3   9   217487.50 1899.74
  -3   9  -216780.40 1286.76
   3   9  -215820.60 1136.96
   3  -9   217613.40 1288.97
  -3   9   216246.80 1376.56
   3   9  -217827.30 1395.07
   3   9   333220.20 2558.71
  -3   9  -332510.50 2954.42
   3  -9  -330982.00 3666.51
   3   9   332525.90 2778.75
   3   9  -333880.90 2188.90
   3   9  -336751.40 3341.81
  -3   9   332900.70 2492.48
   3  -9   333638.50 3033.04
   3   9   420105.70 1893.97
   3   9   421347.70 1625.11
  -3   9  -420992.30 1625.88
  -3  -9   418185.40 1125.95
   3   9  -422982.00 2227.31
   3   9  -418823.00 1181.54
   3  -9   421583.80 2035.54
  -3   9   420428.20 1519.02
   3   9   5 3350.79  735.00
   3   9   5 3256.98  480.92
  -3  -9   5 3277.01  258.28
  -3   9  -5 3056.11  485.41
   3   9  -5 3875.10  397.75
  -3   9   5 3526.33  439.84
  -3   9   5 4077.96  875.20
   3  -9   5 4099.03  467.16
   3   9  -5 4027.24  524.92
   3   9   6 7161.74  701.83
   3   9   6 7202.85  695.26
  -3  -9   6 6269.83  425.98
  -3   9  -6 8153.43 1156.34
   3   9  -6 8196.81  816.95
   3   9  -6 7386.59  419.76
   3  -9   6 8574.17 1052.54
  -3   9   6 8243.94  806.25
  -3   9   6 6916.32  599.22
   3   9   7 3471.68  438.94
   3   9   7 2935.90  691.24
  -3  -9   7 2349.93  150.26
  -3  -9   7 2725.94  188.46
  -3   9  -7 3830.81  748.46
   3   9  -7 3294.62  780.03
   3  -9   7 3129.52  408.12
  -3   9   7 2690.03  311.02
  -3   9   7 2730.26  472.12
   3   9   8 1388.40  339.96
   3   9   8  951.08  313.36
  -3  -9   8 1346.69   99.34
   3  -9  -8 1304.79  202.08
  -3   9  -8 1400.72  591.20
  -3  -9   8 1226.53   91.75
   3   9  -8 1222.93  608.21
   3  -9   8 2262.59  559.70
  -3   9   8 1779.52  577.28
   3   9   9 2503.58  736.36
   3   9   9 2076.68  691.29
  -3   9  -9 2838.13  799.88
   3  -9  -9 2486.84  280.04
   3   9  -9 3909.72  474.23
   3  -9   9 2886.19  442.23
  -3   9   9 3525.35  772.92
   3   9  10 6985.95 1213.00
   3   9  10 6528.96 1045.29
  -3   9 -10 7966.02 1251.93
   3   9 -10 7538.98  783.49
   3  -9  10 8222.65 1151.40
  -3   9  10 6812.21 1172.28
   3   9  1111005.40  989.47
   3   9  1112481.80 1667.44
  -3   9 -1111711.80 1667.48
   3   9 -1114972.60 1698.59
  -3   9  1112507.10 1607.63
   3  -9  1112179.40 1065.93
   3   9  1218788.50 1994.41
   3   9  1220240.40 1728.38
  -3   9 -1218511.80 1692.75
   3   9 -1223084.60 2430.53
  -3   9  1219878.50 2152.61
   3  -9  1220171.20 2150.12
   3   9  1323511.50 2369.33
   3   9  1321667.80 1966.69
  -3   9 -1322600.50 2051.88
   3   9 -1323808.20 1990.78
  -3   9  1324346.70 1948.25
   3  -9  1322036.00 2417.67
   3   9  1444842.00 4189.55
   3   9  1445237.50 3920.90
  -3   9 -1446410.10 4048.13
  -3   9  1445272.30 4287.14
   3  -9  1447827.00 3723.51
   3   9 -1448568.20 3904.59
   3   9  1515429.00 1332.91
   3   9  1515614.40 2274.95
  -3   9 -1515136.10 2215.83
   3   9 -1517217.00 2229.84
   3  -9  1516788.70 2011.24
  -3   9  1517609.30 2036.26
   3   9  1614727.50 2150.17
   3   9  1613332.70 1626.29
  -3   9 -1613905.50 2194.64
   3   9 -1616052.20 2094.20
   3  -9  1614913.80 1868.08
  -3   9  1615451.90 1366.34
   3   9  1711257.60 1786.58
  -3   9 -17 9254.90 1164.58
   3   9  17 8333.80 1259.93
   3   9 -1710134.90 1151.59
  -3   9  17 7871.40 1457.35
   3  -9  17 8596.93 1459.88
   3   9  1813474.80 1262.15
   3   9  1816466.40 2381.03
  -3   9 -1813532.90 2230.40
   3   9 -1815259.60 1519.76
   3  -9  1815045.30 1379.29
  -3   9  1815661.30 1985.63
   3   9  19  167.21  181.18
   3   9  19  486.94  284.88
  -3   9 -19 -353.72  486.19
   3   9 -19  442.79  472.60
   3  -9  19  466.03  242.41
  -3   9  19  -53.85  232.60
   3   9  20 2434.72  677.77
   3   9  20 3630.48  645.05
  -3   9 -20  100.92  604.09
   3   9 -20 3293.35  993.18
   3  -9  20 3546.24  886.67
  -3   9  20 3702.93  854.86
   3   9  21  634.68  614.74
  -3   9 -21  -20.30  587.43
   3   9 -21  818.96  570.96
  -3   9  21 -168.30  489.33
   3  -9  21  767.96  501.07
   3   9  22 1521.77  821.73
  -3   9 -22   -7.31  456.49
   3   9 -22 1249.00  775.49
   3  -9  22 1438.84  663.63
  -3   9  22 1656.20  650.97
   3   9  23 1224.57  564.39
  -3   9 -23   78.28  865.62
   3   9 -23 1510.52  530.12
  -3   9  23 1249.60  438.57
   3  -9  23 1556.65  748.69
   3   9  24 3948.96  888.24
  -3   9 -24 3639.19  842.54
   3   9 -24 4121.85  802.81
   3  -9  24 3830.16 1184.95
  -3   9  24 3406.63  718.15
   3   9  25 4039.49 1698.59
  -3   9 -25 3429.16 1608.15
   3   9 -25 6404.05 1575.83
  -3   9  25 5233.78  873.03
   3  -9  25 5097.74 1414.14
   3   9  26 6983.21 1194.67
  -3   9 -26 5994.31 1143.66
   3  -9  26  -24.75 1562.72
  -3   9  26 7197.73  990.85
   3   9  27 3533.73  759.42
  -3   9 -27 -239.02 1195.72
   3  -9  27   20.61 1061.64
   3  10   0    1.56  204.25
  -3  10   0  424.12  151.60
   3 -10   0  483.11  354.14
   3  10   0  261.72  125.23
   3  10   1 6595.14  719.85
   3  10   1 6772.55  809.80
  -3  10  -1 6945.07  943.22
   3 -10  -1 8855.26 1324.46
   3  10  -1 8315.54 1174.63
   3  10  -1 7189.02  720.11
   3 -10   1 7720.23  722.65
  -3  10   1 6551.22  844.99
   3  10   210842.60 1174.72
   3  10   210072.00 1011.22
  -3  10  -211214.30  980.81
   3  10  -214471.20 1629.43
   3  10  -211632.20  942.58
   3 -10   212544.70 1485.53
  -3  10   211698.00 1137.72
   3  10   324665.20 2228.93
   3  10   328106.70 2145.08
  -3  10  -327392.50 2558.99
   3 -10  -331154.00 3438.30
   3  10  -325326.30 1722.09
   3 -10   325583.60 1923.02
  -3  10   324807.60 1660.53
   3  10  -329332.80 2809.05
   3  10   4 1682.14  345.12
  -3  10  -4 1141.14  341.25
   3  10   4 1214.82  475.61
   3  10  -4 1824.75  361.62
   3  10  -4 1399.00  239.30
   3 -10   4 1415.53  565.49
  -3  10   4  959.33  318.38
   3  10   539079.80 3486.46
   3  10   540988.40 3108.33
  -3 -10   532831.10 2182.03
  -3  10  -538301.10 3006.77
   3  10  -544194.10 3351.96
   3  10  -540906.70 2802.25
   3 -10   538950.60 2911.16
  -3  10   537629.70 2721.89
  -3  10   540024.80 3876.50
   3  10   6 3791.97  526.89
  -3 -10   6 4131.65  309.70
  -3  10  -6 2891.70  925.92
   3  10   6 3840.09  519.47
   3  10  -6 3373.70  553.77
   3  10  -6 3093.96  315.14
   3 -10   6 5338.69  871.94
  -3  10   6 5685.71  632.54
  -3  10   6 3661.59  427.05
   3  10   757093.70 5219.90
   3  10   759561.60 5235.06
  -3 -10   753937.50 3315.71
  -3 -10   751836.40 3534.87
  -3  10  -763286.20 5772.29
   3 -10   759213.30 4462.87
  -3  10   756331.20 4598.47
  -3  10   758626.70 4148.43
   3  10  -768455.60 6100.86
   3  10   8 8635.01  856.83
   3  10   8 8602.74 1156.71
  -3 -10   8 7942.58  484.82
  -3 -10   8 7965.83  437.14
  -3  10  -8 7613.50 1331.24
   3  10  -8 9190.72 1366.86
   3 -10   8 9732.38 1277.22
  -3  10   8 8296.14  579.36
  -3  10   8 8634.19  893.22
   3  10   938846.60 3704.14
   3  10   937515.30 3355.22
  -3 -10   934374.20 1886.25
  -3  10  -937925.40 3746.29
   3 -10  -935395.10 2344.66
  -3 -10   933844.50 1812.63
   3  10  -940293.90 3786.42
   3 -10   936780.90 2785.54
  -3  10   937181.80 3687.84
   3  10  10  700.66  263.61
  -3 -10  10  639.31   56.50
  -3 -10  10  728.10   59.44
  -3  10 -10  711.09  313.58
   3 -10 -10  332.34  116.39
   3  10  10  916.33  512.32
   3  10 -10  578.18  298.13
   3 -10  10  664.99  476.69
  -3  10  10 1025.64  308.08
   3  10  1127416.80 2588.09
   3  10  1125991.60 2160.25
  -3  10 -1124204.70 2136.56
   3  10 -1128720.10 2272.70
   3 -10  1126178.10 2015.23
  -3  10  1127756.10 2191.96
   3  10  12 1561.23  564.14
   3  10  12 2139.38  444.89
  -3  10 -12 1672.02  469.89
   3  10 -12 1786.89  436.57
   3 -10  12 1834.56  652.25
  -3  10  12 1818.51  423.19
   3  10  13 2949.09  758.77
   3  10  13 3653.08  614.40
  -3  10 -13 3901.22 1025.79
   3 -10  13 4946.27  906.30
  -3  10  13 3399.56  916.07
   3  10 -13 3567.04  989.24
   3  10  14 2447.26  946.53
  -3  10 -14  976.49  923.05
   3  10  14 1693.82  687.52
   3  10 -14 2975.06  930.87
   3 -10  14 3789.64  502.53
  -3  10  14 2188.53  833.93
   3  10  15 2804.18  668.65
   3  10  15 2436.00  567.02
  -3  10 -15 1989.08  934.40
   3  10 -15 2609.24  928.86
   3 -10  15 3100.82  826.72
  -3  10  15 2303.19  499.91
   3  10  16  991.44  334.85
   3  10  16 1182.54  459.68
  -3  10 -16 1431.34  481.92
   3  10 -16 2194.28  471.64
   3 -10  16 1521.82  660.51
  -3  10  16 1563.19  673.59
   3  10  17 7364.28 1203.45
   3  10  17 8997.32 1147.11
  -3  10 -17 8183.36 1694.95
   3 -10  17 8387.68  969.98
  -3  10  17 8953.85 1483.17
   3  10 -17 9385.94 1126.36
   3  10  18 1457.71  727.00
   3  10  18 3412.80  707.39
  -3  10 -18 3515.21 1109.83
   3  10 -18 2397.32  686.68
   3 -10  18 3930.29  592.18
  -3  10  18 2476.05  597.22
   3  10  1918686.90 2159.62
   3  10  1919002.80 2034.62
  -3  10 -1920870.30 2164.78
   3  10 -1924144.90 3016.18
   3 -10  1919387.90 1820.06
  -3  10  1917873.80 2469.30
   3  10  20 2389.00 1008.25
  -3  10 -20 -116.83  973.73
   3  10 -20 2835.13  963.13
   3 -10  20 2308.09  831.58
  -3  10  20 2287.07  847.46
   3  10  2123304.70 3312.14
  -3  10 -2119037.90 2130.29
   3  10 -2126748.80 3235.51
   3 -10  2123928.90 2817.63
  -3  10  2121283.70 2009.57
   3  10  22  -71.64  214.10
  -3  10 -22   42.78  343.92
   3  10 -22  261.85  360.17
   3 -10  22  -72.23  289.66
  -3  10  22  -63.39  178.95
   3  10  2314707.00 1812.66
  -3  10 -2312380.70 2504.35
   3  10 -2315588.50 2640.73
   3 -10  2314725.00 2185.48
  -3  10  2313081.90 2199.99
   3  10  24   91.49  545.04
  -3  10 -24  -21.54  308.50
   3  10 -24  143.93  303.98
   3 -10  24  147.89  442.41
  -3  10  24  610.81  449.49
   3  10  25 5495.39 1756.81
  -3  10 -25 4016.38 1716.86
   3  10 -25 6814.89 1087.59
   3 -10  25 5411.54 1476.75
  -3  10  25 6599.27 1524.04
   3  10  26  -73.82  231.83
  -3  10 -26  392.01  372.34
   3 -10  26  -55.72  192.45
  -3  10  26 -108.53  325.28
   3  11   042645.20 3379.68
  -3  11   040839.30 3026.75
   3 -11   049630.40 4584.87
   3  11   045664.90 4224.86
   3  11   153502.20 4933.92
   3  11   149711.30 4085.75
  -3  11  -150093.90 4367.77
   3  11  -148754.40 3727.33
   3 -11   153871.50 4805.93
  -3  11   149485.90 4119.07
   3  11  -152222.60 4116.95
   3  11   227042.40 1913.61
  -3  11  -228379.40 2180.75
   3 -11  -230496.10 3238.10
   3  11   229856.90 2904.76
   3  11  -230930.70 2373.21
   3  11  -228212.70 2076.36
   3 -11   227471.90 2096.58
  -3  11   227333.10 2289.63
   3  11   324564.10 2486.38
   3  11   324255.10 2174.22
  -3  11  -323538.00 2344.92
   3  11  -323007.80 1652.87
   3 -11   322979.00 2386.00
  -3  11   323434.70 1924.42
   3  11  -326702.60 2073.92
   3  11   4 7709.29 1051.99
   3  11   4 7342.92  745.72
  -3  11  -4 8667.34 1219.57
   3  11  -4 7921.33  824.57
   3  11  -4 7706.88  669.19
   3 -11   4 7612.41  758.06
  -3  11   4 6837.55  735.81
   3  11   511250.60 1283.51
   3  11   5 9894.20  937.70
  -3  11  -5 9649.03  948.53
   3  11  -510111.50  752.48
   3 -11   510463.40 1349.57
  -3  11   5 8942.85  842.51
  -3  11   511369.40 1574.63
   3  11  -510983.70 1037.03
   3  11   6 2833.24  453.99
   3  11   6 3002.18  465.35
  -3  11  -6 3587.29  510.69
   3  11  -6 3276.85  513.94
   3  11  -6 3033.63  332.25
   3 -11   6 3024.40  446.54
  -3  11   6 2893.57  388.20
  -3  11   6 3782.99  569.44
   3  11   7 2272.46  687.97
   3  11   7 2034.90  659.07
  -3 -11   7 2741.23  330.39
  -3  11  -7 2980.47  475.11
   3  11  -7 3284.88  803.09
   3 -11   7 2094.87  701.67
  -3  11   7 1684.83  316.48
  -3  11   7 2413.53  514.35
   3  11   8 2407.05  466.88
   3  11   8 2603.97  686.86
  -3 -11   8 2739.32  204.89
  -3  11  -8 3692.26  532.65
   3  11  -8 3357.95  817.07
   3 -11   8 2416.49  737.28
  -3  11   8 2157.29  292.04
  -3  11   8 4045.54  529.01
   3  11   9 6055.20 1098.73
   3  11   9 5475.85  913.59
  -3  11  -9 6751.53  776.08
  -3 -11   9 5442.46  342.79
   3  11  -9 7380.56 1174.94
   3 -11   9 6225.90  668.04
  -3  11   9 4633.71  733.03
  -3  11   9 4295.42  355.70
   3  11  10 5948.19  750.85
  -3 -11  10 5197.17  310.17
  -3  11 -10 5951.08  808.29
   3  11  10 7363.14  969.28
   3  11 -10 6497.70 1206.14
   3 -11  10 5659.65 1090.15
  -3  11  10 6008.93  756.02
   3  11  1130873.80 3400.17
   3  11  1130658.90 2929.41
  -3  11 -1132324.50 2828.34
   3 -11  1131227.20 2479.61
  -3  11  1133293.90 3450.15
   3  11 -1135615.10 3669.93
   3  11  1217354.00 1423.27
  -3  11 -1218635.20 2458.55
   3  11  1218360.80 2386.12
   3  11 -1219348.20 2454.67
   3 -11  1219176.10 2133.12
  -3  11  1220166.20 2387.34
   3  11  1311259.50 1709.27
   3  11  13 9986.13 1320.37
  -3  11 -1310644.00 1700.85
   3  11 -1310024.30 1176.99
   3 -11  13 9239.85  997.57
  -3  11  13 9670.46 1053.67
   3  11  1410022.20 1811.17
   3  11  14 9840.95  973.17
  -3  11 -1410649.10 1225.24
   3  11 -1411465.20 1265.09
   3 -11  1412201.20 1145.59
  -3  11  1411843.20 1727.61
   3  11  1511773.70 1869.34
   3  11  1511446.20 1431.91
  -3  11 -1510701.80 1236.38
   3 -11  1511474.70 1619.51
  -3  11  1510964.70 1750.63
   3  11 -1510301.00 1249.43
   3  11  16 6035.30 1497.33
  -3  11 -16 6562.60 1525.03
   3  11  16 6613.06 1083.39
   3  11 -16 7443.24  989.27
   3 -11  16 7197.11 1289.53
  -3  11  16 7058.46  875.52
   3  11  1722365.00 3074.24
   3  11  1721070.70 1844.24
  -3  11 -1722456.80 2287.94
   3  11 -1725510.20 3267.29
   3 -11  1723018.80 2022.54
  -3  11  1725836.10 2892.08
   3  11  1810493.10 1356.96
   3  11  1810493.00 1973.39
  -3  11 -18 8471.52 1274.60
   3  11 -1811305.60 1954.50
   3 -11  18 9271.28 1077.94
  -3  11  1811224.00 1732.51
   3  11  19 1232.78 1112.20
  -3  11 -19 1315.33 1131.98
   3  11 -19 3484.20 1121.32
   3 -11  19 3434.18  920.32
  -3  11  19 3287.49  613.27
   3  11  20 2114.95 1046.89
  -3  11 -20 2173.84  610.09
   3  11 -20 2418.94 1009.50
   3 -11  20 1842.04  845.24
  -3  11  20 2294.55  889.31
   3  11  21  492.51  329.69
  -3  11 -21   40.04  548.85
   3  11 -21  106.21  560.63
   3 -11  21  564.03  459.93
  -3  11  21 -255.78  484.67
   3  11  22  504.03  371.65
  -3  11 -22  178.06  623.26
   3  11 -22 1067.69  666.81
   3 -11  22  217.72  505.71
  -3  11  22 -156.14  538.95
   3  11  23 2006.25  615.64
  -3  11 -23 1368.01  615.53
   3  11 -23 2084.27 1068.48
   3 -11  23 1315.11  488.76
  -3  11  23 1603.95  872.26
   3  11  24  250.02  972.12
  -3  11 -24 1388.68  938.82
   3  11 -24 1562.77  947.70
   3 -11  24 1228.20  456.22
  -3  11  24 1042.04  828.51
   3  11  25 6235.06 1723.98
  -3  11 -25 3935.48 1018.24
   3  11 -25 4719.44 1641.76
   3 -11  25 5429.26  886.59
  -3  11  25 4566.96 1455.78
   3  11  26 3830.72  923.71
  -3  11 -26 3099.82 1515.68
   3  11 -26 4185.91 1398.56
   3 -11  26 3310.91  774.19
  -3  11  26 2653.90 1295.46
   3  12   0 3734.95  556.96
  -3  12   0 2779.06  400.28
   3 -12   0 3294.06  794.24
   3 -12   0  945.35  456.45
   3  12   0 3779.48  486.48
   3  12   1 3619.66  652.32
  -3  12  -1 3284.12  779.77
   3  12   1 4665.73  929.88
   3  12  -1 3663.76  583.94
   3  12  -1 3827.26  586.35
   3 -12   1 4283.91  549.95
  -3  12   1 4207.49  670.43
   3  12   211803.60 1493.01
   3  12   210113.40  826.90
  -3  12  -212116.10 1010.54
   3 -12  -212671.10 2106.79
   3  12  -211126.10 1092.79
   3  12  -211505.80  987.98
   3 -12   211705.90 1483.27
  -3  12   2 9522.01 1074.44
   3  12   3 1243.55  618.85
   3  12   3 1964.34  532.79
  -3  12  -3 1225.29  595.97
   3  12  -3 1760.17  349.43
   3  12  -3 2500.67  422.67
   3 -12   3 1902.33  640.35
  -3  12   3 1383.92  410.68
   3  12   432590.10 3192.46
   3  12   431705.90 2985.22
  -3  12  -431779.30 3197.59
   3  12  -432206.60 2332.43
   3 -12   435395.70 3285.41
  -3  12   432108.60 2517.64
   3  12  -438314.00 2989.49
   3  12   5 2726.03  728.67
   3  12   5 3532.84  695.58
  -3  12  -5 2816.44  806.99
   3  12  -5 3144.39  528.66
   3  12  -5 1609.85  379.82
   3 -12   5 3195.22  764.38
  -3  12   5 3409.78  420.81
  -3  12   5 3014.75  947.35
   3  12   638396.80 3093.87
   3  12   640631.80 3247.47
  -3  12  -641318.70 4054.80
   3  12  -646451.30 3625.38
   3  12  -642219.50 2864.57
   3 -12   639741.60 3102.42
  -3  12   642518.90 4286.21
  -3  12   638946.10 2921.99
   3  12   7 3001.46  730.36
  -3 -12   7 3183.63  423.99
  -3  12  -7 2888.15  886.27
   3  12   7 3237.72  490.89
   3  12  -7 2249.08  509.14
   3 -12   7 2967.91  832.66
  -3  12   7 2836.80  979.11
  -3  12   7 2368.07  353.32
   3  12   845106.30 4364.64
   3  12   848568.20 4424.65
  -3 -12   844857.60 2929.99
  -3  12  -846847.20 4723.37
   3  12  -849480.70 3951.52
   3 -12   843635.00 3380.45
  -3  12   841836.80 3201.95
  -3  12   847730.00 4780.80
   3  12   9  328.07  220.21
  -3 -12   9  374.99   99.01
  -3  12  -9  570.84  486.22
   3  12   9  790.62  258.01
   3  12  -9  714.01  272.71
   3 -12   9  736.07  416.69
  -3  12   9  307.92  508.18
  -3  12   9  242.86  120.87
   3  12  1044997.40 4639.59
   3  12  1047172.60 4366.61
  -3  12 -1048259.20 5037.36
  -3 -12  1044331.50 2786.12
   3  12 -1050729.00 5012.48
   3 -12  1046127.70 3678.21
  -3  12  1050509.10 5057.80
   3  12  11 1152.65  533.10
  -3  12 -11 1463.77  737.47
   3  12  11 1443.14  706.10
   3  12 -11 1375.81  732.29
   3 -12  11 1075.04  632.03
  -3  12  11 1643.88  747.17
   3  12  12 4034.08  671.01
   3  12  12 3015.10  810.64
  -3  12 -12 4554.05  753.06
   3  12 -12 4693.38 1164.35
   3 -12  12 5023.38  974.21
  -3  12  12 5091.70  726.82
   3  12  13 1507.46  458.39
   3  12  13 1407.75  539.91
  -3  12 -13 1754.35  468.94
   3  12 -13 1261.60  827.53
   3 -12  13 1523.45  401.49
  -3  12  13 1131.51  733.18
   3  12  14  134.29  318.27
   3  12  14  839.78  375.02
  -3  12 -14  -16.56  571.82
   3  12 -14  817.96  580.67
   3 -12  14  527.39  481.47
  -3  12  14  931.91  538.90
   3  12  15  180.27  169.61
  -3  12 -15  753.02  462.26
   3  12  15 -364.46  448.07
   3  12 -15  494.02  477.30
   3 -12  15  -58.07  378.97
  -3  12  15  317.83  426.04
   3  12  16 1568.51  856.55
   3  12  16 1485.04  528.68
  -3  12 -16  806.92  510.04
   3  12 -16 2224.28  872.84
   3 -12  16 1956.61  416.82
  -3  12  16 1352.96  789.27
   3  12  17 1872.56  948.34
  -3  12 -17 1628.32  949.60
   3  12  17 1402.29  571.52
   3  12 -17 2924.74  996.92
   3 -12  17 2052.63  473.84
  -3  12  17 1785.31  853.03
   3  12  1817183.30 2703.32
   3  12  1814509.30 1807.49
  -3  12 -1816190.70 2665.89
   3  12 -1820515.30 2838.86
   3 -12  1818229.40 2311.91
  -3  12  1818869.60 1818.03
  -3  12 -19 1029.73  455.42
   3  12  19  444.32  749.75
   3  12 -19  835.02  780.37
   3 -12  19  823.80  612.03
  -3  12  19  650.10  661.00
   3  12  2019063.80 2146.06
  -3  12 -2017970.60 3030.57
   3  12 -2024029.90 3257.16
   3 -12  2019079.20 2627.08
  -3  12  2021627.90 2828.06
   3  12  21 1461.45  540.71
  -3  12 -21  568.09  534.42
   3  12 -21 1645.04  938.20
   3 -12  21 1543.56  450.35
  -3  12  21  808.80  502.76
   3  12  2220964.60 2297.36
  -3  12 -2216545.70 2199.11
   3  12 -2221396.50 3354.32
   3 -12  2221290.80 2044.00
  -3  12  2219535.20 2087.66
   3  12  23  751.99  540.77
  -3  12 -23  338.93  533.11
   3  12 -23  243.04  576.67
   3 -12  23  240.86  251.96
  -3  12  23 -194.14  280.62
   3  12  2410419.20 2381.60
  -3  12 -2410389.10 1651.65
   3  12 -2414146.40 2490.06
   3 -12  2410648.70 1974.89
  -3  12  2410484.00 2138.46
   3  12  25  -30.27  217.00
  -3  12 -25  -66.04  374.18
   3  12 -25  -92.56  384.58
   3 -12  25 -203.10  308.91
  -3  12  25  362.51  334.56
   3  13   020560.40 2356.36
  -3  13   020683.30 2031.30
   3  13   018965.90 1364.84
   3  13   117477.10 2112.71
   3  13   116132.80 1628.15
  -3  13  -118458.30 1892.18
   3 -13  -133634.40 2920.86
   3  13  -116654.10 2167.03
   3 -13   117379.00 2057.42
   3  13  -115487.20 1483.18
  -3  13   114652.30 1621.79
   3  13   225680.60 2389.09
   3  13   226862.40 2203.14
   3 -13  -231733.70 3796.43
  -3  13  -226839.80 2709.44
   3  13  -231207.20 3130.63
   3  13  -225140.80 1695.23
  -3  13   226963.20 2336.18
   3 -13   227535.20 2188.67
   3  13   316117.90 1346.98
   3  13   314590.90 1568.90
   3 -13  -310023.60 1444.80
  -3  13  -313169.80 1236.92
   3  13  -313926.30 1200.81
   3  13  -317007.00 2029.62
  -3  13   314549.00 1364.40
   3 -13   316889.80 1841.26
   3  13   411118.50 1485.96
   3  13   4 9761.80 1325.27
  -3  13  -410056.90 1022.58
   3  13  -411332.60 1125.41
   3  13  -410511.40  948.83
   3 -13   410452.90 1007.62
  -3  13   4 9938.04 1015.79
   3  13   5 9726.31 1350.39
   3  13   5 8722.63 1256.83
  -3  13  -5 7489.51  892.67
   3  13  -5 8716.94  805.31
   3  13  -5 9637.70 1012.11
   3 -13   5 8730.82  886.68
  -3  13   5 8388.79  820.96
  -3  13   5 9417.51 1629.79
   3  13   6 2550.43  700.68
   3  13   6 2735.39  714.13
  -3  13  -6 2049.97  772.45
   3  13  -6 2879.93  486.42
   3  13  -6 2030.65  369.17
   3 -13   6 2466.41  741.50
  -3  13   6 2709.34  898.88
  -3  13   6 2146.49  382.37
   3  13   7 2631.42  447.54
  -3  13  -7 2715.74  803.68
   3  13   7 2146.12  410.65
   3  13  -7 3074.66  507.83
   3 -13   7 2400.18  460.64
  -3  13   7 3462.31  915.77
  -3  13   7 1602.61  329.21
   3  13   8 8943.19 1343.09
   3  13   8 8037.41 1168.91
  -3 -13   8 7339.93  669.43
  -3  13  -8 6525.30  909.21
   3  13  -8 8854.03  965.64
   3 -13   8 8696.79 1296.07
  -3  13   8 8798.54 1543.97
  -3  13   8 6777.14  624.88
   3  13   9 1222.53  663.17
   3  13   9 1243.04  313.53
  -3 -13   9  971.70  179.07
  -3  13  -9 1996.97  425.36
   3 -13   9 1457.06  582.59
  -3  13   9  623.06  261.20
   3  13  -9 1754.59  407.27
  -3  13   9 1715.33  714.31
   3  13  1010358.40 1682.84
   3  13  1012277.30 1511.20
  -3  13 -1011201.10 1252.08
   3  13 -1013645.20 1379.10
   3 -13  1011641.10 1124.75
  -3  13  1011083.10 1276.57
   3  13  11 6778.07 1212.82
  -3  13 -11 6783.21  998.07
   3  13  11 7624.18  953.23
   3  13 -11 8189.64 1029.68
   3 -13  11 9845.84 1402.40
  -3  13  11 8883.79 1030.59
   3  13  1213024.00 2008.81
   3  13  1213421.70 1682.80
  -3  13 -1212578.00 2082.55
   3  13 -1214414.20 1546.98
   3 -13  1215073.40 1361.69
  -3  13  1213850.00 2141.27
   3  13  13 2682.98 1193.79
   3  13  13 3577.32  553.96
  -3  13 -13 4189.28 1270.27
   3  13 -13 5437.13  829.35
   3 -13  13 4950.22  685.69
  -3  13  13 6199.63  821.95
   3  13  1422351.20 2844.68
   3  13  1419161.10 2164.81
  -3  13 -1420766.80 2147.28
   3  13 -1421960.10 2178.47
   3 -13  1420906.20 2527.34
  -3  13  1422284.90 2783.14
   3  13  1512627.40 1473.68
   3  13  1513168.90 1615.15
  -3  13 -1513526.60 1630.27
   3  13 -1515983.10 2390.75
   3 -13  1513979.90 1956.14
  -3  13  1515781.00 2231.60
   3  13  16 7163.51 1000.04
   3  13  16 4892.36  634.20
  -3  13 -16 6583.91 1617.54
   3  13 -16 8517.08 1678.25
   3 -13  16 6877.52  848.92
  -3  13  16 6796.72 1475.75
   3  13  17 5134.76 1002.96
  -3  13 -17 7047.79 1039.78
   3  13  17 6305.17 1019.44
   3  13 -17 6889.58 1730.15
   3 -13  17 7380.09 1390.91
  -3  13  17 7762.01  995.96
   3  13  18 3450.64  734.89
  -3  13 -18 2633.85  729.03
   3  13 -18 3121.30 1270.62
   3 -13  18 3690.46 1000.16
  -3  13  18 3840.81 1146.86
   3  13  19 4862.31  894.95
  -3  13 -19 3822.39 1527.28
   3  13 -19 5008.95 1576.96
   3 -13  19 5885.87 1208.61
  -3  13  19 6264.67 1396.64
   3  13  20  913.80  416.43
  -3  13 -20  545.67  444.59
   3  13 -20 1229.08  772.55
   3 -13  20  258.02  346.73
  -3  13  20  771.92  398.12
  -3  13 -21  953.45  886.65
   3  13  21 1371.44  522.02
   3  13 -21  509.95  934.29
   3 -13  21  940.47  426.13
  -3  13  21 1848.42  816.56
   3  13  22 1075.42  959.52
  -3  13 -22  939.26  967.96
   3  13 -22 2219.77 1061.19
   3 -13  22 1680.76  784.37
  -3  13  22  605.63  865.09
   3  13  23   37.39  827.21
  -3  13 -23 1049.66  838.66
   3  13 -23 1643.95  927.02
   3 -13  23  991.90  676.01
  -3  13  23  125.62  753.33
   3  13  24 4358.13 1408.19
  -3  13 -24 3926.37 1439.55
   3  13 -24 4637.85 1514.62
   3 -13  24 2938.16 1165.14
  -3  13  24 1347.93 1309.62
   3  13  25 1343.83  600.62
  -3  13 -25 1064.69  613.69
   3  13 -25  643.25 1063.69
   3 -13  25 1358.16  826.02
  -3  13  25  941.52  921.67
   3  14   0 5821.46  726.96
   3 -14   0 6768.60 1167.02
   3  14   0 4749.94  778.42
  -3  14   0 3650.54  884.47
   3  14   1 7604.07  651.10
   3 -14  -1 2651.66 1342.79
   3  14   1 6762.68  815.65
  -3  14  -1 6522.14  708.22
   3  14  -1 5491.78  841.83
   3  14  -1 6969.24 1291.54
  -3  14   1 6566.25  652.08
   3 -14   1 7051.43 1228.70
   3  14   2 2256.98  565.10
   3  14   2 1949.55  701.81
  -3  14  -2 1847.54  385.50
   3  14  -2 1602.24  452.55
   3  14  -2 2723.72  764.14
  -3  14   2 1666.75  502.71
   3 -14   2 1978.73  433.44
   3  14   3 8081.23 1270.69
   3  14   3 8030.69 1109.36
   3 -14  -3 6905.31 1081.87
  -3  14  -3 7437.06 1234.37
   3  14  -3 8465.68 1416.97
   3  14  -3 8088.02  898.61
  -3  14   3 6500.01  885.26
   3 -14   3 7117.34  817.65
   3  14   4 6619.26  751.83
   3  14   4 6211.54  702.79
  -3  14  -4 4495.27 1154.56
   3  14  -4 7091.43  791.91
   3  14  -4 7549.22 1336.53
  -3  14   4 5416.37  760.64
   3 -14   4 6678.65 1185.35
   3  14   537857.00 3075.32
   3  14   535328.00 2914.46
  -3  14  -535797.20 3800.33
   3  14  -540372.20 3347.74
   3  14  -534457.60 2744.96
   3 -14   534382.40 2812.17
  -3  14   540403.60 4198.68
  -3  14   535575.10 2854.36
   3  14   6 1344.95  631.96
   3  14   6 1338.37  602.70
  -3  14  -6 1150.63  704.11
   3  14  -6 1333.72  409.84
   3 -14   6 1568.09  392.94
  -3  14   6 1024.43  326.33
  -3  14   6 1162.79  810.16
   3  14   755127.30 4708.75
   3  14   759505.50 6041.76
  -3  14  -759014.10 6181.58
   3  14  -766485.00 5716.41
   3 -14   761259.80 5927.57
  -3  14   762507.50 5478.51
  -3  14   757227.60 4488.30
   3  14   8  670.92  500.95
   3  14   8  614.35  376.12
  -3  14  -8 1757.27  661.47
  -3 -14   8  842.67  214.63
   3  14  -8 1288.18  438.55
  -3  14   8  694.27  223.83
   3 -14   8 1374.73  339.45
  -3  14   8 1201.40  427.97
   3  14   925535.40 2974.30
   3  14   925723.80 2720.89
  -3  14  -927239.40 3175.78
   3  14  -929861.30 3312.99
   3 -14   925147.30 2104.07
  -3  14   925937.70 2402.76
   3  14  10 3246.92  820.09
   3  14  10 3733.36  627.24
  -3  14 -10 3009.48 1096.55
   3  14 -10 3906.00 1158.54
  -3  14  10 4199.45 1157.71
   3 -14  10 3866.23  946.08
   3  14  1123401.10 2459.37
   3  14  1123765.30 2942.27
  -3  14 -1121206.10 2159.30
   3  14 -1125063.40 3125.52
  -3  14  1124806.30 3094.24
   3 -14  1122654.70 1950.53
   3  14  12 6206.37  897.66
   3  14  12 5503.03 1036.46
  -3  14 -12 4947.61  927.42
   3  14 -12 7583.46 1548.48
  -3  14  12 7641.00  993.54
   3 -14  12 6975.45 1290.63
   3  14  13 6137.07  678.65
   3  14  13 5606.43  913.12
  -3  14 -13 7307.94 1545.02
   3  14 -13 7213.92 1579.52
   3 -14  13 7060.76 1292.33
  -3  14  13 6597.26 1554.54
   3  14  14 1073.62  778.88
   3  14  14 1135.33  480.54
  -3  14 -14 1225.81  777.39
   3  14 -14 1358.99  833.96
   3 -14  14  716.17  384.48
  -3  14  14 1487.69  467.70
   3  14  15 3130.73  805.84
   3  14  15 2178.92 1151.93
  -3  14 -15 3387.52  722.70
   3  14 -15 3321.44  766.58
  -3  14  15 2826.26 1186.79
   3 -14  15 4864.21  651.10
   3  14  16 2192.56 1006.89
   3  14  16 1970.45  394.63
  -3  14 -16 1355.31  626.34
   3  14 -16 3107.24  667.40
   3 -14  16 2200.01  857.73
  -3  14  16 2540.38  594.87
   3  14  17 3070.45 1203.76
  -3  14 -17 3468.27 1291.35
   3  14 -17 4202.33  826.87
   3 -14  17 3890.61 1027.36
  -3  14  17 2501.79 1221.48
   3  14  18 1504.65  877.91
  -3  14 -18 1564.94  537.47
   3  14 -18  928.22  577.84
   3 -14  18 1510.42  445.43
  -3  14  18 1231.61  524.67
   3  14  1912077.90 2392.57
  -3  14 -1914024.20 1712.09
   3  14 -1914910.30 1798.12
   3 -14  1913604.60 1439.41
  -3  14  1913183.60 1585.20
   3  14  20  201.91  630.20
  -3  14 -20   93.90  655.60
   3  14 -20  338.38  407.42
   3 -14  20  690.78  511.80
  -3  14  20  370.16  611.13
   3  14  2116355.60 2890.00
  -3  14 -2116283.40 2085.11
   3  14 -2117882.20 2177.85
   3 -14  2118277.40 2515.70
  -3  14  2120483.40 2889.03
   3  14  22  232.79  584.36
  -3  14 -22  384.89  603.80
   3  14 -22  467.72  676.05
   3 -14  22  211.19  472.27
  -3  14  22  118.23  327.29
   3  14  23 8338.37 2349.05
  -3  14 -2310736.00 1635.08
   3  14 -2311242.10 2677.64
   3 -14  2311369.50 1977.23
  -3  14  2311259.10 1525.43
   3  14  24 -343.57  722.35
  -3  14 -24  422.92  721.18
   3  14 -24  727.11  770.78
  -3  14  24  420.82  393.33
   3 -14  24  416.37  340.14
   3  15   021043.80 1963.71
   3 -15   040447.70 3313.17
   3  15   016401.50 1371.32
  -3  15   018374.00 1650.48
   3  15   131354.50 2871.87
   3  15   136315.30 3694.94
   3 -15  -116199.60 3161.46
  -3  15  -129946.00 3026.98
   3  15  -135240.20 2903.94
   3  15  -129681.50 2681.72
  -3  15   129861.20 2833.66
   3 -15   135835.80 3542.12
   3  15   210155.80  937.88
   3  15   210425.80 1648.66
  -3  15  -2 9321.19 1470.20
   3 -15  -227786.90 2637.01
   3  15  -210347.20 1729.56
   3  15  -210107.80 1164.55
   3 -15   210400.20 1636.09
  -3  15   2 9323.27  865.04
   3  15   319647.50 1748.61
   3  15   318621.70 2085.67
  -3  15  -317563.70 2181.04
   3 -15  -312584.20 2824.38
   3  15  -322159.80 2582.61
   3  15  -320107.80 1798.68
   3 -15   319775.10 1675.83
  -3  15   317714.80 1791.69
   3  15   4 9061.14 1507.73
   3  15   4 8777.42 1345.85
  -3  15  -4 8731.41  991.36
   3  15  -4 9429.74 1618.96
  -3  15   4 8711.30 1015.65
   3  15  -4 9123.97 1050.88
   3 -15   4 9844.16 1004.84
   3  15   5 3053.95  811.64
  -3  15  -5 2645.77  566.74
   3  15   5 2578.81  801.43
   3  15  -5 1862.70  526.47
   3  15  -5 2921.66  603.24
  -3  15   5 2794.98  510.66
  -3  15   5 3318.13  629.39
   3 -15   5 4102.84  872.85
   3  15   6 1404.39  379.85
   3  15   6 1609.48  662.33
  -3  15  -6 1828.71  448.94
  -3  15   6 1515.00  496.30
   3  15  -6 2291.87  462.46
  -3  15   6 1142.53  356.54
   3 -15   6 1209.40  397.98
   3  15   7 3810.45  872.45
   3  15   7 3059.43  573.10
  -3  15  -7 3390.65  619.84
   3  15  -7 4459.60 1062.69
  -3  15   7 3338.01  672.27
   3 -15   7 3414.96  568.38
  -3  15   7 2894.66  444.32
   3  15   8 1113.03  387.77
   3  15   8 2372.61  760.14
  -3 -15   8 1728.25  402.54
  -3  15  -8 1965.26  492.73
   3  15  -8 1007.13  839.40
   3 -15   8 2579.30  722.60
  -3  15   8 2739.49  888.08
   3  15   9 2388.79  869.06
  -3  15  -9 3376.93  708.42
   3  15   9 3926.40  655.97
   3  15  -9 4853.46 1201.19
  -3  15   9 4198.96 1204.08
   3 -15   9 4642.45  952.77
   3  15  10  502.85  616.80
   3  15  10  457.94  280.77
  -3  15 -10  911.93  669.48
   3  15 -10  679.31  657.96
   3 -15  10 1142.24  322.92
  -3  15  10  833.45  680.10
   3  15  1120150.30 2303.21
   3  15  1119999.90 2004.51
  -3  15 -1119622.90 2909.41
   3  15 -1121153.20 2197.97
   3 -15  1123690.50 2672.47
  -3  15  1121974.00 2169.82
   3  15  12 5565.27 1398.03
   3  15  12 4526.25 1020.93
  -3  15 -12 5948.62 1457.19
   3  15 -12 5991.21 1008.51
  -3  15  12 6204.91 1511.36
   3 -15  12 7019.24 1301.33
   3  15  1320714.40 2133.82
   3  15  1317533.80 1593.68
  -3  15 -1321388.90 2222.59
   3  15 -1324534.10 2451.27
   3 -15  1323952.60 2046.73
  -3  15  1321865.30 2254.82
   3  15  14 8841.54 1354.73
   3  15  14 8357.68 1256.49
  -3  15 -14 9248.51 1295.35
   3  15 -1411444.50 2089.98
  -3  15  14 8981.35 2026.06
   3 -15  1412219.90 1739.36
   3  15  1515006.80 1650.64
  -3  15 -1512059.50 2438.72
   3  15  1513434.30 1690.02
   3  15 -1514613.20 2612.57
  -3  15  1514518.70 1682.08
   3 -15  1516779.00 2201.44
   3  15  16 3009.26 1102.47
  -3  15 -16 2613.90  675.85
  -3  15  16 1150.27 1066.52
   3  15 -16 2829.05 1226.53
   3 -15  16 2971.33  945.40
   3  15  1711584.40 2158.01
  -3  15 -1711258.80 1477.14
   3  15 -1711673.60 2326.05
  -3  15  1711247.50 1398.11
   3 -15  1711371.40 1244.52
  -3  15 -18 2418.25 1334.62
   3  15  18  848.70 1300.98
   3  15 -18 4141.45 1409.00
   3 -15  18 4670.99 1111.79
  -3  15  18 4155.96 1277.59
   3  15  19 -110.71 1034.68
  -3  15 -19 1346.42  634.03
   3  15 -19 2971.14  669.18
   3 -15  19 1777.42  838.89
  -3  15  19 1311.18 1021.72
   3  15  20 -176.78 1062.84
  -3  15 -20 1698.19 1043.29
   3  15 -20 1967.99  693.51
   3 -15  20 1994.69  846.98
  -3  15  20 2049.89  614.89
   3  15  21 -332.12  653.51
  -3  15 -21 1179.70  651.44
   3  15 -21  337.89  409.59
   3 -15  21  156.11  293.40
  -3  15  21  518.56  377.51
   3  15  22  746.16  686.10
  -3  15 -22  409.50  398.32
   3  15 -22  308.58  457.68
   3 -15  22  258.87  321.10
  -3  15  22  241.55  661.39
   3  15  23 1432.74 1179.70
  -3  15 -23 2077.95 1220.14
   3  15 -23 2133.12  819.46
   3 -15  23 1988.99  576.20
  -3  15  23 1873.16 1162.60
   3  16   0 1980.20  864.65
   3  16   0 2532.48  618.33
  -3  16   0 2453.49  691.18
   3 -16   0 1976.63  907.40
   3  16   1 2837.60  700.07
   3  16   1 2483.22  894.51
  -3  16  -1 2079.78  740.16
   3  16  -1 2294.77  543.15
   3  16  -1 2711.39  385.64
  -3  16   1 2608.36  423.64
   3 -16   1 2613.54  899.52
   3  16   210969.50 1169.44
   3 -16  -2 2594.47 2003.61
   3  16   2 9973.16 1388.93
  -3  16  -210069.40 1082.32
   3  16  -211019.60 1721.97
  -3  16   210106.60 1303.26
   3  16  -210711.20 1233.42
   3 -16   210552.70 1648.06
   3  16   3 1200.95  706.38
   3  16   3 1140.40  622.14
  -3  16  -3 1484.14  421.88
   3  16  -3 1830.49  507.99
   3  16  -3 1525.44  780.06
   3 -16   3 1847.01  714.95
  -3  16   3 1242.30  492.27
   3  16   420411.50 2451.28
   3  16   418248.50 1636.96
  -3  16  -417449.70 2360.04
   3  16  -418537.20 1409.54
   3  16  -422958.20 2634.46
  -3  16   418026.10 1756.72
   3 -16   419168.20 1747.82
   3  16   5  639.70  309.95
   3  16   5  561.69  524.41
  -3  16  -5  716.97  552.67
   3  16  -5  602.13  370.91
   3  16  -5  644.15  354.69
  -3  16   5  717.87  395.56
   3 -16   5  469.69  565.22
  -3  16   5  701.80  312.49
   3  16   624736.70 2820.48
   3  16   622874.90 2749.53
  -3  16  -621645.90 2895.23
   3  16  -627240.30 3205.08
   3 -16   625321.70 2819.11
  -3  16   625464.20 3259.06
  -3  16   622479.40 1960.23
   3  16   7 1676.80  402.61
   3  16   7 1233.51  735.71
  -3 -16   7  977.45  427.23
  -3  16  -7 1869.84  821.63
   3  16  -7 2286.91  888.66
  -3  16   7 1592.63  358.50
  -3  16   7 1586.99  925.34
   3 -16   7 2672.98  751.45
   3  16   834255.10 3098.37
   3  16   836130.20 3783.14
  -3  16  -832260.20 3171.01
   3  16  -837623.60 4419.64
  -3  16   840465.70 4660.75
   3 -16   837330.40 3101.34
   3  16   9  687.79  557.06
   3  16   9  444.85  678.71
  -3  16  -9  706.89  439.35
   3  16  -9 1892.37  479.57
  -3  16   9 1059.62  477.16
   3 -16   9 1462.86  672.36
   3  16  1021978.20 2850.24
   3  16  1021606.50 2502.62
  -3  16 -1018963.40 2081.06
  -3  16  1021991.00 2219.33
   3  16 -1024621.40 2439.61
   3 -16  1022681.80 2610.97
   3  16  11  917.76  594.67
   3  16  11 1558.90  836.66
  -3  16 -11 1603.56  853.42
   3  16 -11 1712.08  928.77
   3 -16  11 1553.67  436.78
  -3  16  11 1839.90  909.10
   3  16  12 7566.26 1039.01
   3  16  12 6041.63  757.55
  -3  16 -12 8358.32 1662.99
   3  16 -12 5111.43 1739.37
  -3  16  12 8525.91 1136.70
   3 -16  12 7346.14  904.95
   3  16  13  352.85  550.31
   3  16  13  264.08  353.52
  -3  16 -13  246.48  554.28
   3  16 -13  126.92  590.24
  -3  16  13 -283.62  561.88
   3 -16  13  801.10  467.82
   3  16  14  288.41  431.02
   3  16  14  604.51  668.85
  -3  16 -14  154.74  394.34
   3  16 -14  750.54  443.56
   3 -16  14  847.17  563.29
  -3  16  14 1122.65  434.69
   3  16  15  611.81  351.80
  -3  16 -15  489.78  622.73
   3  16 -15  315.93  393.30
  -3  16  15  473.57  622.45
   3 -16  15  209.20  292.70
   3  16  16 1944.75  695.51
  -3  16 -16 2228.51 1146.96
   3  16 -16 3139.94  769.89
   3 -16  16 3584.36  955.92
  -3  16  16 1973.07  703.47
   3  16  17   32.58  538.00
  -3  16 -17   74.38  307.27
   3  16 -17  942.73  589.61
   3 -16  17   67.76  436.85
  -3  16  17  156.86  560.59
   3  16  1810539.20 2352.15
  -3  16 -1812941.10 2415.76
   3  16 -1812419.60 2526.86
   3 -16  1812219.80 1979.33
  -3  16  1811531.00 2274.21
   3  16  19  935.05  710.21
  -3  16 -19  765.14  703.70
   3  16 -19  251.33  773.57
   3 -16  19  420.17  350.93
  -3  16  19  319.51  420.78
   3  16  2016365.70 3099.85
  -3  16 -2017630.50 2228.36
   3  16 -2020792.80 3448.44
  -3  16  2017778.90 3046.39
   3 -16  2018577.60 1890.93
   3  16  21  204.59  776.26
  -3  16 -21  268.98  752.10
   3  16 -21  248.00  828.44
   3 -16  21  729.93  585.77
  -3  16  21  723.90  737.43
   3  16  2212883.90 2739.80
  -3  16 -2211471.80 1762.75
   3  16 -2215646.50 2188.13
   3 -16  2213403.00 2277.97
  -3  16  2214517.80 2743.36
   3  17   027059.00 3042.80
   3 -17   013599.30 2613.55
  -3  17   025050.80 2634.53
   3  17   026358.20 2554.80
   3  17   110772.00 1229.82
   3 -17  -123441.00 2522.46
   3  17   110291.30 1015.16
  -3  17  -110200.40 1123.82
   3  17  -111312.70 1313.52
   3  17  -110844.00 1022.35
  -3  17   110286.10 1464.30
   3 -17   111593.60 1915.54
   3  17   220771.90 2549.37
   3  17   217952.80 2111.81
  -3  17  -215017.50 1555.96
   3  17  -218822.00 1990.99
   3  17  -218275.20 1825.19
   3 -17   218270.40 2438.50
  -3  17   216838.30 1928.46
   3  17   3 1090.79  608.98
   3  17   3 1236.90  695.39
  -3  17  -3 1092.90  646.57
   3  17  -3 1336.46  511.42
  -3  17   3 1150.52  295.84
   3 -17   3 1141.37  728.42
   3  17   411854.20 1229.60
   3  17   4 9128.90 1548.91
  -3  17  -4 8562.15 1645.13
   3  17  -410331.60 1232.15
   3 -17   4 9645.23 1108.97
  -3  17   4 9328.48 1172.14
   3  17  -4 9978.08 1294.66
   3  17   5 1223.85  671.57
  -3  17  -5 1325.83  710.17
   3  17   5  962.60  665.35
   3  17  -5 1654.69  473.51
   3  17  -5 1061.49  470.12
   3 -17   5 1637.23  432.90
  -3  17   5 1040.84  430.60
   3  17   6 5502.09  790.21
   3  17   6 6092.39 1231.85
  -3  17  -6 5449.87 1312.21
   3  17  -6 5532.94 1476.89
  -3  17   6 5136.95  763.75
   3 -17   6 6569.45 1294.73
  -3  17   6 6865.54 1537.21
   3  17   7 1298.83  548.31
   3  17   7 1046.52  347.85
  -3 -17   7  121.25  339.31
  -3  17  -7 1212.28  624.72
   3  17  -7 1127.91  691.16
  -3  17   7  789.19  420.80
   3 -17   7  645.72  584.22
   3  17   8 7815.80 1356.68
   3  17   8 7779.78 1504.86
  -3  17  -8 6450.55 1626.28
   3  17  -8 9176.27 1138.13
   3 -17   8 8734.68 1496.14
  -3  17   8 7716.01 1148.28
   3  17   9  503.61  504.84
  -3  17  -9  600.02  657.26
   3  17   9  258.72  620.90
   3  17  -9  847.06  431.66
  -3  17   9  997.96  747.57
   3 -17   9  801.14  341.94
   3  17  10 5630.71  845.01
   3  17  10 3653.73 1053.26
  -3  17 -10 6107.75  936.28
   3  17 -10 4476.73 1523.66
   3 -17  10 5571.88 1193.64
  -3  17  10 5452.60 1566.21
   3  17  11 4491.73  626.91
   3  17  11 4313.58 1316.00
  -3  17 -11 4247.99  879.44
   3  17 -11 4634.27 1449.52
   3 -17  11 4826.40 1098.02
  -3  17  11 3873.70  914.55
   3  17  1212308.60 1783.53
   3  17  1213483.40 1591.65
  -3  17 -1214498.10 2478.11
   3  17 -1214294.70 1838.49
  -3  17  1214274.40 2532.72
   3 -17  1215762.60 2120.89
   3  17  13 9048.80 1212.67
   3  17  13 5918.41 1253.28
  -3  17 -13 8739.17 1869.69
   3  17 -13 7723.28 1259.18
   3 -17  13 8763.02 1062.64
  -3  17  1310277.50 1336.29
   3  17  1412477.10 1804.21
   3  17  1417333.70 2653.56
  -3  17 -1415218.00 1903.73
   3  17 -1414502.20 2816.24
   3 -17  1415946.70 2312.08
  -3  17  1418039.80 2850.45
   3  17  15 2777.47 1294.11
  -3  17 -15 3679.20  823.50
   3  17 -15 3084.04 1465.79
  -3  17  15 3484.73  850.63
   3 -17  15 4076.26 1118.39
   3  17  1613239.00 1725.84
  -3  17 -1613053.40 2554.79
   3  17 -1612402.50 2737.35
   3 -17  1615414.50 2229.74
  -3  17  1614738.80 2613.86
   3  17  17 2878.35  860.57
  -3  17 -17 2695.09 1426.82
   3  17 -17 4845.45  967.18
   3 -17  17 3703.95  740.64
  -3  17  17 5794.56  935.07
   3  17  18 5924.12 1106.65
  -3  17 -18 5788.64 1123.08
   3  17 -18 6442.79 1202.23
  -3  17  18 6427.08 1129.44
   3 -17  18 6056.10 1460.38
   3  17  19 3293.88  804.20
  -3  17 -19 2683.73 1362.10
   3  17 -19 3255.38  900.16
  -3  17  19 3168.73 1394.97
   3 -17  19 2098.71 1067.55
   3  17  20 1297.99 1086.68
  -3  17 -20 1422.29  656.92
   3  17 -20 1509.72 1196.46
  -3  17  20 2066.93 1096.51
   3 -17  20 1673.38  883.66
   3  17  21 -100.32  634.24
  -3  17 -21  672.00  367.28
   3  17 -21 -449.53  691.11
   3 -17  21  103.45  492.72
  -3  17  21  145.14  374.85
   3  18   0  433.60  626.24
   3 -18   0  691.62  390.59
   3  18   0  943.98  521.06
  -3  18   0  842.26  501.65
   3  18   1  620.63  588.23
   3  18   1 1200.58  420.93
   3 -18  -1 2013.10  508.07
  -3  18  -1 1089.68  371.12
   3  18  -1 1266.59  560.17
   3  18  -1 1175.42  744.44
   3 -18   1 1255.00  750.76
  -3  18   1 1073.04  557.30
   3  18   2 1253.43  372.65
  -3  18  -2 1484.41  677.86
   3  18   2 1223.53  708.66
   3  18  -2 1369.73  340.95
   3  18  -2 1251.58  481.12
   3 -18   2 1183.33  766.74
  -3  18   2 1358.39  329.63
   3  18   3 6883.81  931.27
   3  18   3 7045.06  845.87
  -3  18  -3 6778.85 1347.82
   3 -18  -3 2295.88 1148.66
   3  18  -3 7698.30 1119.93
   3  18  -3 8508.46 1599.03
  -3  18   3 7875.68 1094.01
   3 -18   3 7813.44 1442.09
   3  18   4 1218.30  716.84
   3  18   4 1026.85  775.05
  -3  18  -4 1617.03  779.41
   3  18  -4 1311.49  575.49
   3  18  -4 1880.12  517.38
  -3  18   4 1239.00  517.62
   3 -18   4 2166.02  490.31
   3  18   526714.50 2488.91
   3  18   526297.60 2395.57
  -3  18  -522841.70 3083.80
   3  18  -529828.80 3716.96
   3 -18   529704.00 2551.99
  -3  18   524117.30 2381.52
   3  18   6 1580.15  433.87
  -3 -18   6  404.78  324.94
   3  18   6 1035.42  687.27
  -3  18  -6 1532.47  753.38
   3  18  -6 1834.44  864.12
   3 -18   6 1841.51  441.15
  -3  18   6 1939.03  556.86
   3  18   720075.40 2729.76
   3  18   721709.70 2096.74
  -3  18  -717172.60 2736.19
   3 -18   722910.40 2826.05
  -3  18   722611.30 3237.80
   3  18  -723021.50 2310.96
   3  18   8  580.36  688.57
   3  18   8  604.38  578.79
  -3  18  -8  149.71  714.46
   3  18  -8 1421.50  485.33
  -3  18   8  674.60  834.54
   3 -18   8 1138.36  656.73
   3  18   9 7691.62 1433.17
   3  18   9 9864.15 1155.13
  -3  18  -9 6995.69 1823.38
   3 -18   910812.30 1654.56
  -3  18   9 7883.36 1298.72
   3  18  10  715.21  336.38
   3  18  10 1162.89  730.66
  -3  18 -10  810.06  476.93
   3  18 -10 1435.49  502.19
  -3  18  10 1298.46  516.69
   3 -18  10  893.21  385.84
   3  18  11 6895.03 1342.83
   3  18  11 8017.57 1143.22
  -3  18 -11 8873.75 1270.98
   3  18 -11 9888.57 1348.84
  -3  18  1110265.40 2034.41
   3 -18  11 9085.62 1014.11
   3  18  12  916.31  633.03
   3  18  12  201.27  436.15
  -3  18 -12  -36.33  389.20
   3 -18  12  817.14  543.03
  -3  18  12  559.83  415.27
   3  18 -12 1204.21  714.13
   3  18  13  367.48  511.45
   3  18  13 1078.10  475.65
  -3  18 -13  574.74  827.87
   3  18 -13 1375.96  876.87
  -3  18  13  935.56  849.63
   3 -18  13 1141.80  697.92
   3  18  14  599.65  465.44
  -3  18 -14 1178.73  824.30
   3  18 -14  831.92  547.81
  -3  18  14  489.82  517.21
   3 -18  14 1285.64  417.25
  -3  18 -15  998.51  535.23
   3  18  15  842.19  908.34
   3  18 -15 1658.26  618.90
  -3  18  15 1286.95 1002.19
   3 -18  15 1328.03  462.36
   3  18  16  256.02  371.15
  -3  18 -16 -196.24  372.64
   3  18 -16   65.03  413.58
  -3  18  16 -248.80  238.64
   3 -18  16  219.41  309.76
   3  18  17 6037.46 1128.61
  -3  18 -17 5066.02 1788.91
   3  18 -17 5332.43 2060.63
  -3  18  17 8079.67 1917.03
   3 -18  17 8341.43 1555.43
   3  18  18  559.64  426.62
  -3  18 -18  -19.26  429.50
   3  18 -18  520.85  785.08
   3 -18  18  723.65  576.11
  -3  18  18  412.62  750.83
   3  18  1912844.40 1785.96
  -3  18 -1912760.80 2735.56
   3  18 -1914939.70 1988.64
   3 -18  1913128.10 1512.83
  -3  18  1912827.10 1861.34
   3  18  20  497.09  464.09
  -3  18 -20 -218.51  760.60
   3  18 -20  325.21  508.26
  -3  18  20  909.75  486.73
   3 -18  20  420.41  622.44
   3  19   0 1205.73  723.65
   3  19   0  762.22  585.18
   3 -19   0  844.90  735.05
  -3  19   0 1200.62  589.03
   3  19   1 6269.01 1450.10
   3 -19  -1 6802.02 1093.92
  -3  19  -1 5297.57  814.00
   3  19   1 6278.60 1193.81
   3  19  -1 6105.12 1492.35
   3  19  -1 6116.66 1207.92
   3 -19   1 8603.27 1535.19
  -3  19   1 6453.99 1209.17
   3  19   2 2863.47 1200.30
   3  19   2 5041.27 1092.72
  -3  19  -2 4338.99 1130.74
   3  19  -2 5625.48 1025.14
   3  19  -2 4628.30  848.87
   3 -19   2 6123.90 1345.37
  -3  19   2 4424.94  618.40
   3  19   322396.10 1998.95
   3  19   323058.90 2848.94
  -3  19  -319298.60 2690.69
   3 -19  -310979.80 2190.45
   3  19  -321501.80 2382.43
   3  19  -326738.50 3263.52
   3 -19   323861.60 2838.99
  -3  19   320031.00 2282.04
   3  19   4 6422.37  911.35
   3  19   4 7543.36 1380.68
   3 -19  -4 3594.67 1997.58
  -3  19  -4 6195.26 1469.46
   3  19  -4 7384.77 1110.04
   3 -19   4 6789.52  964.08
  -3  19   4 7133.33 1069.77
   3  19   5 2770.13  542.92
   3  19   5 3092.01  899.04
   3 -19  -5 -175.10  809.58
  -3  19  -5 2500.28  961.74
   3  19  -5 2883.10 1075.76
   3 -19   5 2579.44  567.19
   3  19   6  727.68  560.56
   3  19   6  308.44  321.82
  -3  19  -6 1108.50  606.60
   3  19  -6  945.63  667.39
   3 -19   6  501.46  342.60
   3  19   7  702.13  586.21
   3  19   7  540.22  663.00
  -3  19  -7  973.40  692.48
   3  19  -7  623.37  467.33
   3 -19   7 1038.64  653.93
  -3  19   7 1466.79  814.21
   3  19   8 2245.04  562.35
   3  19   8 2009.93  802.58
  -3  19  -8 1670.04  991.27
   3  19  -8 1719.71 1115.83
  -3  19   8 1946.72  680.71
   3 -19   8 2559.28  895.86
   3  19   9 1255.04  434.28
   3  19   9 1454.54  524.35
  -3  19  -9 1477.52  920.80
   3  19  -9 2142.16  615.80
   3 -19   9 1868.87  828.72
  -3  19   9 2671.30 1072.48
   3  19  10 1530.65  763.15
   3  19  10 1849.69  992.15
  -3  19 -10 1317.75 1021.81
   3  19 -10 2635.03  704.40
  -3  19  10 1648.01 1159.28
   3 -19  10 2724.11  878.55
   3  19  11 5640.85  954.75
   3  19  11 3493.06 1152.82
  -3  19 -11 5370.13  966.43
  -3  19  11 6193.90 1090.14
   3  19 -11 6943.41 1748.83
   3 -19  11 5475.15  833.54
   3  19  12 3599.91 1025.28
   3  19  12 4411.73 1429.53
  -3  19 -12 4400.94  943.69
   3  19 -12 4931.48 1590.44
   3 -19  12 5215.99  801.22
  -3  19  12 4523.00 1576.73
   3  19  1311184.50 2155.48
  -3  19 -1310433.80 2241.75
   3  19 -1311021.30 1611.69
   3 -19  1310435.10 1893.62
  -3  19  1312010.30 1631.51
  -3  19 -14 5403.78 1678.22
   3  19  14 4382.87 1014.01
   3  19 -14 6884.91 1831.50
  -3  19  14 5358.50 1830.88
   3 -19  14 6495.71 1448.71
   3  19  1511087.10 2343.00
  -3  19 -1512708.30 1685.77
   3  19 -1512246.10 2668.33
   3 -19  1512613.20 1422.52
  -3  19  1513135.10 1825.91
   3  19  16 1934.00 1421.18
  -3  19 -16 3721.16  884.98
   3  19 -16 5340.85 1026.18
  -3  19  16 4837.97 1560.69
   3 -19  16 3108.44  752.40
   3  19  17 6165.14 1951.03
  -3  19 -17 1570.19 1962.30
   3  19 -17 8047.06 1365.33
   3 -19  17 9555.01 1668.41
  -3  19  17 7833.77 2020.07
   3  19  18 1472.08  703.26
  -3  19 -18 1396.67  685.31
   3  19 -18 1837.10 1283.45
   3 -19  18 2218.40  957.39
  -3  19  18 2346.42  735.51
   3  19  19 1450.73  587.69
  -3  19 -19 1002.54  591.20
   3  19 -19 -246.32 1119.54
   3 -19  19 1390.36  815.47
  -3  19  19  920.06 1048.72
   3  20   0 1000.29  409.65
   3  20   0  813.28  812.86
  -3  20   0 1176.55  400.78
   3 -20   0 4884.08  882.11
   3 -20   0  901.01  505.66
   3  20   1 2853.30  917.29
   3  20   1 2529.44 1046.07
   3 -20  -1 2974.88 1247.04
  -3  20  -1 3376.11  551.10
   3  20  -1 2181.82  857.18
   3  20  -1 3007.84 1102.51
   3 -20   1 3220.63 1049.45
  -3  20   1  320.21  838.95
   3  20   2 1169.22  732.82
   3  20   2 1511.93  801.85
  -3  20  -2 1487.45  753.59
   3 -20  -2 2642.12 1079.53
   3  20  -2 1063.92  532.17
  -3  20   2 1167.63  368.23
   3  20  -2 1764.29  675.87
   3 -20   2 2065.31  858.95
   3  20   3  706.78  809.88
   3  20   3 2178.54  803.93
  -3  20  -3 1491.57  792.79
   3  20  -3 1499.33  956.41
  -3  20   3 1401.29  622.71
   3 -20   3 1933.47  546.33
   3  20   418426.30 2551.57
   3  20   416782.90 1784.19
   3 -20  -415467.90 3715.75
  -3  20  -415801.40 2561.13
   3  20  -420056.70 2174.93
   3 -20   421689.40 1993.28
   3  20   5  896.15  763.31
   3  20   5 2248.87  837.89
  -3  20  -5 1344.89  831.02
   3  20  -5 1765.70  972.45
   3 -20   5 1488.14  525.76
   3  20   627453.10 3518.02
   3  20   625667.10 3327.86
  -3  20  -625009.50 3592.62
   3  20  -630977.40 3197.42
   3 -20   628812.50 2682.51
   3  20   7 1486.81  866.07
   3  20   7 1795.14  477.33
  -3  20  -7 1655.72  930.07
   3  20  -7 3006.55 1114.59
  -3  20   7 1332.15  665.40
   3 -20   7 1735.56  941.00
   3  20   818959.90 2113.44
   3  20   817336.00 2477.04
  -3  20  -817908.00 2977.91
   3  20  -821147.80 3345.89
  -3  20   823766.80 3486.18
   3 -20   824140.90 2935.84
   3  20   9 1069.19  723.15
   3  20   9  952.03  919.95
  -3  20  -9 1759.93  951.87
   3  20  -9 2015.30  640.76
  -3  20   9 1301.40 1060.00
   3  20  10 9363.16 1354.18
   3  20  10 9860.02 1206.99
  -3  20 -1010306.30 2227.82
   3  20 -1012011.90 2440.37
  -3  20  1014017.70 1697.94
   3 -20  1013356.50 1959.36
   3  20  11  407.08  327.90
   3  20  11  684.34  746.94
  -3  20 -11 1015.94  461.29
   3  20 -11  756.85  494.86
   3 -20  11  849.95  375.51
  -3  20  11  427.78  845.35
   3  20  12 1971.65  695.20
  -3  20 -12 3113.74  718.11
   3  20 -12 4208.34  807.58
   3 -20  12   38.43  625.25
  -3  20  12 4009.76  783.29
   3  20  13  -70.11  512.91
  -3  20 -13  -80.00  526.55
   3  20 -13 -173.67  588.76
  -3  20  13  384.86  576.08
   3 -20  13 -263.45  253.72
   3  20  14  455.85  360.79
  -3  20 -14 -201.29  619.19
   3  20 -14  129.37  692.03
   3 -20  14  132.06  536.99
  -3  20  14  440.26  401.23
   3  20  15  948.66  578.86
  -3  20 -15 1271.31  604.76
   3  20 -15 1530.59  645.87
   3 -20  15 1371.01  807.95
  -3  20  15 1085.62 1055.73
   3  20  16 2360.06 1281.18
  -3  20 -16 2955.11  810.09
   3  20 -16 3022.02 1477.63
  -3  20  16 2608.94 1393.07
   3 -20  16 1899.72 1072.93
   3  20  17  522.80  863.95
  -3  20 -17  982.01  889.86
   3  20 -17 1892.34  987.71
   3 -20  17  642.48  423.44
  -3  20  17  642.88  584.49
   3  21   021893.10 3101.40
   3  21   021475.60 2007.99
   3 -21   020455.50 2096.77
  -3  21   020843.30 2643.57
   3 -21   0 9294.38 2589.63
   3  21   1 8901.05 1823.06
   3  21   1 7521.31 1606.33
  -3  21  -1 6044.17 1028.57
   3 -21  -116191.60 2089.66
   3  21  -1 7580.56 1548.97
   3  21  -1 7086.29 1860.79
   3 -21   1 8789.28 1187.67
  -3  21   1 7133.61 1458.35
   3  21   212167.80 1515.41
   3  21   214581.50 2141.86
  -3  21  -214890.70 2184.38
   3 -21  -2 1750.62 2395.84
   3  21  -216840.70 2537.17
  -3  21   212758.80 1348.33
   3 -21   214018.70 1579.03
   3  21   3 1853.35 1137.42
   3  21   3 2812.11 1073.25
   3 -21  -3 6176.65 1001.27
  -3  21  -3 2300.23 1104.27
   3  21  -3 3095.25 1307.42
   3 -21   3 3370.61  745.01
   3  21   4 8356.61 1092.09
   3  21   4 8501.53 1607.06
  -3  21  -4 7625.71 1628.61
   3  21  -4 7961.93 1215.60
   3 -21   4 6988.71 1087.38
   3  21   5 5534.63 1210.43
   3  21   5 3114.06 1200.88
  -3  21  -5 3384.83 1219.65
   3 -21  -5  -75.42 1693.71
   3  21  -5 4719.86 1511.29
   3 -21   5 4268.06  762.84
   3  21   6 3031.02  998.20
  -3  21  -6 2093.28 1038.68
   3 -21  -6  -74.07  845.03
   3  21  -6 3887.65  720.22
   3 -21   6 2104.17  618.79
   3  21   7 1105.93  527.44
  -3  21  -7 1952.36  894.86
   3  21   7 1326.50  761.68
   3  21  -7  702.45 1050.18
   3 -21   7 2619.58  878.58
   3  21   8 1172.43  856.20
   3  21   8  752.34  427.30
  -3  21  -8 1738.20  926.16
   3  21  -8 2035.38  640.07
  -3  21   8 1737.18  643.41
   3 -21   8 1669.37  833.63
   3  21   9  978.59  899.80
   3  21   9  890.54  710.35
  -3  21  -9 2500.64  962.85
   3  21  -9 2352.21 1046.76
   3 -21   9 1400.46  834.26
  -3  21   9 1060.60  630.87
   3  21  10 4049.29  870.04
   3  21  10 4023.17 1077.41
  -3  21 -10 5052.93 1497.13
   3  21 -10 6603.90 1071.47
   3 -21  10   -1.41 1247.51
  -3  21  10 6431.93 1670.94
   3  21  11 1822.83 1138.28
  -3  21 -11 2784.15  733.12
   3  21 -11 3867.73  863.80
   3 -21  11   34.42 1006.60
  -3  21  11 2746.77  852.79
  -3  21 -12 7085.82 1317.87
   3  21  12 8364.26 1270.83
   3  21 -12 6227.74 2211.10
   3 -21  12 8280.72 1095.20
  -3  21  12 7781.84 2210.94
   3  21  13 4370.70 1715.83
  -3  21 -13 4908.20 1747.13
   3  21 -13 6760.76 1232.65
  -3  21  13 5144.75 1183.70
   3 -21  13 5545.61  903.94
   3  21  14 7126.80 2014.88
  -3  21 -14 5985.09 1990.12
   3  21 -14 8215.10 1434.85
   3 -21  14 8396.83 1725.50
  -3  21  14 6997.16 2209.22
   3  21  15 2392.58  857.37
  -3  21 -15 3196.63  901.59
   3  21 -15 1504.38 1622.23
   3 -21  15 4078.86 1219.91
  -3  21  15 2911.64 1533.10
   3  21  16 7729.69 1359.00
  -3  21 -16 8081.38 1441.68
   3  21 -16 6224.52 1482.08
   3 -21  16 8995.06 1849.69
  -3  21  16 9884.41 1536.82
   3  22   0 2237.89 1057.86
   3  22   0 2207.49  559.92
   3 -22   0 1948.30 1083.52
  -3  22   0 1767.21  864.95
   3  22   1  660.85  578.61
   3  22   1  298.89  636.79
  -3  22  -1  345.35  322.38
   3 -22  -1  233.87  403.11
   3 -22   1  400.17  380.37
  -3  22   1  779.02  497.08
   3  22  -1  792.11  648.84
   3  22   2  147.40  544.71
   3  22   2  -70.28  338.79
  -3  22  -2  674.21  520.33
   3  22  -2  657.62  638.24
   3 -22   2  556.36  348.06
   3  22   311825.70 2209.44
   3  22   312677.80 2088.31
   3 -22  -3 6757.62 1676.48
  -3  22  -310693.30 2071.42
   3  22  -313205.60 1690.38
   3 -22   313206.60 1473.18
   3  22   4 2750.17 1387.00
   3  22   4 4410.19 1393.75
  -3  22  -4 3990.97 1398.81
   3 -22  -414559.60 2330.88
   3  22  -4 4369.88 1649.38
   3 -22   4 4635.97  851.96
   3  22   515394.40 2694.03
   3  22   514034.40 1721.25
  -3  22  -515958.60 2709.75
   3 -22  -534824.90 4498.78
   3  22  -517572.30 2144.43
   3 -22   515757.80 1836.75
   3  22   6 1393.97  754.58
  -3  22  -6 1217.69  848.55
   3 -22  -6  284.62  716.42
   3  22   6  731.13  491.41
   3  22  -6 1655.95  995.29
   3 -22   6 1783.39  857.42
   3  22   723586.10 3342.56
   3  22   723720.00 2554.28
  -3  22  -724367.70 3592.66
   3  22  -726582.50 2982.76
   3 -22   723177.20 3377.24
   3  22   8 -417.76  830.24
  -3  22  -8 1251.23  855.87
   3  22   8 1013.93  702.21
   3  22  -8 1718.41  975.73
   3 -22   8 1322.27  807.38
   3  22   914378.40 1730.91
   3  22   919985.10 3108.26
  -3  22  -919086.70 3223.82
   3  22  -919675.40 3515.31
   3 -22   922399.20 2963.19
  -3  22   922675.00 3595.69
   3  22  10 1117.14  931.68
  -3  22 -10 1889.09  600.40
   3  22 -10 1233.98  679.39
  -3  22  10 1563.59  642.82
   3 -22  10   78.46  816.02
   3  22  11 4040.33 1429.61
  -3  22 -11 5175.85  945.05
   3  22 -11 2639.03 1719.43
  -3  22  11 6147.94 1702.62
   3 -22  11   59.16 1218.36
   3  22  12  497.32  690.85
  -3  22 -12  295.23  425.42
   3  22 -12  963.26  483.57
   3 -22  12  161.03  606.61
  -3  22  12  122.03  482.99
   3  22  13  361.33  435.04
  -3  22 -13 1172.07  761.42
   3  22 -13  775.59  833.53
   3 -22  13  304.56  384.35
  -3  22  13  401.88  840.51
   3  22  14 -228.44  632.26
  -3  22 -14 -110.31  638.96
   3  22 -14  697.40  710.96
   3 -22  14  292.02  315.69
  -3  22  14  292.02  704.53
   3  23   0 3461.73 1352.82
  -3  23   0 1012.68 1026.59
   3 -23   0 4182.76 1291.70
   3  23   114113.60 2547.69
   3  23   115093.00 2763.59
  -3  23  -114996.40 2407.25
   3 -23  -114761.40 2686.34
   3  23  -115754.60 2118.92
   3 -23   115764.10 2684.70
   3  23   2 4294.48 1572.47
   3  23   2 7160.33 1102.93
   3 -23  -213974.10 2274.65
  -3  23  -2 4489.66  930.50
   3  23  -2 2677.99 1756.18
   3 -23   2 5554.05 1708.08
   3  23   313913.20 2325.74
   3  23   313638.80 2265.41
   3 -23  -3 1648.13 2454.80
  -3  23  -310264.10 1414.32
   3 -23   311991.50 2222.71
   3  23  -312182.00 1680.74
   3  23   4 3617.53 1100.30
   3  23   4 2364.21 1092.87
   3 -23  -4 2197.80  859.01
  -3  23  -4 1626.68 1063.25
   3  23  -4 1242.90 1261.35
   3 -23   4 2529.69 1133.58
   3  23   5 4127.51 1171.07
   3  23   5 2693.48  675.56
   3 -23  -5  406.06  949.27
  -3  23  -5  -81.26 1142.55
   3  23  -5 2842.26  825.21
   3 -23   5 5311.86 1184.42
   3  23   6 -229.15  347.58
   3  23   6  717.71  329.68
   3 -23  -6 -122.23  860.46
  -3  23  -6  709.03  611.96
   3  23  -6  357.32  705.82
   3 -23   6  322.86  582.34
   3  23   7 -417.85  588.41
  -3  23  -7  610.30  687.60
   3 -23  -7  123.58  565.78
   3  23   7 -136.00  650.31
   3  23  -7  784.35  467.29
   3 -23   7 1460.52  642.06
   3  23   8  108.17  274.16
   3  23   8   -5.47  329.54
  -3  23  -8 -125.63  339.66
   3  23  -8   15.86  377.53
   3 -23   8  -71.48  307.40
   3  23   9   26.59  571.11
  -3  23  -9 1257.93  594.75
   3  23  -9 2036.00  703.75
   3 -23   9 1573.30  884.95
  -3  23   9 1785.92  663.70
   3  23  10 2422.55 1172.19
  -3  23 -10 2441.17  726.09
   3  23 -10 3192.58 1381.12
  -3  23  10 2067.11 1329.51
   3 -23  10   95.16 1008.40
   3  23  11 6595.33 1136.63
  -3  23 -11 5008.58 1195.74
   3  23 -11 7710.60 1371.06
   3 -23  11  -98.11 1561.12
  -3  23  11 7863.30 1347.16
   3  23  12 3746.95 1326.03
  -3  23 -12 2597.45 1333.70
   3  23 -12 3010.20 1503.24
   3 -23  12  349.40 1168.25
  -3  23  12 3501.71 1515.00
   3  24   0  157.15  608.27
   3 -24   0  228.47  330.34
   3  24   1 -253.12  750.30
   3 -24  -1  835.60  430.48
  -3  24  -1  497.76  625.88
   3  24  -1  483.35  450.22
   3 -24   1  454.96  422.72
   3  24   2 2779.87 1109.94
   3  24   2 1836.32  692.08
  -3  24  -2 1576.47  989.38
   3 -24  -2 1153.30 1191.04
   3  24  -2 1463.77 1208.84
   3 -24   2 3102.20 1093.60
   3  24   3 1724.89  908.33
   3  24   3 2105.24  936.12
  -3  24  -3 -158.54  507.80
   3  24  -3 1892.62  617.43
   3 -24   3  857.12  902.05
   3  24   4 3315.85 1962.22
   3  24   4 6151.76 1952.44
   3 -24  -417755.50 1920.07
  -3  24  -4 5711.29 1132.14
   3  24  -4 8507.87 2202.78
   3 -24   4 7097.56 1924.95
   3  24   5  480.75  438.19
   3  24   5  886.81  693.56
   3 -24  -5 1951.22 1021.91
  -3  24  -5  -31.06  421.55
   3  24  -5  207.83  851.61
   3 -24   5 1271.10  746.77
   3  24   621848.30 2532.49
   3  24   619612.40 2334.73
  -3  24  -617919.40 2232.25
   3  24  -622689.00 2839.63
   3 -24   622798.20 3361.82
   3  24   7  -63.02 1030.51
   3  24   7 1420.46  547.48
  -3  24  -7 1833.60  657.21
   3 -24  -7  460.37 1459.54
   3  24  -7 2085.52 1260.14
   3 -24   7 2286.81 1018.15
   3  24   8  256.68 2216.09
  -3  24  -8 9098.46 1509.72
   3  24  -811799.20 1763.94
   3 -24   812625.00 2147.11
   3  24   9 -267.39  429.50
  -3  24  -9 1250.96  450.08
   3  24  -9  745.08  856.11
   3 -24   9  -10.60  663.61
   3  25   0 8180.66 2386.37
   3 -25   010372.60 2294.77
   3  25   1  139.19 1220.16
   3 -25  -1 2336.21 1277.47
   3  25  -1 2590.02  815.69
   3 -25   1 2574.61  755.14
   3  25   2  367.92  806.95
   3 -25  -2 1933.93  830.15
  -3  25  -2  -63.17 1102.15
   3 -25  -2 6017.27 1264.09
   3  25  -2 5389.64 1390.89
   3  25   3 -172.15 1141.04
   3 -25  -3 1767.18 1428.53
  -3  25  -3 -188.82 1038.14
   3  25  -3 2651.07 1304.71
   3 -25   3 3027.82  711.04
   3  25   4 3294.38 1346.04
   3  25   4 -403.74 1339.34
  -3  25  -4  -16.07 1266.91
   3  25  -4 3254.62  922.37
   3 -25   4 4371.93  802.38
   4   0   041826.20 3113.75
   4   0   035252.40 2768.02
   4   0  -1 9075.59 1311.82
   4   0   112021.00 1131.08
   4   0   1 9400.43 1392.71
   4   0  -1 9525.90  884.39
   4   0   2  858.49  321.92
   4   0   2  389.15  254.52
   4   0  -2  808.21  223.66
   4   0  -2  523.26  239.22
   4   0   312000.30 1080.09
   4   0   312364.10 1176.69
   4   0  -313113.80  894.39
   4   0  -312162.60  946.93
   4   0   4 7842.03  647.80
   4   0   4 7662.04  844.09
   4   0  -4 6988.24  575.74
   4   0  -4 6283.77  631.56
   4   0  -519847.30 1412.79
   4   0   519346.40 1375.08
   4   0   520688.70 1722.17
   4   0  -519877.00 1232.04
   4   0   6 4260.90  482.16
   4   0   6 3945.89  608.19
   4   0  -6 3624.55  430.04
   4   0  -6 5418.75  484.91
  -4   0  -751132.50 3989.34
   4   0  -752666.60 4112.03
   4   0   744713.10 3319.08
   4   0  -747484.00 3142.09
   4   0  -751969.20 3254.41
   4   0  -8  478.36  122.28
  -4   0  -8  -96.17  406.39
   4   0   8  301.39  323.94
   4   0  -8   56.83  155.69
   4   0  -8  456.81  262.07
  -4   0  -936843.10 2864.97
   4   0   935649.10 3103.85
   4   0  -932235.70 2011.86
   4   0  -935028.60 2268.61
   4   0  -937774.50 2449.77
  -4   0 -10 1327.23  768.27
   4   0  10 1501.52  659.27
   4   0 -10 1169.76  459.00
   4   0 -10 2746.81  249.95
  -4   0 -1138654.80 3084.20
   4   0  1136714.20 2773.82
   4   0 -1135330.40 2348.08
   4   0 -12 8492.03  885.35
  -4   0 -12 6739.19  984.94
   4   0  12 6746.31  820.67
  -4   0 -13 2103.15  604.78
   4   0  13 1740.95  323.45
   4   0 -13 1021.98  199.74
   4   0 -13   95.20  241.58
  -4   0  14 3625.25  371.22
  -4   0 -14  941.26  967.94
   4   0  14 1431.88  853.05
   4   0 -14 4210.36  586.60
  -4   0 -15 -108.99  256.92
   4   0  15  350.92  407.96
  -4   0  15  506.69  211.91
   4   0 -15  338.60  225.59
  -4   0  16 5636.53  547.29
  -4   0 -16 5186.14  830.68
   4   0  16 5539.28  770.08
   4   0 -16 5305.12  718.46
  -4   0 -17 5671.18  798.47
   4   0  17 5122.45  732.49
   4   0 -17 4588.21  687.92
  -4   0 -18  427.01  340.83
   4   0  18  650.36  532.49
  -4   0 -1931173.80 2883.83
   4   0  1931047.80 2785.46
  -4   0 -20   68.81  515.90
   4   0  20  477.45  313.57
  -4   0 -21 3965.87 1189.25
   4   0  21 4050.40 1187.08
  -4   0 -22  150.46  447.63
  -4   0 -23 6283.05 1002.55
   4   0  23 6510.61 1016.74
  -4   0 -24 -269.26  318.13
  -4   0 -25 4109.09 1424.98
   4   0  25 4249.63 1484.71
  -4   0 -26  267.23  466.98
   4   0  26   38.29  296.20
   4   0  27  -73.35  482.03
   4   0  28  100.15  540.34
   4  -1   0192671.017499.10
   4   1   0194222.018815.00
   4   1   0188502.017579.30
   4  -1   0193157.019618.70
   4  -1  -139026.20 2875.91
   4   1   138373.20 2879.07
   4   1   141511.70 3832.09
   4  -1  -137934.50 2810.04
   4   1  -139087.60 2742.90
   4   1  -138804.20 3582.55
   4  -1   137504.10 2893.61
   4   1   249605.80 3814.12
   4   1   254550.20 4865.13
   4  -1  -245427.20 2979.51
   4  -1  -248251.90 3561.68
   4   1  -250930.90 3466.95
   4   1  -253577.70 4505.48
   4  -1   243733.90 3117.23
   4  -1   252909.50 3990.45
   4  -1  -326166.70 1536.91
   4   1   327292.00 2202.68
   4   1   327424.70 2138.48
   4  -1  -329155.00 2503.67
   4   1  -326887.20 1929.77
   4   1  -327763.90 1755.97
   4  -1   326213.90 1795.60
   4  -1   328757.90 2894.27
   4   1   419468.90 1754.78
   4   1   421145.10 1731.63
  -4  -1   421641.10 1471.17
   4  -1  -419765.60 1830.85
   4  -1  -419168.40 1296.44
   4  -1   421483.20 1901.44
   4   1  -420636.20 1274.18
   4   1  -419047.90 1415.48
   4  -1   419224.70 1693.15
   4  -1  -5 5612.03  531.74
   4   1   5 7242.79  752.83
   4   1   5 6978.30  891.16
  -4   1  -5 6106.18  717.38
   4  -1  -5 6581.14  560.84
   4   1  -5 5476.17  439.06
   4   1  -5 7020.58  573.56
   4   1  -5 6400.43  598.54
   4  -1   5 7009.34  941.26
   4   1   6 1619.05  532.70
   4   1   6 1480.19  406.18
  -4   1  -6 1080.27  429.91
   4  -1  -6 1595.23  453.58
   4  -1  -6 2794.56  292.32
   4   1  -6 1029.80  292.54
   4   1  -6 1651.26  193.38
   4  -1   6 1322.95  536.40
   4   1   7 2981.22  422.09
   4   1   7 2063.18  854.21
  -4   1  -7 1705.43  815.71
   4  -1  -7 3923.30  556.87
   4  -1  -7 3466.71  348.64
   4   1  -7 3664.95  325.04
   4   1  -7 1896.68  215.20
   4   1  -7 2787.27  355.38
   4  -1   7 1761.06  702.98
  -4   1  -8 4770.92 1166.30
   4   1   8 5619.72  662.15
   4   1   8 6678.74 1217.43
   4  -1  -8 6313.09  734.81
   4  -1  -8 6995.67  676.15
   4   1  -8 5647.64  352.45
   4   1  -8 6300.28  866.78
   4  -1   8 7588.73 1039.15
   4  -1  -911709.60  791.51
   4   1   912021.80 1398.78
   4   1   912460.20 1228.84
  -4   1  -911909.40 1181.43
   4  -1  -913820.80 1160.93
   4   1  -913599.70 1252.36
   4   1  -910874.70  588.24
   4   1  -912083.70  727.91
   4  -1   912088.40 1408.04
   4   1  10 5272.64  813.97
   4   1  10 1349.05  542.56
  -4   1 -10 4789.81  947.50
   4  -1 -10 4278.36  537.04
   4   1 -10 4720.18  637.71
   4   1 -10 3760.34  243.73
   4   1 -10 4105.23  252.14
   4  -1  10 3731.77  796.23
   4  -1 -1120184.50 1256.82
   4   1  1122122.20 1712.45
  -4   1 -1121571.00 2473.40
   4   1 -1118438.90  996.93
  -4  -1 -1121618.10 1823.30
   4   1 -1120713.80 1394.45
   4   1 -1122120.40 1147.45
   4  -1  1121221.60 2205.20
  -4   1 -1246815.30 3964.52
   4   1  1245531.90 3618.38
   4  -1 -1245885.80 3503.04
   4   1 -1249648.00 3111.53
  -4  -1 -1247185.20 4716.64
   4   1 -1254872.40 4209.50
   4  -1  1247134.10 4452.73
   4  -1 -1314287.80 1233.10
   4   1  1314883.50 1841.26
  -4   1 -1314700.70 1437.68
  -4  -1 -1313955.20 1943.25
   4   1 -1317488.80 1491.00
   4  -1  1315333.60 1314.26
  -4   1  1314566.10 1061.11
   4   1  1419632.30 1767.41
  -4   1 -1419156.80 2549.76
   4  -1 -1423508.60 1786.44
  -4  -1 -1421338.20 1923.45
   4   1 -1422615.90 1857.33
   4  -1  1421090.30 1776.18
  -4   1  1421363.30 1773.97
   4   1  1515848.60 1397.19
  -4   1 -1514875.50 2110.62
   4  -1 -1512964.70 1120.75
  -4  -1 -1515132.00 1464.52
   4   1 -1514375.10 1350.95
   4  -1  1514997.10 1339.06
  -4   1  1516911.70 1194.71
  -4   1 -16 9130.99 1562.19
   4   1  16 9243.41 1437.45
   4  -1 -16 7734.03  785.46
  -4  -1 -16 7314.49 1497.56
   4   1 -16 7763.38  631.38
   4  -1  1610558.20 1481.26
  -4   1  16 9015.24  764.55
   4   1  17 5807.49  853.09
  -4   1 -17 6549.37 1411.56
  -4  -1 -17 7657.00 1425.91
   4   1 -17 7980.52  921.88
   4  -1  17 7833.50 1336.48
  -4   1  17 6281.30  678.86
   4   1  18 8800.20 1077.36
  -4   1 -18 9082.72 1715.98
  -4  -1 -18 8959.03 1648.30
   4   1 -18 9443.05 1062.72
   4  -1  1810078.60 1118.47
   4   1  19 4547.21 1239.30
  -4   1 -19 3970.32 1293.77
  -4  -1 -19 3500.14 1206.87
   4  -1  19 5354.42  795.48
  -4   1 -20 7412.24 1071.36
   4   1  20 6755.20  990.64
  -4  -1 -20 6778.76 1508.93
   4  -1  20 7554.72 1506.24
   4   1  21  152.89  293.01
  -4   1 -21  171.11  285.11
  -4  -1 -21  342.17  279.27
  -4   1 -22  548.41  643.99
  -4  -1 -22  617.53  364.87
   4  -1  22  557.50  387.30
   4   1  23 1094.36  499.59
  -4   1 -23  821.90  818.83
  -4  -1 -23 1392.48  784.43
   4  -1  23 1153.22  500.07
   4   1  24 2952.13 1198.93
  -4   1 -24 3176.37 1222.21
  -4  -1 -24 2347.72 1140.21
   4   1  25 1592.94 1729.49
  -4   1 -25 6209.74 1084.94
  -4  -1 -25 5794.77 1625.87
   4  -1  25 9212.54 1714.74
   4   1  26 5779.21  749.62
   4   1  26 -282.53  602.17
  -4   1 -26 3537.60 1140.96
  -4  -1 -26 2796.14  683.80
   4  -1  26  -84.31  729.52
   4   1  27 9729.98 1752.45
  -4   1 -27 5074.51 1622.85
   4  -1  27  -24.08 1692.97
   4   1  28 4282.23 1663.07
   4   2   0 6051.19  662.60
   4   2   0 5055.04  696.95
   4  -2   0 7230.60  845.58
   4  -2   0 7485.07 1149.01
   4   2   1 8245.65  801.94
   4   2   1 8056.12  815.05
   4  -2  -1 8590.24  844.74
   4  -2  -1 6642.98  686.48
   4  -2   1 5116.25  542.11
   4   2  -1 8712.86 1202.52
   4   2  -1 7924.69  687.51
   4  -2   1 7628.76  796.77
   4  -2  -212122.70  752.77
   4   2   211953.10  814.20
   4   2   214719.00 1659.48
   4  -2  -213669.50 1421.15
   4   2  -212356.50  685.10
   4   2  -214417.90 1562.05
   4  -2   214208.70 1285.64
   4  -2   214505.80 1227.70
  -4   2  -3 2190.06  657.99
   4   2   3 2686.37  425.80
   4   2   3 1355.84  282.92
  -4  -2   3 2079.00  234.92
   4  -2  -3 1704.85  544.69
   4  -2  -3 2444.35  370.68
   4   2  -3 2144.93  251.69
   4   2  -3 2017.33  357.58
   4  -2   3 2430.64  524.08
   4   2   429972.00 2313.01
  -4  -2   432376.10 1984.27
   4   2   429909.50 2349.31
  -4   2  -429942.40 2943.86
   4  -2  -430695.90 2487.35
   4  -2  -429745.10 2038.26
   4   2  -427873.50 1626.74
   4   2  -431341.10 2215.69
   4  -2   428901.70 1993.68
  -4   2  -5 6757.27  766.18
   4   2   5 6311.80  562.45
   4   2   5 6543.11  756.62
   4  -2  -5 7228.46  782.08
   4  -2  -5 7819.75  649.55
   4   2  -5 7861.33  971.62
   4   2  -5 7340.99  529.09
   4   2  -5 5165.98  391.07
   4  -2   5 6564.64  613.59
   4  -2  -641124.70 3120.95
   4   2   635979.20 2594.88
   4   2   640955.50 3113.05
  -4   2  -636891.50 2935.07
   4  -2  -640713.20 2748.28
   4   2  -639829.90 3339.06
   4   2  -639616.40 2359.44
   4   2  -638383.60 2367.87
   4  -2   637056.10 3283.61
  -4   2  -7 2565.82  814.38
   4   2   7 2011.46  631.28
   4   2   7 3330.36  793.38
   4  -2  -7 2540.51  478.82
   4  -2  -7 3495.25  399.13
   4   2  -7 2888.97  193.74
   4   2  -7 2201.43  222.32
   4   2  -7 2498.70  628.06
   4  -2  -858122.20 4330.03
   4   2   855224.60 5205.66
   4   2   851506.90 3890.10
  -4   2  -853799.20 4353.74
   4  -2  -856399.90 3888.79
   4   2  -855760.40 3311.46
   4   2  -849740.90 3028.29
   4   2  -856619.80 4571.50
   4  -2   853022.60 4596.03
   4   2   9  238.37  216.85
   4   2   9  490.95  251.56
  -4   2  -9  533.83  437.30
   4  -2  -9  451.99  215.55
   4  -2  -9  680.42  220.15
   4   2  -9  463.47  293.44
   4   2  -9  323.43   58.27
   4   2  -9  349.07   78.57
   4  -2   9  267.40  355.67
   4   2  1034687.40 3105.31
   4   2  1037259.00 3527.93
  -4   2 -1035723.50 2775.56
   4  -2 -1031249.30 1949.90
   4   2 -1029194.10 1519.73
   4   2 -1031343.70 1589.00
   4   2 -1037138.50 2903.48
   4  -2  1033293.50 3020.30
  -4   2 -11 3006.41  822.10
   4   2  11 2321.72  452.71
   4   2  11 2794.00  498.96
   4  -2 -11 2205.04  372.29
   4   2 -11 2212.08  561.94
   4   2 -11 2203.72  145.46
   4   2 -11 2344.64  145.96
   4  -2  11 2905.83  682.73
   4   2  1216644.70 1879.88
   4   2  1217351.30 2089.45
  -4   2 -1217164.50 2053.51
   4  -2 -1213619.10  853.53
   4   2 -1216810.50 1552.61
   4   2 -1215050.60  710.92
   4  -2  1215632.40 1805.98
  -4   2  1215952.60 1220.69
   4   2  13 2415.06  954.18
   4   2  13 4936.01  656.36
  -4   2 -13 2023.00  996.14
   4  -2 -13 3027.95  459.05
   4   2 -13 3361.75  428.37
   4  -2  13 1802.95  910.17
  -4   2  13 5484.15  569.18
   4  -2 -14 1093.94  423.95
   4   2  14  932.10  385.64
   4   2  14 1151.24  428.44
  -4   2 -14 1571.86  406.13
   4   2 -14 1520.08  264.99
   4  -2  14  840.81  607.79
  -4   2  14 1293.43  339.97
  -4   2 -15 4129.45  640.16
   4   2  15 2519.20  953.17
   4   2  15 4454.98  660.49
   4  -2 -15 2212.75  433.27
   4   2 -15 3464.89  421.99
   4  -2  15 3599.48  926.59
  -4   2  15 4021.50  534.48
   4   2  16 5426.34  803.34
   4   2  16 5940.93  773.51
  -4   2 -16 5631.05  827.65
   4   2 -16 5292.66  545.13
   4  -2  16 5565.34  754.99
  -4   2  16 7486.57  712.73
   4   2  17   -9.50  286.53
   4   2  17  341.49  459.13
  -4   2 -17  148.05  285.60
   4   2 -17  512.30  308.42
   4  -2  17  535.50  267.17
  -4   2  17  299.64  231.84
   4   2  1817307.20 2415.06
  -4   2 -1817105.60 2475.33
   4   2 -1816152.70 1699.13
   4  -2  1819058.30 1750.52
  -4   2  1818896.10 1563.11
  -4   2 -19  750.11  685.53
   4   2  19  453.43  387.98
   4   2  19 1467.54  422.11
   4   2 -19  870.57  431.99
   4  -2  19 1188.12  672.83
   4   2  20 4473.98  885.95
   4   2  2011069.40 1649.76
  -4   2 -20 9793.41 1588.64
   4   2  21  271.38  300.16
   4   2  21  391.97  312.31
  -4   2 -21   49.19  532.80
   4   2  2215378.70 1696.94
   4   2  2214930.80 2425.43
  -4   2 -2213993.40 1689.30
   4  -2  2213252.90 1544.99
   4   2  23 1383.17  553.41
   4   2  23 1971.45  988.48
  -4   2 -23 1752.29  598.86
   4  -2  23 2218.55  584.67
   4   2  24 6826.80 1092.41
   4   2  24 7997.44 1156.33
  -4   2 -24 4765.93 1786.35
   4  -2  24 7205.48 1715.05
   4   2  25  319.27  519.75
   4   2  25 -141.28  570.50
  -4   2 -25  659.12  560.04
   4  -2  25   28.80  548.58
   4   2  26 3717.04  786.84
   4   2  26 3043.17 1113.46
  -4   2 -26 3240.68  734.47
   4  -2  26   76.17  739.45
   4   2  27  293.39  501.45
  -4   2 -27  -81.11  472.92
   4  -2  27   58.93  281.00
   4   2  28  260.74  678.70
   4   3   022622.20 1561.68
   4   3   025362.30 2359.68
   4  -3   020745.80 1377.78
   4  -3   021583.60 2172.93
   4  -3  -132713.90 2838.34
   4   3   132183.60 2277.24
   4   3   132635.80 2434.41
  -4   3  -131713.70 2342.42
   4  -3  -130724.90 2371.46
   4   3  -134002.30 3080.36
   4   3  -132816.70 2116.25
   4  -3   133195.00 2618.20
  -4   3  -2 8176.81 1204.52
   4   3   2 8150.16  813.58
   4   3   2 8333.43 1261.75
   4  -3  -2 8234.46 1026.37
   4   3  -2 9042.47 1190.58
   4   3  -2 7713.46  577.50
   4  -3   2 7293.62  632.27
   4  -3  -3 6072.99  629.49
   4   3   3 5304.20  486.07
   4   3   3 6161.76 1056.84
  -4  -3   3 4277.65  349.64
  -4   3  -3 6478.40 1020.20
   4  -3  -3 6194.94  814.97
   4   3  -3 5654.89  413.11
   4   3  -3 4506.25  563.44
   4  -3   3 5508.37  828.32
   4   3   415450.30 1358.96
  -4   3  -414525.40 1697.60
  -4  -3   413071.90  720.45
   4   3   415386.60 1774.15
   4  -3  -414586.20 1333.58
   4  -3  -413026.10  815.02
   4   3  -413086.40  722.65
   4   3  -414720.20 1536.03
   4  -3   412883.90 1035.27
   4  -3  -5 6200.34  446.15
   4   3   5 8024.54 1213.83
   4   3   5 7049.85  636.99
  -4  -3   5 7280.98  463.36
  -4   3  -5 7700.13  793.96
   4  -3  -5 7419.67  809.86
   4   3  -5 6432.29  373.92
   4   3  -5 8448.08 1064.51
   4  -3   5 6947.70  655.11
   4   3   6 1057.60  552.86
   4   3   6  669.55  418.52
  -4   3  -6 1214.36  555.05
   4  -3  -6  924.69  290.45
   4  -3  -6  648.54  189.05
   4   3  -6 2477.77  462.31
   4   3  -6  850.98  138.89
   4   3  -6 1206.36  130.05
   4  -3   6  848.59  448.86
   4   3   7    8.89  186.73
   4   3   7  669.49  374.91
  -4   3  -7  269.05  385.25
   4  -3  -7  252.92  213.54
   4  -3  -7  449.80  197.63
   4   3  -7  419.70   63.08
   4   3  -7  146.70   63.47
   4   3  -7  460.63  193.59
   4  -3   7  443.56  318.59
   4   3   814368.30 1521.36
  -4   3  -812852.70 1175.86
   4   3   811557.60 1640.50
   4  -3  -813606.70 1064.55
   4  -3  -813735.70 1238.01
   4   3  -814035.40 1023.86
   4   3  -812440.20  468.47
   4  -3   814860.30 1528.48
   4  -3  -9 4868.10  827.17
   4   3   9 8824.49  844.57
   4   3   9 9273.41  908.63
  -4   3  -9 8801.74 1354.81
   4  -3  -9 9197.79  786.33
   4   3  -9 9349.61 1083.75
   4  -3   9 8600.29  829.73
  -4   3 -10 7956.22 1418.98
   4   3  10 9281.76 1433.76
   4   3  10 8153.57 1256.77
   4  -3 -10 8937.52  783.77
   4   3 -10 9223.78 1129.66
   4  -3  10 9237.05  864.67
   4   3  11 2500.09  568.91
   4   3  11 3323.62  528.70
  -4   3 -11 2499.26  582.73
   4  -3 -11 3704.97  411.87
   4   3 -11 4137.55  704.32
   4  -3  11 3446.74  499.27
   4   3  1212484.30 1639.87
  -4   3 -1212964.30 1268.83
   4  -3 -1212309.40  937.23
   4   3  1211510.50 1735.89
   4   3 -1214235.60 1465.60
   4  -3  1213182.10 1130.19
  -4   3  1213516.90 1157.64
   4   3  1318473.20 1560.85
   4   3  1318017.90 1619.14
  -4   3 -1318031.90 1643.00
   4  -3 -1317268.70 1218.14
   4   3 -1321665.40 1906.40
   4  -3  1316890.70 1476.76
  -4   3  1319076.30 1537.53
   4  -3 -1414858.60 1285.85
   4   3  1415080.90 1419.41
   4   3  1417068.20 1998.20
  -4   3 -1414822.40 2060.53
   4   3 -1416846.30 1611.18
   4  -3  1413745.80 1293.76
  -4   3  1415465.00 1327.64
   4   3  1521670.30 2620.84
   4   3  1523239.40 1979.31
  -4   3 -1521819.40 2674.77
   4   3 -1525136.90 2179.49
   4  -3  1520877.10 1834.81
  -4   3  1522012.90 1812.56
   4   3  1615286.20 2018.45
  -4   3 -1614079.40 2077.60
   4   3  1616357.10 2090.83
   4   3 -1613491.70 1094.44
   4  -3  1614147.70 1336.69
  -4   3  1613839.20 1287.64
   4   3  17 5924.31 1403.11
   4   3  17 7202.64  907.34
  -4   3 -17 6990.58  963.95
   4   3 -17 6923.29 1058.16
   4  -3  17 7853.89 1386.71
  -4   3  17 7468.14  880.27
  -4   3 -18 8152.20 1115.62
   4   3  18 7074.32 1608.28
   4   3  18 8749.00 1656.66
   4   3 -1810003.80 1257.71
   4  -3  1810061.40 1634.64
  -4   3  18 9675.92 1074.71
   4   3  19 7811.79  972.64
   4   3  19 5230.31  908.41
  -4   3 -19 6732.10  975.37
   4   3 -19 6695.48 1029.63
   4  -3  19 6083.69 1379.87
  -4   3  19 6683.06  597.25
  -4   3 -20  488.63  671.38
   4   3  20  872.70  633.92
   4   3  20  974.26  693.45
   4   3  21  902.95  680.85
   4   3  21 1030.72  760.88
  -4   3 -21  474.18  725.45
   4  -3  21  964.08  418.94
   4   3  22 2592.58 1213.08
   4   3  22 3660.05  863.39
  -4   3 -22 3393.66 1297.58
   4  -3  22 4997.56  812.86
   4   3  23 1057.20  711.66
   4   3  23  105.44  803.37
  -4   3 -23  874.62  470.01
   4  -3  23 1393.92  766.58
   4   3  24 3025.40  786.04
   4   3  24 2824.92 1125.73
  -4   3 -24 2523.18 1239.11
   4  -3  24 4693.21 1259.07
   4   3  25 4918.26 1597.46
   4   3  25 4441.42  856.56
  -4   3 -25 3866.61 1576.55
   4  -3  25 5401.82 1483.90
   4   3  2615145.40 1757.01
  -4   3 -26 8326.75 1545.57
   4  -3  2613316.90 1623.05
   4   3  27 9867.94 2285.10
  -4   3 -27 6014.32 2191.75
   4  -3  2710274.40 1434.69
   4  -4   0  674.71  357.32
   4   4   0 2236.30  500.24
  -4   4   0  719.91  416.64
   4   4   0  509.75  169.47
  -4   4  -1 1615.98  368.37
   4  -4  -1 1794.91  354.82
   4  -4  -1 2488.12  293.42
   4   4   1 2170.91  406.32
   4   4   1 2132.88  260.54
   4  -4   1 1758.26  498.00
   4   4  -1 2336.29  319.67
   4   4  -1 2551.30  672.85
  -4   4  -2 1567.09  518.69
   4  -4  -2 1320.89  433.88
   4   4   2 1850.47  555.61
   4  -4  -2 1129.80  380.92
   4   4   2  948.66  219.88
   4  -4   2  920.28  247.32
   4   4  -2  792.47  223.17
   4   4  -2 1552.78  336.94
  -4   4  -328805.10 2793.07
   4  -4  -328692.80 1895.98
   4  -4  -326928.40 1745.65
  -4  -4   327635.80 1733.47
   4   4   328728.70 2240.66
   4   4   328982.60 2780.95
   4  -4   329826.60 2514.29
   4   4  -328999.50 1844.75
   4   4  -328589.40 2076.25
   4  -4  -4 8736.00  650.85
  -4   4  -410774.70  996.09
   4  -4  -410022.60  656.39
   4   4   4 8745.72  989.92
   4   4   410627.40 1381.60
  -4  -4   4 7473.13  426.05
   4  -4   4 9764.95  810.27
   4   4  -4 9254.46  633.13
   4   4  -411524.70 1289.32
  -4   4  -537506.40 2904.46
   4  -4  -540259.60 2994.76
   4  -4  -539007.20 2888.60
   4   4   536471.70 3008.73
   4   4   538655.20 3655.26
  -4  -4   542308.10 2284.15
   4  -4   535193.90 3107.09
   4   4  -539318.60 2825.83
   4   4  -533005.60 1804.42
  -4   4  -6 6114.90  947.99
   4  -4  -6 4367.87  559.23
   4  -4  -6 5368.66  579.35
   4   4   6 4226.89  485.07
   4   4   6 5472.30  969.35
   4  -4   6 4790.51  830.03
   4   4  -6 3733.74  222.14
   4   4  -6 4102.51  216.65
   4   4  -6 5852.16  856.82
  -4   4  -745328.50 3516.02
   4  -4  -743061.40 3135.79
   4   4   744871.00 3736.98
   4   4   744578.50 4237.32
   4  -4   739171.80 2969.78
   4   4  -746109.90 3960.82
   4  -4  -8 4636.35  535.51
   4   4   8 5097.21  654.02
  -4   4  -8 4923.26 1001.32
   4   4   8 5071.92  887.26
   4  -4   8 4863.25  585.58
   4   4  -8 5005.48  536.26
  -4   4  -937773.90 2995.14
   4  -4  -939515.90 2672.02
   4  -4  -920110.70 2482.73
   4   4   938614.60 3007.47
   4   4   939858.90 2893.34
   4  -4   938309.00 2781.21
   4   4  -940519.10 2819.41
  -4   4 -10 1032.23  503.65
   4  -4 -10 1763.49  324.82
   4   4  10 1705.30  739.35
   4  -4  10 1349.97  678.09
   4   4 -10 4728.94  623.35
  -4   4 -1130634.40 3274.39
   4  -4 -1129065.30 1949.22
   4   4  1131165.20 2406.17
   4   4  1129904.50 2474.42
   4  -4  1130796.10 2945.01
  -4   4  1131372.30 2531.25
   4   4 -1135614.90 3006.02
   4  -4 -12 1166.39  258.27
  -4   4 -12 1231.26  739.54
   4   4  12 1311.70  677.43
   4   4  12 1109.23  668.74
   4  -4  12 1454.53  648.94
  -4   4  12 2408.43  284.16
   4   4 -12 1207.52  581.02
  -4   4 -13 5109.07 1225.86
   4  -4 -13 5026.55  454.76
   4   4  13 6863.38 1165.82
   4   4  13 4930.20  713.84
   4  -4  13 4790.13 1072.73
  -4   4  13 6204.70  780.46
   4   4 -13 5439.50  589.64
  -4   4 -14 2566.62 1123.68
   4  -4 -14 3033.80  367.76
   4   4  14 4884.83  705.73
   4   4  14 2249.54  975.84
   4  -4  14 4369.41  990.53
  -4   4  14 5508.44  722.30
   4   4 -14 5034.51  819.10
  -4   4 -15 3979.45 1169.12
   4   4  15 3354.20 1042.64
   4   4  15 6225.69 1112.46
   4  -4  15 3049.22 1015.94
  -4   4  15 4030.97  714.69
   4   4 -15 5344.08  838.78
  -4   4 -16 1478.71  836.23
   4   4  16 1003.86  736.52
   4   4  16 1281.92  487.38
   4  -4  16  934.98  735.55
  -4   4  16 2617.04  336.39
   4   4 -16 1264.04  370.36
  -4   4 -17 5886.98 1501.69
   4   4  17 7714.65  942.58
   4   4  17 8493.10 1451.99
   4  -4  17 6418.95 1342.47
  -4   4  17 6589.19  956.87
   4   4 -17 7830.75 1153.85
  -4   4 -18  367.73  537.41
   4   4  18  272.96  291.87
   4   4  18  313.60  324.54
   4  -4  18  461.21  482.82
  -4   4  18  545.49  324.42
   4   4 -18  346.05  380.96
  -4   4 -1915418.80 1748.64
   4   4  1915447.70 1605.59
   4   4  1916134.90 2460.01
   4  -4  1917367.60 1655.49
  -4   4  1916295.20 1260.60
   4   4 -1917829.50 1942.57
  -4   4 -20  640.00  375.10
   4   4  20   73.48  324.45
   4   4  20 1370.85  377.38
   4  -4  20  311.79  331.98
   4   4 -20  319.08  446.08
  -4   4 -2124215.30 3349.05
   4   4  2123310.20 2307.29
   4   4  2124816.40 3434.06
   4  -4  2126207.50 2390.10
  -4   4 -22  671.92  531.36
   4   4  22   27.23  275.25
   4   4  22  138.93  322.00
   4  -4  22  407.06  295.03
  -4   4 -2322745.80 2423.66
   4   4  2318824.80 2918.46
   4   4  2322240.40 3422.53
   4  -4  2323592.30 3133.99
  -4   4 -24  -70.87  314.11
   4   4  24  119.29  325.01
   4   4  24  490.71  450.79
   4  -4  24  703.26  508.26
  -4   4 -25 6863.89 1843.18
   4   4  25 7855.93 1895.87
   4  -4  25 6165.16 1724.92
  -4   4 -26  905.28  529.10
   4   4  26 1013.51  570.18
   4  -4  26 1017.65  531.14
  -4   4 -27  746.96  591.34
   4   4  27  725.53  641.89
   4  -4  27 -127.35  345.80
   4  -5   0 9210.69  734.40
   4   5   0 9453.91  804.67
  -4   5   010474.10  838.37
   4   5   0 9811.24  935.64
  -4   5  -128911.80 2162.50
   4  -5  -129957.40 2477.82
   4   5   129736.60 2278.49
   4   5   129881.90 2177.49
   4  -5   130525.50 2519.16
  -4   5   129799.60 2594.34
   4   5  -130358.90 2972.80
   4   5  -128882.20 1934.39
  -4   5  -215106.80 1216.78
   4  -5  -213602.70  977.08
   4   5   214820.70 1251.37
   4   5   213426.90 1694.19
   4  -5   213004.60  984.67
   4   5  -213961.30  915.81
   4   5  -213589.60 1147.45
  -4   5  -312089.40 1044.42
   4  -5  -312839.20 1233.22
   4  -5  -312773.00  892.57
   4   5   312257.60 1589.94
   4   5   311383.20 1138.60
  -4  -5   311113.00  755.56
   4  -5   313468.00 1388.06
   4   5  -313117.20  896.97
   4   5  -312507.30 1525.47
  -4   5  -413806.30 1646.89
   4  -5  -415423.90 1297.75
   4  -5  -413689.70  925.67
   4   5   415064.10 1723.84
   4   5   413806.60 1320.61
  -4  -5   411887.40  629.02
   4  -5   414839.90 1106.45
   4   5  -413375.60  719.73
   4   5  -415965.40 1202.65
   4  -5  -5 7978.02  777.36
   4  -5  -5 6339.71  525.86
  -4   5  -5 7642.60 1137.33
   4   5   5 7782.30  947.10
   4   5   5 8576.04 1206.28
  -4  -5   5 6521.16  354.25
   4  -5   5 7740.51 1032.48
   4   5  -5 8545.40 1142.17
   4   5  -5 7097.41  416.95
  -4   5  -6 3919.73  491.03
   4  -5  -6 2041.63  470.07
   4   5   6 3193.14  639.19
   4   5   6 3233.56  800.53
   4  -5   6 3211.88  435.03
   4   5  -6 3173.37  442.80
  -4   5  -7 3756.00 1012.27
   4  -5  -7 4316.08  573.28
   4  -5  -7 7012.45  838.09
   4   5   7 4783.51  563.78
   4   5   7 3266.99 1018.06
   4  -5   7 4995.34  577.90
   4   5  -7 6651.01  915.04
  -4   5  -8 6432.60  839.77
   4  -5  -8 6129.37  623.30
   4   5   8 6371.21  725.41
   4   5   8 6633.47  819.29
   4  -5   8 6711.39 1098.04
   4   5  -8 7323.31 1133.01
   4  -5  -9 4694.09  502.73
  -4   5  -9 4206.80  648.30
   4   5   9 4490.92  933.76
   4   5   9 4499.41  648.47
   4  -5   9 5778.85  937.76
   4   5  -9 4927.79  562.02
  -4   5 -1011523.50 1793.32
   4  -5 -1012071.30  907.63
   4   5  1011457.00 1677.76
   4   5  1012589.60 1625.34
   4  -5  1010933.60 1078.72
  -4   5  1013076.70  987.83
   4   5 -1014019.60 1561.55
  -4   5 -1118669.40 2466.28
   4  -5 -1120369.90 1405.03
   4   5  1120942.70 1827.93
   4   5  1120488.00 1763.97
   4  -5  1121274.50 1759.43
  -4   5  1122809.90 2022.07
   4   5 -1127732.40 2454.26
  -4   5 -1211850.10 1216.74
   4   5  1212412.50 1702.93
   4  -5 -1210824.80  731.44
   4   5  1211414.60 1157.14
   4  -5  1212017.60 1070.60
  -4   5  1214343.80 1352.75
   4   5 -1213034.10 1051.47
   4  -5 -1311916.70  906.36
  -4   5 -1313980.10 1370.32
   4   5  1313338.50 1278.53
   4   5  1315421.60 1901.68
   4  -5  1312647.10 1155.91
  -4   5  1313838.80 1406.65
   4   5 -1316240.60 1632.11
  -4   5 -1415026.90 1477.58
   4   5  1414419.70 1946.59
   4   5  1414945.90 1418.51
   4  -5  1415629.80 1375.74
  -4   5  1416012.80 1574.40
   4   5 -1414522.20 1208.83
  -4   5 -1532963.30 2970.94
   4   5  1533671.20 3575.87
   4   5  1535476.90 3797.13
   4  -5  1531066.30 2651.07
  -4   5  1536670.10 3133.71
   4   5 -1537843.90 3385.41
  -4   5 -1613406.80 2146.98
   4   5  1613198.60 2069.56
   4   5  1613305.00 1957.94
   4  -5  1614393.60 1358.70
  -4   5  1615058.40 1563.77
   4   5 -1614968.40 1761.80
  -4   5 -17 7907.22 1613.98
   4   5  17 6573.58  993.03
   4   5  17 8764.84  965.21
   4  -5  17 7078.97  919.79
  -4   5  17 8356.19 1106.40
   4   5 -17 7735.91  839.04
  -4   5 -1810199.00 1943.79
   4   5  1811688.10 1938.40
   4   5  1810178.70 1177.94
   4  -5  1811811.40 1200.75
  -4   5  1810603.80 1358.31
   4   5 -1810650.80 1500.20
  -4   5 -19 3135.33 1050.74
   4   5  19 3539.04  650.18
   4   5  19 2400.79  894.90
   4  -5  19 2679.59  580.73
  -4   5  19 2477.89  414.74
   4   5 -19 2044.32  477.27
  -4   5 -20  554.95  436.59
   4   5  20 1042.21  728.56
   4   5  20   22.78  595.95
   4  -5  20 1249.61  398.13
  -4   5  20  987.83  453.82
   4   5 -20  554.54  545.70
  -4   5 -21 1640.10  883.97
   4   5  21 1664.30  546.46
   4   5  21  775.52  749.33
   4  -5  21 1287.31  502.30
   4   5 -21 1346.19  407.00
  -4   5 -22   19.25  695.79
   4   5  22  773.38  706.51
   4   5  22  130.78  342.52
   4  -5  22 1160.08  387.62
  -4   5 -23 4203.51  970.22
   4   5  23 5153.72  964.90
   4   5  23 5165.25  856.62
   4  -5  23 6392.84 1426.96
  -4   5 -24 2194.86  732.32
   4   5  24 2136.88 1176.05
   4   5  24 1670.07  955.09
   4  -5  24 2738.13 1046.41
  -4   5 -25  874.03  905.78
   4   5  25 2172.57  950.27
   4  -5  25  464.81  855.86
  -4   5 -26 2799.71  917.20
   4   5  26 4413.36 1540.74
   4  -5  26 5618.13 1413.41
  -4   5 -27 5441.15 1922.91
   4   5  27 6311.92 2010.73
   4  -5  27 7267.90 1175.18
   4  -6   0 1678.02  471.69
  -4   6   0 1037.06  474.60
   4   6   0 1781.91  357.79
   4   6   0 1084.42  306.76
  -4   6  -1 2045.34  532.94
   4  -6  -1 1384.14  285.57
   4   6   1 1500.73  360.18
   4   6   1  828.19  347.00
   4  -6   1 1243.00  283.37
  -4   6   1 1195.46  484.43
   4   6  -1 2116.80  582.30
   4   6  -1  995.74  288.38
   4  -6  -223634.00 2071.02
  -4   6  -220767.10 2174.30
   4   6   221576.50 1403.94
   4   6   222166.20 2346.40
   4  -6   220980.70 1981.90
  -4   6   221939.20 1528.63
   4   6  -221784.80 1391.38
   4   6  -222117.30 1716.89
  -4   6  -3 6533.33  981.67
  -4  -6   3 4186.99  321.52
   4  -6  -3 5282.43  497.06
   4   6   3 6803.80 1049.08
   4   6   3 5323.77  729.34
   4  -6   3 4330.60  508.28
  -4   6   3 5815.21  776.73
   4   6  -3 5286.10  412.01
   4   6  -3 5188.14  633.06
  -4   6  -420801.50 2204.72
   4  -6  -420715.50 1844.64
   4  -6  -420504.80 1684.84
   4   6   419705.30 1734.13
  -4  -6   418158.60  972.36
   4  -6   420968.90 1982.36
   4   6  -420311.50 1106.60
   4   6  -422497.40 2214.15
  -4   6  -5 1106.52  316.30
   4  -6  -5  493.21  425.81
   4  -6  -5 1320.45  231.49
   4  -6  -5 1070.96  323.44
   4   6   5 1413.80  548.24
   4   6   5 1543.01  413.55
  -4  -6   5  995.57  109.05
   4  -6   5 1161.33  274.04
   4   6  -5 1013.67  300.45
   4   6  -5  947.64  139.14
   4  -6  -626691.70 1901.76
  -4   6  -628396.00 2728.04
   4   6   627721.30 2640.18
   4   6   627386.70 1874.55
  -4  -6   623777.20 1069.16
   4  -6   629597.50 2561.61
   4   6  -631216.50 2653.76
   4   6  -620994.90  899.40
  -4   6  -7 8519.13  904.57
   4  -6  -7 7290.23  727.24
   4   6   7 7490.68  750.64
   4   6   7 7868.53 1204.19
   4  -6   7 7406.91 1177.43
   4   6  -7 8829.95  797.53
   4  -6  -841182.10 2920.99
  -4   6  -840798.40 4033.79
   4   6   839561.70 3660.55
   4   6   842024.10 3341.47
   4  -6   842685.10 3198.10
   4   6  -845317.90 4022.90
  -4   6  -9  840.89  564.92
   4  -6  -9 1059.31  231.47
   4   6   9  596.90  506.22
   4   6   9  627.31  545.91
   4  -6   9 1114.49  303.77
   4   6  -9  855.82  293.04
   4  -6 -1027195.10 1798.94
  -4   6 -1028430.20 3084.65
   4   6  1026076.70 2732.06
   4   6  1026656.90 2829.19
   4  -6  1028770.00 2799.92
  -4   6  1029048.80 2543.34
   4   6 -1028980.00 2787.56
  -4   6 -11  551.54  343.17
   4  -6 -11 1096.97  256.54
   4   6  11 1313.28  535.22
   4   6  11  613.57  326.44
   4  -6  11  755.82  499.33
  -4   6  11  819.50  437.71
   4   6 -11  872.99  310.69
  -4   6 -12 5550.86  739.21
   4  -6 -12 3662.63  318.94
   4   6  12 5296.26  679.22
   4   6  12 4445.37 1033.90
   4  -6  12 6199.69 1016.86
  -4   6  12 5814.82  845.01
   4   6 -12 5995.44  971.66
  -4   6 -13 1089.39  435.52
   4   6  13 1355.00  407.79
   4   6  13 1332.90  671.95
   4  -6  13 1363.79  366.95
  -4   6  13  941.29  518.04
   4   6 -13 1083.98  341.05
   4   6  14 1148.52  624.85
  -4   6 -14 1265.51  426.67
   4   6  14 1007.18  696.95
   4  -6  14 1113.27  357.70
  -4   6  14 1008.94  501.90
   4   6 -14  965.25  553.33
  -4   6 -15 7327.20 1177.28
   4   6  1510109.00 1577.05
   4   6  15 8558.40 1182.01
   4  -6  15 9676.83 1055.98
  -4   6  1510564.70 1340.57
   4   6 -1510028.00 1015.41
  -4   6 -16 4639.06  836.88
   4   6  16 4984.83  751.73
   4   6  16 5017.39  833.47
   4  -6  16 5577.23  736.32
  -4   6  16 5544.18  963.92
   4   6 -16 5869.37 1067.86
  -4   6 -17  476.75  630.05
   4   6  17  480.51  317.28
   4   6  17 1032.93  632.74
   4  -6  17  569.09  320.92
  -4   6  17  815.04  426.27
   4   6 -17  705.19  310.62
   4   6  1813210.90 1953.83
  -4   6 -1812670.80 2241.35
   4   6  1813354.90 1513.28
   4  -6  1813898.90 1375.68
  -4   6  1814219.80 1671.70
   4   6 -1815847.30 1913.60
  -4   6 -19  838.61  893.55
   4   6  19 1220.08  761.92
   4   6  19 1120.97  909.87
   4  -6  19 2005.20  472.57
  -4   6  19 1455.99  614.70
   4   6 -19 1843.80  423.99
  -4   6 -2017387.70 2020.65
   4   6  2020377.30 2594.36
   4   6  2019428.50 2915.88
   4  -6  2019645.30 1892.48
  -4   6  2019334.20 2145.03
   4   6 -2023677.60 2592.69
  -4   6 -21  824.79  671.12
   4   6  21  602.56  543.54
   4   6  21  620.61  402.43
   4  -6  21  509.74  347.53
  -4   6  21  617.42  437.94
   4   6 -21  349.97  306.00
  -4   6 -2215121.60 2763.68
   4   6  2215125.50 2332.79
   4   6  2216846.90 2761.96
   4  -6  2216987.10 1734.29
  -4   6 -23 -369.77  314.31
   4   6  23 -115.29  250.88
   4   6  23 -105.43  315.28
   4  -6  23 -128.78  500.81
  -4   6 -2412483.60 2452.18
   4   6  2412890.90 2550.38
   4  -6  2411958.70 2269.75
  -4   6 -25  715.16  890.70
   4   6  25  932.05  533.57
   4  -6  25  984.88  810.05
  -4   6 -26 2476.35  829.50
   4   6  26 4604.22 1424.48
   4  -6  26 2211.77 1256.31
  -4   6 -27  581.38  990.46
   4   6  27 1496.50  621.02
   4  -6  27  384.72  900.47
  -4   7   024637.00 2238.45
   4  -7   025080.30 2341.62
   4   7   025649.30 2012.15
   4   7   025054.00 1848.41
  -4   7  -122328.30 2171.90
   4  -7  -121016.10 1530.02
   4   7   122531.20 1429.62
   4   7   125010.10 2442.57
   4  -7   121061.90 1541.01
  -4   7   120989.80 2008.37
   4   7  -119995.90 1456.74
   4   7  -121772.30 1736.03
  -4   7  -238864.10 3563.61
   4  -7  -239220.80 3395.03
   4   7   239113.00 3103.76
   4   7   237864.70 3757.88
   4  -7   240075.40 3477.67
  -4   7   237286.20 3181.30
   4   7  -242173.40 3896.34
   4   7  -236709.60 2502.66
  -4   7  -3 8653.94  856.52
   4  -7  -3 9014.27  744.94
   4   7   3 9620.51 1001.13
   4   7   3 9250.51 1317.36
  -4  -7   3 7641.32  499.49
   4  -7   3 9750.60 1123.88
  -4   7   3 8246.12  974.11
   4   7  -3 8900.38  596.21
   4   7  -3 9107.14 1323.49
  -4   7  -412342.30 1085.85
   4  -7  -411937.60 1278.83
   4   7   412380.20 1589.85
  -4  -7   4 9860.23  552.17
   4   7   411059.60  886.78
   4  -7   411563.00  925.81
  -4   7   412505.70 1152.58
   4   7  -411209.80  639.53
   4   7  -413512.10 1088.75
  -4   7  -5 3003.04  767.34
   4  -7  -5 2393.78  644.88
   4  -7  -5 2177.10  481.02
   4   7   5 2920.09  759.03
   4   7   5 2580.34  373.42
   4  -7   5 5164.35  725.10
   4   7  -5 2521.44  759.35
   4   7  -5 2032.60  200.84
  -4   7  -6 3398.16  537.07
   4  -7  -6 3244.32  507.77
   4  -7  -6  880.86  723.86
   4   7   6 3449.56  833.98
   4   7   6 3514.40  717.86
   4  -7   6 3860.83  485.13
   4   7  -6 3868.27  817.53
  -4   7  -7 1169.76  338.49
   4  -7  -7  787.58  328.25
   4  -7  -7  883.58  264.00
   4   7   7  898.79  326.09
   4   7   7  794.47  474.74
   4  -7   7  845.06  489.42
   4   7  -7  924.84  324.87
  -4   7  -8  605.96  564.68
   4  -7  -8 1014.71  258.47
   4  -7  -8  931.83  331.28
   4   7   8  912.52  318.18
   4   7   8 1145.11  512.96
   4  -7   8  717.06  500.89
   4   7  -8 1315.41  529.78
  -4   7  -9 4248.58 1114.71
   4  -7  -9 4940.07  477.21
   4   7   9 3228.77 1001.80
   4   7   9 4332.29 1008.43
   4  -7   9 5653.56  655.52
   4   7  -9 6152.23  656.29
  -4   7 -10 8889.31  995.22
   4  -7 -10 9146.81  664.95
   4   7  1010197.30 1434.57
   4   7  10 9151.55 1384.80
   4  -7  10 8316.97  909.82
  -4   7  1010139.70  886.02
   4   7 -1011003.00 1453.06
  -4   7 -1111769.30 1233.73
   4  -7 -1110563.70  727.86
   4   7  1110505.10 1652.35
   4   7  1112831.20 1224.91
   4  -7  1112537.00 1646.28
  -4   7  1113356.30 1097.77
   4   7 -1115410.80 1235.24
  -4   7 -1221584.30 2063.05
   4   7  1225137.30 2155.13
   4   7  1224427.70 2624.52
   4  -7  1222706.20 2521.09
  -4   7  1223360.90 1839.45
   4   7 -1225228.80 2641.81
  -4   7 -1317018.70 1708.14
   4   7  1316650.10 1619.59
   4   7  1317101.00 1595.77
   4  -7  1317640.60 2149.78
  -4   7  1319453.70 1509.20
   4   7 -1319105.30 2078.94
  -4   7 -1431520.70 2886.48
   4   7  1431582.00 2798.86
   4   7  1432408.40 3409.51
   4  -7  1431987.70 3340.72
  -4   7  1432028.50 3089.49
   4   7 -1435566.60 2757.65
  -4   7 -1515661.10 1606.12
   4   7  1516774.60 2218.11
   4   7  1516198.00 2046.36
   4  -7  1514530.70 1393.21
  -4   7  1515730.80 1828.08
   4   7 -1515322.10 1936.65
  -4   7 -1610396.00 1231.54
   4   7  1611392.50 1830.80
   4   7  1610241.80 1128.00
   4  -7  16 9652.12 1110.04
  -4   7  16 9251.91  957.46
   4   7 -1611763.20 1089.17
  -4   7 -1712772.40 2203.05
   4   7  1712645.40 1475.86
   4   7  1713466.90 1371.77
   4  -7  1712779.10 1341.88
  -4   7  1714181.80 1714.17
   4   7 -1714027.80 1954.77
  -4   7 -18 4584.10 1400.90
   4   7  18 4542.67 1358.14
   4   7  18 4012.48 1127.12
   4  -7  18 5627.15  769.32
  -4   7  18 5167.78 1012.94
   4   7 -18 3431.23 1137.42
  -4   7 -19 1092.25  531.58
   4   7  19 1513.51  845.24
   4   7  19  862.09  697.97
   4  -7  19 1849.13  468.76
  -4   7  19 1379.69  601.55
   4   7 -19 1084.78  436.28
  -4   7 -20 1374.91  515.30
   4   7  20 1584.54  507.47
   4   7  20  451.73  679.84
   4  -7  20 1321.54  452.18
  -4   7  20 1043.03  374.71
   4   7 -20 1004.49  722.02
  -4   7 -21  776.22  726.14
   4   7  21  592.70  545.52
   4   7  21  699.51  686.01
   4  -7  21  638.83  351.23
  -4   7  21   75.95  473.61
   4   7 -21  769.06  567.50
  -4   7 -22  342.65  784.72
   4   7  22  150.30  762.20
   4   7  22  779.04  607.02
   4  -7  22  958.03  409.92
   4   7 -22  815.15  375.69
  -4   7 -23  803.70  529.03
   4   7  23  680.84  530.40
   4  -7  23 1516.19  467.46
  -4   7 -24 3998.19 1641.45
   4   7  24 5672.56 1655.06
   4  -7  24 5370.10 1493.02
  -4   7 -25 2973.48 1700.17
   4   7  25 5993.57 1073.50
   4  -7  25 5500.08 1566.06
  -4   7 -26 7019.26 1410.61
   4   7  2610282.70 2235.01
   4  -7  26 8922.81 1989.74
  -4   8   0 9632.10  934.98
   4  -8   012405.60 1413.38
   4   8   0 9244.37  941.13
   4   8   011442.60 1566.74
  -4   8  -1 3722.67  489.17
   4  -8  -1 4317.41  453.07
   4   8   1 2405.51  539.22
   4   8   1 2972.68  871.79
   4  -8   1 2798.64  439.70
  -4   8   1 3256.36  423.74
   4   8  -1 2218.85  426.18
   4   8  -1 2647.21  551.02
  -4   8  -2 9943.72  985.50
   4  -8  -213169.10 1400.51
   4   8   210436.60 1153.25
   4   8   212217.10 1594.11
   4  -8   211938.00 1412.95
  -4   8   210129.90 1220.19
   4   8  -2 9335.05  822.65
   4   8  -211154.20 1105.66
  -4   8  -321057.80 2122.51
   4  -8  -319956.20 1467.03
   4   8   319420.40 1764.34
   4   8   320269.20 2254.92
   4  -8   323202.20 2120.11
  -4   8   319194.60 1361.58
   4   8  -318692.80 1197.41
   4   8  -318120.80 1604.82
  -4   8  -4 3733.00  536.09
   4  -8  -4 3464.94  449.98
  -4  -8   4 2648.97  293.02
   4   8   4 3699.93  649.16
   4   8   4 2855.63  889.87
   4  -8   4 3713.89  455.08
  -4   8   4 2976.67  558.85
   4   8  -4 4880.53  866.58
   4   8  -4 3060.04  269.35
  -4   8  -565027.10 6058.43
   4   8   567448.50 6296.54
   4   8   565871.80 5603.58
  -4  -8   556962.70 3661.38
   4  -8   564100.50 5687.58
  -4   8   563812.70 5064.52
   4   8  -570353.30 6327.02
   4   8  -560169.10 3908.77
  -4   8  -6  891.51  291.84
   4  -8  -6  914.92  164.46
   4   8   6  481.09  503.95
   4   8   6  544.71  249.78
   4  -8   6  558.59  464.03
   4   8  -6  927.51  283.18
   4   8  -6  493.07   89.16
  -4   8  -726082.90 2844.93
   4  -8  -725768.20 1928.73
   4   8   724796.40 2141.12
   4   8   727813.80 2606.05
   4  -8   726594.40 2082.29
   4   8  -729031.40 2927.08
  -4   8  -8  978.64  599.53
   4  -8  -8 1195.24  252.01
   4  -8  -8  -81.63  365.21
   4   8   8 1488.47  339.68
   4   8   8 1455.98  525.85
   4  -8   8 1173.62  546.56
   4   8  -8 1086.85  563.07
  -4   8  -922833.30 1969.00
   4  -8  -920832.80 1425.05
   4   8   922154.40 2429.77
   4   8   921654.60 2344.55
   4  -8   919738.30 2216.65
  -4   8   922368.60 1753.78
   4   8  -925686.00 1989.95
  -4   8 -10 1936.80  483.53
   4  -8 -10 2409.50  272.56
   4   8  10 1986.05  768.67
   4   8  10 1583.94  741.13
   4  -8  10 2588.94  467.97
  -4   8  10 2443.54  441.42
   4   8 -10 3062.08  798.20
  -4   8 -1110209.70 1114.19
   4   8  1111372.60 1079.36
   4   8  1110399.60 1562.09
   4  -8  11 9930.75  995.39
  -4   8  11 9793.85  974.99
   4   8 -1111836.00 1585.27
  -4   8 -12  387.28  240.08
   4   8  12  329.17  343.63
   4   8  12  465.37  389.43
   4  -8  12  444.36  350.40
  -4   8  12   24.30  201.03
   4   8 -12  -64.12  198.82
  -4   8 -13 1585.22  482.29
   4   8  13 2695.16  790.17
   4   8  13 1517.15  696.44
   4  -8  13 1213.65  728.99
  -4   8  13 1519.77  419.38
   4   8 -13 1811.33  423.83
  -4   8 -14 6394.13  979.26
   4   8  14 6065.30  922.81
   4   8  14 6423.12 1238.43
   4  -8  14 7411.49 1334.14
  -4   8  14 7287.41 1218.00
   4   8 -14 8170.27 1369.53
  -4   8 -15 1017.42  385.86
   4   8  15  544.31  373.73
   4   8  15 1195.87  548.14
   4  -8  15  754.01  563.22
  -4   8  15  552.60  519.76
   4   8 -15  749.35  350.70
  -4   8 -16  596.86  494.40
   4   8  16   -0.26  273.71
   4   8  16   53.97  240.66
   4  -8  16  502.43  250.37
  -4   8  16  237.74  238.74
   4   8 -16  293.12  252.83
  -4   8 -1723480.00 3295.73
   4   8  1726455.80 3398.92
   4   8  1725402.00 2308.27
   4  -8  1725995.40 2306.94
  -4   8  1726259.00 2853.01
   4   8 -1728210.30 3137.98
  -4   8 -18   71.15  686.51
   4   8  18 1023.27  661.41
   4   8  18  693.89  534.42
   4  -8  18  471.06  350.19
  -4   8  18  925.93  325.61
   4   8 -18  335.45  587.70
  -4   8 -1916141.70 1886.06
   4   8  1916943.20 2191.33
   4   8  1916747.60 1829.42
   4  -8  1915909.20 1632.79
  -4   8  1919125.30 2211.13
   4   8 -1915161.20 1588.94
  -4   8 -20   42.75  574.60
   4   8  20  301.42  575.63
   4   8  20  612.72  438.06
   4  -8  20  557.08  292.72
  -4   8  20    6.62  428.56
   4   8 -20  -18.54  502.24
  -4   8 -21 4891.90 1610.63
   4   8  21 7088.51 1639.49
   4   8  21 4960.47 1227.61
   4  -8  21 6292.61  911.54
  -4   8  21 5848.64  789.58
   4   8 -21 6990.71 1471.31
  -4   8 -22  371.73  511.66
   4   8  22 1344.54  510.91
   4   8  22 1372.66  638.09
   4  -8  22  895.59  441.34
  -4   8  22 1518.86  636.58
   4   8 -22  881.31  433.21
  -4   8 -2311031.10 1639.95
   4   8  2313143.50 2479.96
   4  -8  2312740.70 1481.99
   4   8 -2314792.10 2221.90
  -4   8 -24  513.63  577.02
   4   8  24 -200.23  562.22
   4  -8  24  185.47  285.84
  -4   8 -25 4620.41 1148.17
   4   8  25 6274.70 1140.47
   4  -8  25 6033.85 1022.26
  -4   8 -26  172.86  736.11
   4   8  26  432.30  745.68
   4  -8  26  509.29  671.83
  -4   9   0  812.34  411.49
   4  -9   0  890.04  470.92
   4   9   0  703.17  290.95
   4   9   0  843.52  525.21
  -4   9  -147400.70 4235.67
   4  -9  -148293.20 3668.39
   4   9   147400.90 3341.19
   4   9   147343.20 3908.28
   4  -9   148452.20 3645.81
  -4   9   149487.90 4311.68
   4   9  -147662.70 3515.17
   4   9  -146655.20 4655.34
  -4   9  -217924.30 1428.10
   4  -9  -217223.70 1340.47
   4   9   216307.60 1157.65
   4   9   215854.00 1430.40
   4  -9   218251.00 1953.64
  -4   9   214318.40 1544.84
   4   9  -217941.60 2112.57
   4   9  -216681.80 1236.14
  -4   9  -321113.30 2214.87
   4  -9  -322279.90 2175.03
   4   9   320220.70 1470.11
   4   9   320341.10 1708.38
   4  -9   321106.20 2212.64
  -4   9   320138.90 1803.35
   4   9  -323177.90 2408.21
   4   9  -320276.20 1337.49
  -4   9  -4 1046.87  560.56
   4  -9  -4  567.34  311.51
   4   9   4 1465.65  461.47
   4   9   4 1609.97  589.33
   4  -9   4 1589.02  336.13
  -4   9   4 1178.46  381.22
   4   9  -4 1067.96  253.48
   4   9  -4 2192.94  609.03
  -4   9  -515868.50 1902.81
   4  -9  -511990.60 1826.13
   4   9   516683.10 1609.00
   4   9   517419.30 1970.91
  -4  -9   511393.90  614.80
   4  -9   518673.60 1822.46
  -4   9   515257.40 1337.86
   4   9  -518154.80 1458.24
   4   9  -513501.00  833.12
  -4   9  -6 7559.69  765.77
   4  -9  -6 1136.40 1155.46
   4   9   6 5088.18  905.47
  -4  -9   6 4627.96  283.47
   4   9   6 7145.72 1129.87
   4  -9   6 8474.18 1052.80
   4   9  -6 7065.47  735.46
   4   9  -6 4329.43  256.40
  -4   9  -7  957.32  571.01
   4  -9  -7 3534.34  702.74
   4  -9  -7  886.58  296.86
   4   9   7 1013.03  309.17
   4   9   7  686.20  573.36
   4  -9   7  794.63  310.30
   4   9  -7  561.06  572.80
  -4   9  -8 2441.40  814.57
   4  -9  -8 2512.21  380.25
   4   9   8 2936.60  504.95
   4   9   8 2830.48  763.32
   4  -9   8 2576.95  780.31
   4   9  -8 3313.17  853.18
  -4   9  -9 3695.79  981.17
   4  -9  -9 3125.80  376.51
   4   9   9 3031.31  911.78
   4   9   9 5513.62  894.13
   4  -9   9 4073.03  878.79
  -4   9   9 4392.59  922.39
   4   9  -9 4127.32  599.46
  -4   9 -10 4444.37  658.35
   4  -9 -10 3313.78  346.09
   4   9  10 2817.45  951.67
   4   9  10 4150.75  966.39
   4  -9  10 4211.90  586.23
  -4   9  10 4150.44  954.05
   4   9 -10 4850.58  657.73
  -4   9 -1114888.00 1534.19
   4   9  1115086.10 1378.64
   4   9  1114976.30 2004.27
   4  -9  1115876.00 1384.96
  -4   9  1115023.10 1926.90
   4   9 -1116823.00 2063.25
  -4   9 -12 8722.09 1095.28
   4   9  12 8789.21 1492.27
   4   9  1210385.80 1659.01
   4  -9  1210135.50 1510.32
  -4   9  1211005.20 1093.19
   4   9 -1210082.20 1566.37
  -4   9 -1323571.90 2272.69
   4   9  1325771.70 2815.83
   4   9  1325838.20 3004.80
   4  -9  1325653.70 2856.06
  -4   9  1324495.20 2707.20
   4   9 -1327151.80 2275.03
  -4   9 -1417023.60 2440.16
   4   9  1418226.50 2243.39
   4   9  1418510.80 2465.02
   4  -9  1419045.20 2309.97
  -4   9  1416175.00 2144.06
   4   9 -1418927.30 1686.42
  -4   9 -1514813.20 2343.20
   4   9  1515646.60 2079.76
   4   9  1516148.60 2358.73
   4  -9  1517056.00 2171.80
  -4   9  1515170.80 2057.44
   4   9 -1517811.70 2301.23
  -4   9 -16 6668.04 1600.06
   4   9  16 7742.99 1331.46
   4   9  16 7922.72 1586.26
   4  -9  16 7266.91  933.79
  -4   9  16 7550.54 1360.59
   4   9 -16 7688.37 1538.21
  -4   9 -1714890.00 2675.15
   4   9  1716831.50 1662.78
   4   9  1716970.80 1824.78
   4  -9  1719742.50 1774.97
  -4   9  1720192.70 2382.50
   4   9 -1717443.90 2464.36
  -4   9 -18  906.57  563.70
   4   9  18 1770.62  692.73
   4   9  18  485.79  517.67
   4  -9  18 1436.30  482.65
  -4   9  18 1575.65  724.37
   4   9 -18 2034.56  487.45
  -4   9 -19 5998.38 1068.37
   4   9  19 4687.12 1168.84
   4   9  19 6848.15 1578.07
   4  -9  19 6476.99  904.96
  -4   9  19 7081.78 1300.18
   4   9 -19 5325.94 1419.33
  -4   9 -20 -377.28  776.99
   4   9  20 1491.18  572.37
   4   9  20 1379.69  785.06
   4  -9  20  934.80  404.26
  -4   9  20  592.03  601.59
   4   9 -20  263.93  707.95
  -4   9 -21 1089.99  513.98
   4   9  21  308.01  609.48
   4   9  21 1146.07  511.09
   4  -9  21 1316.30  436.83
  -4   9  21 1110.72  663.59
   4   9 -21  742.14  781.80
  -4   9 -22  439.41  446.06
   4   9  22 1479.91  463.92
   4  -9  22  500.27  397.49
  -4   9  22  689.28  370.31
   4   9 -22  547.99  420.56
  -4   9 -23 1867.91 1395.53
   4   9  23 1371.28 1407.03
   4  -9  23 4600.63  766.57
  -4   9  23 2968.26 1104.25
   4   9 -23 4478.99 1288.25
  -4   9 -24 2822.59  890.01
   4   9  24 4387.38  893.99
   4  -9  24 3263.94  769.61
  -4   9 -25 3602.27 1827.44
   4   9  25 5909.15 1130.81
   4  -9  25 5902.82  996.73
  -4   9 -26 3274.16 1491.67
   4   9  26 2934.64 1467.66
   4  -9  26 3026.45  830.79
  -4  10   0 3904.79  872.58
   4 -10   0 5442.45  622.71
   4  10   0 5334.71  658.88
   4  10   0 2907.92 1071.39
  -4  10  -1 5357.19  939.32
   4 -10  -1 6946.43 1047.36
   4  10   1 4989.89  736.46
   4  10   1 5729.98  754.74
   4 -10   1 4890.57  647.79
  -4  10   1 5651.13  876.40
   4  10  -1 5059.57  737.57
   4  10  -1 5419.52  642.98
  -4  10  -2 7853.04 1231.28
   4 -10  -2 8902.22 1299.67
   4  10   2 8072.46  980.48
   4  10   2 8210.85  934.65
   4 -10   2 9478.97 1307.53
  -4  10   2 8243.86 1024.23
   4  10  -2 8199.47  739.52
   4  10  -2 9749.10  966.23
  -4  10  -3 4784.33  569.86
   4 -10  -3 3449.29  505.96
   4  10   3 2672.31  667.04
   4  10   3 3843.47  570.59
   4 -10   3 3391.74  501.58
  -4  10   3 2799.29  593.67
   4  10  -3 3750.49  561.77
   4  10  -3 2884.64  370.79
  -4  10  -419546.00 2144.30
   4 -10  -414721.80 2221.07
   4  10   418242.60 1823.41
   4  10   418098.80 1584.34
   4 -10   418148.70 1485.84
  -4  10   417560.00 1589.57
   4  10  -418137.90 1150.06
   4  10  -421523.90 1742.80
  -4  10  -5 1245.28  555.49
   4  10   5  703.14  306.36
   4  10   5 1131.29  346.93
   4 -10   5 1124.57  567.43
  -4  10   5  950.97  340.97
   4  10  -5 1194.12  362.12
   4  10  -5  919.80  167.19
  -4  10  -634886.20 2836.23
   4  10   635582.70 3274.26
   4  10   637311.50 3584.16
   4 -10   631407.50 2463.73
  -4  10   631253.10 2491.01
   4  10  -631078.10 1825.09
   4  10  -640951.80 3841.59
  -4  10  -7  777.91  529.92
   4 -10  -7  262.29  150.31
   4  10   7 1107.80  300.97
   4  10   7 1270.17  496.58
   4 -10   7 1329.52  297.36
   4  10  -7 1011.46  543.06
  -4  10  -829826.30 3277.91
   4 -10  -828783.80 2158.57
   4  10   829523.80 3040.34
   4  10   829724.30 2550.16
   4 -10   832671.40 3180.22
   4  10  -835400.90 3550.69
  -4  10  -9  801.88  502.41
   4 -10  -9  301.42  233.99
   4  10   9  511.79  463.59
   4  10   9  379.84  464.42
   4 -10   9  375.58  464.30
  -4  10   9  805.68  488.34
   4  10  -9  842.68  516.86
  -4  10 -1021599.20 2691.47
   4  10  1022776.80 2634.45
   4  10  1023035.60 2598.41
   4 -10  1021335.10 1844.68
  -4  10  1022682.20 2608.66
   4  10 -1026501.30 2197.79
  -4  10 -11  962.02  723.38
   4  10  11  568.63  395.79
   4  10  11 1374.03  418.10
   4 -10  11 1534.24  397.80
  -4  10  11 1483.66  438.17
   4  10 -11 1287.40  428.48
  -4  10 -1210562.00 1840.23
   4  10  1210026.90 1590.44
   4  10  1210725.30 1188.59
   4 -10  1210717.70 1660.44
  -4  10  1211098.10 1136.85
   4  10 -1210980.00 1161.24
  -4  10 -13 5191.41 1664.24
   4  10  13 7902.27 1434.22
   4  10  13 8595.95 1139.11
   4 -10  13 9512.65 1547.97
  -4  10  13 9119.92 1505.54
   4  10 -1311448.50 1720.01
  -4  10 -14  293.52  486.93
   4  10  14  -12.23  387.71
   4  10  14  180.78  277.18
   4 -10  14  229.14  431.14
  -4  10  14  337.51  423.40
   4  10 -14  648.98  469.82
  -4  10 -15 1541.60  879.15
   4  10  15 1028.13  694.51
   4  10  15 1619.03  501.80
   4 -10  15 1994.88  454.57
  -4  10  15 1227.63  448.96
   4  10 -15 1998.42  820.40
  -4  10 -16 8239.77 1155.80
   4  10  16 8922.55 1168.92
   4  10  16 7686.72 1420.03
   4 -10  16 8368.41 1006.76
  -4  10  16 7448.22 1506.16
   4  10 -16 9596.05 1159.18
  -4  10 -17 3177.86  842.55
   4  10  17 3774.10  649.80
   4  10  17 2629.01 1324.70
   4 -10  17 4843.15  743.52
  -4  10  17 5153.37  731.00
   4  10 -17 3837.90  799.49
  -4  10 -18 8728.26 1739.08
   4  10  18 6920.99 1362.69
   4  10  18 5927.79 1729.07
   4 -10  18 7007.96  943.79
  -4  10  18 7566.78 1489.15
   4  10 -18 8768.38 1687.24
  -4  10 -19  980.31  939.91
   4  10  19 1246.98  697.82
   4  10  19 1834.16  936.24
   4 -10  19 1839.61  500.76
  -4  10  19 1424.64  476.64
   4  10 -19 1142.74  847.65
  -4  10 -2020583.40 2417.31
   4  10  2020086.60 2698.73
   4  10  2021550.20 2320.96
   4 -10  2022150.90 2130.74
  -4  10  2020779.20 2807.78
   4  10 -2025824.40 3258.78
  -4  10 -21  120.26  369.02
   4  10  21  420.05  374.46
   4 -10  21  629.30  543.16
  -4  10  21  330.85  533.92
   4  10 -21  455.18  594.17
  -4  10 -2210802.20 2392.77
   4  10  2211988.00 2414.27
   4 -10  2211042.40 2050.10
  -4  10  2212300.90 1994.72
   4  10 -2212916.40 1515.33
  -4  10 -23  532.06  371.58
   4  10  23  353.05  641.68
   4 -10  23   53.14  555.10
  -4  10  23  229.15  308.80
   4  10 -23  246.96  351.26
  -4  10 -24 9579.20 1540.47
   4  10  2410181.60 1558.95
   4 -10  2411412.10 2039.04
   4  10 -2410304.40 2205.20
  -4  10 -25  224.60  839.53
   4  10  25  651.52  824.82
   4 -10  25  719.74  713.36
  -4  11   032836.40 2605.15
   4 -11   039664.10 3705.10
   4  11   035724.00 3766.72
   4  11   036176.20 2857.19
  -4  11  -122886.90 2369.50
   4 -11  -123386.00 1923.62
   4  11   121576.30 2012.91
   4  11   124827.60 2751.31
   4 -11   126344.00 2656.83
  -4  11   125025.90 1897.16
   4  11  -125556.50 2156.77
   4  11  -123711.10 1896.30
  -4  11  -221570.80 2292.31
   4 -11  -221886.90 1779.07
   4  11   221012.30 1938.39
   4  11   223349.10 2598.14
   4 -11   222894.30 1804.80
  -4  11   220784.70 1584.80
   4  11  -224761.80 2049.88
   4  11  -219751.40 1539.54
  -4  11  -3 1900.11  394.52
   4 -11  -3 3548.51  743.41
   4 -11  -3 2199.29  675.99
   4  11   3 1226.09  490.73
   4  11   3 1560.02  711.98
   4 -11   3 1581.24  381.46
  -4  11   3 1917.40  480.14
   4  11  -3 1378.12  423.32
   4  11  -3 1699.96  303.33
  -4  11  -4 8996.99 1407.24
   4  11   410456.10  887.31
   4  11   4 9718.68 1526.40
   4 -11   412321.50 1513.00
  -4  11   4 7830.82 1020.61
   4  11  -411714.00 1125.62
   4  11  -4 8820.00  700.63
  -4  11  -5 1883.92  849.98
   4 -11  -5 5361.45  625.27
   4  11   5 3171.50  470.88
   4  11   5 1606.10  563.15
   4 -11   5 2410.75  829.62
  -4  11   5 2361.83  538.98
   4  11  -5 2420.95  924.57
   4  11  -5 3142.90  429.17
  -4  11  -6 7129.64  873.21
   4 -11  -6 2291.23  959.74
   4  11   6 7637.93 1163.81
   4  11   6 8704.98  896.78
   4 -11   6 8069.83  790.12
  -4  11   6 6614.51  798.69
   4  11  -6 9179.48 1417.50
  -4  11  -7 1215.29  357.34
   4 -11  -7 1132.31  418.71
   4  11   7 1165.70  326.17
   4  11   7  614.73  558.31
  -4 -11   7  515.71  168.21
   4 -11   7 1695.33  546.52
  -4  11   7  752.80  285.10
   4  11  -7 1581.70  624.58
  -4  11  -8 1438.66  699.30
   4 -11  -8 1135.75  304.71
   4  11   8 1338.89  612.25
   4  11   8 1363.50  636.10
   4 -11   8 1597.08  631.10
   4  11  -8 1567.30  718.48
  -4  11  -9 3861.13 1071.31
   4  11   9 2965.40  976.03
   4  11   9 3791.49  577.05
   4 -11   9 4224.76  619.33
  -4  11   9 3458.19 1074.17
   4  11  -9 3299.27 1083.83
  -4  11 -1018053.80 2448.22
   4  11  1016360.50 1618.47
   4  11  1017166.10 2124.22
   4 -11  1018637.50 1662.96
  -4  11  1018942.60 2365.45
   4  11 -1018765.50 2376.61
  -4  11 -11 7662.91 1447.31
   4  11  11 5357.18  844.43
   4  11  11 6573.76  832.69
   4 -11  11 6854.13 1260.17
  -4  11  11 6678.93  872.99
   4  11 -11 6617.44 1355.45
  -4  11 -1217155.40 2366.71
   4  11  1214959.90 2111.24
   4  11  1215229.50 2272.19
   4 -11  1215716.80 2226.05
  -4  11  1215782.80 1645.04
   4  11 -1219515.50 1739.22
  -4  11 -1315283.20 2411.60
   4  11  1315590.40 1566.77
   4  11  1316981.00 2413.58
   4 -11  1318685.40 2311.64
  -4  11  1316410.10 2312.12
   4  11 -1319554.10 1794.42
  -4  11 -14 6886.91 1102.89
   4  11  14 8184.71 1446.85
   4  11  14 8419.94 1673.25
   4 -11  14 9482.99 1054.08
  -4  11  14 9066.84 1048.70
   4  11 -14 9355.91 1096.44
  -4  11 -15 2689.88  596.66
   4  11  15 1769.44  776.21
   4  11  15 2417.77  972.93
   4 -11  15 1993.72  521.11
  -4  11  15 2747.88  887.15
   4  11 -15 1552.27  551.08
  -4  11 -1619873.60 2103.17
   4  11  1619362.60 2418.59
   4  11  1619712.50 2892.42
   4 -11  1619036.70 1870.44
  -4  11  1620206.30 2718.97
   4  11 -1621463.10 2940.76
  -4  11 -17 9050.33 1923.94
   4  11  17 8239.77 1036.87
   4  11  17 8282.96 1864.50
   4 -11  1710076.60 1154.05
  -4  11  17 7843.73 1643.00
   4  11 -17 9254.40 1873.90
  -4  11 -18 8470.82 1926.61
   4  11  18 6816.74 1477.72
   4  11  18 9584.75 1269.47
   4 -11  18 9447.77 1696.84
  -4  11  18 7907.85 1675.57
   4  11 -1810615.00 1937.82
  -4  11 -19 2831.54  752.20
   4  11  19 3265.68  771.88
   4  11  19 2544.05  920.01
   4 -11  19 3247.45 1075.27
  -4  11  19 2334.53 1106.12
   4  11 -19 2633.81 1199.56
  -4  11 -20  219.17  483.83
   4  11  20  813.57  494.01
   4 -11  20 1099.15  723.80
  -4  11  20 1408.73  454.86
   4  11 -20 1222.99  820.41
  -4  11 -21 -188.33  678.66
   4  11  21  195.65  671.52
   4 -11  21  394.51  564.92
  -4  11  21  564.85  346.07
   4  11 -21  429.46  380.84
  -4  11 -22  838.61  481.64
   4  11  22  -94.68  799.00
   4 -11  22  437.56  664.98
  -4  11  22  506.25  669.87
   4  11 -22  785.80  446.66
  -4  11 -23  374.78  797.56
   4  11  23  346.09  478.36
   4 -11  23  517.71  671.58
  -4  11  23  756.15  694.39
   4  11 -23  814.76  448.05
  -4  11 -24 1513.05 1205.46
   4  11  24 2023.18  714.46
   4 -11  24 1872.02 1026.31
   4  11 -24 1918.56 1141.76
  -4  11 -25  958.74  617.77
   4  11  25  687.97 1002.33
   4 -11  25 1655.16  894.60
  -4  12   0 1153.11  293.95
   4 -12   0 1023.47  351.52
   4  12   0 1493.89  630.24
   4  12   0 1012.26  221.36
  -4  12  -1 5793.38  952.67
   4 -12  -1 6461.51 1095.22
   4  12   1 4318.17  701.32
   4  12   1 5729.95  753.25
   4 -12   1 4471.63  664.28
  -4  12   1 4724.07  556.04
   4  12  -1 6719.74 1163.26
   4  12  -1 5573.77  666.01
  -4  12  -2 1253.23  557.80
   4 -12  -2 1820.98  638.59
   4  12   2  974.98  373.44
   4  12   2 1823.96  271.75
   4 -12   2 1235.28  634.29
  -4  12   2 1308.89  464.68
   4  12  -2 1958.31  672.93
   4  12  -2  994.71  198.83
  -4  12  -3 6156.53 1025.03
   4  12   3 4921.62  554.77
   4  12   3 5602.04  752.54
   4 -12   3 6087.91 1096.33
  -4  12   3 5544.97  540.92
   4  12  -3 5276.60 1205.78
   4  12  -3 5404.75  567.61
  -4  12  -4  553.63  258.58
   4  12   4  523.31  213.55
   4  12   4  314.43  475.90
   4 -12   4  525.94  264.31
  -4  12   4  660.15  295.21
   4  12  -4  220.99  180.45
   4  12  -4  218.82  479.03
  -4  12  -522498.50 2606.71
   4  12   522612.10 1798.44
   4  12   524463.60 2755.70
   4 -12   524268.70 1960.13
  -4  12   521406.20 1897.89
   4  12  -525331.60 2908.25
   4  12  -521961.00 1511.48
  -4  12  -6 3101.83  890.39
   4  12   6  428.65  787.45
   4  12   6 3683.73  568.96
   4 -12   6 3308.23  893.99
  -4  12   6 2982.76  519.59
   4  12  -6 3621.99 1015.97
  -4  12  -725639.40 2377.94
   4  12   728218.10 2340.09
   4  12   728507.10 3151.32
   4 -12   728380.80 2958.20
  -4  12   725426.20 2069.75
   4  12  -733126.50 3566.38
  -4  12  -8  810.77  379.00
   4  12   8  218.98  545.93
   4  12   8  889.32  547.11
   4 -12   8 1063.00  332.87
  -4  12   8  443.71  231.70
   4  12  -8 1125.10  635.78
  -4  12  -937764.50 3476.36
   4  12   940220.50 3437.84
   4  12   937553.60 3300.46
   4 -12   938042.10 3162.12
  -4  12   940846.80 4337.42
   4  12  -943887.50 4640.56
  -4  12 -10 1317.35  496.36
   4  12  10 2061.85  774.44
   4  12  10 1253.79  701.24
   4 -12  10 1694.19  754.52
  -4  12  10 1521.95  507.89
   4  12 -10 2638.03  843.00
  -4  12 -1110607.20 1319.63
   4  12  1112103.50 1880.75
   4  12  1111633.40 1185.88
   4 -12  1111240.60 1785.87
  -4  12  1114367.90 1385.11
   4  12 -1113301.70 1948.35
  -4  12 -12 5026.23  859.50
   4  12  12 5182.35 1339.43
   4  12  12 3496.85 1123.36
   4 -12  12 6975.91 1274.20
  -4  12  12 7330.16 1378.93
   4  12 -12 7700.23 1402.33
  -4  12 -13 1985.13  560.65
   4  12  13 2794.09  556.46
   4  12  13 1291.22  424.63
   4 -12  13 2270.74  522.85
  -4  12  13 2310.04  891.65
   4  12 -13 1879.51  938.71
  -4  12 -14 1240.44  746.58
   4  12  14 1035.30  460.13
   4  12  14  516.91  587.31
   4 -12  14 1196.81  412.98
  -4  12  14  950.22  435.11
   4  12 -14 1828.49  750.42
  -4  12 -15 1679.19  894.92
   4  12  15 1567.31  527.96
   4  12  15  460.11  721.81
   4 -12  15 1907.16  480.98
  -4  12  15 1629.08  826.95
   4  12 -15 1526.71  929.49
  -4  12 -16 4433.53 1407.06
   4  12  16 3478.05  863.70
   4  12  16 4484.05  705.78
   4 -12  16 4067.59 1292.97
  -4  12  16 5516.94  839.72
   4  12 -16 5051.76 1401.93
  -4  12 -17 8802.78 1314.59
   4  12  17 9717.08 1302.19
   4  12  17 7832.97 1011.82
   4 -12  1710722.80 1738.25
  -4  12  17 8192.68 1758.58
   4  12 -1711420.60 1969.19
  -4  12 -18  291.07  399.13
   4  12  18  657.33  397.25
   4  12  18  700.11  490.85
   4 -12  18  293.29  548.56
  -4  12  18  659.65  348.31
   4  12 -18  156.59  388.76
  -4  12 -1911190.90 2491.37
   4  12  1913547.40 2548.27
   4  12  1914096.20 2020.06
   4 -12  1914651.70 2210.69
  -4  12  1914377.40 2348.91
   4  12 -1915051.90 1797.65
  -4  12 -20  236.20  734.10
   4  12  20  299.28  735.06
   4 -12  20  401.14  629.51
  -4  12  20  680.83  668.17
   4  12 -20  855.49  442.78
  -4  12 -2115641.30 2003.46
   4  12  2120124.20 3089.10
   4 -12  2118689.10 2692.97
  -4  12  2116934.40 2752.01
   4  12 -2119998.80 2175.45
  -4  12 -22    6.10  923.88
   4  12  22  936.28  942.69
   4 -12  22 1566.46  490.58
  -4  12  22  946.30  497.39
   4  12 -22 1049.40  537.96
  -4  12 -2310863.00 2524.16
   4  12  2311483.00 1662.93
   4 -12  2312262.20 1465.30
  -4  12  2310839.40 1476.45
   4  12 -2312064.10 2440.18
  -4  12 -24  368.66  495.86
   4  12  24   37.60  483.93
   4 -12  24  949.95  405.86
  -4  12  24  834.64  728.25
   4  12 -24  498.19  799.43
  -4  13   0 7859.47 1093.02
   4 -13   0 7357.86 1267.77
   4  13   0 6325.58  866.13
   4  13   0 6468.76  578.13
  -4  13  -115870.60 1866.13
   4 -13  -118755.30 2228.30
   4  13   117632.60 1695.09
   4  13   117425.60 1720.32
   4 -13   117431.30 2200.51
  -4  13   115988.10 1360.46
   4  13  -116649.10 1508.29
   4  13  -118213.10 1706.61
  -4  13  -216056.40 1458.71
   4 -13  -217276.30 2205.96
   4  13   218194.30 2265.23
   4  13   214068.20 1210.90
   4 -13   216872.50 1477.68
  -4  13   216191.80 1713.10
   4  13  -215492.60 2255.50
   4  13  -216559.90 1410.37
  -4  13  -3 9038.57 1394.61
   4  13   310479.10 1602.81
   4  13   3 8416.89  824.69
   4 -13   310200.70 1014.78
  -4  13   3 8608.64  796.51
   4  13  -3 8913.94  873.51
   4  13  -3 9950.86 1629.07
  -4  13  -4 1850.91  727.61
   4 -13  -4 2996.40  974.15
   4  13   4 2192.31  489.11
   4  13   4 1851.95  401.76
   4 -13   4 2648.29  796.54
  -4  13   4 2303.74  501.84
   4  13  -4 1802.57  349.15
   4  13  -4 2473.48  882.98
  -4  13  -5 4006.30  701.64
   4 -13  -5  558.75 1241.97
   4  13   5 5553.71  631.74
   4  13   5 3957.68 1113.57
   4 -13   5 5753.50 1102.22
  -4  13   5 5237.51  723.02
   4  13  -5 6899.18 1217.90
  -4  13  -6  669.48  556.57
   4  13   6  632.37  492.71
   4  13   6  552.97  540.51
   4 -13   6  886.41  546.96
  -4  13   6  634.32  306.47
   4  13  -6 1071.57  611.92
  -4  13  -7 2820.20  856.70
   4 -13  -7  806.61  687.47
   4  13   7 2800.16  790.56
   4  13   7 1944.31  524.74
   4 -13   7 2844.96  489.32
  -4  13   7 2327.49  456.88
   4  13  -7 3273.19  959.55
  -4  13  -8  742.37  721.59
   4  13   8 1412.35  400.58
   4  13   8 1091.73  656.61
   4 -13   8 1872.28  394.37
  -4  13   8  662.04  301.89
   4  13  -8 1580.19  772.05
  -4  13  -918662.60 2527.03
   4  13   915204.70 2285.16
   4  13   917490.10 2320.47
   4 -13   921248.80 2461.62
  -4  13   919559.60 2637.46
   4  13  -921150.80 2717.94
  -4  13 -10 5738.71 1435.43
   4  13  10 7304.75 1407.69
   4  13  10 3953.33 1234.50
   4 -13  10 8452.06 1428.78
  -4  13  10 7299.14  983.80
   4  13 -10 6640.33  960.58
  -4  13 -11 1894.18  999.45
   4  13  11 3479.00  594.39
   4  13  11 2067.88  813.81
   4 -13  11 2456.23  560.73
  -4  13  11 2346.43  998.61
   4  13 -11 2108.40  639.60
  -4  13 -12 3523.99 1270.68
   4  13  12 4597.95  782.57
   4  13  12 3125.41 1052.37
   4 -13  12 5201.82  747.91
  -4  13  12 4425.51 1301.29
   4  13 -12 5112.64  824.74
  -4  13 -1328526.90 3825.77
   4  13  1328658.70 3620.11
   4  13  1327632.10 2509.47
   4 -13  1331470.60 2703.08
  -4  13  1328805.60 2818.17
   4  13 -1333763.30 3027.45
  -4  13 -14 4382.10 1373.56
   4  13  14 5169.67 1371.44
   4  13  14 4448.09 1074.74
   4 -13  14 4714.50 1271.04
  -4  13  14 3883.25 1354.83
   4  13 -14 6029.90  890.76
  -4  13 -15 8128.98 1226.87
   4  13  15 9987.56 1893.42
   4  13  15 8230.98 1428.97
   4 -13  15 9238.32 1724.34
  -4  13  15 9650.65 1224.18
   4  13 -15 9550.24 1318.62
  -4  13 -1611899.40 1573.93
   4  13  1612216.80 2290.25
   4  13  1610227.10 1164.41
   4 -13  1613807.30 2083.02
  -4  13  1612586.10 2204.80
   4  13 -1615481.60 1657.92
  -4  13 -17 2380.52 1031.84
   4  13  17 1406.57 1018.19
   4  13  17  705.36  431.13
   4 -13  17 2080.11  891.38
  -4  13  17 2426.13  592.87
   4  13 -17 3326.46  643.46
  -4  13 -18 2619.57 1267.29
   4  13  18  239.59 1266.75
   4  13  18 1193.97  843.30
   4 -13  18 4667.49  686.11
  -4  13  18 3098.32 1192.99
   4  13 -18 3329.32  766.08
  -4  13 -19 2122.82  723.21
   4  13  19 2630.63 1196.50
   4 -13  19 2984.39  616.39
  -4  13  19 3136.50 1144.60
   4  13 -19 1760.69 1252.06
  -4  13 -20 1521.32  711.29
   4  13  20 1778.27 1177.27
   4 -13  20 3230.08  628.65
  -4  13  20 1868.97  660.22
   4  13 -20 2701.97 1263.47
  -4  13 -21  -62.62 1036.44
   4  13  21 1000.61  637.28
   4 -13  21 2077.45  546.45
  -4  13  21 1600.51  976.14
   4  13 -21 2021.75 1056.24
  -4  13 -22 -205.98  322.69
   4  13  22  248.20  310.20
   4 -13  22  191.74  272.89
  -4  13  22  114.99  486.68
   4  13 -22  320.33  547.46
  -4  13 -23 2334.58 1280.14
   4  13  23 2408.72  785.01
   4 -13  23 2218.10  648.58
  -4  13  23 1970.71 1185.29
   4  13 -23 3224.75 1336.24
  -4  14   0  873.98  530.79
   4 -14   0  923.37  658.70
   4  14   0 1367.38  433.96
   4  14   0 1436.42  702.45
  -4  14  -1 2227.25  392.90
   4 -14  -1 2012.66  793.91
   4  14   1 1988.45  779.43
   4  14   1 1520.88  537.72
   4 -14   1 1379.92  773.81
  -4  14   1 1208.61  587.81
   4  14  -1 2277.75  516.99
   4  14  -1 1301.51  444.03
  -4  14  -2 8133.21 1365.04
   4 -14  -210142.20 1042.90
   4  14   2 7746.07  980.90
   4  14   2 7477.04  782.96
   4 -14   2 9977.37 1534.09
  -4  14   2 9422.84  833.40
   4  14  -2 8217.54  927.19
   4  14  -2 9887.07 1130.17
  -4  14  -3 3134.35  491.05
   4  14   3 1748.22  545.62
   4  14   3 2198.22  670.52
   4 -14   3 3348.02  518.49
  -4  14   3 2375.97  346.17
   4  14  -3 3542.47  589.43
   4  14  -3 1543.21  268.90
  -4  14  -415738.40 2105.49
   4 -14  -4 4975.07 2256.23
   4  14   417290.50 2236.28
   4  14   417349.40 1925.74
   4 -14   416964.80 1507.92
  -4  14   415573.70 1600.80
   4  14  -421034.70 2476.20
   4  14  -416361.10 1366.18
  -4  14  -5 2148.07  838.78
   4  14   5 2001.90  873.40
   4  14   5 2359.92  725.97
   4 -14   5 2202.09  508.14
  -4  14   5 2215.23  528.18
   4  14  -5 2565.57  959.31
  -4  14  -644381.60 4055.11
   4  14   645884.30 4129.09
   4  14   643165.00 3758.06
   4 -14   647878.50 4869.80
  -4  14   642004.10 3684.57
   4  14  -652057.10 5460.93
  -4  14  -7  295.32  320.33
   4  14   7  852.83  461.28
   4  14   7  103.59  459.10
   4 -14   7  348.22  506.05
  -4  14   7  265.93  232.67
   4  14  -7  704.30  570.23
  -4  14  -817248.30 1841.17
   4  14   818352.00 1753.87
   4  14   818130.80 1748.27
   4 -14   819867.10 2375.12
   4  14  -820397.80 1964.90
  -4  14  -9 2218.39  665.85
   4  14   9 3108.40  948.24
   4  14   9 2167.99  955.94
   4 -14   9 3929.60  604.92
  -4  14   9 2567.17  695.31
   4  14  -9 3547.05  665.48
  -4  14 -1016800.00 1856.22
   4  14  1018479.80 1796.01
   4  14  1016884.10 1732.74
   4 -14  1020474.10 1798.83
  -4  14  1020199.70 2013.89
   4  14 -1020282.70 1999.68
  -4  14 -11 1538.76  515.95
   4  14  11 1191.03  796.87
   4  14  11 1379.16  709.76
   4 -14  11 1828.02  803.08
  -4  14  11 1001.81  898.95
   4  14 -11 1758.76  531.92
  -4  14 -12 8756.28 1332.28
   4  14  1210257.50 1898.28
   4  14  1210177.40 1713.81
   4 -14  1213182.80 1975.72
  -4  14  1212676.80 1439.48
   4  14 -1215075.20 1575.76
  -4  14 -13 3309.94  656.32
   4  14  13 3068.64  612.20
   4  14  13 1037.05  502.12
   4 -14  13 2889.45  932.96
  -4  14  13 2052.25 1074.48
   4  14 -13 3198.20 1080.46
  -4  14 -14   21.55  519.19
   4  14  14  197.53  298.68
   4  14  14   45.70  384.44
   4 -14  14  786.61  481.13
  -4  14  14  274.46  519.04
   4  14 -14  187.57  574.54
  -4  14 -15   27.44  706.93
   4  14  15  952.62  412.86
   4  14  15  393.21  522.90
   4 -14  15  924.65  380.04
  -4  14  15  489.72  418.83
   4  14 -15  726.45  746.33
  -4  14 -16 3357.44 1208.43
   4  14  16 2958.73  729.09
   4  14  16 1466.63  553.44
   4 -14  16 4717.20  688.20
  -4  14  16 3104.78 1182.85
   4  14 -16 3155.13 1301.40
  -4  14 -17 2060.27  608.91
   4  14  17 1936.73  967.91
   4  14  17  485.19  420.91
   4 -14  17 2368.10  540.12
  -4  14  17 2239.83  960.03
   4  14 -17 2051.62 1041.66
  -4  14 -18 7189.17 1256.23
   4  14  18 8153.53 1902.43
   4 -14  18 7519.36 1641.77
  -4  14  18 8250.06 1208.88
   4  14 -1810818.90 2069.90
  -4  14 -19  495.26  880.76
   4  14  19 1262.61  537.30
   4 -14  19 1086.57  781.75
  -4  14  19  950.68  864.86
   4  14 -19 1327.69  936.33
  -4  14 -2011942.70 1878.23
   4  14  2016660.30 2002.23
   4 -14  2017177.70 2524.14
  -4  14  2016421.10 2720.03
   4  14 -2018414.60 3086.69
  -4  14 -21 1274.02  543.98
   4  14  21  493.39  540.06
   4 -14  21  248.27  765.17
  -4  14  21 1513.94  519.53
   4  14 -21  390.20  955.18
  -4  14 -22 4230.48 2215.80
   4  14  22 9871.34 1455.43
   4 -14  22 8903.95 1905.84
  -4  14  22 8720.16 1366.57
   4  14 -2211010.50 2328.93
  -4  14 -23  -91.15  288.19
   4  14  23 -194.12  488.41
   4 -14  23  -97.50  420.00
  -4  14  23  278.18  472.10
   4  14 -23 -170.07  509.86
  -4  15   020029.00 2260.43
   4 -15   020380.20 1914.12
   4  15   022571.00 2844.22
   4  15   019376.70 1958.10
  -4  15  -1 5883.52 1175.74
   4 -15  -1 7758.20  918.91
   4  15   1 7819.92 1009.44
   4  15   1 6028.05  679.03
   4 -15   1 7694.10 1409.37
  -4  15   1 6418.84 1105.66
   4  15  -1 7172.64 1491.58
   4  15  -1 6419.88  906.19
  -4  15  -221105.90 2556.51
   4 -15  -223572.90 2135.77
   4  15   224242.70 2296.11
   4  15   221786.20 2260.14
   4 -15   224595.20 2877.57
  -4  15   220547.30 2228.90
   4  15  -221536.70 1981.92
   4  15  -225872.70 2394.24
  -4  15  -3 4233.66 1229.29
   4 -15  -3 7256.34 1409.08
   4  15   3 5575.59 1371.48
   4  15   3 6547.26 1081.98
   4 -15   3 8456.54 1411.42
  -4  15   3 5954.49  951.29
   4  15  -3 6198.54  917.14
   4  15  -3 5909.50  773.55
  -4  15  -4 5385.32  765.86
   4 -15  -4 2238.04 1438.54
   4  15   4 5304.82  805.12
   4  15   4 5497.50 1060.91
   4 -15   4 7820.35 1285.38
  -4  15   4 5688.40  860.12
   4  15  -4 8007.72 1422.30
  -4  15  -5 1396.64  397.54
   4 -15  -5 2303.26  508.04
   4  15   5 1083.45  693.68
   4  15   5  872.56  621.34
   4 -15   5 1257.69  705.17
  -4  15   5  584.28  411.79
   4  15  -5  827.05  805.91
  -4  15  -6 3389.77 1032.94
   4 -15  -6 3546.36  875.37
   4  15   6 3190.13 1033.45
   4  15   6 3260.24  945.49
   4 -15   6 4300.87  648.74
  -4  15   6 2690.07  615.86
   4  15  -6 3517.41 1159.91
  -4  15  -7 2353.30  960.85
   4 -15  -7 2151.58  786.39
   4  15   7 1956.97  537.08
   4  15   7 1734.08  552.03
   4 -15   7 4119.28  585.07
   4  15  -7 3390.80  618.09
  -4  15  -8 1947.76  813.47
   4 -15  -8 -253.32  634.09
   4  15   8 2464.54  732.68
   4  15   8 1686.89  762.13
   4 -15   8 1410.43  454.18
   4  15  -8 2278.15  544.45
  -4  15  -9 3570.04 1305.26
   4  15   9 4032.58  688.24
   4  15   9 4479.05  772.42
   4 -15   9 4481.76 1183.39
  -4  15   9 5231.93  884.35
   4  15  -9 5873.78  890.12
  -4  15 -10 8109.88 1731.55
   4  15  10 7710.19 1483.73
   4  15  10 7926.33 1616.14
   4 -15  10 8743.24 1628.68
  -4  15  1010707.40 1903.19
   4  15 -10 9530.49 1813.44
  -4  15 -11 4186.02 1293.94
   4  15  11 3767.87  757.85
   4  15  11 3723.57 1053.09
   4 -15  11 5590.57 1227.83
  -4  15  11 4628.72 1375.99
   4  15 -11 4549.18 1391.71
  -4  15 -1221884.40 3128.78
   4  15  1219563.80 2143.87
   4  15  1220256.40 1950.36
   4 -15  1223553.50 2195.40
  -4  15  1224417.90 2437.94
   4  15 -1225303.40 3453.83
  -4  15 -13 8342.86 1324.65
   4  15  13 8239.28 1847.77
   4  15  13 7313.31 1489.92
   4 -15  1310498.60 1173.32
  -4  15  1311013.80 2034.86
   4  15 -13 9755.58 1984.40
  -4  15 -14 9172.74 1379.72
   4  15  1411689.30 1982.37
   4  15  14 8282.47 1608.14
   4 -15  14 9702.79 1199.34
  -4  15  1411056.70 1414.01
   4  15 -1411417.40 2174.42
  -4  15 -15 3495.42  839.11
   4  15  15 4129.31  820.14
   4  15  15 3831.43  624.11
   4 -15  15 4612.54 1201.87
  -4  15  15 3499.83 1401.65
   4  15 -15 3039.43  877.08
  -4  15 -1611006.80 2357.99
   4  15  1612133.40 1549.93
   4  15  1611288.20 1292.71
   4 -15  1614756.00 2213.38
  -4  15  1613543.40 1650.67
   4  15 -1612879.40 1680.24
  -4  15 -17  999.02 1142.36
   4  15  17 2500.19  715.61
   4 -15  17 3175.59 1015.76
  -4  15  17 1680.99 1157.29
   4  15 -17 2719.22  726.34
  -4  15 -18 3573.96  858.92
   4  15  18 3953.50  868.15
   4 -15  18 4652.62 1225.26
  -4  15  18 3879.63 1428.35
   4  15 -18 3071.52  923.74
  -4  15 -19  645.79  523.46
   4  15  19  786.14  517.88
   4 -15  19 1578.36  784.04
  -4  15  19 1112.28  541.12
   4  15 -19 1078.25  572.23
  -4  15 -20  444.82 1015.48
   4  15  20 1010.17  604.16
   4 -15  20 1244.92  509.44
  -4  15  20 1137.96  994.43
   4  15 -20 2222.31  668.71
  -4  15 -21 1137.48 1060.54
   4  15  21 1488.99  636.77
   4 -15  21 1521.38  533.16
  -4  15  21 1134.76 1045.30
   4  15 -21  782.67 1125.34
  -4  15 -22 1642.73  681.18
   4  15  22 1296.94 1100.52
   4 -15  22 1518.99  569.80
  -4  15  22  964.59 1087.42
   4  15 -22 1984.68 1212.51
  -4  16   0 1644.60  668.92
   4 -16   0 2358.87  522.54
   4  16   0 1795.43  337.39
   4  16   0 1994.13  547.05
  -4  16  -1 2339.92  807.28
   4 -16  -1 2765.62  611.94
   4  16   1 2728.00  637.38
   4  16   1 2372.26  684.04
   4 -16   1 3682.98  596.66
  -4  16   1 2702.49  476.95
   4  16  -1 2359.60  626.12
   4  16  -1 4242.34 1077.33
  -4  16  -2 2339.32  891.67
   4 -16  -2 3630.66  649.04
   4  16   2 2823.09 1034.91
   4  16   2 2636.96  789.11
   4 -16   2 3560.10  623.79
  -4  16   2 2991.38  736.21
   4  16  -2 2708.50  611.77
   4  16  -2 3352.75  671.38
  -4  16  -318433.70 1787.78
   4  16   319477.90 1971.16
   4  16   317366.40 1612.32
   4 -16   320622.00 2597.36
  -4  16   317623.30 1995.71
   4  16  -320542.10 2112.83
  -4  16  -4 1839.55  839.12
   4  16   4 1626.50  899.30
   4  16   4 2209.46  461.02
   4 -16   4 3543.63  956.41
  -4  16   4 1703.47  562.17
   4  16  -4 2658.61 1018.56
  -4  16  -511042.90 1907.09
   4  16   510491.00 1945.88
   4  16   512473.00 1274.66
   4 -16   514365.90 2053.27
  -4  16   511675.30 1383.39
   4  16  -514790.10 2289.25
  -4  16  -6 1063.01  638.36
   4  16   6  560.84  379.31
   4  16   6  579.34  585.29
   4 -16   6 1073.59  649.96
   4  16  -6 1571.59  694.45
  -4  16  -716146.80 2502.27
   4 -16  -7 1316.54 2743.96
   4  16   718090.90 2391.27
   4  16   720110.80 2423.26
   4 -16   719925.00 2492.22
   4  16  -721067.40 2076.80
  -4  16  -8  652.35  413.07
   4 -16  -8 2875.88  664.21
   4  16   8  673.88  369.10
   4  16   8 1084.77  379.76
   4 -16   8  553.27  361.77
   4  16  -8  563.18  439.08
  -4  16  -927682.80 2830.21
   4  16   927782.20 3523.25
   4  16   927524.00 3387.76
   4 -16   930770.50 2664.69
   4  16  -932454.30 3954.21
  -4  16 -10 1159.11  459.35
   4  16  10  390.12  645.73
   4  16  10  902.83  439.53
   4 -16  10 1513.92  450.90
  -4  16  10 1129.57  861.33
   4  16 -10  805.48  809.35
  -4  16 -11 5543.86 1610.40
   4  16  11 6755.85 1546.15
   4  16  11 6300.48  854.97
   4 -16  11 7476.67 1509.34
  -4  16  11 7254.52 1106.96
   4  16 -11 8246.96 1752.86
  -4  16 -12 1308.82  875.31
   4  16  12 1188.39  685.24
   4  16  12 1298.35  830.74
   4 -16  12 1331.80  809.11
  -4  16  12  534.57  926.61
   4  16 -12 1663.02  555.90
  -4  16 -13 -235.19  990.38
   4  16  13 1257.88  743.46
   4  16  13 1559.82  585.18
   4 -16  13 2798.85  883.03
  -4  16  13 1850.03  633.71
   4  16 -13 2601.10  661.19
  -4  16 -14 1843.12 1001.90
   4  16  14 1497.99  465.62
   4  16  14 1650.15  993.44
   4 -16  14 2815.50  915.15
  -4  16  14 1496.05 1059.49
   4  16 -14 1673.94  662.28
  -4  16 -15  630.74  479.23
   4  16  15  985.87  363.32
   4  16  15  698.79  812.53
   4 -16  15 1139.36  446.95
  -4  16  15  981.26  523.16
   4  16 -15 1658.29  936.62
  -4  16 -16 1995.38  658.81
   4  16  16  -90.44 1064.07
   4 -16  16 2470.89  585.42
  -4  16  16 1508.78 1132.29
   4  16 -16 2352.83 1176.23
  -4  16 -17 2498.10 1210.82
   4  16  17 -206.68 1199.64
   4 -16  17 3180.04  656.63
  -4  16  17 2925.25  750.99
   4  16 -17 2484.18 1283.55
  -4  16 -18 1783.62 1075.00
   4  16  18 1733.03 1077.78
   4 -16  18 1737.83  564.89
  -4  16  18 1388.56 1091.06
   4  16 -18 2001.14 1201.32
  -4  16 -1911180.70 1731.47
   4  16  1911432.70 2595.26
   4 -16  1913659.80 2292.72
  -4  16  1913957.30 2648.60
   4  16 -1915504.40 2845.96
  -4  16 -20  546.29  482.65
   4  16  20    0.12  819.35
   4 -16  20  830.13  699.60
  -4  16  20  690.98  478.19
   4  16 -20  584.89  507.30
  -4  16 -21 3385.50 2368.74
   4  16  21 8883.52 2407.41
   4 -16  21 9537.67 2035.97
  -4  16  2111129.20 1587.43
   4  16 -2112315.00 1780.21
  -4  17   019345.00 1899.15
   4 -17   022465.90 2199.85
   4  17   024553.40 2398.61
   4  17   019423.20 2248.02
  -4  17  -113286.80 1884.96
   4 -17  -113094.30 1467.85
   4  17   115421.90 2390.27
   4  17   112963.30 1204.51
   4 -17   115119.90 1525.13
  -4  17   113799.90 1807.76
   4  17  -112779.50 1545.83
   4  17  -116414.10 2425.05
  -4  17  -2 4954.32  703.65
   4 -17  -2 5444.09  826.35
   4  17   2 5444.91 1341.38
   4  17   2 4747.83  948.52
   4 -17   2 4230.05  771.26
  -4  17   2 3931.97  918.53
   4  17  -2 3880.65 1346.77
  -4  17  -3 9403.14 1640.85
   4 -17  -3 2910.57 1665.13
   4  17   310338.60 1231.95
   4  17   3 9528.36 1435.42
   4 -17   3 9782.33 1149.72
  -4  17   3 9088.45  913.21
   4  17  -310886.10 1319.02
  -4  17  -4 3072.47  849.96
   4  17   4 1794.12  896.67
   4  17   4 1683.36  773.48
   4 -17   4 1960.03  575.55
  -4  17   4 1972.64  363.55
   4  17  -4 2634.49  988.64
  -4  17  -5 7831.17 1051.64
   4 -17  -5 2351.09 1118.04
   4  17   510118.40 1461.10
   4  17   5 8642.63 1060.98
   4 -17   510043.50 1630.35
  -4  17   5 7610.56 1049.93
   4  17  -510775.90 1789.74
  -4  17  -6 1521.50  520.88
   4 -17  -6 1510.75  698.76
   4  17   6 1653.64  759.61
   4  17   6 1862.05  815.80
   4 -17   6 1842.95  831.35
   4  17  -6 1467.85  563.87
  -4  17  -7  556.65  375.40
   4 -17  -7 5069.06 1025.27
   4  17   7  440.72  341.68
   4  17   7  272.17  348.90
   4 -17   7  777.68  619.61
   4  17  -7  880.14  413.01
  -4  17  -8 2490.12  638.86
   4 -17  -8 2672.97  963.96
   4  17   8 2237.84  928.98
   4  17   8 2336.75  966.89
   4 -17   8 2226.13  927.58
   4  17  -8 3096.04 1125.07
  -4  17  -9 3618.71  777.17
   4  17   9 3516.83 1096.37
   4  17   9 4368.61  750.91
   4 -17   9 4701.82 1153.95
   4  17  -9 3326.25 1338.87
  -4  17 -10 1798.15  642.36
   4  17  10 1459.38  484.63
   4  17  10 1918.57  952.94
   4 -17  10 3208.36  932.03
  -4  17  10 2199.60  661.63
   4  17 -10 2264.68  648.55
  -4  17 -1110550.10 1540.14
   4  17  11 9667.24 1825.13
   4  17  1112361.30 1492.25
   4 -17  1113109.30 1434.08
  -4  17  1115295.30 2552.29
   4  17 -1115302.80 1683.56
  -4  17 -12 6600.84 1079.14
   4  17  12 4138.57 1311.14
   4  17  12 7236.18 1673.77
   4 -17  12 8111.09 1030.26
  -4  17  12 6207.63 1139.01
   4  17 -12 6709.95 1236.58
  -4  17 -1312067.50 2431.57
   4  17  1311455.40 1361.60
   4  17  1314096.50 2418.68
   4 -17  1313071.50 1528.45
  -4  17  1314326.40 2612.60
   4  17 -1315100.50 2624.64
  -4  17 -14 5819.44 1725.50
   4  17  14 7118.22 1117.89
   4  17  14 4868.19 1309.43
   4 -17  14 6609.13 1559.08
  -4  17  14 7840.97 1841.04
   4  17 -14 5591.86 1848.45
  -4  17 -15 8737.33 2197.89
   4  17  1510973.40 1510.88
   4 -17  1510931.60 2039.80
  -4  17  1510653.80 2394.07
   4  17 -1513144.60 1705.06
  -4  17 -16 3479.29  924.33
   4  17  16 4622.04 1520.47
   4 -17  16 4847.33 1359.79
  -4  17  16 4934.03  994.74
   4  17 -16 4574.23 1005.21
  -4  17 -17 6293.15 1236.04
   4  17  17 7234.62 1925.79
   4 -17  17 9311.04 1729.30
  -4  17  17 8322.42 2077.32
   4  17 -17 7005.72 1343.32
  -4  17 -18 2805.01 1417.87
   4  17  18  780.41 1477.33
   4 -17  18 5117.51 1311.11
  -4  17  18 3447.65 1483.92
   4  17 -18 5079.86 1644.25
  -4  17 -19 2315.80 1356.67
   4  17  19 2308.89 1342.70
   4 -17  19 3101.96  711.93
  -4  17  19 2484.48  830.67
   4  17 -19 2962.73 1502.93
  -4  17 -20 1472.79  636.61
   4  17  20 1814.54 1051.40
   4 -17  20 1091.30  537.88
  -4  17  20  903.60 1079.53
   4  17 -20  915.70 1152.12
  -4  18   0  339.12  411.60
   4 -18   0  213.82  315.72
   4  18   0  362.27  329.95
   4  18   0  439.40  369.86
  -4  18  -1 6187.27  837.57
   4 -18  -1 7229.24  996.53
   4  18   1 4981.96 1552.59
   4  18   1 6025.36 1142.94
   4 -18   1 6672.68  951.80
  -4  18   1 4956.24  745.74
   4  18  -1 8429.59 1647.80
  -4  18  -2 3019.99 1021.44
   4 -18  -2 4698.24  783.51
   4  18   2 4122.89  768.56
   4  18   2 3299.64  920.24
   4 -18   2 4436.38  742.99
  -4  18   2 3269.22  870.27
   4  18  -2 3620.57 1304.33
  -4  18  -3 1105.19  552.61
   4  18   3  324.19  286.23
   4  18   3   41.32  616.51
   4 -18   3  630.91  351.69
  -4  18   3  295.15  412.77
   4  18  -3 1055.90  400.80
  -4  18  -4 8364.45 1095.88
   4 -18  -4 5215.11 1230.88
   4  18   4 9010.77  995.27
   4  18   4 8360.91 1156.39
   4 -18   410267.40 1156.54
  -4  18   4 8345.24 1206.64
   4  18  -410120.40 1876.01
  -4  18  -5 4877.61  835.85
   4  18   5 1647.72 1314.15
   4  18   5 4531.50  721.47
   4 -18   5 5144.68  792.96
   4  18  -5 5433.47 1396.24
  -4  18  -624206.30 2620.24
   4 -18  -6 2175.73 3748.99
   4  18   627489.00 2650.26
   4  18   626577.90 3210.69
   4 -18   629477.50 2613.67
   4  18  -633764.60 3133.09
  -4  18  -7 1081.28  857.06
   4  18   7 1431.04  828.24
   4  18   7  755.81  803.22
   4 -18   7 2443.41  894.99
   4  18  -7 2294.09  980.08
  -4  18  -812720.20 2313.67
   4  18   814791.40 1603.62
   4  18   813100.20 1540.34
   4 -18   815644.00 2358.75
   4  18  -815685.40 2521.92
  -4  18  -9 1126.89  834.53
   4 -18  -9  141.84  688.67
   4  18   9 1491.01  797.74
   4  18   9 1334.40  730.48
   4 -18   9 1661.32  775.31
   4  18  -9 1758.09  575.05
  -4  18 -10 4237.98 1393.59
   4  18  10 5210.17 1358.32
   4  18  10 1251.73 1153.16
   4 -18  10 4810.83 1274.20
   4  18 -10 5962.49  931.16
  -4  18 -11  846.36  542.64
   4  18  11  902.80  411.59
   4  18  11 1321.89  833.39
   4 -18  11 1882.89  821.86
  -4  18  11 1195.11  983.87
   4  18 -11 2645.65  975.15
  -4  18 -12 3556.18  818.99
   4  18  12 2802.94  642.72
   4  18  12 2820.52  796.81
   4 -18  12 6105.30 1272.49
  -4  18  12 4941.00  944.41
   4  18 -12 3815.24 1470.91
  -4  18 -13 1588.78  662.73
   4  18  13 1582.68  814.46
   4  18  13 2609.34 1090.97
   4 -18  13 2283.53  598.49
  -4  18  13 1920.11 1177.03
   4  18 -13 1987.37  705.39
  -4  18 -14  662.73  457.37
   4  18  14  334.11  750.69
   4  18  14  299.60  546.40
   4 -18  14  800.87  389.60
  -4  18  14  708.89  492.56
   4  18 -14  403.35  504.48
  -4  18 -15 1069.15  979.49
   4  18  15  593.58  584.07
   4 -18  15 1541.88  522.53
  -4  18  15 1593.56 1049.27
   4  18 -15 2508.03 1077.88
  -4  18 -16 3106.39 1293.80
   4  18  16 3144.23  792.18
   4 -18  16 2608.87  703.47
  -4  18  16 1874.04 1404.04
   4  18 -16 2415.12 1464.69
  -4  18 -17 2266.99  727.79
   4  18  17 1608.94 1203.00
   4 -18  17 1633.56 1043.52
  -4  18  17 1942.07  778.83
   4  18 -17 2906.98 1356.60
  -4  18 -18 6528.71 1317.64
   4  18  18 7199.15 2036.25
   4 -18  18 7590.01 1788.44
  -4  18  18 5979.79 2160.69
   4  18 -18 8160.37 1420.10
  -4  19   0 1982.88  814.59
   4 -19   0 3089.29  654.03
   4  19   0 2113.56 1102.44
  -4  19  -1 3066.67  590.77
   4 -19  -1 3930.70  740.35
   4  19   1 3277.49 1196.13
   4  19   1 2153.49  866.48
   4 -19   1 3589.67  738.58
  -4  19   1 3524.89  873.47
   4  19  -1 3003.76  705.80
  -4  19  -2 7911.19 1563.79
   4 -19  -210672.40 1976.43
   4  19   211014.20 1375.47
   4  19   2 7739.63 1488.72
   4 -19   2 9069.83 1204.44
  -4  19   2 8981.96 1425.46
   4  19  -2 8957.93 1918.27
  -4  19  -3 4351.16 1323.72
   4 -19  -3 6887.82 1014.18
   4  19   3 4110.27 1461.17
   4  19   3 4865.97 1184.97
   4 -19   3 7280.72  947.89
  -4  19   3 4513.36 1038.64
   4  19  -3 5746.56  985.23
  -4  19  -4 5965.59  897.41
   4 -19  -4 1097.27  995.13
   4  19   4 7420.12 1270.18
   4  19   4 7290.86 1521.98
   4 -19   4 7864.93  959.87
   4  19  -4 5581.15 1572.13
  -4  19  -5 1355.09  811.50
   4 -19  -5 2315.81 1091.92
   4  19   5  828.39  828.18
   4  19   5  870.42  802.85
   4 -19   5 1718.34  515.90
   4  19  -5 1617.37  930.65
  -4  19  -6 1178.62  838.05
   4 -19  -6 1896.62 1122.12
   4  19   6 1757.98  788.61
   4  19   6 1737.40  844.10
   4 -19   6 1220.49  507.27
   4  19  -6 1637.67  569.20
  -4  19  -7  772.91  604.99
   4 -19  -7 -188.06  513.82
   4  19   7  556.98  342.98
   4  19   7  373.14  356.13
   4 -19   7  686.83  360.56
   4  19  -7  283.75  688.54
  -4  19  -8 1718.19  907.66
   4 -19  -8 -159.40 1304.12
   4  19   8  878.45  829.09
   4  19   8 2055.88  870.70
   4 -19   8 2015.67  540.08
   4  19  -8 1894.36 1016.92
  -4  19  -9  238.56  615.64
   4 -19  -9  331.14  503.51
   4  19   9  133.82  511.93
   4  19   9  135.01  579.43
   4 -19   9  391.05  318.13
   4  19  -9  728.29  394.50
  -4  19 -10 3479.83 1450.53
   4  19  10 4311.03  768.21
   4  19  10 5314.37  890.34
   4 -19  10 5478.94 1338.97
   4  19 -10 7782.96 1723.23
  -4  19 -11 2377.39 1291.54
   4  19  11 2352.81 1038.64
   4  19  11 2519.56 1220.45
   4 -19  11 4242.39 1172.81
  -4  19  11 3795.58  893.70
   4  19 -11 3541.22 1429.28
  -4  19 -12 5864.64 1623.91
   4  19  12 8200.10 1622.86
   4  19  12 1996.25 1270.92
   4 -19  12  167.21 1485.53
  -4  19  12 8238.41 1854.70
   4  19 -12 8302.65 1199.11
  -4  19 -13 3608.14  973.92
   4  19  13 3015.03 1195.09
   4  19  13 6188.26 1006.11
   4 -19  13 5171.53 1476.69
  -4  19  13 5256.91 1137.52
   4  19 -13 5591.88 1092.31
  -4  19 -14 9383.97 1572.90
   4  19  1410658.20 2311.44
   4 -19  1411619.50 2084.01
  -4  19  1412093.40 2526.42
   4  19 -1411961.70 2559.29
  -4  19 -15 6015.22 1944.76
   4  19  15 5631.12 1930.04
   4 -19  15 6954.27 1769.79
  -4  19  15 8130.76 1373.45
   4  19 -15 7855.36 2141.95
  -4  19 -16 1150.91 2025.01
   4  19  16 8398.41 1349.27
   4 -19  16 7931.04 1186.88
  -4  19  16 7443.19 1389.02
   4  19 -16 9031.10 1472.81
  -4  19 -17 2336.85 1265.84
   4  19  17 2757.27  767.44
   4 -19  17 2357.13  675.47
  -4  19  17   79.00 1403.88
   4  19 -17 2176.56  866.68
  -4  20   0 1891.59  455.91
   4 -20   0 1934.06  584.20
   4  20   0  768.86  972.14
  -4  20  -1 1848.95  742.40
   4 -20  -1  688.04  906.51
   4  20   1 1341.24  529.65
   4 -20   1 1459.33  531.50
  -4  20   1  744.39  666.72
   4  20  -1 2216.80  539.72
  -4  20  -2 2781.12 1047.54
   4 -20  -2 4547.67 1256.69
   4  20   2 3045.67 1261.46
   4  20   2 3743.42 1004.83
   4 -20   2 3805.58  758.47
  -4  20   2 3134.53  927.30
   4  20  -2 2910.87 1315.68
  -4  20  -3 9510.17 1274.68
   4 -20  -311347.70 2077.32
   4  20   3 8360.39 1680.43
   4  20   3 7942.43 1279.76
   4 -20   310632.00 1320.07
   4  20  -311693.20 1487.24
  -4  20  -4 3690.57  709.59
   4  20   4 1792.03 1191.32
   4  20   4 2968.59 1036.66
   4 -20   4 3442.11  744.24
   4  20  -4 2964.06 1327.97
  -4  20  -518597.20 2996.17
   4 -20  -524004.30 3916.57
   4  20   519764.40 2327.93
   4  20   516564.20 2655.41
   4 -20   523481.60 2276.91
   4  20  -520669.70 2435.59
  -4  20  -6 2136.02 1063.41
   4 -20  -6  -50.54  887.55
   4  20   6 2939.03  609.92
   4  20   6 2941.09 1099.30
   4 -20   6 3258.02  655.63
   4  20  -6 2844.88  775.88
  -4  20  -722333.40 3470.29
   4  20   723610.60 3504.65
   4  20   723654.50 3404.07
   4 -20   728536.80 2729.10
   4  20  -728611.30 4062.18
  -4  20  -8 1523.56 1268.03
   4 -20  -8 4493.74 1929.69
   4  20   8 2750.93  747.08
   4  20   8 3642.19 1259.89
   4 -20   8 4353.77  782.87
   4  20  -8 4290.16  904.89
  -4  20  -9 2882.68 1680.64
   4 -20  -9  457.45 1445.98
   4  20   9 6919.86 1565.02
   4  20   9 8566.07 1116.63
   4 -20   9 9926.78 1070.53
   4  20  -9 7502.24 2027.80
  -4  20 -10 2080.73 1096.21
   4 -20 -10  818.01  876.07
   4  20  10 1896.16 1042.95
   4  20  10  818.17  917.92
   4 -20  10 2906.89  598.80
   4  20 -10 2835.85 1233.23
  -4  20 -11 3381.71 1760.22
   4  20  11 4184.72 1488.18
   4  20  11 7067.22 1128.58
   4 -20  11 8052.94 1070.30
   4  20 -11 8896.14 1320.82
  -4  20 -12  747.93  662.83
   4  20  12    2.24  661.30
   4  20  12  707.03  322.07
   4 -20  12 -178.58  374.02
  -4  20  12  520.42  465.19
   4  20 -12  929.21  763.01
  -4  20 -13  762.11  555.27
   4  20  13 1023.46  553.68
   4 -20  13 1066.82  850.99
  -4  20  13 1654.51 1038.33
   4  20 -13 1648.59 1043.34
  -4  20 -14 1226.42  625.40
   4  20  14 1164.73  605.05
   4 -20  14 1310.25  954.12
  -4  20  14 1729.20  694.32
   4  20 -14 1710.77  697.96
  -4  20 -15  426.32  432.16
   4  20  15   10.52  723.19
   4 -20  15  600.90  633.38
  -4  20  15  -47.23  785.00
   4  20 -15  545.65  493.92
  -4  21   0 6164.31  889.23
   4 -21   0 9023.86 1663.52
   4  21   0   -7.19 1573.76
  -4  21  -1 9937.25 1931.64
   4 -21  -113527.60 2332.80
   4  21   110873.90 1461.83
   4 -21   114680.30 2341.73
  -4  21   110020.10 1821.21
   4  21  -114050.00 1723.93
  -4  21  -2  714.25  756.82
   4 -21  -2 2085.99  934.97
   4  21   2  711.55  867.92
   4 -21   2 1504.93  529.22
   4  21  -2 1628.70  943.20
  -4  21  -3 3835.64  809.44
   4 -21  -3 -256.63 1487.20
   4 -21  -3 6114.08  950.22
   4  21   3 5597.08  899.63
   4  21   3 4529.48  758.32
   4 -21   3 4961.66  887.58
   4  21  -3 3601.87  934.98
  -4  21  -4 3164.90 1233.16
   4 -21  -4 1036.70 1473.57
   4  21   4 2902.62 1284.99
   4  21   4 3714.31  740.08
   4 -21   4 6074.14  868.32
   4  21  -4 3580.11 1465.50
  -4  21  -5 4279.08 1398.42
   4 -21  -5  136.86  988.95
   4  21   5 3870.79 1415.58
   4  21   5 6316.69  850.89
   4 -21   5 7413.55  973.29
   4  21  -5 5905.81 1053.26
  -4  21  -6  945.67  836.63
   4 -21  -6  114.86 1076.68
   4  21   6 1196.76  790.03
   4  21   6 1071.30  502.41
   4 -21   6 1920.68  535.39
   4  21  -6  741.41  972.33
  -4  21  -7 2380.16 1284.28
   4 -21  -7  705.33 1575.20
   4  21   7 1370.88 1213.57
   4  21   7 4461.90 1222.61
   4 -21   7 5235.57  814.53
   4  21  -7 4584.87 1451.14
  -4  21  -8  870.76  853.77
   4 -21  -8  146.54  731.41
   4  21   8 1545.00  817.49
   4  21   8  790.25  787.69
   4 -21   8 1682.20  504.41
   4  21  -8 1057.95  593.46
  -4  21  -9  979.60  819.37
   4 -21  -9 2032.38 1280.89
   4  21   9 1403.95  428.13
   4  21   9  -30.13  470.75
   4 -21   9  846.55  443.07
   4  21  -9  910.86  924.42
  -4  21 -10  292.46  862.45
   4 -21 -10  513.69  726.70
   4  21  10 1928.52  742.63
   4  21  10   -0.65  845.42
   4 -21  10 -457.01  479.33
   4  21 -10 3589.83  591.43
  -4  21 -11 5293.11 1866.29
   4 -21 -11  479.01 1350.07
   4  21  11 4701.60 1486.35
   4  21  11 8290.98 1169.89
   4 -21  11 8275.75 1103.02
   4  21 -11 9115.96 2087.83
  -4  21 -12 2086.44 1059.46
   4  21  12 4509.83 1081.36
   4 -21  12  -48.38  624.71
   4  21 -12 3100.27 1212.58
  -4  21 -13 3604.60 1835.67
   4  21  13 4709.30 1832.40
   4 -21  13 7101.65 1122.27
  -4  21  13 6838.17 1311.36
   4  21 -13 6734.16 1323.90
  -4  21 -14 2667.16  895.27
   4  21  14 3502.29  886.65
   4 -21  14 4121.67 1357.20
  -4  21  14 2263.23 1619.22
   4  21 -14 2795.03 1658.50
  -4  22   0  333.81  303.36
   4 -22   0  104.83  642.61
   4  22   0  633.70  649.82
  -4  22  -1 2010.80  971.76
   4 -22  -1 2593.09 1195.57
   4  22   1 2489.36  727.00
   4 -22   1 2868.02 1194.76
   4  22  -1 2694.67  737.20
  -4  22  -2 2379.20 1054.82
   4 -22  -2 3079.70  768.77
   4  22   2 3179.05 1259.77
   4 -22   2 2930.29 1229.34
   4  22  -2 2820.49 1311.20
  -4  22  -3 2331.50  650.98
   4 -22  -3 3696.75  772.37
   4  22   3 -360.57 1155.48
   4 -22   3 3960.49 1192.11
   4  22  -3 2613.21  817.35
  -4  22  -411852.70 2379.08
   4  22   413575.00 2258.90
   4  22   410548.80 1516.37
   4 -22   416481.40 1761.18
   4  22  -414032.10 2794.30
  -4  22  -5 1074.08  878.43
   4 -22  -5 -394.26 1161.00
   4  22   5 1228.75  870.02
   4  22   5 1204.86  842.95
   4 -22   5 2265.15  564.39
   4  22  -5  867.24  619.71
  -4  22  -610894.60 2407.22
   4 -22  -625924.20 3505.76
   4  22   612170.70 2299.83
   4  22   611556.10 2330.23
   4 -22   613288.40 1668.26
   4  22  -615244.40 2833.81
  -4  22  -7  554.78  784.85
   4 -22  -7  133.88  605.93
   4  22   7  -69.26  757.73
   4  22   7  889.72  426.53
   4 -22   7 1105.07  477.36
   4  22  -7 1348.68  554.57
  -4  22  -811785.80 2650.78
   4 -22  -8  852.29 3571.90
   4  22   814489.10 2550.76
   4  22   817253.00 1892.88
   4 -22   818909.70 1996.77
   4  22  -820752.70 3470.78
  -4  22  -9  338.96  668.24
   4 -22  -9 -234.91  564.87
   4  22   9  -25.80  649.28
   4  22   9 1421.07  600.96
   4 -22   9 -136.07  365.33
   4  22  -9 1322.44  461.80
  -4  22 -10 2790.99 1944.00
   4 -22 -10 1262.60 2628.74
   4  22  10 5455.97 1713.18
   4  22  10 7829.84 1217.32
   4 -22  1010355.00 1222.66
   4  22 -10 9373.19 1533.58
  -4  22 -11  784.83  700.56
   4  22  11   45.52  692.04
   4 -22  11  229.44  380.22
   4  22 -11  903.28  785.44
   4  23   010944.10 2387.38
   4 -23   010222.70 2216.00
  -4  23  -1 3871.14 1295.37
   4 -23  -1 4591.15  974.82
   4  23   1 4840.97  965.26
   4 -23   1 3751.47 1535.17
   4  23  -1 4254.83 1033.53
  -4  23  -2 6592.13 1980.78
   4 -23  -210998.40 1529.84
   4  23   211116.00 2355.29
   4 -23   211475.30 2254.84
   4  23  -212613.20 2565.81
  -4  23  -3 4237.32  951.75
   4 -23  -3 6331.08 1752.89
   4  23   3 6270.28 1732.30
   4 -23   3 7264.53 1700.68
   4  23  -3 5218.76 1152.17
  -4  23  -4 8799.64 1262.17
   4 -23  -4   98.57 1917.40
   4 -23  -410910.60 2187.04
   4  23   410386.90 1427.70
   4 -23   411745.00 2149.97
   4  23  -4 9724.87 2302.11
  -4  23  -5  268.20  839.88
   4 -23  -5 2078.94  991.18
   4  23   5  420.99  811.97
   4  23   5  950.79  862.07
   4 -23   5 1326.33  527.95
   4  23  -5 1006.76  602.52
  -4  23  -6 1135.39  850.76
   4 -23  -6  -22.77  637.06
   4  23   6 -157.09  827.63
   4  23   6  757.87  809.90
   4 -23   6 1845.48  530.11
   4  23  -6 2063.89  998.04
  -4  23  -7  885.25  973.89
   4 -23  -7   -7.89 1219.91
   4  23   7 1680.36  540.26
   4  23   7  189.03  570.29
   4 -23   7 2005.45  588.08
   4  23  -7 2235.08  698.95
  -4  23  -8  521.27  740.80
   4  23   8  149.58  720.24
   4  23   8  627.78  389.42
   4 -23   8  265.60  435.43
   4  23  -8 1379.02  873.09
  -4  23  -9 1602.43  845.87
   4  23   9 1634.30  704.93
   4  23   9    8.21  818.89
   4 -23   9 -327.91  458.76
   4  23  -9 1685.37  584.81
   4 -24   0 1240.82  607.34
   4  24   0 1964.18 1115.10
   4 -24  -1  693.48  833.35
   4  24   1  651.09  506.98
   4 -24   1  690.75  490.06
   4  24  -1  718.87  522.96
   4 -24  -2  670.53 1057.38
   4  24   2 2096.54 1093.58
   4 -24   2 1522.62 1049.50
   4  24  -2 1590.69 1126.79
  -4  24  -3 3494.34  891.43
   4 -24  -3 5904.54 1035.98
   4  24   3 1651.12 1612.79
   4 -24   3 5219.64 1637.19
   4  24  -3 5332.03 1877.28
  -4  24  -4 1012.16  527.83
   4 -24  -4 1228.72  584.46
   4  24   4  563.46  536.31
   4 -24   4  866.28  952.51
   4  24  -4 1710.21  645.59
   5   0   0 4612.91  496.12
   5   0   0 6232.72 1108.15
   5   0   135845.40 2948.67
   5   0  -136218.40 2794.05
   5   0  -137160.30 3625.85
   5   0   133475.80 2370.66
   5   0  -2 4859.08  572.46
   5   0   2 3471.02  617.86
   5   0   2 4358.83  456.03
   5   0  -2 4724.04  579.64
   5   0   327601.50 2033.56
   5   0   330405.40 2599.91
   5   0  -328228.00 1794.90
   5   0  -332734.70 3039.27
   5   0  -4 3032.47  279.15
   5   0   4 2752.78  642.05
   5   0   4 3535.20  540.98
   5   0  -4 2440.75  437.35
   5   0   5 4549.45 1236.56
   5   0   5 5455.45  886.21
   5   0  -5 5715.53  537.30
   5   0  -5 6418.91 1008.41
   5   0  -614801.40 1027.31
   5   0   614984.00 1995.10
   5   0   614464.60 1569.03
   5   0  -615417.00 1658.54
   5   0   7  506.45  298.98
   5   0  -7  490.77  178.33
   5   0  -7 1083.88  381.11
   5   0   7  409.15  232.34
   5   0  -813790.60  905.06
   5   0   812601.30 2004.59
   5   0   812434.40 1105.45
   5   0  -813012.30 1024.25
   5   0   9 3773.28 1462.68
   5   0   9 8502.29 1208.89
   5   0  -9 7432.14  528.02
   5   0  -9 6592.54  644.55
   5   0  1017775.70 2017.94
   5   0  1015073.50 2323.02
   5   0 -1014737.20 1197.89
   5   0 -1016010.50 1134.27
   5   0  1121358.90 1881.12
   5   0  1123841.20 2290.96
   5   0 -1117745.80 1392.42
   5   0 -1121364.20 1312.10
   5   0  12 4306.61  622.79
   5   0  12 2606.11  706.04
   5   0 -12 3692.90  690.95
  -5   0 -1311288.50 1389.57
   5   0 -1311072.60 1292.43
   5   0  1310494.60 1693.31
  -5   0 -14 1038.12  427.72
   5   0  14 2264.28  638.08
   5   0 -14  353.45  438.33
  -5   0 -1515719.00 1860.40
   5   0  1520516.10 1860.13
   5   0 -1516578.10 1745.82
  -5   0 -16 4571.97 1418.02
   5   0  16 7013.76 1302.29
   5   0 -16 5131.18  781.07
  -5   0 -17 9835.89 2105.38
   5   0  1712499.00 1966.99
  -5   0 -18 3532.49 1364.84
   5   0  18 4773.92  770.93
  -5   0 -19 1266.88  972.15
   5   0  19 1981.50  890.37
   5   0  20 4153.25 1261.57
  -5   0 -20 3424.89 1371.60
  -5   0 -21   37.68  539.98
   5   0  21 -294.14  300.79
  -5   0 -22 7072.77 1268.96
   5   0  22 8539.60 1864.24
  -5   0 -23   10.42  200.11
   5   0  24  302.50  484.88
   5   0  24 1168.55  500.94
   5   0  25 1271.64 1140.12
   5   0  25 2049.64  704.84
   5   0  26  840.61 1192.82
   5   0  26 2278.59  745.46
   5   1   032359.90 2194.17
   5  -1   036603.00 3584.54
   5  -1   035491.90 2883.39
   5   1   033552.80 2728.53
   5   1   126474.90 2207.63
   5   1   128609.70 2328.67
   5  -1  -127429.10 2238.41
   5  -1  -128472.80 2247.41
   5   1  -126754.80 2050.28
   5   1  -129060.40 2980.58
   5  -1   126309.20 2312.84
   5  -1   127338.90 2889.48
   5  -1  -218777.80 2143.03
   5   1   217026.30 1648.32
   5   1   221552.10 2436.72
   5  -1  -218884.00 1552.38
   5   1  -218350.70 2172.78
   5   1  -218584.10 1445.57
   5  -1   220566.90 1866.26
   5  -1   219535.10 2325.56
   5   1   334764.60 2907.37
   5   1   336540.20 3836.39
   5  -1  -333609.10 2171.61
   5  -1  -337669.10 3504.62
   5   1  -333444.70 2684.27
   5   1  -336339.60 2519.37
   5  -1   337277.00 3811.64
   5  -1   335271.90 3129.73
   5   1   413220.20 1027.83
   5  -1  -412860.20 1038.76
   5  -1  -414733.00 1592.05
   5   1   412238.80 1291.43
   5   1  -412491.20  933.20
   5  -1   414174.20 1877.96
   5   1  -413939.00 1654.55
   5   1   5 9919.92 1184.90
   5   1   510119.90 1100.80
   5  -1  -511259.30  887.04
   5  -1  -5 9364.25  843.93
   5   1  -510269.00  743.12
   5   1  -5 8886.87  895.53
   5  -1   510028.30 1601.85
   5  -1   5 8831.36 1176.29
   5  -1  -611877.50 1374.52
   5   1   610658.20 1356.30
   5   1   611203.90 1196.81
   5  -1  -610778.30  874.38
   5   1  -611641.20  798.31
   5  -1   611461.00 1256.29
   5  -1   612152.20 1424.91
   5   1  -610982.10 1000.07
   5   1   713389.20 1226.01
   5   1   715323.80 2116.86
   5  -1  -715063.30 1087.37
   5  -1  -717488.10 1742.17
   5  -1   715704.30 1331.61
   5   1  -716396.50 1037.87
   5   1  -717486.40 1793.10
   5  -1   717117.20 2316.85
   5  -1  -8 9681.66  780.20
   5   1   8 8588.74  882.36
   5  -1  -811202.00 1212.90
   5   1   8 9588.42 1140.34
   5   1  -810601.20 1331.19
   5   1  -810465.20  654.59
   5  -1   8 9267.06  930.58
   5  -1   8 8433.81 1108.28
   5   1   912582.90 1657.32
   5   1   912881.40 1995.84
   5  -1  -913558.70 1419.88
   5  -1  -913368.50  968.38
  -5   1  -911614.90 1414.39
   5   1  -912604.30  760.41
   5   1  -914296.40 1616.83
   5  -1   914584.90 1283.53
   5   1  1012631.70 1221.81
   5   1  1013013.70 1445.68
  -5   1 -1013758.40 2078.47
   5  -1 -1012412.30  997.46
   5  -1 -1014038.70  985.67
   5   1 -1013718.50  894.98
   5   1 -1012748.00 1516.31
   5  -1  1012852.70 1727.58
   5   1  1110268.00 1716.23
   5   1  11 8299.02  938.46
  -5   1 -11 9393.86 1708.96
   5  -1 -11 9360.60  869.32
   5  -1 -11 8485.31 1048.60
   5   1 -11 8680.04  767.43
   5  -1  11 9098.30 1397.32
   5   1  1210082.20 1242.63
   5  -1 -1210898.40  787.11
   5   1  12 9525.95 1521.87
  -5   1 -12 9342.46 1248.94
   5  -1 -1211183.60 1184.41
   5   1 -1210153.80  879.18
   5  -1  1211089.50 1597.42
  -5   1 -13 7146.94 1100.84
   5   1  13 9962.92 1208.36
   5   1  13 9801.49 1050.51
   5  -1 -13 9724.31 1050.14
   5   1 -13 8730.98  769.74
   5  -1  13 9820.31  997.70
   5   1  14 5679.95 1396.25
   5   1  14 6046.58  816.99
  -5   1 -14 6127.02 1393.96
   5  -1 -14 5511.15  516.83
   5   1 -14 5593.08  583.65
   5  -1  14 6065.04  773.65
   5   1  1511197.50 1838.26
   5   1  1512180.80 2105.72
   5  -1 -1511009.50 1227.68
  -5   1 -15 9388.46 1999.39
   5   1 -1512896.50 1445.99
   5  -1  1510882.40 1804.96
   5   1  16 4649.84  743.72
   5   1  16 2989.96 1279.02
  -5   1 -16 4077.72 1300.48
   5   1 -16 4308.35  765.73
   5  -1  16 4053.98 1115.78
   5   1  17 6741.90 1371.80
   5   1  17 4832.12  922.76
  -5   1 -17 5293.44 1516.76
   5  -1  17 6066.27  882.19
   5   1  18 8693.42 1681.22
   5   1  18 8019.95 1197.15
  -5   1 -18 5350.73 1748.65
   5  -1  18 8134.89 1086.40
   5   1  19 8820.30 1158.68
   5   1  19 8704.43 1282.16
  -5   1 -19 5379.44 1840.65
   5   1  20 2439.84  685.37
  -5   1 -20 1722.32 1068.77
   5   1  20 1643.18  995.06
   5  -1  20 1924.41  620.77
   5   1  21 1192.11  486.27
   5   1  21  573.95  844.28
  -5   1 -21  964.72  856.00
   5  -1  21  825.12  492.55
   5   1  22 2480.23  709.65
   5   1  22 1965.31 1156.29
  -5   1 -22 1935.79 1173.60
   5   1  23 1208.72 1122.75
  -5   1 -23 1358.30  693.19
   5  -1  23 3614.48 1083.59
   5   1  24 2230.88 1388.04
   5   1  24 3697.07  845.30
  -5   1 -24 2932.61  854.50
   5  -1  24 3290.47  817.71
   5   1  25 1884.06 1338.64
  -5   1 -25 3593.65 1347.18
   5   1  25 2728.73  812.69
   5  -1  25 2316.57 1340.29
   5   1  26 1639.96  638.00
   5   1  26  985.98 1038.98
  -5   1 -26 1209.79 1050.74
   5  -1  26  457.77 1047.67
   5   2   039847.40 3221.98
   5  -2   038934.40 2741.86
   5  -2   041367.30 3298.19
   5   2   038908.20 3004.04
   5   2   1 6877.92  819.82
   5   2   1 9073.60 1373.92
   5  -2  -1 7258.97  601.53
   5  -2  -1 6514.65  777.73
   5   2  -1 6984.69  806.59
   5   2  -1 6872.82  709.59
   5  -2   1 6727.13  941.64
   5  -2   1 8019.45 1266.24
   5   2   215533.90 1476.55
   5   2   219115.30 2259.39
   5  -2  -217739.00 1507.96
   5  -2  -217600.10 1991.04
   5  -2   218560.30 1752.10
   5   2  -218230.60 2102.55
   5   2  -215854.10 1009.64
   5  -2   218132.30 2160.54
   5   2   312110.60  901.83
   5   2   313877.80 1857.85
   5  -2  -311745.50 1058.71
   5  -2  -312146.90 1073.11
   5   2  -312343.30  897.72
   5   2  -312178.10 1578.28
   5  -2   313230.80 1435.02
   5  -2   313607.40 1794.90
   5   2   4 8269.64 1317.72
   5  -2  -4 6461.26  484.88
   5  -2  -4 6206.59 1010.60
   5   2   4 5552.85  876.88
   5   2  -4 7220.35  752.88
   5  -2   4 7570.04 1322.05
   5   2  -4 6649.38  539.27
   5  -2   4 7221.27 1002.93
   5   2   5 7495.47 1370.47
   5   2   5 7725.54  652.83
   5  -2  -5 7486.13 1023.79
   5  -2  -5 6889.82  673.12
   5   2  -5 7004.64  506.02
   5   2  -5 7706.97 1162.30
   5  -2   5 7149.14 1045.24
   5  -2   5 8628.80  949.21
   5   2   6 1741.18  526.44
   5   2   6 1606.29  601.60
   5  -2  -6 2985.31  605.07
   5  -2  -6 3128.45  397.39
   5  -2   6 2027.79  638.44
   5   2  -6 2339.67  236.38
   5  -2   6  283.86  464.11
   5   2  -6 3774.02  688.13
   5   2   723888.40 2260.32
   5   2   722736.30 2051.26
  -5   2  -718727.90 2605.18
   5  -2  -721093.90 1290.04
   5  -2  -723635.80 2076.27
   5   2  -721330.50 1344.53
   5   2  -722288.30 1741.90
   5  -2   723786.70 2318.02
  -5   2  -8 1909.17  620.12
   5   2   8 2435.44  907.61
   5  -2  -8 3037.83  590.61
   5  -2  -8 4096.44  432.00
   5   2   8 3275.24  464.08
   5   2  -8 2454.23  202.54
   5  -2   8 1994.17  766.76
   5   2  -8 4221.66  763.71
   5   2   910126.50 1353.21
   5   2   9 7702.08 1047.13
  -5   2  -9 8134.56 1587.76
   5  -2  -910195.60  822.06
   5  -2  -9 8957.45 1036.13
   5   2  -9 9353.60  568.24
   5   2  -910877.70 1326.81
   5  -2   9 9357.46  910.07
   5   2  10 9231.76  975.31
   5   2  10 9478.44 1621.70
  -5   2 -10 8356.98 1107.59
   5  -2 -1010036.30 1064.06
   5  -2 -10 9756.23  805.34
   5   2 -10 8992.46 1253.15
   5  -2  10 9237.66  927.14
   5   2  11 8748.25 1107.75
   5   2  1110725.40 1452.96
  -5   2 -11 7861.59 1075.60
   5  -2 -11 9642.02  792.27
   5  -2 -11 7729.00  651.33
   5   2 -11 8725.32  795.40
   5  -2  11 9744.33  980.88
   5   2  1216828.60 2352.20
   5   2  1215674.10 1557.77
   5  -2 -1214638.30 1453.56
   5  -2 -1216658.30 1251.61
  -5   2 -1218827.40 2604.08
   5   2 -1215280.60 1296.13
   5  -2  1214093.20 1424.59
   5  -2 -13  399.25  179.31
   5   2  13 1323.09  549.03
   5   2  13  633.20  613.27
  -5   2 -13 1337.20  651.00
   5  -2 -13  546.18  237.42
   5   2 -13 1099.64  410.00
   5  -2  13 1198.47  541.74
   5   2  1413054.80 1852.17
   5   2  1411145.00 1360.43
   5  -2 -14 9774.72 1110.90
  -5   2 -1410777.30 2060.00
   5   2 -1412836.40 1500.89
   5  -2  1411541.90 1806.44
   5   2  15 3350.57  568.59
   5   2  15 2572.06  638.79
  -5   2 -15 2665.97  626.33
   5   2 -15 1313.37  712.62
   5  -2  15 3035.02  553.74
   5   2  16 7760.85 1558.87
   5   2  16 5238.01 1597.74
  -5   2 -16 8437.43 1208.94
   5   2 -16 6099.69 1098.88
   5  -2  16 8924.84 1006.90
   5   2  17 5950.69  807.00
   5   2  17 4136.01 1310.37
  -5   2 -17 3784.03  843.52
   5   2 -17 4970.20  878.04
   5  -2  17 4086.95  744.36
   5   2  18 3943.28 1061.95
   5   2  18 3176.76 1096.52
  -5   2 -18 1949.02  706.81
   5  -2  18 2649.67 1044.46
   5   2  1910842.50 1236.14
   5   2  19 9002.98 1882.48
  -5   2 -19 7843.74 1308.09
   5   2  20  142.37  629.01
  -5   2 -20  352.41  391.43
   5   2  20  380.40  380.77
   5  -2  20  709.25  361.97
   5   2  21 9703.22 2015.25
   5   2  21 8621.31 2003.26
  -5   2 -21 7244.57 2112.60
   5  -2  2110948.30 1317.85
   5   2  22 1426.49  522.14
   5   2  22 1052.24  862.02
  -5   2 -22  163.56  911.06
   5   2  23 3617.31 1396.06
   5   2  23 3059.78  826.15
  -5   2 -23 2644.14 1435.88
   5  -2  23 4661.89 1329.00
   5   2  24  309.84  469.77
   5   2  24  824.65  453.57
  -5   2 -24  125.11  470.73
   5  -2  24 1229.81  472.17
   5   2  25 2230.05 1197.50
   5   2  25 1732.56 1151.14
  -5   2 -25 1860.08  725.30
   5  -2  25 2172.42 1163.67
   5   2  26 4372.21 1462.74
   5   2  26 3097.32 1553.76
  -5   2 -26 2816.00 1555.09
   5   3   016418.00 1323.03
   5   3   016890.90 2064.39
   5  -3   016578.80 1446.74
   5  -3   016635.50 1192.18
   5  -3  -111430.70 1195.47
   5   3   111899.40 1062.51
   5   3   112468.70 1653.44
   5  -3  -111399.30 1506.04
   5   3  -111377.10 1582.58
   5   3  -110632.70  928.10
   5  -3   111211.40 1246.64
   5  -3   112570.30 1121.56
   5   3   211494.80 1106.54
   5   3   211694.30 1652.87
   5  -3  -210150.20 1403.94
   5  -3  -211166.60 1087.58
   5   3  -210592.50  842.27
   5   3  -211333.80 1046.98
   5  -3   211839.50 1152.20
   5  -3   212450.50 1267.02
   5   3   3 9939.86 1094.49
   5   3   311678.20 1673.28
   5  -3  -310153.90 1364.63
   5  -3  -310844.10 1005.47
   5   3  -310000.10  772.83
   5   3  -312941.70 1574.79
   5  -3   310601.20 1124.40
   5   3   4 8192.04  758.29
   5   3   411626.90 1617.47
   5  -3  -4 8477.38  801.45
   5  -3  -4 9576.81  917.09
  -5   3  -4 9488.84 1028.74
   5   3  -4 8424.64  643.06
   5  -3   410237.20 1274.09
   5   3  -411035.10 1419.83
   5  -3  -5 7635.54 1038.28
   5   3   5 7466.48 1047.62
   5   3   5 7408.18 1380.44
  -5   3  -5 6750.59 1334.88
   5  -3  -5 8491.01  806.05
   5   3  -5 6948.09  500.06
   5   3  -5 8750.91 1235.70
   5  -3   5 6776.21 1084.23
   5   3   6 6648.39  759.55
   5   3   6 9115.36 1466.78
  -5   3  -6 9546.23 1502.18
   5  -3  -6 9036.84 1057.75
   5  -3  -6 9382.27  841.13
   5   3  -6 9574.27 1312.34
   5   3  -6 7275.64  478.07
   5  -3   6 9868.29 1240.87
   5  -3  -7 9151.40  989.82
   5   3   7 8670.80  988.00
   5   3   7 7039.01 1138.70
  -5   3  -7 7963.55 1011.52
   5  -3  -7 8938.32  812.74
   5   3  -7 6769.74  477.26
   5   3  -7 8286.24 1231.32
   5  -3   7 7868.56 1212.72
   5   3   811403.90 1098.92
   5  -3  -814075.80 1288.75
   5  -3  -813024.20 1081.01
  -5   3  -811474.20 1910.78
   5   3   812219.00 1836.90
   5   3  -810803.60  606.77
   5  -3   812649.50 1606.94
   5   3  -812199.90 1058.79
   5   3   9 9933.49 1702.29
   5   3   9 9901.11 1453.60
  -5   3  -912067.00 1254.96
   5  -3  -911479.70  973.04
   5  -3  -9 8568.82  707.51
   5   3  -911692.60 1418.19
   5  -3   9 8967.06 1420.61
   5   3  10 8066.86  878.40
   5   3  10 7810.30 1006.03
  -5   3 -10 7980.48 1091.98
   5  -3 -10 8372.78  902.54
   5  -3 -10 8210.76  804.28
   5   3 -10 8315.82 1216.35
   5  -3  10 6867.49 1296.49
   5   3  1116106.30 2060.21
   5   3  1115023.90 2257.74
  -5   3 -1115067.90 2327.90
   5  -3 -1118211.70 1382.78
   5  -3 -1116198.10 1118.64
   5   3 -1115984.30 1333.98
   5  -3  1115830.50 2010.63
   5   3  12 2261.48  978.32
   5  -3 -12 2312.38  484.41
   5  -3 -12 3559.26  498.01
  -5   3 -12 3990.28 1062.47
   5   3  12 2899.27  552.16
   5   3 -12 3418.61  755.51
   5  -3  12 4686.58  899.09
   5   3  13 5383.68 1132.01
   5   3  13 4679.16  788.08
  -5   3 -13 4476.83  831.50
   5  -3 -13 5436.27  640.21
   5  -3 -13 4960.02  635.37
   5   3 -13 6275.44  962.15
   5  -3  13 5271.37  712.87
   5   3  14 5137.52  769.30
   5   3  14 4899.72 1301.95
  -5   3 -14 4973.76  878.95
   5   3 -14 5994.50 1017.60
   5  -3  14 5829.78  767.66
   5   3  15 7711.83 1675.83
   5   3  15 8616.41 1624.40
  -5   3 -15 8860.59 1214.98
   5   3 -15 9000.45  871.00
   5  -3  15 8610.40 1028.78
   5   3  16 5256.26  828.32
  -5   3 -16 4935.41  900.98
   5   3  16 4693.40 1346.95
   5   3 -16 5345.41  975.24
   5  -3  16 5261.06 1240.33
   5   3  17 6157.78 1009.67
   5   3  17 5211.53 1473.22
  -5   3 -17 6223.11 1052.40
   5   3 -17 7295.97 1142.81
   5  -3  17 7717.71 1459.51
   5   3  18 9059.58 1280.03
   5   3  18 9880.25 1284.51
  -5   3 -18 9018.56 1404.74
   5   3 -1810553.40 1465.64
   5  -3  1810935.00 1848.07
   5   3  19 2123.36  624.41
   5   3  19 1781.20 1012.07
  -5   3 -19 1556.89  636.49
   5  -3  19 2329.07  599.76
   5   3  20 1977.57  695.91
  -5   3 -20 1189.29  703.20
   5   3  20 2561.52  650.03
   5  -3  20 2537.87  652.86
   5   3  21 6758.29 1126.02
   5   3  21  -29.98 1737.17
  -5   3 -21 7769.33 1199.73
   5  -3  21 9122.24 1730.60
   5   3  22 2595.80  778.47
   5   3  22 2721.99  776.93
  -5   3 -22 2385.86 1323.32
   5  -3  22 3133.86 1216.10
   5   3  23 2947.34 1434.03
   5   3  23 2818.01 1498.04
  -5   3 -23 5840.06 1535.83
   5  -3  23 4797.92 1453.46
   5   3  24  394.12  998.03
   5   3  24 1652.83  645.33
  -5   3 -24 1359.83  649.71
   5  -3  24 1972.83  607.66
   5   3  25 6206.48 1168.77
   5   3  25 4394.52 1662.78
  -5   3 -25 5231.09 1170.14
   5  -3  25 7066.12 1157.21
   5   3  26 2237.90 1627.20
   5   3  26 4759.36  912.77
  -5   3 -26 2227.69 1655.65
   5   4   0  402.66  190.54
   5  -4   0 1288.56  507.55
   5  -4   0  722.50  249.90
   5   4   0 1158.51  326.65
   5  -4  -117685.40 1322.16
   5   4   120184.70 1795.25
   5   4   119416.70 1328.54
   5  -4  -120976.10 2220.26
   5   4  -118932.50 1237.17
   5   4  -122039.10 2435.71
   5  -4   121779.10 1993.15
   5  -4   123063.10 2484.23
   5   4   2 3543.38  550.23
   5   4   2 2172.41  564.87
   5  -4  -2 4149.08  602.32
   5  -4  -2 3331.81  470.03
   5  -4   2 3035.40  681.02
   5   4  -2 3392.28  411.50
   5   4  -2 2351.53  858.53
   5   4   3 7269.71  885.51
   5   4   3 5904.15  792.95
  -5   4  -3 7376.81 1248.65
   5  -4  -3 8809.76 1054.52
   5  -4  -3 7147.63  839.96
   5   4  -3 6130.40  550.51
   5   4  -3 6909.73  784.64
   5  -4   3 5962.81  979.61
   5   4   418412.10 1682.54
  -5   4  -417498.80 2201.82
   5   4   418124.40 1599.96
   5  -4  -419265.70 1863.09
   5  -4  -417428.80 1191.11
   5   4  -419328.50 2094.04
   5   4  -418849.20 1166.87
   5  -4   417468.70 1379.01
   5   4   5 6716.98  640.19
   5   4   5 5975.14  790.18
  -5   4  -5 5790.47  768.45
   5  -4  -5 6461.77  735.54
   5  -4  -5 5291.72  545.32
   5   4  -5 5309.36  399.35
   5   4  -5 7489.58 1097.05
   5  -4   5 5304.01  638.29
   5   4   612642.20 1410.17
   5   4   611316.30 1760.98
   5  -4  -611421.00  875.41
   5  -4  -613059.30 1137.93
  -5   4  -610561.70 1768.71
   5   4  -612304.60  745.77
   5  -4   612003.30 1051.07
   5   4  -610914.70 1059.32
   5   4   7  295.04  442.98
   5   4   7  994.96  353.71
  -5   4  -7  -71.14  442.88
   5  -4  -7  632.15  237.72
   5  -4  -7  447.14  156.56
   5   4  -7  206.41   85.97
   5   4  -7  635.23  380.93
   5  -4   7  243.46  209.97
   5   4   820708.20 1667.83
  -5   4  -818914.90 2576.92
   5   4   818772.80 1871.04
   5  -4  -820463.20 1752.36
   5  -4  -820951.90 1654.82
   5   4  -820522.20 1698.88
   5  -4   819309.80 1643.83
   5   4   9 9008.19 1564.60
   5   4   9 8218.25 1302.23
  -5   4  -9 7854.48 1064.20
   5  -4  -9 8836.70  904.40
   5  -4  -9 9865.56  986.62
   5  -4   9 8530.35  922.38
   5   4  -9 9364.97 1325.31
   5   4  10 8634.82 1036.93
   5   4  10 8383.06 1316.59
  -5   4 -10 7942.81 1567.71
   5  -4 -10 7671.41  878.77
   5  -4 -10 7820.10  856.19
   5   4 -10 7954.64 1263.39
   5  -4  10 7513.17  844.46
   5   4  1111507.80 1874.63
   5   4  11 9205.11 1081.38
  -5   4 -11 9100.14 1868.73
   5  -4 -1111199.10 1063.81
   5  -4 -1111762.90 1096.45
   5   4 -1111074.20 1020.04
   5  -4  1110320.00 1101.15
  -5   4 -12 5521.66 1004.84
   5   4  12 6973.53 1346.20
   5  -4 -1211565.60  997.37
   5  -4 -12 6589.21  729.96
   5   4  12 7540.93  993.90
   5   4 -12 6961.89 1195.03
   5  -4  12 5360.06  812.00
   5   4  1311001.50 1968.81
   5   4  1311023.40 1277.42
  -5   4 -1311387.40 1412.58
   5   4 -1312855.40 1143.91
   5  -4  1311318.90 1201.84
   5   4  14 1181.28  718.80
   5   4  14 1184.24  762.02
  -5   4 -14  790.49  489.13
   5   4 -14 1348.23  595.53
   5  -4  14 1631.83  425.97
   5   4  1510063.60 1217.52
   5   4  15 8926.20 1201.16
  -5   4 -15 9644.68 2003.53
   5   4 -15 8833.64 1446.89
   5  -4  1510077.10 1678.13
   5   4  16 4595.36 1173.31
   5   4  16 2766.92  767.27
  -5   4 -16 4157.06 1324.82
   5   4 -16 4545.22  570.66
   5  -4  16 3542.09 1095.65
   5   4  17 3301.87 1182.13
   5   4  17 4697.16  759.44
  -5   4 -17 3368.79 1309.88
   5   4 -17 2660.95  891.84
   5  -4  17 2942.67 1123.68
   5   4  18 7245.02 1613.34
   5   4  18 4387.18 1550.19
  -5   4 -18 5387.76 1774.45
   5   4 -18 7673.92 1254.05
   5  -4  18 8383.62 1508.03
   5   4  19   51.74  601.93
   5   4  19   38.41  578.67
  -5   4 -19  103.77  385.43
   5   4 -19  562.85  262.55
   5  -4  19  615.94  332.81
   5   4  2011743.10 2181.53
   5   4  2010505.30 2027.01
  -5   4 -20 9954.18 1525.48
   5  -4  2012130.30 1386.70
   5   4  21   15.70  490.38
   5   4  21  348.87  462.90
  -5   4 -21   82.25  315.26
   5  -4  21  239.40  478.85
  -5   4 -22 4229.59 1504.49
   5   4  22 -101.62 1397.68
   5   4  22 3651.54 1318.55
   5  -4  22 6678.51 1359.80
   5   4  23  704.63  519.29
   5   4  23  365.80  791.89
  -5   4 -23 1943.79  908.78
   5  -4  23  829.29  818.06
   5   4  24 3569.69 1804.04
   5   4  24 5339.28 1056.00
  -5   4 -24 4923.74 1177.83
   5  -4  24 7993.70 1149.74
   5   4  25 2053.87  859.38
   5   4  25 1579.03  757.54
  -5   4 -25 2862.06  842.77
   5  -4  25 3491.98  798.69
   5   4  26  720.50 1089.67
  -5   4 -26 1541.41 1107.55
   5  -4  26 1502.31 1013.31
   5   5   0 5792.55  645.17
   5   5   0 5537.50 1172.83
   5  -5   0 6582.15  902.60
   5  -5   0 6148.12  722.64
   5   5   1 8971.59  938.55
  -5   5  -110705.00  992.00
   5  -5  -1 9691.69  945.76
   5  -5  -1 9468.39 1110.08
   5   5   110972.20 1520.46
   5   5  -1 9152.07  826.38
   5  -5   110925.30 1230.68
   5   5  -110163.30 1014.54
   5   5   210658.50 1578.62
   5   5   211121.50 1073.78
  -5   5  -210024.00 1054.02
   5  -5  -210149.80 1330.33
   5  -5  -210319.30  814.38
   5   5  -210134.80  804.96
   5   5  -210255.90 1072.42
   5  -5   212033.30  940.92
  -5   5  -3 8562.16  911.32
   5   5   3 8025.86 1385.88
   5   5   3 7500.44  950.05
   5  -5  -3 6985.79  700.54
   5  -5  -3 8508.69  997.01
   5   5  -3 7981.96 1300.88
   5   5  -3 7226.83  617.88
   5  -5   3 8247.89  762.56
   5   5   411052.20 1177.48
   5   5   410200.50 1211.99
  -5   5  -411197.00 1120.08
   5  -5  -411148.60 1296.23
   5  -5  -412120.90 1209.35
   5   5  -410569.90  720.64
   5   5  -412274.60 1605.30
   5  -5   410575.40 1381.23
   5   5   5 4472.07  834.99
   5  -5  -5 6860.45  789.46
   5   5   5 6010.14  744.41
  -5   5  -5 3160.36 1145.10
   5  -5  -5 6099.05  838.42
   5   5  -5 5583.89  696.18
   5   5  -5 4584.54  437.37
   5  -5   5 5778.39  959.69
   5   5   611209.30 1426.45
   5   5   611234.60 1235.53
  -5   5  -611267.10 1288.98
   5  -5  -611481.60 1240.81
   5  -5  -610775.90  815.38
   5   5  -611596.20 1656.52
   5  -5   612577.30 1564.03
   5   5   7 9960.99 1440.83
   5   5   711506.80 1798.36
   5  -5  -711296.60 1202.62
   5  -5  -713728.80 1217.06
  -5   5  -710391.80 1803.30
   5   5  -711579.30 1581.72
   5  -5   713471.40 1667.46
   5   5   8 7039.82  815.29
   5   5   8 7899.77 1504.31
  -5   5  -8 7944.09 1078.53
   5  -5  -8 7929.34  900.72
   5  -5  -8 9262.19  975.28
   5  -5   8 9294.77 1358.82
   5   5  -8 8712.36 1342.51
   5  -5  -9 3989.91  624.76
   5   5   9 2454.49  665.80
  -5   5  -9 2510.39 1073.07
   5  -5  -9 4060.86  567.04
   5   5   9 3180.90  864.88
   5   5  -9 4610.31  896.77
   5  -5   9 3310.07  875.09
   5   5  10 7215.17 1343.34
   5   5  10 9969.04 1641.17
  -5   5 -10 7574.68 1573.42
   5  -5 -10 8436.26  902.04
   5  -5 -10 9448.18 1009.76
   5   5 -10 9329.62 1379.35
   5  -5  10 9179.18 1429.72
  -5   5 -11 5072.46  818.11
   5   5  11 5930.95  754.10
   5   5  11 5212.57  820.33
   5  -5 -11 4466.18  643.35
   5  -5 -11 8165.85  857.25
   5   5 -11 7417.88 1136.09
   5  -5  11 5727.21 1099.75
   5   5  12 8997.71 1434.39
   5   5  12 8651.52 1545.65
  -5   5 -12 7086.07 1029.23
   5  -5 -12 5932.99 1000.08
   5  -5 -12 7890.86  773.54
   5   5 -12 8804.47 1302.32
   5  -5  12 6941.83 1290.46
   5   5  13 4244.06 1147.00
  -5   5 -13 5523.21 1249.05
   5   5  13 2786.13 1205.76
   5   5 -13 3917.10 1016.97
   5  -5  13 6182.27 1093.18
   5   5  1411282.70 1323.43
   5   5  1410263.80 1202.53
  -5   5 -1410276.50 1998.74
   5   5 -1412012.40 1651.28
   5  -5  1412516.50 1757.74
  -5   5 -15 4559.90 1194.43
   5   5  15 2631.89 1153.03
   5   5  15 3504.83 1130.67
   5   5 -15 4146.32  940.85
   5  -5  15 2508.17 1061.67
   5   5  16 4658.23 1342.37
   5   5  16 5103.70  817.47
  -5   5 -16 4517.76 1448.03
   5   5 -16 5643.24 1068.04
   5  -5  16 4236.57 1237.65
   5   5  17 3532.08 1311.60
   5   5  17 3708.95  831.31
  -5   5 -17 4761.18 1409.87
   5   5 -17 5397.73  695.20
   5  -5  17 3252.29 1241.95
  -5   5  17 5094.59  561.68
   5   5  18 1564.84  971.36
   5   5  18 2755.70 1033.43
  -5   5 -18 2428.82 1067.12
   5   5 -18 1446.73  757.48
   5  -5  18 2326.30  586.57
   5   5  19 4829.23  791.27
   5   5  19 2705.98  814.65
  -5   5 -19 1871.11  813.70
   5   5 -19 3833.02  626.30
   5  -5  19 4510.93  747.75
   5   5  20 6496.13  964.87
   5   5  20 4979.56 1575.98
  -5   5 -20 1786.64 1018.09
   5  -5  20 7043.41  944.45
   5   5  21 2270.97  670.66
   5   5  21   65.53  697.83
  -5   5 -21 2440.59  708.18
   5  -5  21 4897.78 1070.34
   5   5  22 2013.29 1018.81
   5   5  22 -239.57 1105.25
  -5   5 -22 1909.52 1099.40
   5  -5  22 3411.56 1084.85
   5   5  23 1874.68  908.03
   5   5  23    0.40  619.45
  -5   5 -23 1233.71 1031.21
   5  -5  23 2633.11  924.51
   5   5  24  984.59 1362.38
   5   5  24 2316.27 1533.89
  -5   5 -24 2112.37  980.68
   5  -5  24 6108.51  894.48
   5   5  25 1801.09  804.14
  -5   5 -25 1762.23  830.37
   5  -5  25 3217.20  750.81
   5   6   017742.60 2208.98
   5  -6   015519.20 1210.65
  -5   6   017396.10 1995.30
   5   6   015257.40 1092.79
   5   6   1 2183.88  529.98
   5   6   1 3344.74  937.70
  -5   6  -1 3534.92  839.84
   5  -6  -1 3728.12  445.64
   5   6  -1 3373.46  449.50
   5  -6   1 3432.75  763.28
   5   6  -1 3779.17  936.62
   5   6   217295.00 2223.86
   5   6   214882.30 1475.75
   5  -6  -217323.10 1880.98
   5  -6  -216591.20 1643.84
  -5   6  -216174.80 2005.45
   5   6  -216392.90 1278.05
   5   6  -217878.80 2127.80
   5  -6   215593.90 1779.59
   5   6   3 2346.06  328.98
  -5   6  -3 1775.87  765.68
   5  -6  -3 2563.47  625.91
   5  -6  -3 2769.43  581.52
   5   6   3 1865.79  829.87
   5   6  -3 2221.26  460.98
   5   6  -3 2268.43  308.06
   5  -6   3 1415.58  672.08
  -5   6  -415643.10 1542.20
   5   6   415342.10 1230.10
   5  -6  -415789.70 1560.39
   5  -6  -416595.70 1593.88
   5   6  -414013.00  952.62
   5   6  -415701.40 1448.65
   5  -6   415447.60 1305.84
   5   6   517812.50 2215.56
   5   6   516311.90 1300.98
   5  -6  -516185.60 1596.12
  -5   6  -515065.40 1513.71
   5  -6  -515299.30 1148.61
   5   6  -514991.70  864.23
   5  -6   517121.30 1373.19
   5   6  -518515.10 2117.97
   5   6   6 5595.59  758.38
   5   6   6 4902.26  615.62
   5  -6  -6 5202.45  784.96
   5  -6  -6 6363.23  834.02
  -5   6  -6 4016.62 1227.68
   5   6  -6 5720.23 1106.07
   5  -6   6 5945.78  648.69
   5   6   718476.80 1573.13
   5   6   721312.90 1917.80
   5  -6  -720384.20 1783.59
  -5   6  -720621.70 1944.67
   5  -6  -721021.50 1854.40
   5   6  -722060.90 1853.43
   5  -6   722960.20 2371.77
  -5   6  -8 1327.63  419.99
   5   6   8 1322.82  671.98
   5  -6  -8 1466.69  427.46
   5  -6  -8  883.31  366.45
   5   6   8 1091.32  345.98
   5   6  -8 1248.48  603.48
   5  -6   8  739.96  589.21
   5  -6  -9 8713.08  888.52
   5   6   9 7980.68 1324.78
   5   6   9 8507.54 1018.39
  -5   6  -9 6774.76 1518.20
   5  -6  -9 8993.03 1035.34
   5   6  -9 8509.01 1391.14
   5  -6   9 8800.13 1350.33
   5   6  10 2911.32 1210.91
  -5   6 -10 4121.68  809.01
   5  -6 -10 4872.35  617.69
   5  -6 -10 7318.79  861.61
   5   6  10 3058.44 1074.93
   5   6 -10 5052.36  704.94
   5  -6  10 6535.90 1154.62
   5   6  11 7181.29 1321.11
   5   6  11 6203.21  919.53
  -5   6 -11 6285.60  989.87
   5  -6 -11 6350.27  715.66
   5  -6 -1113052.50 1275.07
   5   6 -11 7954.81 1336.12
   5  -6  11 7492.75 1318.64
  -5   6 -12 9909.50 1312.90
   5   6  1211302.00 1891.43
   5   6  1210642.50 1205.14
   5   6 -1210538.30 1147.43
   5  -6  1211758.50 1690.16
   5   6  13 1081.95  651.31
   5   6  13 1054.65  424.60
  -5   6 -13  327.38  740.30
   5  -6  13  811.41  637.63
   5   6 -13  929.36  595.95
   5   6  1413205.50 2176.56
   5   6  1413881.80 2231.19
  -5   6 -1411845.40 2348.28
   5   6 -1415141.40 1465.30
   5  -6  1414411.00 2074.41
   5   6  15  756.92  684.47
   5   6  15 1403.26  426.19
  -5   6 -15 2015.81  743.42
   5  -6 -15 -114.79  326.23
   5   6 -15 1601.52  582.82
   5  -6  15 1409.79  640.86
  -5   6 -1611340.90 2211.00
   5   6  1611196.90 2111.17
   5   6  1611072.60 2041.57
   5   6 -1613099.80 1774.66
   5  -6  1610966.60 1891.17
   5   6  17 5620.13  942.34
   5   6  17 5847.93 1610.76
  -5   6 -17 4972.03 1625.03
   5   6 -17 6519.34 1261.33
   5  -6  17 6911.62  921.51
  -5   6  17 7115.70 1089.54
   5   6  18 2810.45  680.61
   5   6  18 2561.54  721.42
  -5   6 -18 3640.35 1204.41
   5   6 -18 3447.22  925.42
   5  -6  18 2392.43  639.92
   5   6  19 4292.98 1590.68
   5   6  19 4849.43 1656.79
  -5   6 -19 6634.13 1112.57
   5   6 -19 7457.53 1355.19
   5  -6  19 6938.36  962.71
   5   6  20  163.09  330.97
  -5   6 -20  272.26  356.93
   5   6  20   86.41  526.48
   5   6 -20  316.58  459.35
   5  -6  20  434.87  310.53
   5   6  21 3268.32 1433.27
   5   6  21 6788.57 1034.53
  -5   6 -21 2004.32 1617.92
   5  -6  21 6600.99 1497.54
   5   6  22   23.96  403.90
   5   6  22   22.74  440.69
  -5   6 -22  125.99  454.00
   5  -6  22   86.61  411.70
   5   6  23    4.92  683.38
   5   6  23 2685.25  606.83
  -5   6 -23 2535.79 1102.49
   5  -6  23  965.15 1019.70
   5   6  24  287.54  417.68
   5   6  24  789.91  809.03
  -5   6 -24  468.66  484.96
   5  -6  24 1053.05  754.65
   5   6  25 2571.07  780.54
  -5   6 -25 1368.82 1281.47
   5  -6  25 1899.97  721.68
   5   7   0 9629.48  931.42
   5   7   0 9741.43 1039.03
  -5   7   0 9273.42  938.89
   5  -7   0 8838.17  839.22
   5   7   114318.90 1327.95
   5   7   114946.60 1401.92
  -5   7  -112145.70 1236.98
   5  -7  -113423.20 1590.46
   5   7  -114016.70 1137.73
   5  -7   112617.30 1089.15
  -5   7   113481.60 1174.19
   5   7  -113603.50 1307.61
   5   7   214150.20 1393.26
   5   7   212236.60 1332.92
  -5   7  -213606.20 1322.02
   5  -7  -215423.10 1643.16
   5   7  -213483.10 1073.68
   5   7  -213662.40 1318.08
   5  -7   215156.40 1660.18
   5   7   313899.70 1476.69
   5   7   312611.00 1359.86
  -5   7  -313020.40 1868.07
   5  -7  -315039.90 1596.63
   5  -7  -315227.50 1615.29
   5   7  -315824.40 1986.74
   5   7  -313061.10  958.68
   5  -7   314957.30 1755.31
   5   7   4 9319.90 1064.19
   5   7   4 8954.06 1158.55
  -5   7  -4 8732.83 1553.77
   5  -7  -4 9735.45 1191.14
   5  -7  -4 9756.51  823.38
   5   7  -4 8349.31  613.91
   5   7  -410147.70 1600.26
   5  -7   411689.90 1459.01
   5   7   5 7128.53 1345.59
   5   7   5 7279.79 1022.85
  -5   7  -5 6389.12  883.43
   5  -7  -5 6507.50  591.16
   5  -7  -5 6189.25  647.13
   5   7  -5 5866.14  400.37
   5   7  -5 7624.48 1261.48
   5  -7   5 7254.46  769.03
   5   7   6 3642.14 1196.53
   5   7   6 2981.14  889.06
  -5   7  -6 1370.71 1156.28
   5  -7  -6 4608.73  471.17
   5  -7  -6 6315.03  847.77
   5   7  -6 5413.03  709.61
   5  -7   6 5930.46  666.80
   5   7   7 5065.53  802.17
   5   7   7 4693.99  663.18
  -5   7  -7 5048.83  841.17
   5  -7  -7 5813.16  780.04
   5  -7  -7 6426.81  921.33
   5   7  -7 6322.91  758.26
   5  -7   7 5792.39  709.80
   5   7   8 7753.98 1540.06
   5   7   8 6992.83  925.61
  -5   7  -8 9321.70 1641.23
   5  -7  -8 9163.76 1010.74
   5  -7  -8 9411.47 1117.09
   5   7  -8 9553.45 1523.33
   5  -7   810438.10 1009.20
   5   7   911249.20 1528.68
  -5   7  -9 7642.25 1732.33
   5  -7  -9 9923.67  996.18
   5   7   9 8494.80 1682.24
   5   7  -912147.90 1670.07
   5  -7   911626.00 1611.72
   5   7  10 4176.59 1042.48
   5   7  10 4686.07  746.29
  -5   7 -10 4287.77  761.64
   5  -7 -10 4128.66  746.77
   5   7 -10 5358.82  690.86
   5  -7  10 4090.43 1096.01
   5   7  1111980.20 1739.82
   5   7  1113008.70 1840.78
  -5   7 -1110562.00 1298.85
   5  -7 -11 7311.64 1318.41
   5   7 -1113599.80 1793.35
   5  -7  1112694.30 1734.35
   5   7  12 7686.38 1361.00
   5   7  12 6325.52  935.55
  -5   7 -12 5669.47  986.01
   5  -7 -1210284.00 1384.23
   5   7 -12 7400.00 1368.84
   5  -7  12 7241.53 1338.35
   5   7  13 9510.72 1640.68
  -5   7 -13 7728.31 1736.93
   5  -7 -13 9403.33 1532.43
   5   7  13 7326.81 1038.07
   5  -7  13 7850.25 1510.01
   5   7 -13 8917.17 1012.40
   5   7  14 7019.25 1025.65
   5   7  14 7941.53 1585.62
  -5   7 -14 6828.69 1666.11
   5   7 -14 8070.56 1436.66
   5  -7  14 8224.61 1450.92
   5   7  15 9734.53 1740.28
   5   7  15 8235.95 1101.48
  -5   7 -15 7572.67 1845.71
   5   7 -15 9826.22 1566.27
   5  -7  15 8126.70 1538.83
   5   7  16 5097.99 1514.92
   5   7  16 6374.60  952.09
  -5   7 -16 5684.43 1621.18
   5   7 -16 7173.41 1312.69
   5  -7  16 5279.58 1427.31
  -5   7  16 5806.53 1113.23
   5   7  17 4972.99  882.30
   5   7  17 3586.19 1268.55
  -5   7 -17 3686.95 1451.53
   5   7 -17 3874.85 1200.59
   5  -7  17 6034.77  829.20
  -5   7  17 3715.78 1022.14
   5   7  18 2087.50 1324.29
   5   7  18 2890.63 1215.39
  -5   7 -18 3892.07  874.51
   5   7 -18 4768.60  698.71
   5  -7  18 4625.85  755.58
  -5   7  18 2996.07  946.62
   5   7  19 3531.47 1392.49
   5   7  19  665.86 1213.99
  -5   7 -19 3272.63  873.30
   5   7 -19 4314.45 1187.49
   5  -7  19 5391.98  785.08
   5   7  20   71.85  507.47
   5   7  20  563.78  776.66
  -5   7 -20  839.18  538.91
   5   7 -20 1171.76  713.43
   5  -7  20 1702.40  455.60
   5   7  21  -29.54 1095.21
   5   7  21  620.74  980.14
  -5   7 -21 1390.99 1097.63
   5   7 -21 1518.58  532.15
   5  -7  21 3211.43  601.45
   5   7  22   24.76  539.59
   5   7  22  216.18  771.20
  -5   7 -22 1147.66  887.38
   5  -7  22 2804.52  814.68
   5   7  23  -41.62  690.85
   5   7  23 4221.89  967.10
  -5   7 -23 1701.22  707.85
   5  -7  23 2160.89 1019.44
   5   7  24  231.51 1180.27
  -5   7 -24 2267.66  739.23
   5  -7  24 1657.66 1091.03
   5   7  25 2246.84  755.76
  -5   7 -25  394.56 1254.49
   5  -7  25 1986.29 1136.74
   5   8   0 1638.19  658.40
  -5   8   0 1623.51  561.93
   5  -8   0  935.69  314.87
   5   8   0  786.53  339.33
   5   8   121362.00 1954.68
   5   8   123937.50 2813.02
  -5   8  -121653.90 2579.20
   5  -8  -124168.80 2442.50
   5   8  -122101.80 1779.04
   5   8  -122499.60 2716.90
   5  -8   121531.30 1761.30
  -5   8   122299.30 2443.72
   5   8   210542.20  864.96
   5   8   211561.60 1799.93
  -5   8  -210282.50 1669.13
   5  -8  -212156.10 1501.21
   5   8  -211421.90  945.12
   5   8  -212527.40 1831.61
   5  -8   213164.90 1095.39
  -5   8   2 9765.54  973.70
   5   8   311471.90 1384.82
   5   8   313425.60 1938.19
  -5   8  -313322.70 1317.79
   5  -8  -314006.40 1610.18
   5   8  -311892.70  927.68
   5   8  -313169.10 1890.27
   5  -8   313297.90 1610.70
   5   8   411780.50  988.85
   5   8   411475.30 1275.53
  -5   8  -413013.00 1812.18
   5  -8  -411482.60 1314.51
   5  -8  -410091.90  943.27
   5   8  -412084.30  778.45
   5   8  -412114.40 1761.08
   5  -8   412444.30 1600.30
   5   8   5 6560.07  840.72
   5   8   5 5044.12  948.85
  -5   8  -5 4590.59  749.92
   5  -8  -5 5395.68  817.07
   5  -8  -5 6188.03  640.58
   5   8  -5 5193.52  760.46
   5  -8   5 3512.40 1100.12
   5   8   617607.80 1976.89
  -5   8  -617106.00 2347.22
   5  -8  -618404.60 1689.91
   5  -8  -618076.70 1431.06
   5   8   619890.60 2471.46
   5   8  -618547.40 1708.34
   5  -8   616692.60 1495.82
   5   8   7  499.16  559.86
   5   8   7  632.71  468.19
  -5   8  -7  289.78  334.44
   5  -8  -7   91.74  307.60
   5  -8  -7  951.63  236.54
   5   8  -7  889.59  314.55
   5  -8   7  465.77  280.48
   5   8   810023.40 1168.97
   5   8   810145.50 1514.15
  -5   8  -811157.00 1818.43
   5  -8  -8 9519.20 1020.68
   5  -8  -810725.00  934.57
   5   8  -812721.10 1754.13
   5  -8   811499.30 1078.64
   5   8   9 1498.42  786.21
   5   8   9 1602.22  430.24
  -5   8  -9 1575.66  795.90
   5  -8  -9 1242.78  371.09
   5   8  -9 1906.36  738.03
   5  -8   9 1849.36  442.88
   5   8  10 6606.09  940.63
   5   8  10 8121.37 1376.38
  -5   8 -10 6212.17 1004.96
   5  -8 -10 9680.13 1361.14
   5   8 -10 7757.24  923.03
   5  -8  10 8124.41  899.23
   5   8  11 8807.33 1509.12
   5   8  11 8788.89 1489.85
  -5   8 -11 8105.04 1087.31
   5  -8 -11 1218.46 1175.30
   5   8 -11 9606.28 1003.62
   5  -8  11 8415.24 1436.41
   5   8  12  482.34  712.55
  -5   8 -12 1025.50  454.12
   5   8  12 1113.18  433.21
   5   8 -12 1725.13  712.70
   5  -8  12 1052.38  701.86
   5   8  1317162.20 2508.97
   5   8  1315780.60 2398.43
  -5   8 -1315474.10 1881.62
   5   8 -1319219.40 2514.13
   5  -8  1317207.30 2354.63
   5   8  14  374.01  496.04
   5   8  14  937.44  284.76
  -5   8 -14  128.12  548.01
   5  -8 -14 -377.27  269.77
   5   8 -14  363.03  269.49
   5  -8  14  160.03  472.58
   5   8  15 8802.38 1236.31
   5   8  15 8618.28 1209.13
  -5   8 -15 8910.46 1381.97
   5   8 -1511692.80 1800.48
   5  -8  1510954.90 1761.35
   5   8  16 2824.50  927.86
  -5   8 -16 2578.44  694.19
   5   8  16 2264.25  638.76
   5   8 -16 1766.26  930.09
   5  -8  16 3030.63  957.50
  -5   8  16 1802.59  835.25
   5   8  17 2381.45 1557.61
   5   8  17 4140.73 1392.07
  -5   8 -17 4474.08 1092.94
   5   8 -17 7897.08  922.82
   5  -8  17 4715.20 1431.12
  -5   8  17 6148.12  779.62
   5   8  18 5181.66 1555.94
   5   8  18 3981.05 1379.56
  -5   8 -18 4853.92 1023.88
   5   8 -18 7516.92 1347.86
   5  -8  18 6280.15  894.47
  -5   8  18 5127.05 1186.46
   5   8  19  390.81  365.24
   5   8  19   99.11  306.55
  -5   8 -19  153.16  371.25
   5   8 -19  143.33  501.46
   5  -8  19  626.24  327.11
  -5   8  19  345.95  260.42
   5   8  20 -278.65 1282.53
   5   8  20 3108.68  686.04
  -5   8 -20 3475.60 1350.76
   5   8 -20 2833.13  696.61
   5  -8  20 4141.08  733.95
   5   8  21 -113.70  552.01
   5   8  21 -134.02  274.07
  -5   8 -21  515.58  581.40
   5   8 -21   40.35  463.49
   5  -8  21  545.69  290.10
   5   8  22 4176.45  830.89
  -5   8 -22 2492.22  993.28
   5   8  22 5372.77  963.34
   5  -8  22 5167.97  890.35
   5   8  23 -198.29  625.97
  -5   8 -23  384.66  378.00
   5  -8  23  226.57  328.73
   5   8  24 2957.18 1327.19
  -5   8 -24 1681.99 1381.38
   5  -8  24 2517.92 1200.40
   5   9   020342.30 1755.30
   5   9   022244.30 1979.64
  -5   9   020567.50 2359.77
   5  -9   019219.80 1623.89
   5   9   113215.20 1296.67
  -5   9  -1 9895.55 1601.24
   5  -9  -112534.70 1087.86
   5   9   110663.90 1172.72
   5   9  -110846.70 1025.92
   5   9  -111826.30 1290.71
   5  -9   111978.70 1104.25
  -5   9   112241.40 1576.50
   5   9   217711.10 1699.55
   5   9   219292.70 1772.41
  -5   9  -217780.80 2199.58
   5  -9  -219010.20 2081.16
   5   9  -218940.80 1799.66
   5  -9   218380.50 2123.42
  -5   9   216428.60 1961.97
   5   9  -216430.80 1322.89
   5   9   3 4741.93 1213.75
   5   9   3 5230.46  571.35
  -5   9  -3 5586.59  776.54
   5  -9  -3 5501.02 1031.28
   5   9  -3 4763.27  499.41
   5   9  -3 6412.63  778.51
   5  -9   3 7297.64 1085.51
  -5   9   3 4816.71  912.75
   5   9   4 9968.63 1339.70
   5   9   412704.60 1846.21
  -5   9  -413104.40 1805.13
   5  -9  -412353.60 1539.97
   5   9  -411577.60 1228.47
   5   9  -410021.20  725.70
   5  -9   412733.60 1630.60
   5   9   510308.40  988.40
   5   9   511588.10 1846.25
  -5   9  -511469.20 1788.30
   5  -9  -5 9729.02  886.67
   5  -9  -512159.70 1556.39
   5   9  -5 9643.80 1144.36
   5  -9   512410.40 1662.06
   5   9   6 8883.13 1417.12
   5   9   610449.70 1247.12
  -5   9  -6 9921.09 1748.09
   5  -9  -6 9529.77 1151.72
   5  -9  -611724.30 1473.69
   5   9  -610336.80 1164.49
   5  -9   610117.10 1102.11
   5   9   712177.90 1904.12
   5   9   710551.20 1538.13
  -5   9  -7 9154.66 1292.64
   5  -9  -7 9369.39 1066.43
   5  -9  -712519.10 1517.09
   5  -9   710941.10 1125.07
   5   9  -713348.90 1844.04
   5   9   8 7851.09 1443.11
   5   9   8 6872.91  823.72
  -5   9  -8 8051.65 1551.79
   5  -9  -8 7161.06  831.73
   5  -9  -8 4151.62  675.14
   5   9  -8 7736.27 1424.72
   5  -9   8 8363.76  857.18
   5   9   9 6167.97  837.42
  -5   9  -9 6093.16 1490.54
   5  -9  -9 5873.77  973.82
   5  -9  -9 7634.07  873.12
   5   9   9 7098.33  970.91
   5   9  -9 5610.21 1389.21
   5  -9   9 8217.58  889.36
   5   9  10 9062.43 1554.22
   5   9  10 7928.49  976.60
  -5   9 -10 7383.70 1059.62
   5  -9 -10 5160.85 1331.17
   5   9 -10 8933.40 1026.82
   5  -9  10 8470.37 1469.02
   5   9  11 5604.42  868.50
  -5   9 -11 5434.17  983.44
   5  -9 -1116603.20 1717.06
   5   9  11 5841.82  931.50
   5   9 -11 8932.94 1024.04
   5  -9  11 6395.34 1381.36
   5   9  1210772.70 1834.38
   5   9  1210308.30 1221.17
  -5   9 -1210415.00 1326.86
   5  -9 -1210107.70 1864.47
   5   9 -1212182.30 1894.37
   5  -9  1210342.70 1744.13
   5   9  13 7892.56 1498.96
   5   9  13 7231.72 1001.86
  -5   9 -13 7196.62 1062.86
   5  -9 -13 6114.44  999.19
   5   9 -13 8392.55 1509.21
   5  -9  13 9044.81 1544.12
   5   9  14 7230.80  982.13
   5   9  14 8742.83 1570.08
  -5   9 -14 5389.86 1044.84
   5   9 -14 7998.40 1424.81
   5  -9  14 7823.09 1490.51
   5   9  15 2905.53 1181.45
  -5   9 -15 2354.41  749.57
   5   9  15 2583.59 1093.27
   5  -9  15 3120.79 1124.92
  -5   9  15 4038.24  628.19
   5   9 -15 4291.09  692.64
   5   9  1612362.60 2029.24
   5   9  1610621.80 2204.94
  -5   9 -1611041.30 1617.80
   5   9 -1612848.30 1414.24
   5  -9  1615362.30 2154.15
  -5   9  1613306.40 1929.56
   5   9  17 3004.28  649.45
   5   9  17 2509.15  735.34
  -5   9 -17 1701.17  759.03
   5   9 -17 4911.78 1109.62
   5  -9  17 3302.49 1089.33
  -5   9  17 3983.28  981.25
   5   9  18 3490.68  664.29
   5   9  18 3048.00  807.81
  -5   9 -18 1152.65 1305.95
   5   9 -18 3586.00 1171.62
   5  -9  18 3754.31 1167.18
  -5   9  18 1979.21  990.45
   5   9  19 3539.72  711.66
   5   9  19  -12.07 1383.50
  -5   9 -19    0.18 1386.48
   5   9 -19 2020.16 1267.28
   5  -9  19 4542.47 1258.55
  -5   9  19 5772.21  713.80
   5   9  20 3252.46  967.44
   5   9  20 2190.09 1158.32
  -5   9 -20 1703.32 1219.82
   5   9 -20 1297.06  634.26
   5  -9  20 3603.27 1036.62
   5   9  21 2690.20  977.27
   5   9  21 2063.11  728.41
  -5   9 -21 1481.67  768.54
   5   9 -21 1362.20 1065.34
   5  -9  21 3072.77  663.70
   5   9  22 1480.44  911.42
   5   9  22 2041.70  697.04
  -5   9 -22 1173.92  706.09
   5   9 -22  864.68 1013.01
   5  -9  22 2466.11  630.19
   5   9  23 1057.81 1012.95
  -5   9 -23  162.49 1056.87
   5  -9  23 1513.48  541.60
   5   9  24 2732.28  842.04
  -5   9 -24 1231.99 1382.89
   5  -9  24 2362.64  757.21
  -5  10   030765.80 2684.77
   5 -10   033249.40 3415.61
   5  10   035635.30 3957.69
   5  10   031081.00 2713.29
   5  10   1 1556.94  422.01
   5  10   1 1646.21  769.01
  -5  10  -1 1752.50  633.16
   5 -10  -1  878.63  409.71
   5  10  -1  701.76  346.49
   5  10  -1 1531.54  768.14
   5 -10   1 1313.68  712.76
  -5  10   1 1561.76  367.28
   5  10   219284.20 1982.59
   5  10   222472.10 2810.97
  -5  10  -221011.70 2553.79
   5 -10  -220035.50 1710.21
   5  10  -221653.60 2000.03
   5  10  -217805.70 1505.53
   5 -10   224003.60 2506.89
  -5  10   219465.10 2204.05
   5  10   3 5698.90  872.55
   5  10   3 6913.27  882.27
  -5  10  -3 5734.31  795.43
   5 -10  -3 5308.68  688.37
   5  10  -3 6391.81  838.30
   5  10  -3 4588.56  515.81
   5 -10   3 6083.08 1103.48
  -5  10   3 5423.91  962.15
   5  10   4 8710.73 1260.09
   5  10   4 9928.59 1188.73
  -5  10  -4 9762.56 1680.59
   5 -10  -410759.30 1017.21
   5  10  -410797.70 1183.15
   5 -10   4 9121.93 1516.81
  -5  10   4 9766.09  941.11
   5  10   511230.80 1530.44
   5  10   514144.90 1985.50
  -5  10  -512280.70 1364.23
   5 -10  -512754.60 1177.78
   5  10  -514279.90 1459.42
   5 -10   512081.90 1196.41
   5  10   6 1523.42  753.91
   5  10   6  823.46  603.72
  -5  10  -6 1207.23  740.99
   5 -10  -6 1534.71  475.22
   5 -10  -6 1769.28  392.59
   5  10  -6 2792.54  792.55
   5 -10   6 1323.09  430.89
   5  10   714260.20 1762.66
   5  10   713545.80 1512.36
  -5  10  -713878.90 1509.81
   5 -10  -713356.20 1392.05
   5 -10  -713264.10 1245.37
   5  10  -718242.40 2253.07
   5 -10   715418.50 1417.44
   5  10   8 1236.05  411.18
   5  10   8 1667.61  821.67
  -5  10  -8 1937.76  804.27
   5 -10  -8 1253.70  395.73
   5  10  -8 2813.57  805.14
   5 -10   8 1680.94  453.96
   5  10   915512.60 1483.32
   5  10   916249.20 2328.21
  -5  10  -915453.20 2387.31
   5 -10   915331.00 2160.57
   5  10  -917920.60 2417.48
   5  10  10 4905.60  814.38
   5  10  10 5741.42  811.22
  -5  10 -10 4551.25 1406.17
   5 -10 -10 5077.15  769.80
   5  10 -10 5311.57 1323.78
   5 -10  10 6617.47 1244.41
   5  10  11 4893.84 1636.44
   5  10  11 8209.69 1614.50
  -5  10 -11 6699.05 1740.72
   5 -10 -1115495.30 1417.68
   5  10 -11 8642.29 1145.55
   5 -10  11 7372.63 1602.98
   5  10  1213540.50 2031.33
   5  10  1212345.40 2048.02
  -5  10 -1212098.60 1584.28
   5 -10 -12 2649.18 1935.32
   5  10 -1215044.10 1530.78
   5 -10  1214976.90 2058.43
   5  10  13 1665.03  541.51
   5  10  13 2487.18  924.89
  -5  10 -13 2345.94  622.15
   5 -10 -13 1256.65  595.09
   5  10 -13 2572.65  528.20
   5 -10  13 1837.23  883.66
   5  10  1415000.30 2505.55
   5  10  1416786.60 1840.64
  -5  10 -1415475.60 1928.05
   5  10 -1418725.40 2553.95
   5 -10  1418030.20 2443.54
   5  10  15 1127.72  863.34
   5  10  15 2078.90  567.96
  -5  10 -15  865.57 1006.33
   5  10 -15 1593.25  892.78
   5 -10  15 2864.97  922.01
  -5  10  15 1941.58  515.11
   5  10  16 6425.63 1002.73
   5  10  16 7291.45 1107.82
  -5  10 -16 3466.14 1796.36
   5  10 -16 9998.81 1742.46
   5 -10  16 8434.82 1609.62
  -5  10  16 8605.95 1534.65
   5  10  17 1419.16  537.74
   5  10  17 1440.56 1019.35
  -5  10 -17 2192.95 1073.71
   5  10 -17 2045.44  946.92
   5 -10  17 1638.37  904.14
  -5  10  17 2727.71  848.08
   5  10  18 2363.27 1054.20
   5  10  18 1359.66 1201.39
  -5  10 -18  135.91 1253.29
   5  10 -18 3247.28  733.14
   5 -10  18 4270.41 1091.57
  -5  10  18 2776.80 1053.86
   5  10  19 5301.00 1435.32
   5  10  19 4523.53 1700.16
  -5  10 -19  -88.02 1731.79
   5  10 -19 6627.65  998.81
   5 -10  19 6496.93 1518.07
  -5  10  19 6811.27  913.58
   5  10  20  532.67  556.22
   5  10  20  439.75  407.79
  -5  10 -20    2.19  407.02
   5  10 -20  430.12  622.77
   5 -10  20  414.22  593.63
  -5  10  20  790.40  560.30
   5  10  21 3125.73 1098.85
   5  10  21 6148.95  864.33
  -5  10 -21 -335.74  844.20
   5  10 -21 2198.60 1242.27
   5 -10  21 2097.45 1180.39
   5  10  22  825.91  618.16
  -5  10 -22  -26.44  616.23
   5  10 -22  283.01  572.68
   5 -10  22 -156.89  534.25
   5  10  23 3180.19 1538.09
  -5  10 -23 2831.58 1585.12
   5 -10  23 3792.58 1347.00
   5  11   0 4425.31  695.66
   5  11   0 6068.69 1236.82
  -5  11   0 5994.03  710.79
   5 -11   0 5195.47 1118.07
   5  11   1 6058.84  900.26
  -5  11  -1 6620.75 1201.74
   5 -11  -1 6634.36 1236.90
   5  11   1 6673.63  856.98
   5  11  -1 6795.59 1365.62
   5  11  -1 6451.12  748.47
   5 -11   1 7169.73 1260.22
  -5  11   1 6481.31  748.85
   5  11   211117.20 1331.82
   5  11   211925.30 1352.57
  -5  11  -211143.80 1750.37
   5 -11  -213731.00 1757.44
   5  11  -212562.80 1975.69
   5  11  -212104.30 1063.22
   5 -11   211610.70 1190.77
  -5  11   211730.00 1139.35
   5  11   313289.60 1912.99
  -5  11  -310769.90 1213.84
   5 -11  -311407.00 1674.14
   5  11   3 9882.47 1309.50
   5  11  -312577.90 1930.12
   5 -11   311045.00 1128.12
  -5  11   310781.40 1463.72
   5  11   412106.00 1143.06
   5  11   411390.60 1976.44
  -5  11  -413936.90 2000.99
   5 -11  -415374.80 1916.28
   5  11  -416187.40 2198.38
   5 -11   413851.30 1296.50
  -5  11   412233.50 1509.85
   5  11   511364.10 1587.39
   5  11   512590.20 1395.02
  -5  11  -512846.50 1435.12
   5 -11  -514497.10 1868.07
   5 -11   512263.30 1231.65
  -5  11   510678.40 1445.45
   5  11  -514060.40 2107.27
   5  11   612809.90 1824.55
   5  11   613779.50 1498.19
  -5  11  -613209.00 2172.12
   5 -11  -613019.90 1140.02
   5 -11  -616052.90 2015.48
   5  11  -617883.70 2362.47
   5 -11   615154.80 1421.62
   5  11   7 9638.50 1604.29
   5  11   711725.70 1848.45
  -5  11  -710777.10 1957.97
   5 -11  -710062.70  878.94
   5 -11  -7 9149.20 1105.73
   5 -11  -713112.00 1742.59
   5  11  -713778.40 2050.73
   5 -11   711926.70 1796.17
   5  11   810481.10 1192.83
   5  11   810973.40 1287.62
  -5  11  -810479.10 1409.28
   5 -11  -8 7683.27 1778.44
   5  11  -814707.40 2074.49
   5 -11   814603.50 1962.38
   5  11   9 6273.28 1440.26
  -5  11  -9 5885.44  988.77
   5 -11  -9 4504.94 1355.90
   5  11   9 7040.98 1262.95
   5 -11   9 4823.70 1277.39
   5  11  -9 7435.33 1446.54
   5  11  10 3560.04 1155.97
   5  11  10 4878.84  809.60
  -5  11 -10 4300.11 1344.11
   5 -11 -1011049.80 1398.78
   5  11 -10 2227.74 1323.37
   5 -11  10 3387.72 1181.77
   5  11  11 7765.60 1503.19
   5  11  11 5242.78 1542.50
  -5  11 -11 8384.38 1711.41
   5 -11 -11 4101.98 1056.51
   5  11 -1110683.70 1642.17
   5 -11  11 9146.82 1499.71
   5  11  12 3790.28 1112.37
   5  11  12 2978.71  704.43
  -5  11 -12 3269.86 1220.48
   5 -11 -12 2436.51 1233.81
   5  11 -12 4686.46 1128.82
   5 -11  12 3357.72 1081.07
   5  11  13 3482.84 1010.00
   5  11  13 3438.78  965.89
  -5  11 -13  514.90 1088.93
   5 -11 -13  335.83  631.25
   5  11 -13 5282.47 1009.90
   5 -11  13 4030.38  992.53
   5  11  14 3094.38 1125.49
   5  11  14 4026.81 1192.53
  -5  11 -14 2950.34 1295.82
   5  11 -14 3283.22  720.99
   5 -11  14 4592.81 1142.95
   5  11  15 4119.04 1371.09
  -5  11 -15 2632.26 1448.44
   5  11  15 3290.72  750.18
   5  11 -15 4883.85  826.89
   5 -11  15 5062.69  781.39
  -5  11  15 4863.74  775.04
   5  11  16 4002.79 1375.15
   5  11  16 4983.67 1608.57
  -5  11 -16 3470.42 1652.23
   5  11 -16 7080.65  986.12
   5 -11  16 5974.45  927.04
  -5  11  16 5209.06 1392.45
   5  11  17 3039.17 1182.47
   5  11  17 4048.28 1370.44
  -5  11 -17   38.93  866.76
   5  11 -17 3336.15  813.82
   5 -11  17 5637.09  785.62
  -5  11  17 5550.62  790.68
   5  11  18 1614.00  829.49
   5  11  18 2106.24 1007.67
  -5  11 -18 -575.87  613.52
   5  11 -18 1892.98  966.38
   5 -11  18 2837.58  533.57
  -5  11  18  452.55  868.46
   5  11  19 1748.53  954.22
   5  11  19 2142.20  690.98
  -5  11 -19   10.43  721.70
   5  11 -19 1919.61 1094.54
   5 -11  19 2950.40 1019.91
  -5  11  19 3189.14  640.42
   5  11  20 2428.04 1205.49
   5  11  20 3108.57  897.88
  -5  11 -20 -215.05 1474.37
   5  11 -20 2256.04 1339.09
   5 -11  20 5912.46 1299.83
  -5  11  20 5673.16 1261.02
   5  11  21 1032.23  947.02
  -5  11 -21 -335.81  957.89
   5  11 -21   61.76  904.58
   5 -11  21 2806.32  845.18
   5  11  22 2723.90  885.07
  -5  11 -22    7.68  553.18
   5  11 -22 -168.89  522.65
   5 -11  22 2405.39  797.55
   5  11  23 2423.97  820.51
  -5  11 -23 2177.61  832.33
   5  11 -23 2259.41  765.29
   5 -11  23 1993.62 1173.86
   5  12   0  921.65  377.02
   5  12   0  458.52  326.25
  -5  12   0  487.29  292.65
   5 -12   0  967.88  333.43
   5  12   123925.40 1875.33
   5  12   127344.20 3341.50
  -5  12  -125369.10 2979.54
   5 -12  -125310.80 2241.45
   5  12  -126749.30 2522.45
   5  12  -123654.40 2121.95
   5 -12   124685.60 2140.58
  -5  12   124640.80 2177.72
   5  12   2 1415.72 1376.55
  -5  12  -2 5129.37 1217.37
   5 -12  -2 5833.42  774.14
   5  12   2 4825.54  876.44
   5  12  -2 6941.56 1370.59
   5  12  -2 4873.48  648.83
   5 -12   2 7518.35  843.77
  -5  12   2 4799.67  660.82
   5  12   3 9375.89 1271.15
   5  12   312030.20 1878.58
  -5  12  -3 8603.57 1109.75
   5 -12  -310226.20 1069.82
   5  12  -310236.50 1811.48
   5 -12   3 9375.14 1620.45
  -5  12   3 8735.80 1371.42
   5  12   4 6350.30  706.59
   5  12   4 7522.78  978.12
  -5  12  -4 5156.33 1330.20
   5 -12  -4 6130.33  819.11
   5  12  -4 6654.52 1477.91
   5 -12   4 8343.96 1377.60
  -5  12   4 5554.74  986.80
   5  12   5 8905.32 1370.51
   5  12   5 8013.52 1691.62
  -5  12  -5 9224.46 1177.93
   5 -12  -5 9304.72 1046.42
   5  12  -510217.90 1779.59
   5 -12   5 8706.95 1534.24
  -5  12   5 8204.01  840.83
   5  12   616759.50 2341.65
  -5  12  -615277.80 1681.54
   5 -12  -616979.50 1575.77
   5  12   614169.40 1884.13
   5  12  -618209.50 2513.17
   5 -12   614823.40 2062.72
  -5  12   613744.90 1563.28
   5  12   7  156.72  474.99
   5  12   7  275.44  329.67
  -5  12  -7  783.33  568.82
   5 -12   7  453.62  536.80
   5  12  -7 1528.17  605.98
   5  12   814529.90 1475.51
   5  12   814376.40 2244.95
  -5  12  -815632.90 2429.90
   5  12  -818554.00 2548.08
   5 -12   817440.90 2298.30
   5  12   9 2667.20 1015.43
   5  12   9 3521.74  694.47
  -5  12  -9 3580.53  738.76
   5  12  -9 5136.00 1250.34
   5 -12   9 3033.20  671.18
   5  12  1015762.50 2163.52
   5  12  1012948.30 2103.34
  -5  12 -1011793.70 1581.87
   5 -12 -1012672.90 2330.42
   5  12 -1015060.00 2348.44
   5 -12  1014873.30 1479.37
   5  12  11 7605.30 1076.65
   5  12  11 9561.21 1120.24
  -5  12 -11 7493.70 1193.08
   5 -12 -11 3719.50 1207.71
   5  12 -11 9660.35 1821.40
   5 -12  1110237.90 1086.01
   5  12  12 4623.58 1234.85
  -5  12 -12 4948.87  887.11
   5 -12 -12 2570.75 1525.60
   5  12  12 4963.89  827.60
   5  12 -12 4557.79 1345.02
   5 -12  12 4836.54  800.57
   5  12  13 7622.91 1122.07
   5  12  13 9319.21 1697.28
  -5  12 -13 6676.38 1177.81
   5  12 -13 8185.23 1733.69
   5 -12  13 8725.71 1096.82
   5  12  14  416.47  295.57
  -5  12 -14  352.07  337.60
   5 -12 -14   19.66  354.65
   5  12  14  -83.72  317.79
   5  12 -14  283.79  528.10
   5 -12  14  528.75  303.91
   5  12  15 7929.97 1244.19
   5  12  15 7755.03 1753.61
  -5  12 -15 7519.56 1278.07
   5  12 -1511150.60 1941.89
   5 -12  1510170.40 1208.12
  -5  12  15 8338.75 1165.81
   5  12  16 1017.51  803.70
  -5  12 -16  -49.34  547.04
   5  12  16 2165.98  544.28
   5  12 -16 1439.16  886.41
   5 -12  16 1798.13  496.88
  -5  12  16 1075.80  827.58
   5  12  17 4072.51  915.27
   5  12  17 2550.52 1238.55
  -5  12 -17  -63.28 1416.17
   5  12 -17 4208.88 1460.56
   5 -12  17 5190.16  822.47
  -5  12  17 4900.93  825.31
   5  12  18 3389.40  834.07
   5  12  18 1782.95 1113.12
  -5  12 -18 -219.01 1354.26
   5  12 -18 2553.30 1321.00
   5 -12  18 4717.56  746.08
  -5  12  18 3769.78 1207.66
   5  12  19 2048.44  726.03
   5  12  19 1398.78  577.81
  -5  12 -19 -123.44 1203.25
   5  12 -19 1494.36 1139.46
   5 -12  19 2864.60  619.22
  -5  12  19 3147.83 1068.59
   5  12  20 7295.09 2111.55
  -5  12 -20 6350.26 1285.80
   5  12 -20 7730.03 1245.58
   5 -12  20 9836.55 1211.38
  -5  12  20 7515.30 1182.13
   5  12  21 -100.76  433.28
  -5  12 -21    6.12  262.49
   5  12 -21   14.24  246.74
   5 -12  21  110.57  221.80
  -5  12  21   21.41  377.14
   5  12  22 4121.51 1880.30
  -5  12 -22   12.62 1914.56
   5  12 -22 7105.59 1157.36
   5 -12  22 6586.49 1044.00
   5  13   0 7656.88 1511.74
   5  13   0 6581.85  870.68
  -5  13   0 6148.00 1254.34
   5 -13   0 7787.39 1425.99
   5  13   111310.80 1391.52
  -5  13  -113069.00 1943.98
   5 -13  -115187.20 2073.52
   5  13   111813.60 2099.58
   5  13  -114431.30 1515.92
   5  13  -112109.40 1265.12
   5 -13   113655.80 1945.49
  -5  13   112575.50 1251.11
   5  13   2 8765.20  818.02
   5  13   2 9247.32 1151.66
  -5  13  -2 8300.00 1030.38
   5 -13  -2 8204.56 1579.06
   5 -13   2 9610.42 1586.08
  -5  13   2 8258.28  906.53
   5  13  -2 7878.31 1117.87
   5  13   311436.80 1339.42
  -5  13  -310752.20 1782.42
   5 -13  -312818.10 1786.86
   5  13   311392.60 1036.35
   5  13  -311034.30 1365.86
   5 -13   311058.30 1217.01
  -5  13   3 9573.82 1422.70
   5  13   4 6014.97  666.26
   5  13   4 2589.86 1362.47
  -5  13  -4 5345.39  796.40
   5 -13  -4 4516.95 1238.56
   5  13  -4 5694.19 1398.82
   5 -13   4 4840.15  779.74
  -5  13   4 5252.54  968.24
   5  13   511214.10 1357.41
  -5  13  -510000.70 1849.95
   5 -13  -512406.00 1296.27
   5  13   5 9634.50 1537.93
   5  13  -511978.70 2075.12
   5 -13   511555.30 1233.67
  -5  13   510032.50 1334.92
   5  13   6 4231.99 1106.54
   5  13   6 4629.92 1358.03
  -5  13  -6 4470.87  850.76
   5 -13  -6 5569.36  798.15
   5  13  -6 6934.69 1430.45
   5 -13   6 6301.83  801.74
  -5  13   6 4327.96  820.83
   5  13   7 9853.85 1830.21
  -5  13  -7 9314.51 1272.83
   5 -13  -7 7472.34 1686.43
   5  13   7 9513.34 1085.67
   5  13  -712142.90 2110.89
   5 -13   710938.80 1171.94
   5  13   8 6943.17 1438.80
   5  13   8 6676.92  998.77
  -5  13  -8 5642.70 1625.25
   5 -13  -810665.60 1207.74
   5  13  -8 6364.37 1755.45
   5 -13   8 7929.70 1026.26
   5  13   9 9491.47 1807.58
   5  13   910679.60 1854.42
  -5  13  -910280.60 2094.98
   5 -13  -9 6643.38 2032.39
   5  13  -912510.20 1444.21
   5 -13   911580.50 1235.34
   5  13  10 7604.02 1004.47
   5  13  10 6909.65  960.41
  -5  13 -10 7435.79 1646.80
   5 -13 -10 2918.61 1703.39
   5 -13  10 7645.61 1537.91
   5  13 -10 6701.99 1103.88
   5  13  11 2963.64 1245.35
  -5  13 -11 4019.10 1432.27
   5 -13 -11 9306.27 1225.27
   5  13  11 3354.34 1300.83
   5  13 -11 5444.13  896.41
   5 -13  11 3008.17 1289.95
   5  13  1212050.20 2046.17
   5  13  1211957.30 1963.47
  -5  13 -1212010.50 2265.71
   5 -13 -12 1127.47 2361.44
   5  13 -1215216.90 1587.66
   5 -13  1212786.90 2048.10
   5  13  13 3233.52  692.12
  -5  13 -13 3688.34 1286.87
   5 -13 -13  243.28  814.16
   5  13  13 4546.30 1219.45
   5  13 -13 5026.98  772.28
   5 -13  13 4882.63 1189.55
   5  13  14 6715.65 1365.36
   5  13  14 2431.47 1171.63
  -5  13 -14 5270.02 1428.85
   5 -13 -14  173.62  845.13
   5  13 -14 6321.40  879.06
   5 -13  14 5396.96 1287.76
   5  13  15 5443.15 1462.06
   5  13  15  669.85 1220.18
  -5  13 -15 1790.71 1495.81
   5  13 -15 4831.72  933.05
   5 -13  15 4728.15 1361.32
  -5  13  15 7287.27  920.79
   5  13  16  792.44  880.39
   5  13  16  702.70  720.36
  -5  13 -16 1369.24  916.11
   5  13 -16 1230.28  520.18
   5 -13  16  903.18  797.35
  -5  13  16 1360.07  850.15
   5  13  17 3176.23 1234.34
   5  13  17 1095.79  585.73
  -5  13 -17 -145.24 1214.23
   5  13 -17 3176.71  780.64
   5 -13  17 2148.49 1128.64
  -5  13  17 4611.90  737.46
   5  13  18 2458.56 1028.84
   5  13  18 1203.68  478.58
  -5  13 -18   53.05  604.75
   5  13 -18 2537.62  617.89
   5 -13  18  643.06  921.28
  -5  13  18 2183.73  947.84
   5  13  19  459.70  831.73
  -5  13 -19 -466.48  675.57
   5  13  19 1725.95 1121.44
   5  13 -19 2769.95  680.23
   5 -13  19 2559.94  958.72
  -5  13  19 2761.86 1021.82
   5  13  20 1105.96  952.75
  -5  13 -20 -312.61  969.50
   5  13 -20    0.08  573.98
   5 -13  20 1595.16  844.24
  -5  13  20 2014.65  551.30
   5  13  21 3069.73 1053.65
  -5  13 -21 -220.14 1038.44
   5  13 -21   22.21 1039.66
   5 -13  21 2409.77  912.99
  -5  13  21  -11.13  949.30
   5  14   010206.50 1775.64
   5  14   0 6904.64  996.99
  -5  14   0 7642.92 1438.62
   5 -14   0 9936.21 1657.07
   5  14   1 1561.51  542.77
  -5  14  -1 1359.74  484.69
   5 -14  -1 1930.33  867.85
   5  14   1 1626.01  520.71
   5  14  -1 1968.50  926.40
   5 -14   1 2350.12  857.88
  -5  14   1 1975.86  684.86
   5  14   214424.80 1333.82
   5  14   215665.00 1831.60
  -5  14  -215444.00 2243.88
   5 -14  -218141.10 2419.25
   5  14  -218260.20 1898.40
   5 -14   216799.10 2345.53
  -5  14   216817.60 2092.60
   5  14   310946.90 2030.20
   5  14   310858.40 1527.94
  -5  14  -311283.80 1884.02
   5 -14  -311467.00 1947.88
   5  14  -312650.80 1466.20
   5 -14   312309.70 1993.41
  -5  14   310647.30 1533.97
   5  14   4 7992.64 1140.22
   5  14   4 7980.70  879.92
  -5  14  -4 8562.24 1620.42
   5 -14  -4 8563.33 1586.88
   5  14  -4 8012.61 1784.29
   5 -14   4 8758.15 1618.64
  -5  14   4 7971.60 1231.79
   5  14   511624.10 2005.88
  -5  14  -512184.30 1404.36
   5 -14  -513488.50 1968.92
   5  14   510073.00 1123.03
   5  14  -514066.70 2284.20
   5 -14   514092.30 1980.21
  -5  14   510491.70 1448.94
   5  14   6 1806.78  770.50
   5  14   6 1795.33  942.04
  -5  14  -6 1899.85  942.99
   5 -14  -6 3406.14  576.47
   5  14  -6 3474.53 1060.08
   5 -14   6 2123.39  887.85
  -5  14   6 1472.69  585.39
   5  14   7 9312.57 1203.59
  -5  14  -7 9734.21 1824.01
   5  14   7 8723.43 1521.47
   5  14  -7 9846.28 1981.87
   5 -14   7 9515.21 1654.72
   5  14   8  469.55  558.90
   5  14   8  191.88  519.30
  -5  14  -8  284.75  343.12
   5  14  -8  855.45  365.10
   5 -14   8  321.74  549.52
   5  14   913737.20 1436.81
   5  14   913560.40 2256.49
  -5  14  -913789.40 1704.09
   5 -14  -9 4715.90 2271.70
   5  14  -917605.10 1852.49
   5 -14   916891.60 2271.81
   5  14  10 4257.71 1266.50
   5  14  10 5125.42 1316.50
  -5  14 -10 3906.58  882.01
   5 -14 -10 1932.03 1524.04
   5  14 -10 6519.79  929.37
   5 -14  10 5756.04 1335.37
   5  14  11 2962.87 1066.78
  -5  14 -11 3205.31  756.89
   5 -14 -11 1280.09  939.73
   5  14  11 3741.15 1119.85
   5 -14  11 4752.30 1142.61
   5  14 -11 3306.22  762.74
   5  14  12 5272.42  937.66
   5  14  12 6965.27  916.39
  -5  14 -12 4357.11 1051.06
   5 -14 -12   98.78 1827.18
   5  14 -12 7208.72 1045.35
   5 -14  12 6065.40  905.95
   5  14  13  191.22  573.16
  -5  14 -13 1285.89  442.81
   5 -14 -13  100.94  477.33
   5  14  13  442.13  410.79
   5  14 -13  473.94  697.12
   5 -14  13  479.38  378.15
   5  14  14 3816.41 1321.07
   5  14  14 1390.35 1106.30
  -5  14 -14 3440.06  838.05
   5 -14 -14  785.32  868.01
   5  14 -14 4196.38 1375.41
   5 -14  14 5685.93  797.38
   5  14  15  542.62  727.94
   5  14  15  110.86  376.00
  -5  14 -15  737.73  455.07
   5  14 -15  535.75  757.63
   5 -14  15  884.51  408.91
  -5  14  15 1073.09  447.99
   5  14  16 -140.51 1582.34
   5  14  16 4544.87  817.25
  -5  14 -16 4137.21  995.22
   5  14 -16 7168.72 1693.89
   5 -14  16 6986.56  952.46
  -5  14  16 6050.79 1573.36
   5  14  17   -9.54 1286.00
   5  14  17  642.73 1001.82
  -5  14 -17  -38.72 1294.13
   5  14 -17 3150.47 1304.98
   5 -14  17 5068.41  713.46
  -5  14  17 3736.10 1262.73
   5  14  18  -41.81 1198.34
   5  14  18  494.32  923.83
  -5  14 -18 -175.47 1202.64
   5  14 -18 1992.26 1258.15
   5 -14  18 3265.85  657.26
  -5  14  18 3071.96  702.29
  -5  14 -19 -476.74  977.01
   5  14  19 -107.38  941.95
   5  14 -19 4262.22  977.95
  -5  14  19    6.02  919.64
   5  14  20  272.19  373.56
  -5  14 -20   54.76  368.59
   5  14 -20  187.07  657.94
   5 -14  20  346.34  323.21
  -5  14  20    1.61  591.41
   5  14  21 5254.32 1114.35
  -5  14 -21   59.99 1114.32
   5  14 -21  115.70 1794.92
   5 -14  21 6208.17  973.56
  -5  14  21 7022.77 1050.91
  -5  15   0 6848.52  934.43
   5 -15   0 9043.16 1062.07
   5  15   0 8139.07 1177.97
   5  15   115432.70 1657.15
   5  15   113610.70 1185.68
  -5  15  -112690.10 1990.80
   5 -15  -115683.50 1568.41
   5 -15   114726.00 1512.92
  -5  15   112360.10 1930.25
   5  15  -114381.60 2421.87
   5  15   2 1330.57 1531.43
   5  15   2 6612.82 1114.69
  -5  15  -2 5761.03 1318.00
   5 -15  -2 6914.88  926.00
   5  15  -2 7605.47 1602.95
   5 -15   2 7554.57  951.31
  -5  15   2 6725.84 1192.67
   5  15   3 6524.47  981.43
   5  15   3 6011.45 1075.13
  -5  15  -3 5626.72  879.27
   5 -15  -3 5647.45 1469.78
   5  15  -3 6473.73  989.55
   5 -15   3 6681.37  909.97
  -5  15   3 4940.90 1066.75
   5  15   4 7880.92 1720.45
   5  15   4 7600.01 1363.76
  -5  15  -4 8494.73 1639.65
   5 -15  -4 9284.29 1690.49
   5  15  -4 8082.30 1234.63
   5 -15   4 8620.39 1094.28
  -5  15   4 7940.80 1225.91
   5  15   5 8199.01 1699.41
   5  15   5 5827.97 1337.65
  -5  15  -5 9109.68 1685.05
   5 -15  -5 8141.59 1661.93
   5  15  -5 8424.52 1865.43
   5 -15   5 9361.70 1107.85
  -5  15   5 7333.91  855.64
   5  15   6 8595.40 1166.92
   5  15   6 7824.29 1021.20
  -5  15  -6 9575.91 1278.24
   5 -15  -6 3946.57 1707.83
   5 -15  -611011.40 1222.96
   5  15  -6 9978.08 1982.85
   5 -15   610295.90 1138.47
   5  15   7 4114.55 1355.33
   5  15   7 4407.14 1218.61
  -5  15  -7 5144.95  924.01
   5 -15  -710329.00 1556.16
   5  15  -7 6226.12  982.95
   5 -15   7 4640.78  794.92
   5  15   8 6299.54  993.67
   5  15   8 7385.42  942.99
  -5  15  -8 6695.46 1635.03
   5 -15  -8 2333.09 1039.18
   5  15  -8 7357.60 1182.43
   5 -15   8 8309.75  976.40
   5  15   9 2857.50 1169.02
   5  15   9 2282.42 1125.39
  -5  15  -9 3464.79 1303.70
   5 -15  -9 9814.89 1568.62
   5 -15   9 4589.81  767.86
   5  15  -9 3338.17  814.15
   5  15  10 7287.40 1019.39
   5  15  10 8716.95 1608.14
  -5  15 -10 1872.94 1651.16
   5 -15 -10 1583.98 1961.18
   5  15 -10 6245.87 1760.01
   5 -15  10 8670.76 1072.34
   5  15  1110001.70 1954.91
   5  15  1111679.00 1377.88
  -5  15 -11 9736.11 2155.39
   5  15 -1111369.60 2201.55
   5 -15  1111193.00 2047.81
   5  15  12 1374.23  777.02
  -5  15 -12 1377.58  874.33
   5 -15 -12  695.12 1161.29
   5  15  12  876.36  819.10
   5  15 -12 1198.02  896.10
   5 -15  12 1338.06  825.88
   5  15  13 5467.13 1382.11
   5  15  13 2847.88 1301.17
  -5  15 -13 2565.66 1498.25
   5 -15 -13  -51.13  972.76
   5  15 -13 8938.71 1500.90
   5 -15  13 9145.97 1374.42
   5  15  14 1267.81  514.60
   5  15  14 1862.06  568.90
  -5  15 -14 1634.64  993.52
   5 -15 -14  121.31  681.53
   5  15 -14 2418.23 1023.17
   5 -15  14 2092.08  914.61
   5  15  15 5766.80  986.92
   5  15  15 2230.43 1372.63
  -5  15 -15 4066.41 1699.71
   5  15 -15 6894.75 1114.48
   5 -15  15 7536.99 1590.90
   5  15  16  -31.40  537.43
   5  15  16  454.07  759.85
  -5  15 -16 1687.30  958.30
   5  15 -16 1460.87  585.43
   5 -15  16 1447.49  867.48
  -5  15  16 1931.04  560.26
   5  15  17   -7.93  645.83
   5  15  17  503.38  857.79
  -5  15 -17 2357.79  682.28
   5  15 -17 3137.64  710.92
   5 -15  17 3473.96 1024.94
  -5  15  17   -3.55 1096.53
   5  15  18  -49.04  548.87
  -5  15 -18 -175.27  569.61
   5  15 -18 2448.54  586.75
   5 -15  18 3265.18  835.50
  -5  15  18  -15.16  556.89
   5  15  19 -149.73  474.68
  -5  15 -19   45.97  806.66
   5  15 -19 1524.88  506.65
   5 -15  19  753.79  717.34
  -5  15  19  -42.09  794.79
   5  15  20  -58.41  568.35
  -5  15 -20   35.59  967.35
   5  15 -20 1743.49  621.84
   5 -15  20 2387.81  863.91
  -5  15  20  -37.17  955.29
  -5  16   0 1634.55  613.35
   5 -16   0  366.30  435.46
   5  16   0 1349.09  477.91
   5  16   1 9451.95 1778.46
  -5  16  -1 6703.38 1470.90
   5 -16  -1 7436.55 1066.09
   5  16  -1 7941.06 1831.41
   5 -16   1 8117.96 1074.81
  -5  16   1 6899.40  931.04
   5  16   2 1986.34  740.88
  -5  16  -2 2398.21  594.44
   5 -16  -2 2236.53  637.73
   5  16   2 2313.30 1106.74
   5  16  -2 1832.44 1157.80
   5 -16   2 3095.29  638.64
  -5  16   2 3461.45  521.08
   5  16   311694.60 1715.46
   5  16   311864.60 1616.72
  -5  16  -312189.60 2055.74
   5 -16  -313439.90 1492.30
   5 -16   312999.80 2125.27
  -5  16   311291.50 1714.88
   5  16  -313456.50 1694.20
   5  16   4 4943.28 1205.46
   5  16   4 5103.19 1525.99
  -5  16  -4 6202.34 1437.92
   5 -16  -4 6123.91 1566.64
   5  16  -4 7690.51 1106.45
   5 -16   4 5940.67 1496.83
  -5  16   4 6149.77  764.41
   5  16   5 2861.21  707.72
   5  16   5 2740.46  933.66
  -5  16  -5 4334.98  703.51
   5 -16  -5 3078.92 1179.28
   5  16  -5 3697.69 1262.30
   5 -16   5 3121.35 1136.33
   5  16   610451.10 1833.08
   5  16   6 9418.18 1572.41
  -5  16  -611103.10 1834.66
   5 -16  -6  -68.51 1582.12
   5 -16  -6 9690.84 1167.66
   5  16  -610039.30 1969.64
   5 -16   6 9403.29 1638.27
   5  16   7 -154.19  220.23
   5  16   7  131.80  195.01
  -5  16  -7   92.74  374.42
   5 -16   7  165.40  356.49
   5  16  -7  171.07  247.09
   5  16   810480.20 1770.66
  -5  16  -8 9615.75 1942.03
   5  16   8 8276.09 1846.01
   5  16  -810046.20 1382.38
   5 -16   8 9921.99 1869.25
   5  16   9 2658.41  635.46
   5  16   9 2279.16  600.26
  -5  16  -9 1926.59  659.08
   5 -16  -9 1052.90 1332.81
   5  16  -9 3498.10 1158.19
   5 -16   9 3488.03 1067.96
   5  16  10 3357.12 1129.55
   5  16  10 4260.89 1185.57
  -5  16 -10 3424.81  769.19
   5 -16 -10  676.22 1402.74
   5  16 -10 2608.91 1314.51
   5 -16  10 3806.49  756.76
   5  16  11  672.45  989.61
   5  16  11 3167.44 1020.06
  -5  16 -11 2606.09  669.03
   5 -16 -11 1359.78  925.95
   5 -16  11 2203.55  614.82
   5  16 -11 3221.29 1133.10
   5  16  12 3190.17  747.91
  -5  16 -12 2700.43  778.35
   5 -16 -12  621.79 1633.17
   5  16  12 1973.36  663.40
   5  16 -12 4086.43  807.97
   5 -16  12 3510.48  705.42
   5  16  13 8183.19 1186.38
   5  16  1310427.60 2089.87
  -5  16 -13 9196.29 1380.99
   5 -16 -13 4412.63 1478.42
   5  16 -1312934.40 1609.43
   5 -16  1310598.80 1327.20
   5  16  14  323.24  490.98
   5  16  14   42.67  570.89
  -5  16 -14  122.35  364.26
   5 -16 -14 1094.52  447.58
   5  16 -14   -6.30  362.08
   5 -16  14  167.37  321.78
   5  16  15 -178.77  962.57
   5  16  15  259.31  854.95
  -5  16 -15 4982.83 1001.85
   5 -16 -15  108.73  673.53
   5  16  16 -101.15 1080.03
   5  16  16 1153.52  904.08
  -5  16 -16 1883.45 1125.49
   5  16 -16 2175.76 1202.26
   5 -16  16 1815.75  613.52
  -5  16  16 2449.97  710.45
   5  16  17  -86.76  834.60
  -5  16 -17 3321.69 1406.51
   5  16 -17 3141.97 1495.53
   5 -16  17 5891.70  792.01
  -5  16  17  -51.62 1424.77
   5  16  18  -77.69  709.73
  -5  16 -18 2833.01  759.68
   5  16 -18 2643.02 1287.60
   5 -16  18 3128.83  681.33
  -5  16  18  -24.82 1214.05
   5  16  19 -202.35  405.19
  -5  16 -19 -295.02  417.70
   5  16 -19  987.84  726.98
   5 -16  19 1010.75  362.14
  -5  16  19   12.20  419.32
  -5  17   0 5154.78 1150.47
   5 -17   0 5182.52  863.96
   5  17   0 5034.19  936.00
   5  17   1 4242.46 1333.41
  -5  17  -1 4352.44 1097.64
   5 -17  -1 5003.90  792.22
   5  17  -1 3658.57  810.85
   5 -17   1 4779.18 1241.86
  -5  17   1 1083.14  975.64
   5  17   2 7693.20 1156.17
  -5  17  -2 6640.33 1426.01
   5 -17  -2 7298.73 1024.33
   5  17  -2 3517.14 1788.51
   5 -17   2 8351.66 1614.16
  -5  17   2 6528.20 1252.54
   5  17   3 1090.14 1140.10
   5  17   3 2076.22  514.44
  -5  17  -3 2778.51 1002.61
   5 -17  -3 3117.14  664.95
   5  17  -3 3504.20  769.74
   5 -17   3 4649.29 1104.02
  -5  17   3 2811.28  815.18
   5  17   4 4374.99  670.51
  -5  17  -4 3161.63  750.00
   5 -17  -4 3684.07 1372.32
   5  17   4 5023.20  873.73
   5  17  -4 6771.29  991.79
   5 -17   4 4902.05 1369.72
   5  17   5 3977.41 1548.47
   5  17   5 6128.80  827.83
  -5  17  -5 5815.97 1489.85
   5 -17  -5 6210.77 1532.90
   5  17  -5 5714.42 1688.07
   5 -17   5 6333.69 1529.77
   5  17   6 3973.04 1153.68
  -5  17  -6 3839.28 1296.32
   5 -17  -6 3550.75 1453.44
   5 -17  -6 6095.50  875.01
   5  17   6 3368.39  864.07
   5  17  -6 4158.86 1478.87
   5 -17   6 4981.42 1357.70
   5  17   7  375.70 1185.88
   5  17   7 3664.34 1080.79
  -5  17  -7 3716.95  738.61
   5 -17  -7 1273.28 1287.00
   5  17  -7 3606.21  808.93
   5 -17   7 4291.05 1160.43
   5  17   8 3352.92  632.73
  -5  17  -8 3238.13  685.93
   5 -17  -8 2081.50  903.57
   5  17   8 2213.42  645.20
   5 -17   8 1951.05 1026.45
   5  17  -8 -163.26 1164.76
   5  17   9 4520.51 1364.91
   5  17   9 3867.59 1368.49
  -5  17  -9 6141.24  991.94
   5 -17  -9 -112.56 1587.78
   5  17  -9 4410.16 1593.56
   5 -17   9 8016.56 1459.17
   5  17  10 5729.13  938.29
  -5  17 -10 4975.50  941.25
   5  17  10 3841.36 1414.97
   5  17 -10 6254.37 1649.99
   5 -17  10 6568.54 1514.45
   5  17  11 1375.99  541.10
   5  17  11 1282.05  949.14
  -5  17 -11 1197.85 1016.63
   5 -17 -11 1538.61 1345.10
   5  17 -11 2972.63  658.61
   5 -17  11 1102.11  972.81
   5  17  12 3551.12 1266.29
   5  17  12 5125.03 1428.71
  -5  17 -12 3812.26 1446.20
   5 -17 -12-1316.68 1060.23
   5 -17  12 6313.42 1423.39
   5  17 -12 7619.72 1010.84
   5  17  13  461.44  994.13
   5  17  13 2291.24  682.02
  -5  17 -13 2139.98  708.62
   5 -17 -13 3758.06 1509.18
   5  17 -13 3599.46 1227.55
   5 -17  13 1667.53 1066.16
   5  17  14 3899.40  832.49
  -5  17 -14 3362.90  833.93
   5 -17 -14  903.34  989.06
   5  17  14 3341.59 1127.36
   5  17 -14 4020.17 1475.20
   5 -17  14 2047.92 1237.78
   5  17  15  395.05  395.37
   5  17  15 1499.41  799.66
  -5  17 -15  897.64  495.20
   5 -17 -15 -139.61  619.79
   5  17 -15 1863.52  892.96
   5 -17  15  369.78  768.91
   5  17  16 3108.00 1340.99
  -5  17 -16 3104.96  833.33
   5 -17 -16  477.39  974.55
   5  17 -16 3573.49  874.97
   5 -17  16 2149.36 1241.44
   5  17  17  322.21 1038.49
  -5  17 -17  979.00 1054.38
   5  17 -17 1137.60  676.14
   5 -17  17  977.62  933.96
  -5  17  17 1878.22  655.93
   5  18   010590.20 2216.20
  -5  18   0 8529.62 1690.76
   5 -18   011497.50 2003.51
   5  18   1 1629.19  914.21
  -5  18  -1  642.34  690.81
   5 -18  -1 1208.74  503.11
   5 -18   1 1559.64  854.86
  -5  18   1 1436.40  406.14
   5  18  -1  941.34  535.50
   5  18   2 3921.35  958.41
  -5  18  -2 5294.44 1354.76
   5 -18  -2 6927.04  975.56
   5  18  -2 5874.09 1694.02
   5 -18   2 4433.67 1466.00
  -5  18   2 6009.73  795.92
   5  18   3 3622.43 1211.84
  -5  18  -3 3064.88  669.84
   5 -18  -3 3347.37  763.02
   5  18  -3 3538.43  845.92
   5 -18   3 1652.09 1134.05
   5  18   4 2762.18  988.23
  -5  18  -4 2540.19 1165.97
   5 -18  -4 3669.10 1275.34
   5  18   4 3705.87  829.14
   5  18  -4 4383.24  867.11
   5 -18   4 3832.98 1234.51
   5  18   510806.30 2127.81
   5  18   510634.20 1806.07
  -5  18  -5 8784.32 1997.08
   5 -18  -511799.00 2126.95
   5  18  -513290.80 2389.42
   5 -18   511602.70 2031.39
   5  18   6  815.73  672.88
   5  18   6  226.94  337.49
  -5  18  -6  991.45  389.09
   5 -18  -6  310.80  412.00
   5  18  -6  954.89  439.13
   5 -18   6  483.91  396.81
   5  18   7 8209.22 1236.90
   5  18   7 9870.61 1147.31
  -5  18  -7 7128.64 1201.58
   5  18  -7 7540.18 1235.43
   5 -18   7 9115.95 1160.26
   5  18   8  229.51  638.67
   5  18   8  532.45  599.99
  -5  18  -8  962.22  671.47
   5 -18  -8  314.89  804.27
   5  18  -8  571.28  720.28
   5 -18   8  520.75  370.42
   5  18   9 5724.02  919.75
   5  18   9 5023.25  892.07
  -5  18  -9  -23.39 1489.02
   5 -18  -9  -87.35 1672.97
   5 -18   9 7220.92  961.77
   5  18  -9 7242.47 1699.04
   5  18  10 1090.94  824.97
  -5  18 -10   60.89  875.78
   5 -18 -10 1635.06  630.54
   5  18  10 1014.85  794.85
   5  18 -10 1075.96  556.89
   5 -18  10 1292.82  510.03
   5  18  11  825.02 1031.38
   5  18  11 2253.24  689.99
  -5  18 -11 1107.89 1189.74
   5 -18 -11 1263.95 1351.77
   5  18 -11 3544.02  783.28
   5 -18  11 3368.72  710.28
   5  18  12 8897.37 1170.68
   5  18  12 6714.14 1850.54
  -5  18 -12 4942.86 1899.78
   5 -18 -12 3203.36 1504.10
   5  18 -12 8514.32 2088.50
   5 -18  12 9854.75 1256.55
   5  18  13  285.36  373.01
   5  18  13  -27.00  714.99
  -5  18 -13 -179.07  735.85
   5 -18 -13 1937.60  999.89
   5  18 -13  817.06  771.85
   5 -18  13  731.36  404.51
   5  18  14 6263.34 1250.77
   5  18  14 3999.78 1663.02
  -5  18 -14 5711.19 1982.44
   5 -18 -14 3802.72 2432.17
   5  18 -14 7522.21 1408.95
   5 -18  14 9892.71 1225.61
   5  18  15  331.22  351.74
  -5  18 -15   17.56  585.45
   5 -18 -15  -97.04  451.22
   5  18 -15  -35.93  373.86
   5 -18  15  350.40  318.25
   5  18  16 3242.60  865.62
  -5  18 -16 1704.75  846.09
   5  18 -16 3700.66 1534.55
   5 -18  16 3077.54  785.69
   5  19   0 1371.21 1065.67
  -5  19   0 1720.05  489.03
   5 -19   0 2651.41 1024.60
   5  19   1   87.67  647.57
  -5  19  -1 1943.22  882.42
   5 -19  -1 2605.67  632.94
   5 -19   1 3777.26 1077.39
  -5  19   1 2256.22  832.28
   5  19  -1 3479.99  752.57
   5  19   2   -6.56  985.37
  -5  19  -2 1474.20  497.20
   5 -19  -2 2384.34  579.20
   5  19  -2 1531.18 1015.90
   5 -19   2 1524.83  931.57
   5  19   3 3436.36  934.33
  -5  19  -3 3971.03 1296.95
   5 -19  -3 4024.21 1468.70
   5  19  -3 6130.98 1000.74
   5 -19   3 5431.44 1426.98
  -5  19  -4 2028.47 1038.58
   5 -19  -4 1759.38 1138.80
   5  19   4 1202.44 1125.22
   5  19  -4 2924.84  735.11
   5 -19   4 2964.46  674.36
   5  19   5 6365.90  940.76
   5  19   5 3039.20  740.70
  -5  19  -5 4162.30  875.49
   5 -19  -5 2979.63 1486.41
   5 -19   5 5725.71  893.24
   5  19  -5 4748.00 1585.68
   5  19   6 6038.95 1752.84
   5  19   6 5041.12 1554.15
  -5  19  -6 6205.14 1760.04
   5 -19  -6 8225.35 1208.85
   5  19  -6 6294.42 1208.22
   5 -19   6 9369.59 1172.94
   5  19   7 4110.72  806.31
   5  19   7 3904.90 1159.83
  -5  19  -7   20.14 1274.27
   5 -19  -7 1543.09  777.00
   5  19  -7 3480.77 1406.36
   5 -19   7 5392.33  794.48
   5  19   8 1893.93 1054.81
   5  19   8 2120.68  623.10
  -5  19  -8 1169.49 1079.02
   5 -19  -8  881.32 1285.23
   5  19  -8 1936.88 1183.37
   5 -19   8 2798.15  633.54
   5  19   9  739.50 1066.80
   5  19   9 1495.72 1072.14
  -5  19  -9 1553.40 1143.92
   5 -19  -9  642.86  781.78
   5 -19   9 3104.78  680.15
   5  19  -9 4617.57  776.04
   5  19  10 1889.68  699.03
   5  19  10 2711.91  713.24
  -5  19 -10 1616.39 1227.60
   5 -19 -10 1431.83 1427.20
   5  19 -10 3377.99  850.94
   5 -19  10 3625.78  738.16
   5  19  11 1443.40  631.60
   5  19  11  614.95 1127.99
  -5  19 -11 1615.31 1206.23
   5 -19 -11 5401.09 1451.46
   5  19 -11 2477.23 1295.38
   5 -19  11 3374.17  686.49
   5  19  12 2001.24  624.24
  -5  19 -12 1129.80 1093.38
   5 -19 -12 1868.17 1517.45
   5  19  12 -257.65  931.88
   5  19 -12 2415.66 1167.22
   5 -19  12 2212.26  622.76
   5  19  13  -59.59 1295.41
   5  19  13 4602.50 1490.11
  -5  19 -13 3488.16 1580.17
   5 -19 -13 1915.39 1202.71
   5  19 -13 6172.26 1079.92
   5 -19  13 5277.21  896.44
   5  19  14  560.39 1182.63
  -5  19 -14  222.09 1192.07
   5  19 -14 2437.16 1300.01
   5 -19  14 2650.08  639.28
   5  20   0  163.35  586.40
  -5  20   0  330.44  260.50
   5 -20   0 -164.79  543.91
   5  20   1 7287.64 1147.28
  -5  20  -1 5846.92 1490.17
   5 -20  -1 7045.79 1090.68
   5  20  -1 5704.02 1165.95
   5 -20   1 5465.73 1701.97
   5  20   2   53.22 1167.09
  -5  20  -2 2564.06  626.73
   5 -20  -2 2414.65  696.31
   5  20  -2 3001.15 1180.03
   5 -20   2 2038.69 1137.44
   5  20   3 7827.68 1283.33
  -5  20  -3 8924.12 1837.58
   5 -20  -310368.80 2036.81
   5  20  -3 9059.49 1408.75
   5 -20   3 8693.67 1926.91
   5  20   4 -127.48 1563.89
  -5  20  -4 5197.91  951.52
   5 -20  -4 5357.84 1654.32
   5 -20   4 6380.38  995.22
   5  20  -4 6472.15 1643.71
  -5  20  -5 2514.11  683.28
   5 -20  -5 2707.88  715.40
   5  20   5  135.09 1173.43
   5  20  -5 2292.88 1193.42
   5 -20   5 3200.16  704.26
   5  20   6 8327.22 1306.38
   5  20   610741.40 1855.76
  -5  20  -6 -312.85 1918.33
   5 -20  -613241.30 2198.56
   5  20  -611962.20 1588.03
   5 -20   611144.30 1346.98
   5  20   7  596.89  712.27
   5  20   7  951.76  398.12
  -5  20  -7  438.76  730.78
   5 -20  -7  539.70  479.74
   5 -20  -7  506.17  774.74
   5  20  -7  712.51  809.81
   5 -20   7  453.89  405.66
   5  20   8 5270.43  962.45
   5  20   8 5284.55 1482.09
  -5  20  -8 4703.04 1666.70
   5 -20  -8 3684.18 1660.30
   5  20  -8 5559.46 1730.97
   5 -20   8 6749.23 1516.48
   5  20   9 -130.11  560.12
   5  20   9  -23.62  945.94
  -5  20  -9 1631.18  987.04
   5 -20  -9 1825.26  729.90
   5  20  -9 3365.52  681.86
   5 -20   9 2320.64  971.19
   5  20  10 -197.48 1051.54
   5  20  10   21.73 1091.47
  -5  20 -10 2639.39  715.06
   5 -20 -10  137.45 1311.72
   5  20 -10 3586.84 1274.39
   5 -20  10 4171.75 1118.19
   5  20  11 -142.41 1123.74
   5  20  11  -12.77 1028.10
  -5  20 -11 1693.50  728.73
   5 -20 -11 2889.40  841.00
   5  20 -11 4777.49 1282.90
   5 -20  11 3340.90 1155.21
   5  20  12  -61.07  386.44
   5  20  12  515.34  747.46
  -5  20 -12  604.42  468.88
   5  20 -12 1111.83  517.02
   5 -20  12  891.05  741.09
   5  21   0 -191.23 1292.49
   5 -21   0 4223.78  785.31
   5  21   1   50.16  590.28
  -5  21  -1 1613.85  820.86
   5 -21  -1 2037.25  584.70
   5  21  -1 2021.79  598.00
   5 -21   1 1417.52  963.85
   5  21   2   66.70 1496.65
  -5  21  -2 3544.92 1271.07
   5 -21  -2 5559.86  908.01
   5  21  -2 3378.60 1449.57
   5 -21   2 3479.94 1471.53
   5  21   3   48.12 1200.07
  -5  21  -3 2400.75 1071.54
   5 -21  -3 2270.47 1229.52
   5  21  -3 2641.55  768.90
   5 -21   3 3403.13 1155.07
   5  21   4 -275.24  814.90
  -5  21  -4 -226.78  738.25
   5 -21  -4 5084.89 1356.11
   5  21  -4 6589.35 1446.71
   5 -21   4 7487.20  860.86
   5  21   5    6.30 1801.72
  -5  21  -5  -55.71 1628.98
   5 -21  -5 8615.00 1186.19
   5  21  -5 6324.76 1941.37
   5 -21   5 9619.73 1173.95
   5  21   6 -224.10  875.85
  -5  21  -6 1053.01 1397.90
   5 -21  -6 3425.19 1546.76
   5  21  -6 6632.44 1008.53
   5 -21   6 6525.20  931.04
   5  21   7 2857.41 1385.31
   5  21   7 2724.92 1312.99
  -5  21  -7 2045.81 1390.03
   5 -21  -7 -446.91 1490.13
   5 -21  -7 6659.44  971.58
   5  21  -7 3796.83 1548.52
   5 -21   7 4506.34 1342.86
   5  21   8 -158.85  893.80
   5  21   8  -28.43  863.58
  -5  21  -8 1941.08  554.71
   5 -21  -8 -734.95  560.60
   5  21  -8 2634.97  631.61
   5 -21   8 2325.48  884.01
   5  21   9   74.07  584.55
   5  21   9 -101.09  592.18
  -5  21  -9 2346.33  637.11
   5 -21  -9 2004.62 1203.88
   5  21  -9 3998.09 1144.21
   5 -21   9 2483.07  975.34
   5  21  10  -59.03  606.82
   5  21  10   66.06 1035.21
  -5  21 -10 2440.31  683.96
   5  21 -10 4878.23 1201.35
   5 -21  10 2302.41 1056.51
   5  22   0 -183.65 1967.49
   5 -22   010468.70 1308.14
   5  22   1 -585.36  678.85
   5 -22  -1  835.65  406.73
   5  22  -1 -129.89  399.22
   5 -22   1 1028.49  656.84
   5  22   2 -142.66 1696.75
  -5  22  -2 5148.83 1562.23
   5 -22  -2 5964.07 1743.33
   5  22  -2 5816.01 1861.71
   5 -22   210435.70 1792.45
   5  22   3 -553.70 1421.55
  -5  22  -3    9.72 1209.51
   5 -22  -3 3718.65 1389.39
   5  22  -3 5389.41  979.12
   5 -22   3 5534.50 1361.08
   5  22   4  -35.79  817.24
  -5  22  -4  -89.89  723.80
   5 -22  -4 6286.29  875.53
   5  22  -4 4134.32 1443.50
   5 -22   4 4434.41  804.17
   5  22   5   85.13 1526.23
  -5  22  -5   30.36 1418.45
   5 -22  -5 3656.28 1565.03
   5  22  -5 6746.16 1085.48
   5 -22   5 5832.55  962.45
   5  22   6  464.17  857.50
  -5  22  -6  331.02  841.86
   5 -22  -6 1205.49  913.95
   5  22  -6  406.41  975.37
   5 -22   6 1252.43  518.78
   5  22   7 6439.63 1199.72
  -5  22  -7 4551.75 1834.63
   5 -22  -7 9308.93 1330.06
   5  22  -7 6767.60 2132.23
   5 -22   7 6375.58 1783.38
   6   0   065972.60 5110.31
   6   0   078452.40 7638.36
   6   0   1  278.57  281.53
   6   0   1  628.31  475.27
   6   0  -1  116.97  257.48
   6   0  -1  338.10  260.10
   6   0  -240556.00 3460.96
   6   0   238804.20 3429.52
   6   0   242755.70 3697.87
   6   0  -240599.50 3222.80
   6   0   3  174.06  181.29
   6   0   3   45.14  275.34
   6   0  -3  941.64  400.81
   6   0  -3  290.96  130.34
   6   0   423740.00 2189.91
   6   0   420625.10 1619.75
   6   0  -422364.80 1716.11
   6   0  -422294.00 2578.31
   6   0   5  604.38  388.75
   6   0   5  419.39  536.77
   6   0  -5  358.69  225.13
   6   0  -5  644.00  274.03
   6   0   6 5501.87  991.20
   6   0   6 5969.92 1328.51
   6   0  -6 5834.61  584.87
   6   0  -6 5091.72 1091.84
   6   0   7 1866.40  380.54
   6   0   7  787.38  486.52
   6   0  -7 1491.12  309.60
   6   0  -7 1622.33  380.56
   6   0   8  570.92  465.47
   6   0   8  110.50  603.21
   6   0  -8  639.79  196.03
   6   0  -8  532.71  440.42
   6   0   9 1407.62  564.61
   6   0   9 2179.47  453.64
   6   0  -9 2383.98  671.91
   6   0  10 9654.94 1069.66
   6   0 -1012043.10 1085.00
   6   0  1011016.50 2016.93
   6   0  11 3611.91 1033.91
   6   0  11 3418.35 1238.82
   6   0 -11 3494.18  809.65
   6   0  1218905.60 1754.83
   6   0  1219928.30 2161.66
   6   0 -1218978.80 2111.63
   6   0  13    7.81  231.56
   6   0  13  240.22  466.55
   6   0 -13  321.57  289.37
   6   0  1436978.30 4287.00
   6   0 -1439335.10 3858.27
   6   0  1441218.50 5239.41
   6   0  15 -188.32  641.64
   6   0  15  483.33  317.68
   6   0  1619581.50 2354.42
   6   0  1620216.00 2797.65
   6   0  17  467.64  505.10
   6   0  17 1604.40  724.20
   6   0  1811225.50 1408.52
   6   0  1811681.00 1652.38
   6   0  19  162.49  336.51
   6   0  20 -124.24  330.68
   6   0  21 -213.69  383.83
   6   0  21  602.20  341.59
   6   0  22  -92.71  280.09
   6   0  22   25.50  425.98
   6   0  23   16.20  926.15
   6   0  23  930.18  496.51
   6   0  24   30.10 1022.92
   6   0  24 1179.75  574.53
   6   1   0 5990.38  797.40
   6  -1   0 8610.87 1378.87
   6   1   0 4885.61  785.09
   6  -1   0 6157.40  883.33
   6   1   1 6016.66  808.24
   6   1   1 5304.67  784.14
   6  -1  -1 4960.95  528.97
   6  -1  -1 6670.56 1243.24
   6  -1   1 7613.53  920.82
   6   1  -1 5110.37  470.48
   6   1  -1 5845.89 1192.27
   6  -1   1 6518.49 1260.76
   6   1   2 9339.42 1178.04
   6   1   210375.80 1834.29
   6  -1  -211138.30 1108.22
   6  -1  -212264.20 1701.25
   6   1  -210898.90 1005.57
   6  -1   210990.00 1785.36
   6  -1   210701.80 1305.49
   6   1  -211988.50 1754.94
   6  -1  -313965.70 1302.98
   6   1   315644.10 2144.53
   6  -1  -313704.20 1238.53
   6   1   313886.00 1457.05
   6   1  -312790.40 1096.20
   6   1  -313315.10 1906.74
   6  -1   315339.20 2102.76
   6  -1   312882.20 1076.50
   6   1   410978.60  913.83
   6   1   411709.10 1926.86
   6  -1  -411132.10 1600.07
   6   1  -410140.60  878.90
   6   1  -411618.20 1132.61
   6  -1   411295.10  965.54
   6  -1   412362.30 1865.28
   6   1   5 8050.04 1079.46
   6   1   5 7530.16 1132.34
   6  -1  -5 8585.56  826.02
   6  -1  -5 8125.53 1303.18
   6  -1   5 8742.35 1210.82
   6   1  -5 8076.51  694.05
   6   1  -5 8858.61 1389.11
   6  -1   5 8621.10 1023.02
   6   1   616091.00 1672.00
   6   1   614479.20 1236.54
   6  -1  -614436.30 1319.72
   6  -1  -614809.40 1198.06
   6   1  -616025.70 1993.59
   6  -1   614257.80 1713.01
   6  -1   616001.30 2321.78
   6   1  -614097.00 1048.57
   6   1   712769.20 1631.21
   6  -1  -712643.10 1052.62
   6  -1  -715043.30 1787.04
   6   1   713904.30 2142.36
   6   1  -713143.20  929.17
   6   1  -713702.90 1248.42
   6  -1   712383.40 1173.07
   6  -1   713456.10 2168.47
   6   1   819513.10 2120.49
   6   1   817150.00 1863.85
   6  -1  -820346.50 2138.54
   6  -1  -817460.70 1351.09
   6   1  -819338.80 2214.68
   6  -1   816573.00 1514.98
   6  -1   819689.00 2737.73
   6   1   910508.00 1080.40
   6   1   913782.10 2098.94
   6  -1  -911154.90 1045.89
   6  -1   913880.20 1681.56
   6   1  -911820.50 1609.40
   6  -1   911040.50 2019.08
   6   1  10 7654.32 1348.61
   6   1  10 7835.42 1099.26
   6  -1 -10 7842.03  811.42
   6   1 -10 7683.47  869.65
   6  -1  1011147.90 1829.92
   6  -1  10 7892.64 1400.93
   6   1  1113463.30 1345.63
   6   1  1112217.30 2276.94
   6  -1 -1114614.10 1730.65
   6   1 -1113881.30 1778.66
   6  -1  1115383.70 1724.72
   6  -1  1113391.80 1370.56
   6   1  12 5855.47 1558.32
   6   1  12 6688.26 1335.52
   6  -1 -12 6427.89  981.74
   6   1 -12 5730.09 1037.61
   6  -1  12 5141.31 1643.85
   6  -1  12 6299.41 1304.27
   6   1  13 1658.66  616.80
   6   1  13 2485.43  523.14
   6  -1 -13 1989.55  581.33
   6  -1  13 2120.98 1076.52
   6   1 -13 1882.46  393.17
   6  -1  13 1836.31  857.31
   6   1  14  978.58  534.35
   6   1  14 1898.87  465.45
   6  -1 -14 1001.66  487.14
   6   1 -14 1276.35  336.76
   6  -1  14 1065.65  945.82
   6  -1  14 1405.05  450.18
   6   1  15 2122.85  969.49
   6   1  15 1888.04  843.25
   6   1 -15 1317.13  595.39
   6  -1  15 1501.60  611.84
   6   1  16 2759.03  625.16
   6   1  16 2888.99 1183.04
   6  -1  16 1844.70  726.42
   6   1  17 2090.22 1326.45
   6   1  17 3908.71 1206.10
   6  -1  17 2743.46  865.27
   6  -1  17 4380.28  731.81
   6   1  18 2507.69  636.05
   6   1  18 1703.80 1177.42
   6  -1  18 3183.67  652.09
   6  -1  18 1690.77  751.07
   6   1  19 3767.37 1394.90
   6  -1  19 3065.54  942.84
   6   1  20 4306.92 1401.25
   6  -1  20 -126.76  889.71
   6  -1  20 5220.78  790.40
   6   1  21 6734.32 1072.02
   6   1  21  -28.95 1789.28
   6  -1  21 6616.37 1196.57
   6  -1  21 6328.15 1048.62
   6   1  22   40.01  637.54
   6   1  22  -98.18  662.64
   6  -1  22  -83.96  424.96
   6  -1  22 1334.63  613.14
   6   1  23  -65.78  328.88
   6   1  23 -110.18  577.42
   6  -1  23 -200.05  373.62
   6   1  24 1798.45 1200.28
   6   1  24 1783.62 1261.96
   6  -1  24 -101.25 1333.20
   6  -1  24 2407.59  729.54
   6   2   0 1979.13  527.67
   6  -2   0 3109.22  644.14
   6  -2   0 2967.26  548.41
   6   2   0 3943.45  930.22
   6   2   134639.30 2912.91
   6   2   134693.70 3909.39
   6  -2  -136005.10 3077.01
   6  -2  -139938.20 3305.44
   6   2  -139565.80 4118.79
   6  -2   138692.60 3324.33
   6  -2   138321.20 3323.05
   6   2  -134787.20 2754.86
   6   2   2  338.21  190.79
   6   2   2  293.90  528.57
   6  -2  -2  362.27  183.65
   6  -2  -2 1165.70  487.25
   6   2  -2  375.39  241.63
   6   2  -2  605.04  301.05
   6  -2   2  209.33  370.86
   6  -2   2  982.14  316.45
   6   2   323654.70 2182.57
   6  -2  -326080.00 2793.16
   6   2   324818.70 2306.57
   6  -2  -321788.40 1545.50
   6   2  -323714.10 1761.11
   6   2  -324847.30 2184.47
   6  -2   326054.40 2301.04
   6  -2   324779.10 2368.10
   6   2   4 1518.03  296.48
   6   2   4 1589.62  468.32
   6  -2  -4 1129.67  385.47
   6  -2  -4 1278.44  361.61
   6   2  -4 1253.35  279.82
   6   2  -4 1811.05  681.37
   6  -2   4 1316.44  340.74
   6  -2   4 1423.92  754.76
   6   2   5 7183.82 1025.51
   6   2   5 8255.92 1499.18
   6  -2  -5 8833.55 1185.06
   6  -2  -5 5863.92  741.98
   6   2  -5 6255.86  564.55
   6  -2   5 6418.23  704.84
   6  -2   5 7665.55 1459.27
   6   2  -5 8261.22 1340.82
   6   2   6 3709.55  497.74
   6   2   6 3678.09 1111.29
   6  -2  -6 3325.84  514.11
   6  -2  -6 2854.27  804.57
   6   2  -6 3583.32  362.57
   6   2  -6 3097.02  564.97
   6  -2   6 3410.92  814.64
   6  -2   6 2954.86  675.33
   6   2   7  259.94  394.49
   6  -2  -7  473.96  231.28
   6  -2  -7  779.86  381.92
   6   2   7  226.08  311.07
   6  -2   7  116.71  409.51
   6   2  -7  413.20  433.43
   6  -2   7  180.11  554.58
   6   2   8 3010.80 1078.27
   6   2   8 2824.99  498.93
   6  -2  -8 3295.48  469.56
   6  -2  -8 3513.95  474.29
   6   2  -8 2708.81  515.06
   6  -2   8 2878.65  856.80
   6  -2   8 2519.80  678.26
   6  -2  -9 2816.34  434.78
   6   2   9 2987.48  671.05
   6   2   9 3231.08  854.48
   6  -2  -9 3095.73  425.95
   6   2  -9 3026.90  825.15
   6  -2   9 2428.47  510.26
   6  -2   9 1030.83 1106.62
   6   2  10 4167.47  658.66
   6   2  10 3417.23 1240.48
   6  -2 -10 3640.24  796.10
   6   2 -10 4361.75  582.94
   6  -2  10 4091.30  655.92
   6  -2  10 2179.06  781.32
   6   2  1118221.80 2332.79
   6   2  1118619.90 1966.61
   6  -2 -1117484.60 1917.90
   6  -2  1116683.80 2294.55
   6   2 -1118660.80 2164.15
   6  -2  1118799.90 2120.62
   6   2  12 1099.82  407.35
   6   2  12 1700.15  825.87
   6  -2 -12 1537.36  452.14
   6   2 -12 1317.01  332.91
   6  -2  12  959.00  673.51
   6  -2  12  167.88  487.89
   6   2  1327316.00 3169.87
   6   2  1327884.80 3661.02
  -6   2 -1324981.70 2757.39
   6  -2 -1323212.10 1868.73
   6   2 -1328397.90 2916.98
   6  -2  1326868.40 2377.57
   6   2  14  429.17  302.49
   6   2  14  -78.02  348.46
  -6   2 -14  995.73  360.59
   6   2 -14   91.29  393.36
   6  -2  14  305.95  299.36
   6   2  1524410.20 2599.92
  -6   2 -1522032.60 2593.68
   6   2  1523624.20 3133.65
   6   2 -1525680.60 2781.93
   6   2  16  894.52  602.88
   6   2  16  656.59  654.68
  -6   2 -16  129.57  683.38
   6   2 -16  408.80  260.66
   6   2  1714489.60 1681.22
   6   2  1712687.40 2580.38
  -6   2 -1715821.80 2784.92
   6  -2  1717210.30 1691.27
   6   2  18 1117.40  825.26
   6   2  18  977.45  886.90
  -6   2 -18  561.33  928.63
   6  -2  18 1583.02  814.62
   6   2  19  997.54  736.42
  -6   2 -19 1900.61  779.17
   6   2  19   -3.57  416.50
   6   2  20    5.77  667.60
   6   2  20  825.08  699.90
  -6   2 -20  491.89  734.06
   6  -2  20  470.47  384.13
   6   2  21  132.56  336.68
   6   2  21 -123.16  581.61
  -6   2 -21  -32.19  609.07
   6  -2  21  417.14  312.63
   6   2  22 -101.73  787.91
   6   2  22   73.50  799.23
  -6   2 -22 1031.22  499.49
   6   2  23   62.13  582.37
   6   2  23 2285.14  986.30
  -6   2 -23 1462.75  614.43
   6  -2  23 1328.55  557.23
   6   2  24   21.08  394.52
   6   2  24  105.69  386.44
   6  -2  24  764.56  397.28
   6  -2  24   82.98  423.83
   6   3   0  471.16  296.80
   6  -3   0  846.97  485.68
   6   3   0  411.42  165.58
   6  -3   0  444.90  210.34
   6   3   1 5088.25  804.41
   6   3   1 6345.12  803.89
   6  -3  -1 6861.18 1233.75
   6  -3  -1 6280.96  588.31
   6   3  -1 6397.05  709.12
   6   3  -1 6244.30  827.08
   6  -3   1 7304.63 1013.26
   6  -3   1 7140.97 1279.59
   6   3   2 5575.77  808.50
   6   3   2 5945.25  837.84
   6  -3  -2 5953.05  571.84
   6  -3  -2 6380.40  789.69
   6   3  -2 6128.57  652.30
   6   3  -2 5767.26  819.72
   6  -3   2 6663.12 1291.85
   6  -3   2 6586.03 1008.50
   6   3   310621.30 1768.06
   6  -3  -310330.80  790.48
   6  -3  -311270.80 1077.79
   6   3   3 9742.58  821.53
   6   3  -3 9233.82  822.87
   6  -3   310092.80 1350.83
   6  -3   310185.60 1720.55
   6   3  -311686.50 1704.52
   6   3   4 7416.16 1013.87
   6   3   4 8501.78 1511.10
   6  -3  -4 6723.86  580.55
   6  -3  -4 7392.61 1225.29
   6  -3   4 6789.92 1139.60
   6   3  -4 6736.39  619.93
   6   3  -4 7118.41 1433.72
   6  -3   4 8597.07  993.51
   6  -3  -5 9741.20  729.81
   6   3   510942.20 1296.48
   6   3   510483.50 1777.58
   6  -3  -5 8995.24  927.46
   6   3  -5 9513.99  708.31
   6  -3   510708.60 1410.73
   6  -3   511558.60 1870.10
   6   3  -5 9618.90 1076.30
   6   3   610178.30  943.80
   6   3   6 9944.67 1234.82
   6  -3  -6 9930.89  729.29
   6  -3  -610890.40 1410.99
   6   3  -610057.40 1095.98
   6  -3   610761.50 1964.76
   6  -3   6 9596.86  988.88
   6   3   723250.70 2941.55
   6  -3  -719558.70 1591.94
   6  -3  -719259.10 1262.06
   6   3   718383.50 2145.57
   6   3  -722105.20 2567.14
   6  -3   719279.30 1673.20
   6  -3   722158.60 2177.19
   6   3   8 9390.88  973.31
   6   3   810534.80 1248.44
   6  -3  -810180.30  921.12
   6  -3  -8 8886.88  658.41
   6  -3   8 8697.26  948.08
   6   3  -810894.50 1076.91
   6  -3   810342.40 1277.89
   6  -3  -913388.70 1502.65
   6   3   914382.90 2183.77
   6   3   912507.10 1747.37
  -6   3  -913372.60 1507.97
   6  -3  -911671.90  825.61
   6   3  -913928.50 1825.10
   6  -3   911427.40 1756.74
   6   3  1012962.60 1507.75
   6   3  1010951.30 1145.15
  -6   3 -1013354.40 1501.53
   6  -3 -1012053.70 1385.04
   6  -3 -1011013.70 1062.17
   6   3 -1013172.80 1224.16
   6  -3  1011955.50 1787.95
   6   3  11 8344.19 1780.07
  -6   3 -11 8602.39 1785.99
   6   3  11 7764.94 1437.19
   6  -3 -11 6847.84 1012.94
   6   3 -11 8997.73 1359.41
   6  -3  11 7368.35  927.03
   6   3  12 8379.32 1107.86
   6   3  12 7400.62 1396.88
  -6   3 -12 5313.87 1052.22
   6  -3 -12 5582.20  625.27
   6   3 -12 8485.75  891.62
   6  -3  12 8218.69  934.87
   6   3  13 1556.21 1040.70
   6   3  13 2586.41  568.22
  -6   3 -13 2383.33  639.74
   6   3 -13 1042.08  741.84
   6  -3  13 2462.17  540.04
   6   3  14 2015.67 1041.35
   6   3  14 2266.48  941.07
  -6   3 -14 2291.45  656.84
   6   3 -14 2002.65  447.81
   6  -3  14 2579.47  902.50
  -6   3 -15  238.11  706.36
   6   3  15  673.68  357.04
   6   3  15 -217.98  665.40
   6   3 -15  791.42  468.11
   6  -3  15  532.51  604.36
   6   3  16 1560.05  775.48
   6   3  16  821.84  504.19
  -6   3 -16 1001.59  893.98
   6   3 -16  342.10  599.72
   6  -3  16 1557.01  451.08
   6   3  17 4936.19  896.04
   6   3  17 3039.33  952.88
  -6   3 -17 4493.85 1595.57
   6  -3  17 5786.89  859.75
   6   3  18 6552.02 1734.70
   6   3  18 7080.59 1156.64
  -6   3 -18 5929.02 1938.19
   6  -3  18 6958.96 1645.69
   6   3  19 6547.40 1078.89
  -6   3 -19 5961.35 1783.02
   6   3  19 5815.73 1085.43
   6  -3  19 4571.13 1531.33
   6   3  20   33.26 1708.80
   6   3  20 8003.13 1192.15
  -6   3 -20 5797.47 1849.25
   6  -3  20 6469.88 1024.42
   6   3  21 6487.90 1232.65
   6   3  21 7488.89 1289.15
  -6   3 -21 7538.14 2117.30
   6  -3  21 9499.04 1294.15
   6   3  22   32.22 1525.79
   6   3  22 6161.51  968.92
  -6   3 -22 2892.99  976.96
   6   3  23  -63.89 1605.51
   6   3  23 5057.73  979.17
  -6   3 -23 3816.21 1038.70
   6  -3  23 4839.94 1511.04
   6   3  24  -16.72  814.01
   6   3  24 2727.07  808.58
  -6   3 -24 3171.63 1451.61
   6  -3  24 3923.46  788.21
   6   4   025487.80 3090.34
   6   4   024366.90 1681.98
   6  -4   026983.30 2293.18
   6  -4   026002.70 1898.61
   6   4   1  392.09  160.97
   6  -4  -1  174.14  427.84
   6  -4  -1  336.33  340.04
   6   4  -1  346.29  139.48
   6  -4   1  641.26  214.05
   6  -4   1  108.13  277.85
   6   4  -1   43.16  494.72
   6   4   219490.00 1742.72
   6  -4  -218286.10 2218.12
   6  -4  -217593.20 1766.16
   6   4   219851.00 2513.86
   6  -4   216982.00 1425.12
   6   4  -217915.80 1413.51
   6   4  -217687.40 2376.51
   6  -4   217674.30 2424.92
   6   4   3 2012.53  515.15
   6   4   3 2127.14  552.26
   6  -4  -3 2800.43  742.82
   6  -4  -3 2314.02  331.90
   6   4  -3 1878.84  354.09
   6   4  -3 2216.72  852.77
   6  -4   3 2178.02  417.25
   6  -4   3 2478.89  892.39
   6   4   4 9922.15 1226.06
   6   4   410873.20 1198.70
   6  -4  -410634.10 1123.00
   6  -4  -410054.60 1016.56
   6  -4   410160.00  970.11
   6   4  -4 9898.17  780.13
   6   4  -4 9940.03 1092.31
   6  -4   411605.60 1819.17
   6   4   5 2600.44  404.05
   6   4   5 2905.87  934.23
   6  -4  -5 2480.72  712.69
   6  -4  -5 2174.99  502.31
   6   4  -5 2386.30  541.81
   6  -4   5 2047.17  449.24
   6  -4   5 2468.94  580.82
   6   4   6  111.92  531.60
   6  -4  -6  893.97  372.41
   6  -4  -6  492.34  263.94
   6   4   6  415.45  222.94
   6  -4   6  334.60  427.30
   6  -4   6 -137.63  319.07
   6   4  -6  599.44  460.77
   6   4   7 5476.61  962.85
   6   4   7 5577.79  813.41
  -6   4  -7 5148.70  808.50
   6  -4  -7 3924.65  533.15
   6  -4  -7 4436.25  685.43
   6   4  -7 4579.46 1140.66
   6  -4   7 5825.00 1061.99
   6   4   8  738.17  613.05
   6  -4  -8  484.25  369.26
   6  -4  -8  511.98  292.69
  -6   4  -8 -306.17  604.05
   6   4   8  838.65  451.80
   6   4  -8  685.17  292.44
   6  -4   8  285.82  476.20
   6  -4  -9 2174.67  587.23
   6   4   9 2270.92  485.18
   6   4   9 1363.72  602.68
  -6   4  -9 2239.47  619.96
   6  -4  -9 2682.02  491.44
   6   4  -9 3007.53  815.32
   6  -4   9 2122.85  809.61
   6   4  1010863.60 1671.65
   6   4  1013159.70 2107.02
   6  -4 -1011124.10 1285.34
   6  -4 -1010601.40 1087.74
  -6   4 -10 9456.01 2045.80
   6   4 -1010577.60 1652.73
   6  -4  1011725.60 1178.37
   6   4  11 1512.17  418.08
   6   4  11  998.69  493.56
  -6   4 -11 1468.55  828.52
   6  -4 -11  812.77  421.03
   6  -4 -11 1151.43  374.92
   6   4 -11  687.61  618.06
   6  -4  11 1346.74  400.85
   6   4  1218938.80 2917.14
  -6   4 -1216820.90 2081.06
   6   4  1219131.90 2497.16
   6   4 -1220743.30 2506.57
   6  -4  1219904.40 2508.55
   6   4  13  153.32  299.74
   6   4  13  154.68  437.39
  -6   4 -13  505.35  317.78
   6   4 -13  -93.35  380.80
   6  -4  13  152.86  425.31
   6   4  1422199.50 2242.07
  -6   4 -1421021.00 3514.90
   6   4  1425165.40 2600.54
   6   4 -1426609.00 2981.39
   6  -4  1424117.50 2993.72
   6   4  15 1301.79  450.57
   6   4  15 -308.22  410.00
  -6   4 -15  196.17  476.04
   6   4 -15   10.38  330.86
   6  -4  15  -59.09  227.32
   6   4  1618679.90 3066.87
   6   4  1619160.30 2107.01
  -6   4 -1617825.90 3258.96
   6   4 -1620521.90 2578.79
   6  -4  1620013.70 1980.79
   6   4  17 1203.18  806.17
   6   4  17  378.71  767.39
  -6   4 -17 1046.63  838.74
   6   4 -17  685.11  548.75
   6  -4  17  927.48  708.90
  -6   4 -18 6930.89 1945.01
   6   4  18 4776.39 1838.91
   6   4  18 7663.44 1160.23
   6  -4  18 9222.58 1696.02
   6   4  19 1564.75  578.59
   6   4  19   -4.48  932.98
  -6   4 -19 2256.23 1019.27
   6  -4  19 1006.55  874.87
  -6   4 -20  808.65  712.76
   6   4  20   21.14  378.75
   6   4  20  297.58  397.73
   6  -4  20  556.62  350.28
   6   4  21   28.95  581.17
   6   4  21  -11.05  966.96
  -6   4 -21 2093.54 1056.80
   6  -4  21 2335.63  555.57
   6   4  22 1497.70  766.82
   6   4  22  111.82  434.28
  -6   4 -22  683.65  480.95
   6  -4  22  410.77  727.06
   6   4  23 1140.88  977.39
   6   4  23   -1.59  984.18
  -6   4 -23 1582.15  640.23
   6  -4  23  941.36  945.40
   6   4  24 1871.11 1409.02
   6   4  24  109.06  899.84
  -6   4 -24 2310.37 1575.44
   6  -4  24 6085.86  877.46
   6   5   0  554.85  313.59
   6  -5   0  861.29  401.25
   6  -5   0  576.60  299.83
   6   5   0  463.25  162.92
   6   5   1 2649.81  608.33
   6   5   1 3112.67  366.75
   6  -5  -1 3325.80  727.46
   6  -5  -1 3442.08  560.84
   6   5  -1 3822.69  522.54
   6   5  -1 3145.05  611.19
   6  -5   1 3345.01  596.83
   6  -5   1 2839.88  769.47
   6   5   2 4767.08  792.19
   6   5   2 4657.19  756.17
   6  -5  -2 5745.13  684.61
   6  -5  -2 6251.37  885.08
   6   5  -2 4446.92  565.15
   6  -5   2 5047.29  955.60
   6  -5   2 4685.66  785.82
   6   5  -2 5513.61  770.23
   6   5   3 4702.02 1306.26
   6   5   3 5267.75  567.75
   6  -5  -3 5902.18  858.44
   6  -5  -3 5750.10 1068.03
   6  -5   3 7136.37 1054.60
   6   5  -3 4747.46  535.99
   6   5  -3 5399.66  759.38
   6  -5   3 5643.62  815.00
   6   5   414015.90 1975.23
   6   5   411154.10  975.78
   6  -5  -412987.80 1312.11
   6  -5  -412419.10 1614.05
   6   5  -411720.40 1258.26
   6   5   5 7756.20 1479.36
   6   5   5 5692.97  689.55
  -6   5  -5 6255.32  941.49
   6  -5  -5 7466.24 1140.68
   6  -5  -5 7097.83  886.46
   6   5  -5 8731.48 1392.85
   6  -5   5 7503.71 1238.53
   6   5   616450.90 1944.03
   6   5   617212.20 1818.97
  -6   5  -616646.60 2530.30
   6  -5  -619159.40 1718.34
   6  -5  -615574.80 1368.37
   6   5  -619777.20 2447.30
   6  -5   618066.70 2145.53
  -6   5  -714074.90 2463.12
   6   5   715644.50 1930.94
   6   5   717768.20 2534.99
   6  -5  -716162.00 1774.97
   6  -5  -717365.90 1594.38
   6   5  -718010.90 2367.36
   6  -5   717446.40 2165.75
   6   5   8 9538.92 1484.41
   6  -5  -810065.50 1114.30
   6   5   810064.90 1277.70
  -6   5  -811729.50 2009.33
   6   5  -810241.80 1140.26
   6  -5   811107.80 1105.26
   6   5   9 9771.76 1008.54
   6   5   9 9480.12 1808.46
  -6   5  -9 9098.19 1226.80
   6  -5  -9 9380.63 1161.34
   6  -5  -9 9070.26 1035.81
   6   5  -9 8162.14 1568.76
   6  -5   9 8793.46  987.93
   6   5  1011691.40 1801.41
   6   5  1013931.00 1561.38
  -6   5 -1010684.40 2189.47
   6  -5 -1013726.20 1450.72
   6  -5 -1013244.40 1310.90
   6   5 -1015181.10 2018.40
   6  -5  1011986.80 1241.42
  -6   5 -11 8644.99 1866.14
   6   5  11 9321.92 1557.30
   6   5  11 9840.29 1847.09
   6  -5 -11 7858.12  682.66
   6   5 -11 8559.16 1018.81
   6  -5  11 8144.27 1522.69
   6   5  12 4216.03  783.91
  -6   5 -12 4212.41  785.52
   6  -5 -12 2759.24  395.36
   6   5  12 4609.04  664.94
   6   5 -12 2239.82 1016.70
   6  -5  12 4343.45 1021.66
   6   5  13 2333.00  979.96
   6   5  13 1715.95 1118.59
  -6   5 -13 2276.42  674.69
   6   5 -13 2788.83  536.01
   6  -5  13 2573.79  950.62
   6   5  14  795.78  727.70
   6   5  14 1205.62  805.27
  -6   5 -14  757.71  832.31
   6   5 -14  615.55  624.30
   6  -5  14 1467.01  686.52
   6   5  15 2135.17  598.89
   6   5  15 1518.85  643.54
  -6   5 -15 2235.88 1097.78
   6   5 -15 2054.69  831.18
   6  -5  15 2458.78  589.18
   6   5  16 1599.82  610.03
  -6   5 -16  828.98 1086.36
   6   5  16 2049.04  967.04
   6   5 -16 2392.89  804.76
   6  -5  16 1953.06  545.65
   6   5  17 1412.25  534.16
   6   5  17  -34.67  904.20
  -6   5 -17 1137.88  954.64
   6   5 -17 1362.58  665.87
   6  -5  17 1401.08  807.56
   6   5  18 9261.27 1341.20
   6   5  18 9461.89 2135.93
  -6   5 -18 5398.39 2257.11
   6   5 -18 9493.44 1662.92
   6  -5  1813077.30 1986.61
   6   5  19   44.45 1512.12
   6   5  19 4455.62 1588.43
  -6   5 -19 3937.33 1679.52
   6  -5  19 8657.46 1454.56
   6   5  20 2730.20 1548.52
  -6   5 -20 4645.23 1676.75
   6   5  20 5535.70  975.52
   6  -5  20 4211.29  912.83
   6   5  21  -55.75 1557.62
   6   5  21 4783.17 1539.27
  -6   5 -21 3827.64 1040.35
   6  -5  21 5842.92  916.87
   6   5  22 7443.10 1315.19
   6   5  22 8203.77 2018.63
  -6   5 -22 5572.03 1364.46
   6  -5  22 9846.20 1994.54
   6   5  23 -198.66 1708.82
   6   5  23 5704.35 1654.30
  -6   5 -23 5836.97 1106.78
   6  -5  23 3146.56 1625.57
   6   6   0 1255.42  560.20
   6  -6   0  567.78  416.46
   6  -6   0   46.42  500.33
   6   6   0  351.91  281.13
   6   6   129188.70 2520.17
   6   6   129675.80 3526.55
   6  -6  -129546.10 2813.86
   6  -6  -129238.90 3186.22
   6   6  -127068.40 2210.41
   6  -6   130751.80 2966.60
   6  -6   130087.90 3412.79
   6   6  -131279.20 2814.37
   6   6   2  716.36  618.63
   6   6   2  475.93  364.27
   6  -6  -2  814.78  414.89
   6  -6  -2  980.92  495.18
   6   6  -2  607.23  245.71
   6   6  -2  794.93  596.08
   6  -6   2  565.33  470.49
   6  -6   2  829.27  368.94
   6   6   315819.80 2308.53
   6   6   316083.60 1589.01
  -6   6  -314919.20 1554.17
   6  -6  -315644.40 1403.75
   6  -6  -315418.00 1569.91
   6   6  -315035.40 2161.03
   6   6  -313661.10 1094.38
   6  -6   316577.90 1850.02
   6   6   4 2186.85  620.22
   6   6   4 2684.19  700.93
  -6   6  -4 3325.02  992.05
   6  -6  -4 2618.60  765.42
   6  -6  -4 3436.55  666.19
   6   6  -4 3607.36  972.10
   6  -6   4 3067.05  805.87
   6   6   5 5286.26  854.23
   6   6   5 5865.89  989.95
  -6   6  -5 5531.30 1314.99
   6  -6  -5 4578.81  621.88
   6  -6  -5 5631.48  883.05
   6   6  -5 7075.38 1305.81
   6  -6   5 6271.95  739.59
   6   6   6 -246.10  544.20
   6   6   6  928.21  391.67
  -6   6  -6  219.92  320.71
   6  -6  -6  356.57  349.43
   6  -6  -6  320.43  314.08
   6   6  -6  722.61  495.85
   6  -6   6  332.29  266.02
   6   6   7   40.90  330.12
   6   6   7  429.63  424.19
  -6   6  -7  921.43  578.84
   6  -6  -7  201.78  340.52
   6  -6  -7  287.97  320.95
   6  -6   7  643.30  276.77
   6   6  -7  515.88  299.25
   6   6   8 2487.21  762.58
   6   6   8 2285.54  955.67
  -6   6  -8 2650.29  587.80
   6  -6  -8 1980.12  566.88
   6  -6  -8 1947.96  561.14
   6   6  -8 1884.54  489.56
   6  -6   8 2326.73  484.75
   6   6   9 1714.18  525.92
  -6   6  -9 2033.84  532.06
   6  -6  -9 1520.61  476.25
   6  -6  -9 1235.36  474.29
   6   6   9 1816.98  715.90
   6   6  -9 1480.73  727.41
   6  -6   9 1113.77  442.49
   6   6  10  995.11  374.49
   6   6  10 1092.90  757.98
  -6   6 -10  894.19  799.23
   6  -6 -10  965.20  408.61
   6  -6 -10 1147.72  424.26
   6   6 -10  739.00  655.74
   6  -6  10  989.26  654.14
   6   6  1116074.60 2332.79
   6   6  1118190.70 1933.68
  -6   6 -1115928.10 2733.50
   6  -6 -1118661.40 1755.57
   6  -6  1115639.50 2275.45
   6   6 -1117269.30 1724.24
   6   6  12  297.95  502.32
   6   6  12  208.06  565.83
  -6   6 -12  486.76  353.88
   6  -6 -12  147.79  307.47
   6   6 -12  463.38  470.74
   6  -6  12  484.63  491.43
   6   6  1323330.90 2286.29
   6   6  1324044.60 2542.96
  -6   6 -1322949.20 2652.78
   6   6 -1327546.80 3228.68
   6  -6  1326705.90 3106.06
   6   6  14   96.88  263.86
   6   6  14  569.57  290.53
  -6   6 -14   53.44  303.47
   6   6 -14  -54.42  240.53
   6  -6  14  171.74  248.98
   6   6  1517905.30 2874.17
   6   6  1519135.50 3099.83
  -6   6 -1519211.60 3350.61
   6   6 -1522933.70 2847.92
   6  -6  1521314.70 2033.44
   6   6  16  809.64  671.57
   6   6  16   40.61  715.42
  -6   6 -16 1117.39  766.22
   6   6 -16  607.02  553.34
   6  -6  16  506.49  376.49
   6   6  1714039.40 1739.58
   6   6  1713113.90 2524.69
  -6   6 -1715420.40 2893.42
   6   6 -1712608.10 1417.74
   6  -6  1715723.50 2352.80
   6   6  18   16.71  521.54
   6   6  18  208.86  306.75
  -6   6 -18  297.38  550.84
   6   6 -18  208.37  401.28
   6  -6  18  -48.11  453.55
   6   6  19  -78.61  499.93
   6   6  19 1085.42  504.40
  -6   6 -19 1255.33  892.72
   6  -6  19 1543.46  755.29
   6   6  20  -83.69 1037.79
   6   6  20 1151.06  599.58
  -6   6 -20 1500.69  658.75
   6  -6  20 1804.79  548.15
   6   6  21 -144.75  812.15
   6   6  21 1048.82  462.07
  -6   6 -21  794.08  511.35
   6  -6  21  397.44  427.07
   6   6  22   -5.08  476.67
   6   6  22 1113.17  470.78
  -6   6 -22   84.39  518.47
   6  -6  22 1034.81  445.23
   6   6  23  147.57  768.40
   6   6  23  191.97  441.63
  -6   6 -23 1293.67  862.38
   6  -6  23  618.81  744.33
   6  -7   0 3733.41  563.82
   6  -7   0 4461.28 1075.67
   6   7   0 4145.13  631.48
   6   7   0 3261.40 1117.51
   6   7   1 1708.47  415.49
   6   7   1 1561.92  760.38
   6  -7  -1 1692.31  323.00
   6  -7  -1 1521.52  668.15
   6   7  -1 1331.72  366.37
   6   7  -1  917.41  726.13
   6  -7   1  869.82  346.48
   6  -7   1  277.07  408.38
   6   7   2 2097.59  523.69
  -6   7  -2 1759.36  814.46
   6  -7  -2 1646.25  689.88
   6  -7  -2 1786.75  363.92
   6   7   2 2014.93  511.53
   6   7  -2 2023.53  818.40
   6   7  -2 1722.97  370.45
   6  -7   2 1605.89  411.39
   6   7   3 7885.03 1127.84
   6   7   3 8629.01 1127.45
  -6   7  -3 8364.46 1027.77
   6  -7  -3 8289.46 1337.63
   6  -7  -3 9210.78  853.09
   6   7  -3 9272.53 1663.50
   6  -7   3 8062.56  898.90
   6   7   416403.60 2186.27
   6   7   411301.90 1461.25
  -6   7  -412962.10 1443.75
   6  -7  -412338.10 1603.50
   6  -7  -412134.40 1056.48
   6   7  -415966.10 2107.61
   6  -7   411353.50 1177.79
   6   7   511341.40 1977.04
   6   7   510681.60 1403.02
  -6   7  -510438.30 1879.16
   6  -7  -510732.60 1452.37
   6  -7  -512208.40 1420.97
   6   7  -511303.40 1870.90
   6  -7   510239.20 1097.76
   6   7   611405.90 1553.91
  -6   7  -611631.70 1453.43
   6  -7  -611379.40 1478.00
   6  -7  -612418.60 1418.82
   6   7   611480.60 1351.82
   6   7  -612883.90 1323.39
   6  -7   612261.60 1223.79
   6   7   718113.60 2719.64
   6   7   720523.50 2301.26
  -6   7  -719182.10 2820.62
   6  -7  -717375.80 1453.50
   6  -7  -719029.30 1921.37
   6   7  -720194.30 1921.26
   6  -7   718169.60 1676.25
   6   7   810400.60 1238.51
   6   7   8 9051.28 1480.16
  -6   7  -8 9855.83 1293.59
   6  -7  -8 7803.40 1157.10
   6  -7  -8 8505.67  782.20
   6   7  -8 9877.45 1117.47
   6  -7   8 9227.72 1063.91
   6   7   912301.40 2133.27
   6   7   912808.50 1849.37
  -6   7  -912192.90 1601.56
   6  -7  -912085.50 1371.31
   6  -7  -913184.70 1484.74
   6   7  -913971.30 2042.07
   6  -7   912801.90 1926.61
   6   7  10 6977.18 1041.80
   6   7  10 6538.98 1389.73
  -6   7 -10 5397.00 1682.54
   6  -7 -10 8221.03 1075.18
   6   7 -10 7082.88 1498.67
   6  -7  10 8315.98 1478.28
   6   7  11 7475.38  938.75
   6   7  11 6027.06 1606.55
  -6   7 -11 7090.44 1761.72
   6  -7 -11 6568.83 1015.18
   6   7 -11 7221.27 1464.99
   6  -7  11 7245.71 1437.66
   6   7  12 6099.90  915.57
   6   7  12 7110.81 1029.06
  -6   7 -12 7615.44 1097.80
   6  -7 -12 6286.65  669.29
   6   7 -12 6569.84  921.74
   6  -7  12 4292.86 1440.44
   6   7  13 3515.31 1120.45
   6   7  13 2975.38 1190.54
  -6   7 -13 3824.58  798.67
   6  -7 -13 2672.64  733.01
   6   7 -13 2729.00 1077.28
   6  -7  13 4253.02 1070.88
   6   7  14 2173.80 1085.11
  -6   7 -14 1378.33  693.15
   6   7  14 1959.64 1035.62
   6   7 -14 2676.92  956.63
   6  -7  14 3049.21  575.76
   6   7  15 1830.52  595.94
   6   7  15 1439.40  626.30
  -6   7 -15 2062.60  679.56
   6   7 -15 2114.24  532.13
   6  -7  15 2270.67  566.59
   6   7  16 5060.64  919.23
   6   7  16 3429.23  895.84
  -6   7 -16 4323.67 1033.79
   6   7 -16 5606.75 1201.09
   6  -7  16 4853.77  821.50
   6   7  17 2414.50 1424.61
   6   7  17 3748.86 1388.06
  -6   7 -17 3344.46  943.10
   6   7 -17 4112.26 1181.87
   6  -7  17 4565.35  777.85
   6   7  18  -46.52  684.81
   6   7  18 2079.60 1084.05
  -6   7 -18 1934.29  751.43
   6   7 -18 2805.05  571.54
   6  -7  18 3519.45 1010.57
   6   7  19 5590.62  889.38
   6   7  19 2818.39 1343.93
  -6   7 -19 3374.38  964.61
   6   7 -19 3062.25 1148.58
   6  -7  19  482.39 1259.83
   6   7  20  -68.38 1464.38
   6   7  20 4485.39 1346.76
  -6   7 -20 3793.18  973.31
   6  -7  20 4455.39 1312.86
   6   7  21 6290.35 1096.69
   6   7  21 6227.09 1673.37
  -6   7 -21 2884.85 1185.93
   6  -7  21 6105.21 1005.64
   6   7  22   31.85 1501.40
   6   7  22 4238.24 1374.35
  -6   7 -22 1633.11 1607.50
   6  -7  22 4233.87  851.92
   6   7  23   94.82 1621.97
   6   7  23 4131.91 1464.94
  -6   7 -23 4209.01 1693.00
   6  -7  23 4126.98  905.13
   6   8   035537.00 3147.00
   6  -8   031307.20 2527.89
   6   8   033081.60 2775.84
   6   8   1  618.82  455.71
   6   8   1 2346.10  512.19
  -6   8  -1 1951.40  782.87
   6  -8  -1 1325.02  732.37
   6  -8  -1 2131.54  404.35
   6   8  -1 1864.15  508.02
   6  -8   1 1735.95  410.04
   6   8  -1 1622.70  396.89
   6   8   225899.90 2355.85
   6   8   226781.60 3406.55
  -6   8  -225078.70 3156.76
   6  -8  -224603.30 2865.99
   6  -8  -225809.60 2071.39
   6   8  -223878.00 2329.15
   6  -8   224701.10 2106.09
   6   8   3 2128.65  602.96
   6   8   3 2232.71  939.83
  -6   8  -3 1398.98  868.68
   6  -8  -3 2086.53  691.25
   6  -8  -3 2366.90  420.94
   6   8  -3 1927.90  571.18
   6  -8   3 2031.40  471.97
   6   8   4 7319.46  942.98
  -6   8  -4 5030.41  890.40
   6  -8  -4 5420.19  656.91
   6  -8  -4 6388.97  677.78
   6   8   4 4889.28  637.97
   6  -8   4 6453.72  773.43
   6   8  -4 6424.56  893.35
   6   8   5 2559.09  751.59
   6   8   5 2256.31  653.67
  -6   8  -5 1912.28 1026.37
   6  -8  -5 2501.07  708.46
   6  -8  -5 2498.38  741.55
   6   8  -5 3126.89  608.06
   6  -8   5 3882.32  540.38
   6   8   6  587.20  804.66
   6   8   6 1249.40  612.57
  -6   8  -6 1476.75  491.41
   6  -8  -6 1618.98  332.14
   6  -8  -6 1361.39  559.55
   6   8  -6 1601.84  458.35
   6  -8   6 1011.49  408.92
   6   8   7 1514.53  471.81
   6   8   7 1517.83  637.18
  -6   8  -7 1975.76  800.26
   6  -8  -7 1084.72  486.17
   6  -8  -7 1084.24  551.09
   6   8  -7  496.37  437.39
   6  -8   7 1758.92  429.48
   6   8   8 1792.12  932.25
   6   8   8 1251.17  748.86
  -6   8  -8 2222.31  956.76
   6  -8  -8 1451.04  525.29
   6  -8  -8 1701.69  613.44
   6   8  -8 2182.55  542.46
   6  -8   8 2062.16  495.39
   6   8   9 2411.71 1037.14
   6   8   9 1606.92  864.33
  -6   8  -9 2781.92  675.10
   6  -8  -9 2383.74  686.35
   6   8  -9 2253.43  955.97
   6  -8   9 2422.74  887.13
   6   8  10 7922.60 1551.56
  -6   8 -10 7298.42 1827.52
   6  -8 -10 8704.87 1210.62
   6   8  10 8583.99 1789.06
   6   8 -10 8771.85 1659.82
   6  -8  10 9578.98 1628.96
   6   8  11  120.66  419.78
   6   8  11 1274.12  640.27
  -6   8 -11  455.05  723.06
   6  -8 -11  744.23  276.31
   6   8 -11 1005.09  634.00
   6  -8  11 1701.78  641.05
   6   8  1219861.00 2867.10
   6   8  1218029.50 2609.87
  -6   8 -1217184.20 2826.43
   6  -8 -1217505.40 1967.71
   6   8 -1220885.00 2068.99
   6  -8  1218917.80 2586.15
   6   8  13  936.56  460.82
   6   8  13 1038.20  450.22
  -6   8 -13 1096.80  481.68
   6  -8 -13  833.61  490.13
   6   8 -13  787.55  436.36
   6  -8  13  798.21  709.48
   6   8  1421001.10 2406.05
   6   8  1422433.10 2358.00
  -6   8 -1422343.40 2651.24
   6  -8 -1425408.90 2001.17
   6   8 -1424264.10 3332.04
   6  -8  1422936.50 3089.54
   6   8  15 2055.52  920.93
   6   8  15 1241.42  927.89
  -6   8 -15 1923.01  617.76
   6   8 -15 1551.48  861.74
   6  -8  15 1172.89  524.92
   6   8  1618239.60 2791.03
   6   8  1617648.40 2784.49
  -6   8 -1615454.50 2035.96
   6   8 -1618776.60 2610.83
   6  -8  1615883.20 1765.34
   6   8  17  998.01  560.12
   6   8  17 1382.19  539.49
  -6   8 -17 1574.87  606.45
   6   8 -17 1255.58  486.60
   6  -8  17 1331.29  522.90
   6   8  18 5239.09  888.13
   6   8  18 4135.97  845.86
  -6   8 -18 2677.02  915.84
   6   8 -18 2397.79 1186.96
   6  -8  18 3867.92  778.01
   6   8  19   88.65  849.55
   6   8  19 1400.17  464.32
  -6   8 -19  782.59  549.28
   6   8 -19  526.09  709.89
   6  -8  19  405.54  760.17
   6   8  20  -39.32  608.21
   6   8  20  600.07  321.81
  -6   8 -20  126.24  629.06
   6   8 -20  104.10  306.27
   6  -8  20 -228.03  542.83
   6   8  21  181.27  572.82
   6   8  21 1624.70  507.96
  -6   8 -21  648.80 1007.81
   6  -8  21 1028.25  859.78
   6   8  22   13.89  646.60
   6   8  22  274.07  338.76
  -6   8 -22  -14.00  707.99
   6  -8  22  285.82  344.94
  -6   9   0  699.66  565.05
   6  -9   0  746.96  313.04
   6   9   0  946.75  639.90
   6   9   0  652.73  189.76
   6   9   1 3835.20  416.28
   6   9   1 2978.92 1128.05
  -6   9  -1 4487.85 1023.80
   6  -9  -1 3254.23  555.35
   6   9  -1 4211.28  726.77
   6  -9   1 2270.85  550.58
   6   9   2 5557.96  807.54
   6   9   2 4886.32 1284.36
  -6   9  -2 3865.51 1180.54
   6  -9  -2 5327.19 1089.43
   6  -9  -2 5698.60 1059.06
   6   9  -2 4526.06  814.33
   6  -9   2 4626.13  680.68
   6   9   3 6263.53  980.84
   6   9   3 7083.34  959.98
  -6   9  -3 5577.40 1401.18
   6  -9  -3 6266.81 1147.25
   6  -9  -3 5577.48 1131.40
   6   9  -3 7025.44  958.25
   6  -9   3 6026.48  799.96
   6   9   4 5329.22  892.85
   6   9   4 4419.69  834.97
  -6   9  -4 3954.16  795.40
   6  -9  -4 5276.57  948.57
   6  -9  -4 4175.23 1021.17
   6  -9   4 5144.31  728.53
   6   9  -4 4368.29  762.22
   6   9   517078.30 1489.15
   6   9   518910.70 2729.12
  -6   9  -516031.70 2571.44
   6  -9  -516839.10 2002.64
   6  -9  -518428.30 2121.37
   6   9  -518625.60 1852.92
   6  -9   517171.00 1642.64
   6   9   612101.00 1484.32
  -6   9  -612886.90 1511.95
   6  -9  -612623.30 1540.52
   6  -9  -612591.20 1657.08
   6   9   612609.80 1711.55
   6   9  -613113.90 1476.20
   6  -9   612391.70 1298.23
   6   9   7 5346.52 1385.49
   6   9   7 1355.30 1076.78
  -6   9  -7 4867.75 1393.67
   6  -9  -7 3536.68  848.45
   6  -9  -7 6603.65 1018.52
   6   9  -7 5294.31  845.65
   6  -9   7 5826.16  768.43
   6   9   823595.60 3273.76
   6   9   821651.70 2650.33
  -6   9  -820356.20 3176.21
   6  -9  -824044.00 2495.91
   6  -9   821808.20 2058.60
   6   9  -824137.80 2345.96
   6   9   9 5850.61 1634.73
   6   9   9 7254.44 1368.12
  -6   9  -9 5720.31  991.83
   6  -9  -9 6737.20  749.44
   6   9  -9 7651.39 1021.82
   6  -9   9 6921.82  913.98
   6   9  1011627.60 1886.62
  -6   9 -1011184.30 1537.00
   6  -9 -1012735.80 1610.72
   6   9  1010478.00 2114.20
   6   9 -1012468.00 2073.78
   6  -9  1012815.20 1980.83
   6   9  11 4396.08 1389.10
   6   9  11 5020.10 1223.27
  -6   9 -11 4093.14 1437.07
   6  -9 -11 4571.24  954.92
   6   9 -11 3787.29 1257.64
   6  -9  11 4916.27 1235.68
   6   9  12 3311.20  774.02
   6   9  12 2811.35 1171.99
  -6   9 -12 3146.87 1354.47
   6  -9 -12 4222.32  879.20
   6   9 -12 4853.01 1226.18
   6  -9  12 5032.61 1173.72
   6   9  13 2770.64 1037.45
   6   9  13 1879.18 1000.71
  -6   9 -13 2263.96 1104.09
   6  -9 -13 1862.08  441.47
   6   9 -13 3528.80 1001.86
   6  -9  13 2589.34  955.46
   6   9  14  577.02  747.71
   6   9  14 1163.09  775.49
  -6   9 -14  345.79  807.94
   6   9 -14 1178.83  440.00
   6  -9  14  402.99  706.84
   6   9  15 1954.04  635.05
   6   9  15 3097.99 1064.66
  -6   9 -15 2573.56 1137.37
   6   9 -15 2189.14  604.31
   6  -9  15 1252.99  992.71
   6   9  16  738.25  443.50
   6   9  16  671.43  453.58
  -6   9 -16  615.09  838.26
   6   9 -16  688.04  677.59
   6  -9  16  804.33  393.47
   6   9  17 5022.87 1741.96
   6   9  17 7007.69 1137.73
  -6   9 -17 5141.26 1910.07
   6   9 -17 3819.27 1655.11
   6  -9  17 8420.05 1075.42
   6   9  18 5809.56 1461.60
   6   9  18  824.19 1540.49
  -6   9 -18 4547.95 1648.03
   6   9 -18 3602.22 1363.85
   6  -9  18 5496.24  891.98
   6   9  19 4230.07 1364.53
   6   9  19 -280.03 1492.08
  -6   9 -19 1993.52 1543.67
   6   9 -19 3820.63  809.70
   6  -9  19 5198.45  847.32
   6   9  20 7528.62 2013.49
   6   9  20 9441.04 1449.03
  -6   9 -20 6942.58 2343.44
   6   9 -2010004.90 2099.90
   6  -9  2010739.90 2083.45
   6   9  21 2579.59 1024.19
   6   9  21  -35.32 1147.34
  -6   9 -21 1840.39 1226.64
   6  -9  21 1555.08 1015.12
   6   9  22 4241.24 1301.18
   6   9  22 2275.03 1456.65
  -6   9 -22 2510.87  933.84
   6  -9  22 2078.99 1312.17
   6  10   0 2009.41  477.57
   6  10   0 2064.08  958.37
  -6  10   0 1502.52  484.47
   6 -10   0 2663.66  793.78
   6  10   119302.60 1942.19
   6  10   122197.40 2250.00
  -6  10  -121849.90 2794.57
   6 -10  -120857.20 2486.85
   6  10  -121507.60 2989.43
   6 -10   121303.60 2450.47
  -6  10   119491.40 1908.07
   6  10   2 1411.23  462.32
   6  10   2 2593.89  499.22
  -6  10  -2 1938.75  749.56
   6 -10  -2   26.62  366.99
   6 -10  -2 1337.98  655.16
   6  10  -2 1762.73  817.45
   6 -10   2  852.49  644.91
   6  10   320982.60 2943.68
  -6  10  -321078.50 2132.44
   6 -10  -321052.40 2465.91
   6 -10  -322910.10 2505.40
   6  10   320063.40 1634.96
   6  10  -320066.30 2125.97
   6 -10   320487.20 1865.28
   6  10   4 2069.69  690.22
   6  10   4 2244.37  993.53
  -6  10  -4 1422.80  952.26
   6 -10  -4 2561.59  705.53
   6 -10  -4 2417.40  787.20
   6  10  -4 2491.43  574.65
   6 -10   4 2413.78  531.55
   6  10   5 1474.31  394.40
   6  10   5 1001.38  557.95
  -6  10  -5 2715.39  908.12
   6 -10  -5 2209.07  379.38
   6 -10  -5 1771.47  719.18
   6  10  -5 1938.48  549.09
   6 -10   5 2393.92  489.29
   6  10   6 5973.29 1126.28
   6  10   6 5541.48 1525.83
  -6  10  -6 5781.63 1443.54
   6 -10  -6 5059.17  965.33
   6 -10  -6 5619.84  717.16
   6  10  -6 6538.12  939.97
   6 -10   6 6348.51  852.45
   6  10   7  754.61  577.50
  -6  10  -7  457.38  321.38
   6 -10  -7   78.02  243.90
   6  10   7  -49.60  421.26
   6 -10   7  592.05  285.88
   6  10  -7  410.95  318.57
   6  10   8  982.92  604.55
   6  10   8 1206.52  459.32
  -6  10  -8 1627.87  757.33
   6 -10  -8 1217.11  562.19
   6  10  -8  770.73  429.40
   6 -10   8  602.04  398.84
   6  10   9 5046.90  699.28
   6  10   9 3637.31 1276.38
  -6  10  -9 4129.71 1309.69
   6 -10  -9  927.31  958.31
   6  10  -9 3665.23  762.49
   6 -10   9 3844.98  728.12
   6  10  10  997.84  943.40
   6  10  10 1763.48  491.69
  -6  10 -10 1271.78  579.05
   6 -10 -10 1806.69  713.67
   6  10 -10 1982.17  568.69
   6 -10  10 2210.19  538.63
   6  10  1112164.90 1474.65
   6  10  1111734.00 1365.55
  -6  10 -1112430.00 1584.29
   6 -10 -1112096.00 1152.58
   6  10 -1111877.40 2160.15
   6 -10  1111144.10 1352.04
   6  10  12  439.07  590.15
   6  10  12  474.60  333.24
  -6  10 -12 -455.46  622.31
   6 -10 -12  113.13  435.19
   6  10 -12  784.26  584.95
   6 -10  12  504.58  327.11
   6  10  1317434.10 1948.41
  -6  10 -1317262.30 3124.46
   6 -10 -1318483.60 2228.79
   6  10  1318828.20 2180.31
   6  10 -1321293.50 3002.76
   6 -10  1319519.90 2736.67
   6  10  14  960.57  457.66
   6  10  14  507.66  432.04
  -6  10 -14  231.30  814.76
   6 -10 -14 1043.30  345.20
   6  10 -14  535.87  705.15
   6 -10  14  611.16  716.62
   6  10  1519163.30 2147.62
  -6  10 -1516975.80 3100.49
   6  10  1518424.70 3056.07
   6  10 -1518864.00 2922.99
   6 -10  1519688.60 2761.13
   6  10  16  751.07  673.85
   6  10  16  403.72  683.99
  -6  10 -16  571.39  734.06
   6  10 -16  328.93  382.11
   6 -10  16  699.78  634.33
   6  10  17 9991.15 1448.29
   6  10  1711143.50 2223.62
  -6  10 -17 8109.49 2267.57
   6  10 -17 9828.03 1404.42
   6 -10  17 9336.41 1958.95
   6  10  18 1066.88  651.94
   6  10  18 2003.78 1133.86
  -6  10 -18 1859.64 1213.21
   6  10 -18 2249.76  641.43
   6 -10  18 2343.86  636.11
   6  10  19 1422.36  572.21
   6  10  19 1451.49  619.30
  -6  10 -19 1774.14  656.73
   6  10 -19 1166.75  954.43
   6 -10  19 1382.42  572.00
   6  10  20  576.29  406.64
   6  10  20  384.85  451.88
  -6  10 -20  101.28  475.32
   6  10 -20  204.60  698.62
   6 -10  20  749.51  402.39
   6  10  21  485.74  346.35
   6  10  21  -52.74  649.86
  -6  10 -21  112.16  399.25
   6  10 -21   67.37  596.76
   6 -10  21  199.26  332.14
   6  11   0 2762.12  749.98
  -6  11   0 4035.28  967.38
   6 -11   0 3192.26  970.65
   6  11   1 2966.63  701.53
  -6  11  -1 2292.67  980.18
   6 -11  -1 3662.11  949.37
   6  11   1 3173.10  637.68
   6  11  -1 2186.45 1084.49
   6 -11   1 3879.29  966.61
  -6  11   1 2727.44  575.15
   6  11   2 5057.73  890.96
   6  11   2 5018.03 1458.75
  -6  11  -2 5190.21 1346.17
   6 -11  -2 7386.32  817.81
   6  11  -2 5424.35 1427.48
   6 -11   2 3582.91 1198.39
  -6  11   2 5640.08 1146.02
   6  11   3 6437.32 1059.76
   6  11   3 6514.72 1559.68
  -6  11  -3 6267.96 1002.70
   6 -11  -3 6796.03  838.92
   6  11  -3 6666.15 1558.55
   6 -11   3 5965.79 1292.66
   6  11   4 9972.08 1474.69
   6  11   410324.10 1362.28
  -6  11  -4 9605.92 1899.15
   6 -11  -411065.50 1607.21
   6 -11  -410924.50 1167.37
   6  11  -412579.10 1433.73
   6 -11   412791.80 1858.66
   6  11   5 9507.99 1818.18
  -6  11  -5 7787.80 1108.15
   6 -11  -5 7478.67  856.94
   6 -11  -5 8494.68 1448.77
   6  11   5 8236.48  884.30
   6  11  -5 7830.74 1170.27
   6 -11   5 9262.43 1610.50
   6  11   6 7991.04 1384.38
   6  11   6 8919.78 1782.18
  -6  11  -6 5396.61 1679.66
   6 -11  -6 8457.88 1242.23
   6 -11  -6 8988.85 1491.47
   6  11  -6 9830.15 1248.99
   6 -11   6 8820.57 1649.03
   6  11   710464.80 1411.40
  -6  11  -712743.50 1544.21
   6 -11  -712204.50 1749.83
   6  11   712595.50 1804.05
   6  11  -712475.50 1503.97
   6 -11   711753.80 1954.64
   6  11   8 4238.90  740.66
   6  11   8 4010.71 1337.09
  -6  11  -8 4930.59  897.41
   6 -11  -8 4805.22 1122.63
   6 -11   8 4932.71 1298.13
   6  11  -8 5837.08  891.46
   6  11   918222.20 1811.48
   6  11   916175.70 2003.84
  -6  11  -916860.40 2846.56
   6 -11  -918859.50 1723.39
   6  11  -919984.60 2123.34
   6 -11   918756.50 2570.03
   6  11  10 7657.25 1657.06
   6  11  10 8591.99 1953.15
  -6  11 -10 8621.21 1976.37
   6 -11 -1010017.70 1547.77
   6  11 -10 9568.72 1296.38
   6 -11  10 9264.17 1152.96
   6  11  11 3290.96 1219.86
   6  11  11 4966.80 1422.47
  -6  11 -11 4236.08  908.89
   6 -11 -11 4035.58 1070.90
   6  11 -11 5490.40  894.55
   6 -11  11 3870.64  805.73
   6  11  12 2667.23 1090.91
   6  11  12 2415.08  718.08
  -6  11 -12 3448.37  782.61
   6 -11 -12 3383.42  578.47
   6 -11  12 2996.76  674.51
   6  11 -12 2831.40  738.24
   6  11  13 2192.36  837.64
  -6  11 -13  986.78  530.92
   6 -11 -13  688.19  629.26
   6  11  13 1432.73  792.03
   6  11 -13 1153.75  479.13
   6 -11  13  692.23  447.63
   6  11  14  326.36  667.49
   6  11  14  570.96  673.87
  -6  11 -14  520.26  437.59
   6 -11 -14  257.33  525.45
   6  11 -14  967.81  388.53
   6 -11  14  379.54  366.00
   6  11  15 1237.21  536.98
   6  11  15  586.03  887.84
  -6  11 -15 1037.10  574.52
   6  11 -15 1586.39  875.59
   6 -11  15 1560.74  496.18
   6  11  16 1617.58  626.15
   6  11  16 1925.23 1080.27
  -6  11 -16 2408.08  709.31
   6  11 -16  959.68 1031.83
   6 -11  16 2127.35  988.14
   6  11  17 1978.16  590.43
  -6  11 -17 1115.44  638.72
   6  11  17  528.45  941.68
   6  11 -17  121.32  925.79
   6 -11  17 2405.93  913.40
   6  11  18 2031.71 1259.81
   6  11  18 4326.13  826.80
  -6  11 -18 2599.02  859.26
   6  11 -18 -409.09 1244.08
   6 -11  18 3142.63 1212.67
   6  11  19 5261.88 1401.49
   6  11  19 5726.21 1597.29
  -6  11 -19 4586.02 1641.58
   6  11 -19 -561.56 1502.50
   6 -11  19 3465.35 1415.01
   6  11  20 2588.76 1101.20
   6  11  20  292.97 1255.64
  -6  11 -20 2632.68 1297.02
   6  11 -20 -139.33 1166.26
   6 -11  20 3510.26 1128.69
  -6  12   015756.90 2251.04
   6 -12   016421.20 1559.21
   6  12   014782.60 1773.98
   6  12   1  535.24  633.94
  -6  12  -1  248.66  533.30
   6 -12  -1  479.06  315.15
   6  12  -1  648.11  367.06
   6 -12   1  271.14  322.52
  -6  12   1  776.53  515.36
   6  12   212556.00 1564.79
   6  12   214627.00 2470.54
  -6  12  -213415.40 1567.19
   6 -12  -214793.20 2054.07
   6  12  -213285.50 2338.10
   6 -12   214323.30 1412.17
  -6  12   212901.20 1960.60
   6  12   3  326.69  395.91
   6  12   3 1139.15  386.21
  -6  12  -3  224.83  566.95
   6 -12  -3  626.84  538.13
   6  12  -3  160.80  644.33
   6 -12   3  459.70  311.43
  -6  12   3  285.00  462.06
   6  12   410885.80 1436.88
   6  12   4 9593.43 1935.23
  -6  12  -410003.60 1826.25
   6 -12  -4 7501.62  967.50
   6 -12  -411066.00 1702.09
   6  12  -410161.80 1936.10
   6 -12   410533.50 1163.14
   6  12   5  861.55  808.49
  -6  12  -5  479.85  786.10
   6 -12  -5 1144.61  338.78
   6 -12  -5 1064.30  692.23
   6  12   5 1122.32  362.20
   6  12  -5 1367.07  489.49
   6 -12   5 1769.91  759.67
   6  12   6 1603.87  738.81
   6  12   6 1601.76  583.06
  -6  12  -6 2027.03  572.97
   6 -12  -6 1722.89  498.05
   6  12  -6 2727.94  624.83
   6 -12   6 2593.41  913.72
   6  12   7 2160.79  927.58
   6  12   7 2646.54 1137.70
  -6  12  -7 3109.06 1140.52
   6 -12  -7 2926.04  586.23
   6  12  -7 3792.02  740.91
   6 -12   7 3544.83 1089.10
   6  12   8 1893.39  538.37
   6  12   8 2047.35  633.04
  -6  12  -8 1743.36  635.65
   6 -12  -8 2292.97  900.52
   6 -12   8 2821.80  998.81
   6  12  -8 3455.14  666.21
   6  12   9 2189.07 1108.43
  -6  12  -9 2960.37  710.19
   6 -12  -9 2240.69  922.70
   6  12   9 2466.67  950.23
   6  12  -9 3537.39  717.95
   6 -12   9 2002.70 1020.34
   6  12  10 3720.86 1254.30
   6  12  10 3447.86 1353.77
  -6  12 -10 3840.28 1458.87
   6 -12 -10 5165.71  741.59
   6  12 -10 5048.99  920.13
   6 -12  10 4072.62 1311.88
   6  12  11 4543.82 1102.16
   6  12  11 2176.38  688.28
  -6  12 -11 2986.26 1234.38
   6 -12 -11 1421.12  983.02
   6  12 -11 3602.26  762.31
   6 -12  11 3281.08 1118.77
   6  12  1218297.20 2095.19
   6  12  1220713.70 3157.01
  -6  12 -1218072.30 3270.34
   6 -12 -1219230.00 2525.15
   6  12 -1221174.00 2366.35
   6 -12  1220169.50 2895.00
   6  12  13  809.61  411.01
   6  12  13 -178.29  406.56
  -6  12 -13  683.74  757.67
   6 -12 -13  465.87  352.03
   6  12 -13  923.12  415.38
   6 -12  13 1393.13  667.23
   6  12  1414433.80 1739.46
   6  12  1413101.00 1787.52
  -6  12 -1412809.30 2791.97
   6  12 -1415074.60 1802.27
   6 -12  1415594.70 2486.09
   6  12  15  803.09  395.58
   6  12  15  124.42  641.54
  -6  12 -15  717.61  723.81
   6  12 -15  451.73  394.78
   6 -12  15  105.29  377.76
   6  12  1614027.10 1837.06
   6  12  1613126.30 2596.34
  -6  12 -1613194.30 2885.10
   6  12 -1615565.20 1948.13
   6 -12  1614887.60 1772.45
   6  12  17  191.72  787.63
   6  12  17  168.45  745.05
  -6  12 -17  302.47  828.66
   6  12 -17 1013.81  458.85
   6 -12  17  600.59  425.94
   6  12  18 4293.38 1725.41
   6  12  18 4221.04  987.80
  -6  12 -18 2803.99 1822.03
   6  12 -18 5473.67 1038.08
   6 -12  18 7060.90 1032.97
   6  12  19   71.24  906.94
   6  12  19  639.33  469.39
  -6  12 -19 1412.79  964.02
   6  12 -19  -17.32  521.99
   6 -12  19 1509.77  482.54
   6  12  20  319.48  880.35
   6  12  20 1406.16  466.47
  -6  12 -20  637.36  545.89
   6  12 -20  -41.26  498.10
   6 -12  20  610.99  792.91
   6  13   0 1297.76  863.96
  -6  13   0 1301.64  728.06
   6 -13   0 1446.84  764.83
   6  13   1 2043.31 1022.58
  -6  13  -1 1963.73  904.71
   6 -13  -1 2903.84  896.09
   6  13  -1 2691.00  611.47
  -6  13   1  947.76  825.78
   6  13   2 5305.53  940.02
  -6  13  -2 5307.48  897.35
   6 -13  -2 5552.78  830.92
   6  13  -2 7313.64  987.52
   6 -13   2 6604.15 1398.22
  -6  13   2 4389.38 1173.94
   6  13   3 4140.90  970.40
   6  13   3 5323.31 1480.34
  -6  13  -3 3654.47 1307.88
   6 -13  -3 6881.48  833.63
   6  13  -3 5661.50 1467.53
   6 -13   3 5109.36 1299.68
  -6  13   3 4761.69 1132.34
   6  13   4 6839.81 1229.69
   6  13   4 7992.03 1770.51
  -6  13  -4 7834.36 1114.42
   6 -13  -4 8733.66 1560.77
   6  13  -4 8192.55 1763.85
   6 -13   4 7979.54 1008.32
  -6  13   4 6801.48 1317.65
   6  13   5 7706.01  880.11
   6  13   5 6441.62 1095.97
  -6  13  -5 5085.43 1560.87
   6 -13  -5 5914.31 1470.02
   6  13  -5 7698.47 1139.73
   6 -13   5 6988.49 1014.80
   6  13   611389.20 1765.97
   6  13   610244.50 2235.25
  -6  13  -610735.10 1503.62
   6 -13  -612414.10 1934.17
   6  13  -613591.10 1613.16
   6 -13   612576.90 1397.13
   6  13   7 6954.43  914.14
   6  13   7 7328.12 1077.54
  -6  13  -7 5759.77 1101.27
   6 -13  -7 6443.59  917.91
   6 -13   7 6853.78  989.92
   6  13  -7 6794.03 1141.97
   6  13   811973.00 2003.97
   6  13   813040.30 2323.25
  -6  13  -810013.70 2356.40
   6 -13  -813077.80 1430.24
   6  13  -815657.10 1829.21
   6 -13   814909.70 1586.99
   6  13   9 6770.50 1602.40
   6  13   9 6779.05 1120.00
  -6  13  -9 8303.55 1916.79
   6 -13  -9 8609.86 1623.90
   6  13  -9 9182.20 1945.49
   6 -13   9 9142.42 1120.45
   6  13  10 7977.94 1074.99
   6  13  10 6186.85 1775.41
  -6  13 -10 8693.43 1295.88
   6 -13 -10 7763.92 1568.95
   6  13 -10 6591.62 1882.82
   6 -13  10 8784.36 1161.90
   6  13  11 5046.29 1505.63
   6  13  11 4965.58 1569.18
  -6  13 -11 5988.97 1081.75
   6 -13 -11 6658.15  910.86
   6 -13  11 6629.96  982.82
   6  13 -11 4878.03 1692.32
   6  13  12 1254.91  450.37
  -6  13 -12  918.39  509.88
   6 -13 -12 -248.16  675.34
   6 -13 -12 1153.16  661.81
   6  13  12 1349.90  754.23
   6  13 -12  450.88  773.96
   6 -13  12  199.07  755.30
   6  13  13  497.47  852.05
   6  13  13 1815.59  835.64
  -6  13 -13 1174.46  568.71
   6 -13 -13  907.89  444.06
   6  13 -13  934.27  851.89
   6 -13  13 2169.55  843.84
   6  13  14  234.41  607.67
   6  13  14  268.89  588.86
  -6  13 -14  420.56  404.60
   6 -13 -14  299.41  619.63
   6  13 -14  200.28  614.64
   6 -13  14  534.54  589.75
   6  13  15  334.50  725.47
   6  13  15  569.69  394.47
  -6  13 -15  644.03  479.06
   6 -13 -15  714.56  424.30
   6  13 -15 -129.29  717.01
   6 -13  15  768.58  686.72
   6  13  16  816.63  927.93
   6  13  16  861.36  491.08
  -6  13 -16  979.19  596.18
   6  13 -16 1869.11  913.54
   6 -13  16  875.42  858.91
   6  13  17 1484.90  956.82
   6  13  17 1270.26  834.38
  -6  13 -17  388.38  591.80
   6  13 -17 1202.85  934.33
   6 -13  17 1765.72  887.99
   6  13  18 4515.96 1498.32
   6  13  18 2993.76 1291.06
  -6  13 -18 3018.54  960.06
   6  13 -18   46.03 1428.66
   6 -13  18 5252.43 1332.48
   6  13  19 2451.74 1322.67
   6  13  19 1011.75 1110.33
  -6  13 -19 2107.12  837.42
   6 -13  19 2584.14  702.22
  -6  14   0  673.54  342.42
   6 -14   0  713.09  609.88
   6  14   0 -368.41  694.31
  -6  14  -121847.80 2232.23
   6 -14  -122167.80 2945.20
   6  14   120779.40 2355.07
   6  14  -123432.30 2512.48
   6 -14   122234.40 2175.24
  -6  14   120911.30 2880.95
   6  14   2 1847.29  542.10
  -6  14  -2 1296.67  783.57
   6 -14  -2 1415.03  807.13
   6  14  -2 1580.05  549.44
   6 -14   2 1308.93  509.82
  -6  14   2  724.30  694.97
   6  14   3 7250.66 1679.66
  -6  14  -3 6030.38 1033.98
   6 -14  -3 7455.51 1531.84
   6  14  -3 6805.04 1706.94
   6 -14   3 7883.85 1001.70
  -6  14   3 6132.01 1344.99
   6  14   4 2239.07  719.65
  -6  14  -4 1504.19  981.60
   6 -14  -4 2187.38  554.14
   6  14   4 1530.57  613.34
   6 -14   4 1533.17  889.18
  -6  14   4 2465.46  453.29
   6  14  -4 2376.43 1060.17
   6  14   5 4302.50  630.02
   6  14   5 2692.66 1403.54
  -6  14  -5 4683.05  843.49
   6 -14  -5 4655.56  761.25
   6  14  -5 3948.03  835.06
   6 -14   5 3223.51 1254.24
   6  14   6 1122.04  532.74
   6  14   6  677.22  447.15
  -6  14  -6   23.27  715.32
   6 -14  -6  968.10  632.42
   6  14  -6  714.41  444.12
   6 -14   6  395.50  662.89
   6  14   7  288.72  450.27
   6  14   7  407.43  588.61
  -6  14  -7  705.04  595.58
   6 -14  -7   60.55  503.87
   6  14  -7  449.18  353.14
   6 -14   7   17.88  545.32
   6  14   8 2481.78  948.16
   6  14   8 2181.08  700.07
  -6  14  -8 3221.26  728.78
   6 -14  -8 2425.26  641.92
   6  14  -8 2208.30 1196.74
   6 -14   8 2770.50 1076.20
   6  14   9 6429.20  915.11
   6  14   9 6367.74 1624.93
  -6  14  -9 4898.18 1039.99
   6 -14  -9 7680.02 1472.75
   6  14  -9 4117.23 1719.13
   6 -14   9 6600.51 1572.97
   6  14  10 3846.87 1075.33
   6  14  10 2847.27  727.85
  -6  14 -10 3392.52 1241.68
   6 -14 -10 2478.70 1047.22
   6  14 -10   21.08 1232.66
   6 -14  10 2815.54 1101.13
   6  14  11 6402.86 1544.25
   6  14  11 6684.67 1633.31
  -6  14 -11 3379.67 1745.84
   6 -14 -11 8894.31 1003.51
   6  14 -11 -617.04 1705.26
   6 -14  11 5652.02 1543.87
   6  14  12 2091.85  589.49
   6  14  12 1333.80  967.65
  -6  14 -12 1340.61 1070.85
   6 -14 -12  301.49  923.20
   6 -14  12 2482.09  997.31
   6  14 -12 2152.07 1022.76
   6  14  1313763.20 1786.30
   6  14  1314935.30 1865.76
  -6  14 -1311084.10 2772.44
   6  14 -1314760.30 1936.47
   6 -14  1319415.20 1950.40
   6  14  14 -171.90  363.11
   6  14  14 -121.21  341.78
  -6  14 -14  687.00  669.10
   6 -14 -14  545.70  638.76
   6  14 -14  424.90  379.22
   6 -14  14  889.21  353.73
   6  14  1510515.60 1522.44
   6  14  15 8923.67 2080.05
  -6  14 -1510326.40 2470.58
   6  14 -1510995.10 1647.77
   6 -14  1512327.40 1543.41
   6  14  16   20.34  546.65
   6  14  16  113.75  832.53
  -6  14 -16  680.76  976.49
   6  14 -16 1309.59  580.33
   6 -14  16 2144.34  528.72
   6  14  1710707.80 1511.76
   6  14  17 4736.57 2009.39
  -6  14 -17 5236.34 2406.91
   6  14 -1711711.30 1645.73
   6 -14  1710476.40 1409.69
   6  14  18  199.38  540.68
   6  14  18  404.92  801.84
  -6  14 -18  462.95  992.35
   6  14 -18 1850.96  590.08
   6 -14  18 1105.68  855.78
  -6  15   0  211.33  530.70
   6 -15   0  408.06  351.01
   6  15   0 1050.13  658.24
   6  15   1 2363.15  697.21
  -6  15  -1 2484.47  953.70
   6 -15  -1 2399.60  634.24
   6  15  -1 3175.65 1141.18
   6 -15   1 2521.41 1039.63
  -6  15   1 2411.62  565.35
   6  15   2 4148.12 1489.43
  -6  15  -2 4866.77  847.65
   6 -15  -2 5079.24 1352.23
   6  15  -2 4543.01  930.70
   6 -15   2 4619.55 1318.37
  -6  15   2 4749.26  771.84
   6  15   3 3087.36  738.70
  -6  15  -3 2583.27 1119.07
   6 -15  -3 2986.29 1119.68
   6  15  -3 2670.74 1229.56
   6 -15   3 3577.42 1180.38
  -6  15   3 3015.89  578.62
   6  15   4 2958.78 1221.67
  -6  15  -4 2663.22  723.65
   6 -15  -4 3393.65 1163.33
   6  15  -4 3042.79 1296.03
   6 -15   4 4938.06 1154.36
   6  15   5 8979.60 2004.53
   6  15   5 8816.64 1586.67
  -6  15  -510731.90 2080.80
   6 -15  -510353.20 1275.01
   6 -15   510897.20 1899.10
   6  15  -5 9914.37 1470.85
   6  15   6 6033.03  880.29
  -6  15  -6 5898.08 1083.65
   6 -15  -6 7677.57 1020.26
   6  15   6 6174.61 1693.42
   6  15  -6 7187.38 1191.48
   6 -15   6 6727.47 1026.33
   6  15   712298.50 2357.15
   6  15   711648.50 1945.64
  -6  15  -714285.50 2526.77
   6 -15  -714139.80 2212.30
   6  15  -712102.40 1650.24
   6 -15   713761.00 1546.68
   6  15   8 5281.33  804.78
   6  15   8 3849.62 1562.23
  -6  15  -8 4488.14 1574.25
   6 -15  -8 4408.35 1359.86
   6  15  -8  320.71 1600.15
   6 -15   8 6683.66  937.55
   6  15   9 3971.32 1226.11
   6  15   9 4463.19  894.35
  -6  15  -9 -191.95 1421.61
   6 -15  -9 5479.31  824.57
   6 -15   9 5213.66  845.70
   6  15  -9  -22.39 1477.39
   6  15  10 6346.14 1632.09
  -6  15 -10 -116.11 1039.10
   6 -15 -10 6375.17 1477.99
   6  15  10 7377.81  943.34
   6  15 -10 -207.16 1723.03
   6 -15  10 8636.53  979.39
   6  15  11 4147.84  751.86
   6  15  11 3473.73 1281.69
  -6  15 -11 3301.14  849.49
   6 -15 -11 3815.04  748.13
   6  15 -11 -253.17  805.82
   6 -15  11 4294.14  751.76
   6  15  12 3063.67  932.28
   6  15  12   54.58  559.14
  -6  15 -12 1955.29  641.94
   6 -15 -12  550.33  911.23
   6  15 -12 1310.11  618.24
   6 -15  12 3389.29  953.44
   6  15  13  -38.76  759.33
   6  15  13  286.92  725.51
  -6  15 -13  814.24  485.36
   6 -15 -13  182.32  720.20
   6  15 -13 1229.17  492.26
   6 -15  13  549.30  737.76
   6  15  14 1545.37 1141.66
  -6  15 -14 3021.33  816.55
   6 -15 -14 1905.83 1275.84
   6  15  14  -73.27 1236.26
   6  15 -14 4535.77 1319.56
   6 -15  14 3409.92 1203.43
   6  15  15   18.59  698.79
   6  15  15  670.51  376.10
  -6  15 -15  791.76  464.39
   6 -15 -15   -5.17  430.91
   6  15 -15 1377.87  752.35
   6 -15  15 -333.52  672.74
   6  15  16  -28.93  427.96
   6  15  16  392.44  401.97
  -6  15 -16  643.24  455.13
   6  15 -16 1086.35  742.25
   6 -15  16  415.08  707.81
   6  15  17  -91.48  568.67
   6  15  17  999.97  504.38
  -6  15 -17  918.65  604.26
   6  15 -17 1222.45 1019.08
   6 -15  17 2361.13  892.96
   6  16   025011.00 2728.30
  -6  16   020166.60 3010.49
   6 -16   025050.60 3330.14
   6  16   1 1147.00  522.18
  -6  16  -1  720.67  419.76
   6 -16  -1 1233.49  472.26
   6  16  -1   74.74  852.50
   6 -16   1  758.60  778.75
  -6  16   1  796.20  638.17
   6  16   214005.40 2624.07
  -6  16  -213441.80 2420.37
   6 -16  -215750.40 1671.26
   6 -16   214673.60 2410.31
  -6  16   212836.00 2179.43
   6  16  -213733.20 1870.49
   6  16   3 1408.24  599.42
  -6  16  -3 2074.57  566.92
   6 -16  -3 2019.78  929.22
   6  16  -3 1365.05  615.60
   6 -16   3 1638.43  551.16
   6  16   4 3559.35 1431.56
  -6  16  -4 3586.37 1371.73
   6 -16  -4 4276.14 1339.61
   6  16  -4 2350.49 1474.55
   6 -16   4 5564.04  821.77
   6  16   5 1855.16  587.79
  -6  16  -5 1684.83  602.98
   6 -16  -5  916.98  935.04
   6  16  -5 1705.77  641.05
   6 -16   5 2243.54  555.71
   6  16   6  816.85  684.49
  -6  16  -6 1137.59  870.79
   6 -16  -6 1388.10  479.02
   6  16   6 1349.32  855.55
   6  16  -6  152.40  532.13
   6 -16   6 1819.40  485.61
   6  16   7  969.46  532.05
   6  16   7 1566.95  435.05
  -6  16  -7 1387.16  876.51
   6 -16  -7  955.57  844.03
   6  16  -7  131.14  959.41
   6 -16   7 1454.73  845.56
   6  16   8 1166.73  720.18
   6  16   8  998.96  625.41
  -6  16  -8  108.84  444.34
   6 -16  -8  922.16  696.33
   6  16  -8  499.54  790.50
   6 -16   8  844.62  709.82
   6  16   9   37.40  509.30
   6  16   9  619.56  283.55
  -6  16  -9 -528.26  322.26
   6 -16  -9  373.73  291.11
   6  16  -9 -146.39  571.27
   6 -16   9  385.50  513.67
   6  16  10 3118.68  656.81
   6  16  10 3066.59 1015.73
  -6  16 -10 -390.06 1147.31
   6 -16 -10 3598.76 1073.63
   6  16 -10   18.96  716.65
   6 -16  10 2613.25 1107.26
   6  16  11 1009.89  738.21
   6  16  11 1089.22  709.09
  -6  16 -11   21.04  813.22
   6 -16 -11 1165.21  432.72
   6  16 -11  130.53  468.07
   6 -16  11  284.97  720.99
   6  16  1211045.00 1426.72
   6  16  12 9697.91 2190.14
  -6  16 -12 7314.01 2302.27
   6 -16 -12 5429.52 1968.87
   6  16 -1212509.40 2414.35
   6 -16  1213081.40 2173.77
   6  16  13  127.23  400.98
   6  16  13  374.50  395.16
  -6  16 -13  328.83  766.41
   6 -16 -13  593.67  671.36
   6  16 -13  486.53  743.20
   6 -16  13 1193.58  688.20
   6  16  1413724.40 2622.57
  -6  16 -1412806.60 2937.60
   6 -16 -14 7869.29 2712.25
   6  16  1413920.40 2643.19
   6  16 -1415180.10 2969.91
   6 -16  1416691.60 1920.53
   6  16  15  -40.96  702.60
   6  16  15   -1.77  670.60
  -6  16 -15  550.99  770.97
   6  16 -15  297.44  764.28
   6 -16  15  668.33  406.80
  -6  17   0  497.67  655.47
   6 -17   0 1110.72  738.62
   6  17   0  787.31  475.37
   6  17   1  719.45  780.43
  -6  17  -1  341.01  660.92
   6 -17  -1  865.20  718.22
   6  17  -1  900.72  769.24
   6 -17   1  539.41  704.11
  -6  17   1  777.22  362.51
   6  17   2 1856.77  556.32
  -6  17  -2  975.70  496.94
   6 -17  -2 1149.03  525.68
   6 -17   2 1734.33  536.39
   6  17  -2  566.43  552.36
  -6  17  -3 3296.79 1249.60
   6 -17  -3 3349.82  770.87
   6  17   3 3520.20 1334.88
   6  17  -3 3668.38  843.04
   6 -17   3 3381.01  755.02
   6  17   4  -13.23 1246.34
  -6  17  -4 3690.21  749.96
   6 -17  -4 2871.74 1185.05
   6  17  -4 1957.86 1344.19
   6 -17   4 4298.72 1171.67
   6  17   5 6581.29 1295.97
  -6  17  -5 3410.01 1262.86
   6 -17  -5 4082.49 1221.70
   6  17  -5  -61.74  830.97
   6 -17   5 4448.87 1158.99
   6  17   6 7547.05 1236.17
  -6  17  -6 6583.44 1921.91
   6 -17  -6 8856.72 1208.50
   6  17  -6 7946.44 1297.32
   6 -17   6 8806.32 1776.53
   6  17   7 3256.81  974.45
  -6  17  -7 -474.93  701.61
   6 -17  -7 4200.58 1114.30
   6  17   7 5134.81 1178.64
   6  17  -7 -310.17 1226.00
   6 -17   7 4552.20 1124.29
   6  17   8 8275.71 1160.88
   6  17   8 7247.13 1040.83
  -6  17  -8 -184.06 1827.32
   6 -17  -811648.50 1821.56
   6  17  -8 -269.48 1939.10
   6 -17   8 9567.10 1804.91
   6  17   9 2646.58 1026.63
  -6  17  -9 -561.05 1195.13
   6 -17  -9 3158.53  681.91
   6  17   9 2329.67 1107.65
   6  17  -9 -401.78  718.54
   6 -17   9 4022.12  678.93
   6  17  10 3373.31 1216.00
   6  17  10 2366.75 1140.58
  -6  17 -10   90.97 1285.14
   6 -17 -10 2433.34 1227.66
   6  17 -10  584.96  789.80
   6 -17  10 5515.58  754.04
   6  17  11 2669.51  869.43
   6  17  11 5088.37  893.93
  -6  17 -11 -369.24 1587.16
   6 -17 -11 5291.78  926.85
   6  17 -11 5557.48 1694.56
   6 -17  11 6068.53  930.94
   6  17  12  298.15  813.49
   6  17  12 1136.75  829.42
  -6  17 -12    7.04  952.86
   6 -17 -12  865.98  864.62
   6  17 -12 1128.64  936.36
   6 -17  12 1248.57  488.56
   6  17  13 1449.72  927.23
  -6  17 -13  576.17 1020.70
   6 -17 -13  339.64  551.13
   6  17  13  298.13  885.82
   6  17 -13 1871.96 1008.87
   6 -17  13 2268.45  559.57
   6  17  14  834.96  552.61
   6  17  14  142.00  352.75
  -6  17 -14 -126.82  654.10
   6  17 -14  232.46  377.20
   6 -17  14 -109.56  587.00
  -6  18   0 1249.56  753.76
   6 -18   0 1386.65  877.87
   6  18   0  878.67  550.50
  -6  18  -1 8941.51 1316.40
   6 -18  -110578.60 2094.19
   6  18   1 4494.62 2208.95
   6  18  -110045.10 2304.13
   6 -18   111921.40 1417.84
  -6  18   1 8247.51 1751.10
   6  18   2  948.76  509.46
  -6  18  -2  511.42  743.23
   6 -18  -2  113.99  481.98
   6  18  -2 1762.52  543.15
   6 -18   2 1182.37  478.18
   6  18   3  115.60 1853.04
  -6  18  -3 7143.94 1175.39
   6 -18  -3 8385.22 1160.62
   6  18  -3 8747.51 1356.02
   6 -18   3 8333.95 1779.90
   6  18   4 -163.65  493.60
  -6  18  -4 1009.01  782.92
   6 -18  -4 1301.02  803.08
   6  18  -4 1557.97  876.35
   6 -18   4 1726.63  760.40
   6  18   5  245.03 1253.21
  -6  18  -5  192.79 1197.90
   6 -18  -5 3454.44 1252.02
   6  18  -5 4363.46  861.67
   6 -18   5 3791.90 1170.27
   6  18   6 -440.36  541.68
  -6  18  -6 -345.64  529.82
   6 -18  -6 2497.64  524.27
   6  18  -6  397.91  565.15
   6 -18   6 2491.66  506.80
   6  18   7 -196.47  279.72
  -6  18  -7  160.80  286.86
   6 -18  -7 -184.51  276.36
   6  18  -7   96.54  301.36
   6 -18   7   50.81  159.51
   6  18   8 1408.77  818.99
   6  18   8 1138.77  733.14
  -6  18  -8 -184.94  853.27
   6 -18  -8  864.41  809.40
   6  18  -8  -97.65  513.51
   6 -18   8 1645.78  495.38
   6  18   9 1884.64  617.20
   6  18   9 2071.68  559.75
  -6  18  -9  183.32 1062.85
   6 -18  -9 2134.92  613.29
   6  18  -9  157.83  648.32
   6 -18   9 1783.08  597.35
   6  18  10  510.21  760.03
  -6  18 -10 -156.18  534.99
   6 -18 -10 1297.92  809.84
   6  18  10  785.96  793.24
   6  18 -10 1362.81  891.87
   6 -18  10 1197.14  503.07
   6  18  11 5617.64 1917.72
   6  18  11 6161.06 1936.05
  -6  18 -11 6289.17 1308.65
   6 -18 -11 9312.65 1303.70
   6  18 -1110419.10 2221.03
   6 -18  11 8424.24 1928.54
   6  18  12  413.22  373.99
   6  18  12 -346.92  389.66
  -6  18 -12 -232.50  436.71
   6 -18 -12  604.86  690.59
   6  18 -12 1372.70  441.64
   6 -18  12  865.91  673.69
   6 -19   0  595.68  351.59
   6  19   0  -78.57  382.49
   6  19   1  -19.19  651.33
  -6  19  -1  517.32  556.15
   6 -19  -1   79.43  608.80
   6  19  -1  381.61  653.65
   6 -19   1  363.90  355.69
   6  19   2 -106.19  400.02
  -6  19  -2  660.31  625.80
   6 -19  -2  579.79  653.99
   6  19  -2  573.12  712.63
   6 -19   2 1042.16  655.63
   6  19   3  -88.88 1219.19
  -6  19  -3 2448.21 1137.73
   6 -19  -3 2571.86  724.64
   6  19  -3 3152.76  811.79
   6 -19   3 2754.11 1175.07
   6  19   4 -446.21  546.98
  -6  19  -4   71.90  849.97
   6 -19  -4 2632.16  886.83
   6  19  -4 2619.37  961.26
   6 -19   4 2127.96  868.63
  -6  19  -5 5541.19 1073.74
   6 -19  -5 5428.84 1749.77
   6  19   5  -60.28 1775.75
   6  19  -5 7804.14 1300.94
   6 -19   5 8010.73 1078.21
   6  19   6 -117.75 1298.73
  -6  19  -6   88.70 1287.12
   6 -19  -6 3790.29  804.75
   6  19  -6 4752.28 1394.75
   6 -19   6 3655.62  757.74
   6  19   7 7116.93 1211.74
  -6  19  -7   19.55 1897.94
   6 -19  -710714.00 1970.69
   6  19  -7  132.49 1974.19
   6 -19   711305.30 1281.14
   6  19   8  -72.15  865.31
  -6  19  -8  224.90  904.33
   6 -19  -8 3113.70  898.22
   6  19  -8   15.30  542.52
   6 -19   8 1958.08  851.67
   6  19   9 -110.05 1916.48
  -6  19  -9 6582.14 1308.71
   6 -19  -910280.20 1326.10
   6  19  -9 7894.36 2169.50
   6 -19   911127.80 1999.34
   6  19  10 -333.69  479.51
   6  19  10 1413.98  466.73
  -6  19 -10  -42.80  529.68
   6 -19 -10 1395.77  834.85
   6  19 -10 1837.81  896.24
   6 -19  10 1370.71  836.20
   6  20   0 9039.67 1640.98
   6 -20   011062.60 1477.83
   6  20   1 -238.25  634.28
   6 -20  -1 -103.78  593.67
   6  20  -1  171.07  637.42
   6 -20   1  497.60  342.61
   6  20   2 -241.92 1968.44
  -6  20  -2 5786.57 1115.32
   6 -20  -2 7191.13 1817.69
   6  20  -2 8984.45 2056.37
   6 -20   2 9021.13 1820.45
   6  20   3 -180.03 1288.02
  -6  20  -3 2187.64 1174.00
   6 -20  -3 3498.63  745.02
   6  20  -3 2851.15  835.47
   6 -20   3 1130.81 1221.55
   6  20   4 -159.35 1291.63
  -6  20  -4  -29.36  726.85
   6 -20  -4 3811.62 1278.61
   6  20  -4 6581.52 1431.40
   6 -20   4 6194.59 1241.42
   6  20   5 -188.36  527.16
  -6  20  -5  -56.04  858.21
   6 -20  -5 1711.70  874.60
   6  20  -5 2165.99  552.26
   6 -20   5  749.06  481.25
   6  20   6  152.04  732.90
  -6  20  -6  115.74  718.58
   6 -20  -6 1047.27  430.68
   6  20  -6   51.54  749.88
   6 -20   6  327.79  401.34
   6  20   7   37.29  498.92
  -6  20  -7 -346.11  852.87
   6 -20  -7  947.74  850.05
   6  20  -7 1695.90  877.22
   6 -20   7 2212.68  814.93
   6  21   0  172.10  600.04
   6 -21   0  155.14  310.80
   6  21   1 -147.07  857.15
   6 -21  -1  360.99  811.48
   6  21  -1  460.32  862.56
   6 -21   1 1071.01  480.76
   6  21   2  171.04  932.95
   6 -21  -2  872.40  524.28
   6  21  -2 1662.20  967.46
   6 -21   2  797.38  865.02
   7   0   0  413.42  469.70
   7   0   0  134.64  168.54
   7   0   159634.80 5316.27
   7   0   162689.30 6862.94
   7   0  -160060.40 6636.56
   7   0  -159368.60 5098.10
   7   0   2 1248.76  523.37
   7   0   2 1082.98  787.64
   7   0  -2 1891.56  746.71
   7   0  -2  866.35  270.45
   7   0   3 5670.76 1010.25
   7   0   3 6352.04 1544.42
   7   0  -3 5626.45  760.08
   7   0  -3 6797.54 1386.63
   7   0   4  582.35  436.63
   7   0   4  331.04  382.48
   7   0  -4  295.74  295.45
   7   0  -4 1027.87  554.18
   7   0  -513107.40 1975.09
   7   0   510318.20 1561.13
   7   0   512801.40 2240.67
   7   0   6  869.18  624.19
   7   0   6  607.84  518.26
   7   0  -6 1632.50  437.17
   7   0   7  859.02  485.71
   7   0   7  937.69  343.99
   7   0  -7 1231.74  660.18
   7   0   8 1825.81 1029.43
   7   0   8 1546.14  752.32
   7   0  -8 1651.13  769.11
   7   0   9 5170.08  746.03
   7   0   9 4421.23 1517.16
   7   0  -9 4288.88  700.38
   7   0  10  519.02  492.51
   7   0  10  285.84  367.86
   7   0 -10  349.22  458.89
   7   0  1127958.00 2528.98
   7   0  1128064.30 4009.92
   7   0 -1127064.80 2460.33
   7   0  12  405.21  341.94
   7   0 -12  218.74  376.24
   7   0  12  -30.32  464.55
   7   0  1318107.80 2578.41
   7   0  1319157.30 2169.72
   7   0 -1317606.50 2263.72
   7   0  14  517.89  359.72
   7   0  14  226.36  715.59
   7   0  1511988.50 2153.85
   7   0  1510101.50 2400.06
   7   0  16 -448.77  627.34
   7   0  16  400.05  321.98
   7   0  17 7015.43 2287.53
   7   0  1710342.60 2031.11
   7   0  18  184.00  473.75
   7   0  18   72.38  322.39
   7   0  19 6178.50 1283.58
   7   0  19 7067.87 1195.76
   7   0  20 -116.60  278.23
   7   0  20  132.52  399.35
   7   0  21  -25.70  347.00
   7   0  21  205.05  313.44
   7   1   0  350.06  353.32
   7  -1   0  348.51  228.41
   7   1   0  759.30  607.92
   7  -1   0  800.93  358.82
   7   1   1 2094.46  639.20
   7   1   1 3167.01 1048.46
   7  -1  -1 1952.09  628.37
   7  -1  -1 3540.45  620.01
   7   1  -1 2675.30 1040.73
   7   1  -1 1593.96  555.12
   7  -1   1 3018.66  651.68
   7  -1   1 2456.82  672.92
   7  -1  -2 5248.32  859.78
   7   1   2 5364.96  964.84
   7   1   2 6781.35 1544.48
   7  -1  -2 6553.95  904.55
   7   1  -2 4607.49  772.19
   7  -1   2 6539.43 1041.56
   7  -1   2 6502.28 1548.76
   7   1  -2 5962.67 1442.55
   7   1   310849.20 1426.49
   7  -1  -311265.90 1268.89
   7  -1  -312201.70 1243.86
   7   1   312055.20 1451.96
   7  -1   310514.00 1054.84
   7   1  -310338.60 1094.39
   7   1  -313108.90 2024.61
   7  -1   311692.40 2129.53
   7   1   4 7303.03  818.00
   7   1   4 9158.15 1836.02
   7  -1  -4 8503.89  997.40
   7  -1  -4 9091.41 1584.63
   7   1  -4 9120.97 1638.98
   7  -1   4 8630.03 1300.68
   7  -1   4 8330.42 1207.31
   7   1   5 8412.23 1310.90
   7   1   5 8720.76 1889.33
   7  -1  -5 8459.63  949.42
   7  -1  -5 8719.84 1581.83
   7   1  -5 9988.26 1698.64
   7  -1   5 8521.02 1200.30
   7  -1   5 8802.98  900.03
   7  -1  -610862.80 1726.57
   7   1   6 9105.63 1000.13
   7   1   611394.30 1439.66
   7   1  -610425.10 1223.22
   7  -1   610362.10 2047.98
   7  -1   6 9573.40 1508.77
   7   1   7 8493.69 1978.64
   7   1   7 9303.33 1437.59
   7  -1  -7 9282.56 1060.64
   7   1  -7 9024.79 1608.25
   7  -1   7 8572.25 1249.18
   7  -1   7 8657.27 1452.68
   7   1   816991.00 1962.36
   7   1   817269.50 1581.54
   7  -1  -818163.20 2269.36
   7   1  -816872.10 2312.90
   7  -1   816198.90 1545.19
   7  -1   817321.00 2772.78
   7   1   911661.10 1810.97
   7  -1  -913086.60 1289.63
   7   1   911495.20 2355.11
   7   1  -912954.00 1344.79
   7  -1   910847.00 1526.25
   7  -1   913151.10 1870.07
   7   1  10 7001.63 1094.82
   7   1  10 6028.27  822.35
   7  -1 -10 7084.51 1228.19
   7   1 -10 3990.38 1295.26
   7  -1  10 6826.17  866.85
   7  -1  10 2988.21 1689.35
   7   1  11 5197.67 1110.99
   7  -1 -11 3514.24  934.07
   7   1  11 3129.83 1365.47
   7   1 -11 2728.86  580.22
   7  -1  11 4076.29 1465.41
   7  -1  11 3585.80  651.13
   7   1  12 4379.32  654.55
   7   1  12 2397.87 1300.79
   7  -1 -12 2675.26  492.38
   7   1 -12 1507.32  866.82
   7  -1  12 3107.59 1055.18
   7  -1  12 3021.86  819.89
   7   1  13  200.30  442.56
   7   1  13  907.89  624.68
   7   1 -13  407.75  294.64
   7  -1  13  598.80  366.66
   7  -1  13  991.01  457.69
   7   1  14  421.60  377.75
   7   1  14 1117.13  459.75
   7   1 -14  106.12  492.86
   7  -1  14  862.21  786.26
   7  -1  14  408.33  644.92
   7   1  15  717.13  736.00
   7   1  15 1034.46  867.48
   7  -1  15  534.84  870.65
   7  -1  15  935.87  737.97
   7   1  16 1779.36  870.06
   7   1  16   92.22  992.32
   7  -1  16 1148.99  512.78
   7  -1  16 1305.68 1005.48
   7   1  17 3510.44  822.90
   7   1  17 3231.86 1518.37
   7  -1  17 3957.30 1328.34
   7  -1  17 3348.99  963.37
   7   1  18 3535.14 1505.34
   7   1  18  -54.55 1637.54
   7  -1  18 6072.59  961.38
   7  -1  18 4343.74 1073.25
   7   1  19 3447.90  716.11
   7   1  19   18.67 1257.97
   7  -1  19 2560.36  676.09
   7  -1  19   -1.66  776.62
   7   1  20   49.80  836.84
   7   1  20 -156.20  897.00
   7  -1  20 2704.16  830.71
   7  -1  20  -84.60  587.36
   7   1  21   -4.29  481.18
   7   1  21   -4.70  277.18
   7  -1  21  -80.24  299.71
   7   2   026069.60 3492.62
   7  -2   029331.50 2711.48
   7   2   025910.10 2313.33
   7  -2   024110.00 2470.11
   7  -2  -1 9672.83 1244.96
   7   2   110254.70 1266.07
   7   2   1 7823.53  769.34
   7  -2  -1 8594.95 1143.05
   7   2  -1 8518.51 1028.10
   7   2  -110961.80 1822.29
   7  -2   1 6856.77  839.66
   7  -2   111708.40 1313.98
   7   2   225063.60 2553.27
   7  -2  -225753.30 2416.55
   7  -2  -224806.50 2397.27
   7   2   226718.40 2494.52
   7  -2   223636.60 2489.13
   7   2  -224183.10 2066.65
   7  -2   225320.40 2523.41
   7   2  -226240.40 3360.44
   7  -2  -3 2821.03  636.49
   7   2   3 2822.36  686.34
   7   2   3 3213.10 1133.21
   7  -2  -3 2811.46  585.39
   7   2  -3 1720.31 1041.61
   7  -2   3 2368.12 1110.69
   7  -2   3 3002.63  766.60
   7   2   413115.20 1139.35
   7   2   413965.90 2334.83
   7  -2  -413760.50 1416.27
   7  -2  -412890.60 1342.53
   7   2  -414839.50 2224.95
   7  -2   414718.00 2333.35
   7  -2   411807.10 1168.51
   7  -2  -5  657.37  355.09
   7   2   5  394.13  488.96
   7   2   5  465.55  461.13
   7  -2  -5 1431.63  612.92
   7   2  -5  909.59  395.56
   7  -2   5  777.17  525.47
   7  -2   5  784.82  425.78
   7   2   6 1779.91  418.91
   7   2   6 1824.42  998.06
   7  -2  -6 1026.87  450.83
   7  -2  -6 2389.35  778.21
   7  -2   6 1749.72  439.48
   7   2  -6 1928.24  499.72
   7  -2   6  590.82  954.75
   7   2   7 1811.34  792.34
   7   2   7 3270.66 1137.02
   7  -2  -7 2756.59  533.01
   7   2  -7 2213.56  929.40
   7  -2   7 2371.28  556.86
   7  -2   7 1699.12  655.14
   7   2   8 2920.71  934.97
   7   2   8 2859.80  758.36
   7  -2  -8 2731.93  912.65
   7   2  -8 3199.73 1003.72
   7  -2   8 2066.45 1216.47
   7  -2   8 2917.74  944.70
   7   2   9 1452.76  412.22
   7   2   9 2193.96  907.97
   7  -2  -9  861.05  355.02
   7   2  -9 1442.69  424.03
   7  -2   9 1030.25  411.48
   7  -2   9  571.18  542.39
   7   2  1010447.40 1839.17
   7  -2 -1011327.70 1664.91
   7   2  1012504.10 2361.17
   7   2 -1012496.70 1847.58
   7  -2  1011037.20 2242.57
   7  -2  1010757.10 1234.71
   7   2  11  673.56  451.00
   7   2  11  616.08  359.26
   7  -2 -11  541.21  480.70
   7   2 -11  522.85  540.62
   7  -2  11 1190.66  605.82
   7  -2  11  144.32  756.13
   7   2  1216079.80 2698.62
   7   2  1213984.00 2164.93
   7   2 -1212919.50 1927.71
   7  -2  1212614.60 1443.22
   7  -2  1213208.30 1755.75
   7   2  13  930.05  762.03
   7   2  13  585.99  367.75
   7   2 -13  730.50  508.80
   7  -2  13  483.59  365.92
   7  -2  13  132.77  759.19
   7   2  1419839.70 2338.15
   7   2  1419136.00 2817.08
   7   2 -1417461.00 2372.23
   7  -2  1421234.40 3445.49
   7  -2  1421088.20 2790.21
   7   2  15  -56.55  438.06
   7   2  15  586.75  382.36
   7  -2  15  616.23  371.61
   7  -2  15 1126.40  785.34
   7   2  1610686.30 2712.92
   7   2  1614837.30 2464.52
   7  -2  1614368.20 1602.67
   7  -2  1612330.50 2848.05
   7   2  17  210.22  856.14
   7   2  17 1055.98  460.38
   7  -2  17  548.77  731.95
   7  -2  17  559.44  542.00
   7   2  18    7.70 1333.78
   7   2  18 -584.89 1481.70
   7  -2  18 3429.48  999.57
   7  -2  18 5423.35  832.58
   7   2  19  -85.84  356.75
   7   2  19   41.34  677.87
   7  -2  19  747.12  605.34
   7  -2  19  535.80  426.67
   7   2  20  -99.32  494.45
   7   2  20  -90.80  527.50
   7  -2  20  282.26  483.35
   7  -2  20  122.21  335.73
   7   2  21  -23.62  275.57
   7   2  21 -247.03  505.63
   7  -2  21 -133.99  261.15
   7  -2  21  123.60  321.93
   7  -3   0  397.49  473.42
   7   3   0  772.44  384.71
   7  -3   0 1188.45  703.23
   7   3   0 1056.26  442.52
   7   3   1 6802.88  931.46
   7   3   1 4097.81  802.58
   7  -3  -1 5375.98  938.68
   7  -3  -1 3672.64 1329.40
   7   3  -1 4133.67  480.33
   7  -3   1 5319.08 1013.12
   7  -3   1 5702.90  875.04
   7   3  -1 5711.75  902.58
   7  -3  -210409.40 1694.66
   7   3   2 9103.08 1822.46
   7   3   2 9459.65 1189.70
   7  -3  -2 7944.07  814.30
   7   3  -2 7694.09  896.24
   7   3  -2 8573.71 1781.43
   7  -3   2 8059.40 1209.81
   7  -3   2 8888.38  915.29
   7   3   3 1340.81  888.90
   7   3   3 1493.70  563.33
   7  -3  -3 1136.52  512.90
   7  -3  -3 1396.85  455.13
   7   3  -3 1500.34  517.54
   7  -3   3 2694.78  659.80
   7  -3   3 1005.77  510.33
   7   3   4 6341.33  705.33
   7   3   4 6614.75 1016.06
   7  -3  -4 6031.86  905.93
   7  -3  -4 5894.79  820.37
   7  -3   4 6335.92 1166.82
   7   3  -4 6103.83  955.21
   7  -3   4 5531.50 1560.99
   7   3   516499.90 1914.42
   7   3   516600.60 1859.10
   7  -3  -516646.40 2211.85
   7  -3  -515315.20 1160.58
   7   3  -515562.60 1685.62
   7  -3   516562.60 1467.85
   7  -3   516341.10 1803.80
   7   3   612477.70 1647.92
   7   3   611277.00 2195.70
   7  -3  -610670.40 1185.63
   7  -3  -613051.50 1871.87
   7   3  -612456.30 1390.05
   7  -3   610538.70 1669.35
   7  -3   612434.20 2258.63
   7   3   714897.60 1752.11
   7  -3  -715388.40 1469.67
   7   3   715503.50 1405.32
   7   3  -713567.80 2160.97
   7  -3   714170.10 1973.48
   7  -3   712898.70 1666.82
   7   3   811612.00 1758.33
   7   3   812114.60 2306.09
   7  -3  -812264.10 1733.10
   7  -3   811991.50 1275.81
   7   3  -811965.60 1994.42
   7  -3   811003.20 2297.54
   7   3   9 6440.17 1200.41
   7   3   9 6681.40 1019.57
   7  -3  -9 4881.59  704.78
   7   3  -9 4814.26  814.82
   7  -3   9 5420.85  777.79
   7  -3   9 2953.27  961.21
   7   3  10 7259.74  939.68
   7   3  10 8493.68 1869.67
   7  -3 -10 7024.93 1198.96
   7   3 -10 6626.68 1383.43
   7  -3  10 7308.95 1444.72
   7  -3  10 2368.82 1759.72
   7   3  11 9104.21 1668.90
   7   3  11 8597.26 1358.41
   7  -3 -11 8917.04 1354.42
   7   3 -11 9385.76 1623.06
   7  -3  11 9188.61 1665.03
   7  -3  11 9507.40 1389.19
   7   3  12 3575.36  656.53
   7   3  12 3918.80  845.84
   7  -3  12 3638.47  695.39
   7   3 -12 3015.23  616.76
   7  -3  12 2216.99  853.39
   7   3  13  968.52  690.34
   7   3  13  930.29  845.71
   7   3 -13  540.26  595.29
   7  -3  13  624.06  690.41
   7  -3  13 1016.03  868.58
   7   3  14  141.51  845.23
   7   3  14  784.45  424.16
   7   3 -14  943.96  343.50
   7  -3  14  479.54  700.11
   7  -3  14  242.90  899.44
   7   3  15  373.03  377.62
   7   3  15  472.02  553.89
   7   3 -15   65.09  440.21
   7  -3  15  247.00  314.58
   7  -3  15  202.79  669.66
   7   3  16 1154.13  631.42
   7   3  16 1584.76  907.40
   7  -3  16 1498.94  876.58
   7  -3  16  939.39 1109.40
   7   3  17 -131.94 1321.83
   7   3  17 2597.30 1185.87
   7  -3  17 3298.22 1158.23
   7  -3  17 2976.78  864.02
   7   3  18  383.38 1375.80
   7   3  18  -62.26 1290.94
   7  -3  18 3998.78  753.54
   7  -3  18 2883.09  886.01
   7   3  19 -319.31 1753.01
   7   3  19 5665.00 1015.36
   7  -3  19 5200.26 1559.56
   7  -3  19 4699.45 1186.63
   7   3  20 -383.56 1422.34
   7   3  20 -102.48 1342.23
   7  -3  20 5043.52  995.74
   7   3  21 -141.91 1820.48
   7   3  21 6244.01 1114.81
   7  -3  21 6068.85 1054.06
   7  -3  21 -100.34 2000.82
   7   4   0 1826.32  472.62
   7  -4   0 1632.06  388.53
   7  -4   0 1509.11  855.65
   7   4   0 1305.89  525.33
   7   4   125654.30 3200.58
   7   4   121422.80 2014.90
   7  -4  -123422.10 2927.36
   7  -4  -121403.90 2273.44
   7   4  -119440.80 1827.12
   7   4  -123053.40 2280.47
   7  -4   121476.30 3001.60
   7  -4   122292.00 2443.06
   7   4   2   78.73  337.19
   7  -4  -2  249.06  353.92
   7  -4  -2  455.05  519.00
   7  -4   2  489.39  425.54
   7   4  -2  588.98  324.26
   7  -4   2  431.25  333.16
   7   4   3 9509.95  882.64
   7  -4  -3 9301.31 1229.00
   7  -4  -3 9498.10 1671.82
   7   4   3 9426.44 1265.65
   7   4  -3 8873.24 1212.56
   7  -4   3 9725.94  994.42
   7  -4   312216.00 1322.94
   7   4   4 1299.10  405.63
   7   4   4  504.80  258.62
   7  -4  -4  387.12  232.85
   7  -4  -4  613.58  331.09
   7   4  -4  708.12  372.95
   7  -4   4  838.72  665.68
   7  -4   4  426.19  297.08
   7  -4  -5 8633.14 1144.86
   7   4   5 9516.06 1957.77
   7  -4  -510148.50 1565.44
   7   4   5 9912.78 1370.01
   7   4  -510068.80 1242.55
   7  -4   5 9288.50 1517.09
   7  -4   5 7793.31 1239.96
   7   4   6  404.98  427.81
   7   4   6  230.39  355.05
   7  -4  -6  369.88  322.75
   7  -4  -6  417.74  456.59
   7   4  -6  772.80  551.03
   7  -4   6  365.62  356.20
   7  -4   6  481.10  483.41
   7   4   7 1457.92  398.97
   7  -4  -7 1123.77  457.71
   7   4   7 1069.19  522.47
   7  -4  -7 1506.14  391.89
   7  -4   7 1129.89  415.32
   7  -4   7  753.11  896.75
   7   4  -7 1855.85  778.80
   7   4   8  -21.30  206.63
   7   4   8 1056.45  482.59
   7  -4  -8  338.45  322.44
   7   4  -8  155.83  403.92
   7  -4   8  -32.73  502.22
   7  -4   8    4.66  218.59
   7   4   9 7170.07 1139.74
   7  -4  -9 6337.52 1260.69
   7   4   9 8133.99 1412.39
   7   4  -9 8237.90 1515.74
   7  -4   9 7579.16 1486.85
   7  -4   9 6945.84 1192.57
   7   4  10 2609.62  803.13
   7   4  10 1843.26  604.25
   7  -4 -10 1411.52  362.17
   7   4 -10 1528.56  498.83
   7  -4  10 2167.48  811.36
   7  -4  10 1121.91 1089.18
   7   4  11 6074.90  860.44
   7   4  11 4667.66 1658.22
   7   4 -11 4806.02 1282.03
   7  -4  11 6357.18  873.71
   7  -4  11 5535.44 1088.58
   7   4  12  330.61  490.26
   7   4  12  546.29  367.66
   7  -4  12  410.44  286.63
   7   4 -12   86.36  449.30
   7  -4  12 -161.29  381.56
   7   4  1322142.30 3349.56
   7   4  1320809.50 2037.60
   7   4 -1318241.80 1881.99
   7  -4  1321980.90 2862.61
   7  -4  1318351.00 2397.00
   7   4  14  113.77  364.41
   7   4  14 -114.66  432.28
   7  -4  14  780.83  358.32
   7   4 -14  -95.95  318.02
   7  -4  14 -185.91  256.66
   7   4  1518184.00 2931.13
   7   4  1517570.90 3233.61
   7   4 -1517110.90 1899.46
   7  -4  1519596.40 1975.61
   7   4  16 1097.76  391.59
   7   4  16 -446.18  450.17
   7   4 -16  242.09  533.81
   7  -4  16  274.46  454.32
   7  -4  16 1241.50  655.98
   7   4  1711642.50 2232.85
   7   4  17 8174.42 1464.50
  -7   4 -17 9097.06 1616.95
   7  -4  1712663.90 2102.72
   7   4  18 -245.96  337.90
   7   4  18 -414.90  364.21
  -7   4 -18 -136.36  380.69
   7  -4  18  -33.61  324.05
   7   4  19  -55.44 1042.37
   7   4  19  116.66  656.10
  -7   4 -19 2100.85  720.23
   7  -4  19 2112.03  582.90
   7   4  20    1.73  298.46
   7   4  20  -76.26  541.64
  -7   4 -20  581.16  332.08
   7  -4  20  317.73  472.64
   7  -4  20 -400.73  335.15
   7   4  21   41.54  845.55
   7   4  21 -228.57  905.76
   7  -4  21 1118.35  467.26
   7  -4  21  323.57  558.11
   7   5   0 1343.65  650.84
   7  -5   0  662.07  457.20
   7  -5   0  554.15  580.49
   7   5   0  218.61  326.88
   7   5   1 1059.12  439.67
   7   5   1 1153.93  836.73
   7  -5  -1  997.62  743.68
   7  -5  -1  852.73  545.50
   7   5  -1 2207.33  824.87
   7  -5   1  957.24  607.32
   7  -5   1 1202.58  762.22
   7   5   2 8965.03 1880.74
   7  -5  -2 8481.20  868.47
   7  -5  -2 9249.61 1626.21
   7   5   2 9744.00 1185.24
   7   5  -2 9456.11 1236.15
   7  -5   2 8475.65  939.78
   7  -5   2 8098.24 1768.18
   7   5   3 9728.92 1313.83
   7   5   310184.60 1302.87
   7  -5  -3 9617.24  924.34
   7  -5  -311788.50 1750.55
   7   5  -311785.90 1320.82
   7  -5   3 8642.48  986.85
   7  -5   3 9909.31 1302.04
   7   5   4 4068.75 1245.55
   7   5   4 2955.14  815.19
   7  -5  -4 2495.80  762.03
   7  -5  -4 3850.52  999.87
   7   5  -4 3392.09  694.47
   7  -5   4 3392.60  984.85
   7  -5   4 3724.06 1194.58
   7   5   5 7624.96 1884.50
   7   5   5 8723.85 1319.48
   7  -5  -510076.30 1212.51
   7  -5  -5 8108.34 1002.08
   7   5  -5 8692.47 1177.03
   7  -5   5 9716.69 1524.83
   7  -5   5 5081.11 1850.39
   7   5   6 7335.17 1209.96
   7  -5  -6 6830.77  965.43
   7  -5  -6 6393.59 1227.27
   7   5   6 6128.10 1036.92
   7   5  -6 7033.27 1500.84
   7  -5   6 6548.52  855.40
   7  -5   6 6034.00 1059.88
   7   5   7 6572.31 1748.09
   7   5   7 8036.38 1323.36
   7  -5  -7 6879.95  683.79
   7  -5  -7 7055.06  833.51
   7   5  -7 8112.71 1588.50
   7  -5   7 7213.20  928.03
   7  -5   7 8861.09 1883.96
   7   5   811929.70 1260.38
   7   5   813661.40 1691.71
   7  -5  -812397.90 1328.98
   7  -5  -813103.50 1752.09
   7   5  -814601.00 2147.30
   7  -5   812419.00 1933.74
   7  -5   813291.70 2535.98
   7   5   914468.40 1407.47
   7   5   914610.10 2548.08
   7  -5  -914126.20 1767.91
   7   5  -913474.50 2174.93
   7  -5   912966.50 2093.44
   7  -5   913010.10 1795.01
   7   5  1010527.60 1506.31
   7   5  1011816.80 1797.90
   7  -5  1012001.70 1280.96
   7   5 -1012654.00 1359.93
   7  -5  10 7278.36 1419.25
   7   5  11 2669.99 1062.99
   7   5  11 1972.03 1283.31
  -7   5 -11 3024.66  795.97
   7   5 -11 3208.82 1055.08
   7  -5  11 3531.97  667.63
   7   5  12  738.45  404.95
   7   5  12 1204.49  804.11
  -7   5 -12  363.17  479.11
   7   5 -12  580.80  647.66
   7  -5  12 1265.96  678.52
   7   5  13  991.21  688.80
   7   5  13  536.59  473.46
  -7   5 -13  667.62  826.13
   7   5 -13  548.66  603.70
   7  -5  13  776.89  666.28
   7   5  14  479.32  629.28
  -7   5 -14  118.44  643.86
   7   5  14  449.62  549.47
   7   5 -14  181.37  280.13
   7  -5  14  287.68  307.08
   7   5  15 -224.03  329.09
   7   5  15  475.17  647.80
  -7   5 -15  136.09  677.73
   7   5 -15  -37.84  503.12
   7  -5  15  923.04  332.26
   7   5  16  340.14  608.38
   7   5  16  489.28  680.46
  -7   5 -16 -127.46  690.97
   7   5 -16  417.38  294.56
   7  -5  16   -2.09  575.24
   7   5  17 4038.06 1278.36
   7   5  17 -414.97 1379.21
  -7   5 -17 2705.11 1422.11
   7  -5  17 3284.14 1194.15
   7   5  18 2735.29  723.57
   7   5  18 -134.77  764.64
  -7   5 -18 1434.08 1343.31
   7  -5  18 3322.15  681.97
   7   5  19 4919.89 1876.00
   7   5  19 6126.33 1232.35
  -7   5 -19 4224.94 2098.43
   7  -5  19 6710.99 1073.64
   7   5  20 5988.78 1033.52
   7   5  20  134.89 1075.06
  -7   5 -20 3600.13 1864.09
   7  -5  20 8263.64 1567.10
   7   6   033145.30 4178.95
   7  -6   031706.50 3256.73
   7  -6   031252.40 3799.79
   7   6   1  945.13  412.98
   7   6   1  758.64  759.92
   7  -6  -1  768.57  547.76
   7  -6  -1 1058.57  665.01
   7   6  -1  603.96  779.38
   7  -6   1  997.14  334.99
   7  -6   1   81.53  700.25
   7   6   220509.80 2084.26
   7   6   220751.70 2255.78
   7  -6  -223940.50 2463.41
   7  -6  -224538.20 2882.91
   7   6  -222015.90 3034.34
   7  -6   219728.20 1795.35
   7  -6   219959.60 2988.85
   7   6   3  651.42  803.01
   7   6   3 1067.42  491.74
   7  -6  -3 1167.40  544.61
   7  -6  -3 -220.21  667.96
   7   6  -3 1545.01  754.23
   7  -6   3 1219.15  628.78
   7  -6   3 1219.26  473.74
   7   6   411936.70 2150.09
   7   6   410119.00 1433.49
   7  -6  -4 9562.38  948.06
   7  -6  -410768.30 1691.78
   7   6  -410082.00 1980.72
   7  -6   412639.90 1691.82
   7  -6   411054.30 2098.24
   7   6   5 1661.26  508.89
   7   6   5 1015.64  570.17
   7  -6  -5  935.91  506.58
   7  -6  -5  563.70  369.02
   7  -6   5 1777.59  668.61
   7  -6   5  784.62  866.66
   7   6  -5 1674.90  767.24
   7   6   6 3236.61 1184.57
   7   6   6 2688.89  835.65
   7  -6  -6 1975.57  664.98
   7  -6  -6 3509.68  864.05
   7   6  -6 2955.29 1090.84
   7  -6   6 3443.89  596.05
   7  -6   6 1769.42  742.59
   7   6   7 1441.32  658.58
   7   6   7 2393.13  810.94
   7  -6  -7 2517.90  610.43
   7  -6  -7 2438.03  473.34
   7   6  -7 2367.39 1022.18
   7  -6   7 3075.48  551.84
   7  -6   7 1315.40  698.28
   7   6   8 1228.56  635.18
   7  -6  -8 1172.41  273.80
   7   6   8 1469.39  830.05
   7   6  -8  645.81  721.70
   7  -6   8  961.75  678.69
   7  -6   8   76.40  496.43
   7   6   9  112.99  255.52
   7   6   9  -80.82  198.93
  -7   6  -9  137.54  262.28
   7  -6  -9  148.52  233.85
   7   6  -9   66.64  372.32
   7  -6   9  169.21  363.74
   7   6  10 8537.46 1070.54
   7   6  10 8886.34 1970.56
  -7   6 -10 5815.29 2005.72
   7   6 -10 8362.85 1713.59
   7  -6  10 8596.44 1091.00
   7   6  11 -148.44  238.10
   7   6  11 -147.47  164.24
  -7   6 -11  204.67  301.75
   7   6 -11   85.10  142.50
   7  -6  11   24.12  137.84
   7   6  1221842.30 3457.03
  -7   6 -1221987.50 2694.84
   7   6  1222300.00 3073.78
   7   6 -1221311.70 3019.84
   7  -6  1222391.40 3003.78
   7   6  13 1401.01  799.86
   7   6  13 1368.45  927.65
  -7   6 -13  829.32  558.92
   7   6 -13 1335.18  758.39
   7  -6  13  758.36  781.99
   7   6  1413450.10 1666.60
   7   6  1415202.20 1973.11
  -7   6 -1413028.70 2787.19
   7   6 -1415860.30 2441.09
   7  -6  1415600.20 1711.64
   7   6  15  258.72  574.90
   7   6  15  192.61  379.52
  -7   6 -15 1219.05  685.63
   7   6 -15  213.26  314.50
   7  -6  15  237.95  334.61
   7   6  1617419.40 3172.38
  -7   6 -1615106.10 3218.18
   7   6  1618313.60 2971.98
   7   6 -1617201.20 2690.51
   7  -6  1618160.40 2813.31
   7   6  17 -148.26  189.87
   7   6  17  -75.86  347.25
  -7   6 -17  371.29  368.18
   7   6 -17  219.00  263.98
   7  -6  17 -163.67  299.62
   7   6  18 4507.46 1637.63
   7   6  18 4070.43 1732.58
  -7   6 -18 4236.50 1802.17
   7  -6  18 5383.32 1492.35
   7   6  19  185.57  562.27
   7   6  19 -123.60  560.60
  -7   6 -19  227.30  606.77
   7  -6  19  130.06  293.58
   7   6  20  910.20  497.77
   7   6  20   38.03  844.20
  -7   6 -20  242.26  924.48
   7  -6  20  313.67  750.73
   7  -7   0 4977.64  712.41
   7  -7   0 3289.22 1341.91
   7   7   0 4876.67  890.90
   7   7   1 1563.49  551.66
   7  -7  -1 1808.26  683.09
   7  -7  -1 1424.06  817.42
   7   7  -1 2172.15  906.32
   7  -7   1 1610.18  424.09
   7  -7   1  772.44  859.68
   7   7   2  987.87  284.16
   7   7   2 1026.85  841.91
   7  -7  -2 1046.07  583.34
   7  -7  -2  819.14  674.75
   7   7  -2 1439.73  803.63
   7  -7   2 1131.27  634.91
   7  -7   2 1344.07  772.74
   7   7   3 6692.03 1695.81
   7  -7  -3 7507.72 1194.49
   7  -7  -3 6590.40 1372.57
   7   7   3 6135.36 1048.53
   7   7  -3 6076.45 1605.63
   7  -7   3 7570.68 1369.32
   7  -7   3 6219.98 1045.20
   7   7   4 9590.72 1369.57
   7   7   4 9087.38 1315.39
   7  -7  -4 9233.93 1372.33
   7  -7  -4 9247.77 1577.46
   7   7  -4 9164.25 1914.13
   7  -7   410037.60 1656.18
   7  -7   4 8968.75 1986.00
   7   7   510577.70 1391.70
   7   7   5 9474.81 1409.77
   7  -7  -5 9363.04  895.87
   7  -7  -510160.90 1097.27
   7  -7   5 8064.97 1049.43
   7  -7   5 9742.20 1366.97
   7   7  -5 9971.86 1986.50
   7   7   618609.10 3038.86
   7   7   618586.10 2280.40
   7  -7  -618669.50 2290.02
   7  -7  -620702.70 2104.17
   7   7  -620734.20 2960.67
   7  -7   619352.10 1859.20
   7   7   7 5646.73 1051.83
   7   7   7 7511.53 1264.42
  -7   7  -7 6811.92 1701.54
   7  -7  -7 5574.69  741.94
   7  -7  -7 6381.75 1043.13
   7   7  -7 6633.75 1495.31
   7  -7   7 6644.69 1411.66
   7   7   8 4503.32 1503.75
   7   7   8 3294.38 1132.64
  -7   7  -8 5906.67 1530.92
   7  -7  -8 5226.28  893.50
   7   7  -8 4637.14 1322.02
   7  -7   8 4403.00 1292.03
   7   7   910456.80 1402.89
   7   7   9 9505.18 1658.16
  -7   7  -9 8625.96 1425.51
   7  -7  -9 9637.65  895.28
   7   7  -910447.40 1884.71
   7  -7   910101.90 1804.01
   7   7  10 2547.48 1174.51
   7   7  10 3325.80 1009.40
  -7   7 -10 2760.96 1234.89
   7   7 -10 1878.44 1043.02
   7  -7  10 2509.76  618.26
   7   7  11 1987.61 1175.29
   7   7  11 2706.14  593.15
  -7   7 -11 2498.06 1223.75
   7   7 -11 1790.71  611.63
   7  -7  11 2688.84  614.90
   7   7  12 4498.33  837.18
   7   7  12 4226.04  769.61
  -7   7 -12 3301.39  893.06
   7   7 -12 2068.21  765.01
   7  -7  12 4502.24 1231.22
   7   7  13  527.66  674.73
   7   7  13  654.71  609.08
  -7   7 -13  259.88  417.54
   7   7 -13  642.43  592.36
   7  -7  13  147.55  593.35
   7   7  14  314.04  583.92
   7   7  14  192.93  640.21
  -7   7 -14  188.57  394.65
   7   7 -14  667.20  560.98
   7  -7  14  404.98  569.85
   7   7  15  852.38  501.46
  -7   7 -15  742.76  893.84
   7   7  15 1253.58  788.46
   7   7 -15  861.45  726.24
   7  -7  15  493.60  453.06
   7   7  16 3114.09  791.28
   7   7  16 1999.97  799.62
  -7   7 -16 1225.43 1409.85
   7   7 -16 3142.10  726.59
   7  -7  16 3312.97  730.90
   7   7  17  976.05  995.20
   7   7  17  716.74 1007.32
  -7   7 -17 1666.72 1113.26
   7   7 -17 1425.84  819.70
   7  -7  17 1467.91  919.96
   7   7  18 3739.90 1555.37
   7   7  18 5053.02 1534.04
  -7   7 -18 2004.20 1673.36
   7  -7  18 3982.88 1414.30
   7   7  19 5382.05 1038.03
   7   7  19 3134.91 1614.68
  -7   7 -19 2322.91 1766.35
   7  -7  19 3884.56  888.30
   7   7  20 3274.99 1606.30
   7   7  20 3478.67 1514.09
  -7   7 -20 2511.25 1725.68
   7  -7  20 3663.13  864.73
   7   8   0  958.09  467.45
   7  -8   0  609.02  366.54
   7  -8   0 1353.98  693.92
   7  -8  -126511.80 2271.57
   7  -8  -128956.10 3478.53
   7   8   126972.50 3647.09
   7   8  -127087.00 2755.88
   7  -8   126556.10 2360.78
   7  -8   124191.00 3410.67
   7   8   2  785.13  518.36
   7   8   2 1062.37  854.34
   7  -8  -2 1920.84  670.64
   7  -8  -2 1833.32  755.88
   7   8  -2 1244.11  865.83
   7  -8   2 1512.98  708.93
   7  -8   2  848.10  850.03
   7   8   324226.00 1972.72
   7   8   328966.70 2885.98
   7  -8  -324756.80 2789.18
   7  -8  -324970.80 3067.21
   7   8  -327920.90 3673.38
   7  -8   324990.50 2992.56
   7  -8   325310.60 2668.65
   7   8   4  198.95  275.58
   7   8   4   55.74  249.59
   7  -8  -4 -126.03  278.41
   7  -8  -4   84.25  314.07
   7   8  -4   61.44  423.43
   7  -8   4  -18.76  350.79
   7  -8   4  213.08  256.17
   7   8   5 2264.71 1185.49
  -7   8  -5 3003.04  705.93
   7  -8  -5 3291.38  546.63
   7  -8  -5 2708.72  480.16
   7   8   5 2647.05  835.84
   7   8  -5 3087.26 1182.31
   7  -8   5 2704.98  625.81
   7   8   6   14.63  410.55
   7   8   6 -177.74  330.76
  -7   8  -6  557.70  582.26
   7  -8  -6  574.81  400.99
   7  -8  -6  728.65  390.76
   7   8  -6   46.97  533.82
   7  -8   6  392.55  292.13
   7   8   7  165.46  768.52
   7   8   7  585.96  578.22
  -7   8  -7 1447.76  478.72
   7  -8  -7  431.63  287.89
   7   8  -7 1243.92  705.43
   7  -8   7  950.43  393.94
   7   8   8  841.96  433.60
   7   8   8  364.77  548.36
  -7   8  -8 -327.99  724.75
   7  -8  -8  721.89  449.83
   7   8  -8  659.00  654.14
   7  -8   8  482.98  604.81
   7   8   9 8788.98 1582.47
  -7   8  -9 6824.24 1237.25
   7  -8  -9 7687.97  818.44
   7   8   9 9113.36 1943.15
   7   8  -9 6929.76 1745.01
   7  -8   9 8608.81 1679.63
   7   8  10  968.90  582.86
   7   8  10 1711.10  798.46
  -7   8 -10  935.31  605.97
   7  -8 -10 1826.75  571.63
   7   8 -10 1469.97  869.91
   7  -8  10 1390.44  840.37
   7   8  1111657.20 2350.55
   7   8  1111893.30 2049.90
  -7   8 -1111792.00 2429.79
   7   8 -1111926.80 2147.69
   7  -8  1110424.50 1343.02
   7   8  12  659.05  822.96
   7   8  12  739.38  721.30
  -7   8 -12  769.46  850.14
   7  -8  12  705.05  407.81
   7   8 -12  695.01  699.70
   7   8  1319652.70 2901.19
  -7   8 -1316192.00 2238.14
   7   8  1316074.30 2173.71
   7   8 -1322738.30 2279.87
   7  -8  1318640.40 2789.12
   7   8  14  630.41  549.61
   7   8  14  120.59  294.43
  -7   8 -14  296.49  345.08
   7   8 -14   13.19  289.99
   7  -8  14  -12.78  473.49
   7   8  1519245.00 3233.29
   7   8  1517777.40 2063.43
  -7   8 -1516807.90 2296.98
   7   8 -1518797.80 2956.02
   7  -8  1517291.50 1981.99
   7   8  16  721.12  592.00
   7   8  16  186.54  590.39
  -7   8 -16  156.19  381.23
   7   8 -16  208.98  528.79
   7  -8  16   97.30  319.52
   7   8  17 5177.57 1132.27
   7   8  17 5515.93 1754.91
  -7   8 -17 5295.93 1234.82
   7   8 -17 5648.67 1538.58
   7  -8  17 6201.70 1026.42
   7   8  18  625.79  369.05
   7   8  18   67.98  367.62
  -7   8 -18  299.33  407.45
   7   8 -18  -64.95  309.39
   7  -8  18  497.94  580.66
   7   8  19  950.56  654.06
   7   8  19 2145.48  680.64
  -7   8 -19 1209.06  748.58
   7  -8  19 1777.13 1028.14
   7  -9   0  557.00  309.12
   7  -9   0  -59.75  594.78
   7   9   0  474.95  365.10
   7   9   1 2195.41 1161.38
   7  -9  -1 2332.94  906.55
   7  -9  -1 3463.84 1045.48
   7   9  -1 2626.24  717.01
   7  -9   1 3216.20  597.41
   7  -9   1 2442.61 1139.04
   7   9   2  359.93  639.13
   7  -9  -2  622.89  480.25
   7  -9  -2  983.74  543.59
   7   9  -2  251.63  394.19
   7  -9   2  570.92  553.99
   7  -9   2  382.47  374.79
   7   9   3 5471.31 1041.49
   7   9   3 6004.94 1041.52
  -7   9  -3 6003.37 1016.99
   7  -9  -3 6945.34 1204.88
   7  -9  -3 5825.67 1305.64
   7   9  -3 7746.21 1689.14
   7  -9   3 5511.33 1373.68
   7   9   4 7126.86 1889.51
  -7   9  -4 7596.07 1863.72
   7  -9  -4 8813.10 1473.61
   7  -9  -4 7291.49  858.82
   7   9   4 6976.43 1217.29
   7   9  -410718.20 1880.40
   7  -9   4 7135.22 1513.98
   7   9   510911.10 1696.71
   7   9   512746.00 1639.25
  -7   9  -512219.80 1605.23
   7  -9  -511427.40 1279.57
   7  -9  -513455.00 1263.12
   7   9  -513731.10 2314.70
   7  -9   512671.70 2027.21
   7   9   611025.30 1739.19
   7   9   611531.40 1616.16
  -7   9  -6 9932.48 2305.01
   7  -9  -610987.90 1723.75
   7  -9  -614108.10 1758.92
   7   9  -612810.40 2264.84
   7  -9   614519.60 1451.41
   7   9   7 9757.16 1038.77
   7   9   7 9309.52 2023.85
  -7   9  -7 7941.96 1307.63
   7  -9  -7 8806.42 1397.00
   7  -9   7 8668.78 1152.94
   7   9  -7 8943.02 1913.59
   7   9   8 3612.51  884.81
  -7   9  -8 3929.77 1450.47
   7  -9  -8 4176.82  606.77
   7   9   8 4285.33  706.81
   7   9  -8 3890.93 1379.79
   7  -9   8 5825.28 1251.08
   7   9   913171.00 1485.41
   7   9   913344.70 2639.30
  -7   9  -913172.10 2704.18
   7  -9  -915414.10 1829.45
   7   9  -912948.80 2429.88
   7  -9   916766.60 2380.69
   7   9  10 3854.72 1373.69
   7   9  10 3099.14  696.43
  -7   9 -10 3956.91  873.22
   7  -9 -10 3452.57  857.53
   7   9 -10 2096.27 1221.64
   7  -9  10 3378.39 1215.41
   7   9  11 3607.37  861.35
   7   9  11 3461.99  745.86
  -7   9 -11 2489.25  869.08
   7  -9 -11 3777.23  549.94
   7   9 -11 1897.17 1233.51
   7  -9  11 4306.64  754.56
   7   9  12 1351.34  970.88
   7   9  12 1453.97  517.89
  -7   9 -12 1134.89 1026.82
   7   9 -12 1106.19  882.11
   7  -9  12 1197.05  493.63
   7   9  13  -86.49  854.41
   7   9  13    3.82  767.32
  -7   9 -13  344.11  910.50
   7   9 -13 1441.64  789.15
   7  -9  13 1310.08  450.33
   7   9  14  496.72  427.55
   7   9  14  218.34  673.40
  -7   9 -14  962.16  766.14
   7   9 -14  -16.83  637.12
   7  -9  14  677.68  646.77
   7   9  15  581.54  670.39
   7   9  15  844.31  636.30
  -7   9 -15  654.91  728.20
   7   9 -15  213.48  368.83
   7  -9  15 -230.24  598.08
   7   9  16 2576.36 1298.97
  -7   9 -16 2966.53 1430.25
   7   9  16 2505.57 1370.14
   7   9 -16 2256.31  691.51
   7  -9  16 4103.42 1214.54
   7   9  17 2064.18 1399.32
   7   9  17 2579.60  818.27
  -7   9 -17 1831.00 1513.53
   7   9 -17 3135.57  735.33
   7  -9  17 3590.95  769.86
   7   9  18 1556.88 1308.19
   7   9  18 3207.22  792.49
  -7   9 -18 2029.15 1409.41
   7   9 -18  -69.11 1125.10
   7  -9  18 2721.09  726.62
   7   9  19 5427.56 1546.56
   7   9  19 1859.38 1571.63
  -7   9 -19 3897.99 1672.34
   7   9 -19 -245.03 1361.25
   7  -9  19 5981.57 1432.44
   7  10   023162.60 3586.23
   7 -10   027877.30 3152.61
   7 -10   027874.10 3606.24
   7 -10  -1 1041.26  632.26
   7 -10  -1  660.29  727.77
   7  10   1 1032.19  822.70
   7  10  -1  826.05  509.58
   7 -10   1 1361.95  412.08
   7 -10   1  866.04  470.85
   7  10   223075.50 2518.59
  -7  10  -221125.30 2443.69
   7 -10  -222775.40 2707.66
   7 -10  -223263.40 3030.87
   7  10  -223872.60 2586.43
   7 -10   224963.70 2270.93
   7  10   3 1561.00  916.80
  -7  10  -3 1987.56  874.76
   7 -10  -3  737.15  689.96
   7 -10  -3 1617.65  418.58
   7  10  -3 1373.88  865.52
   7 -10   3  961.38  483.87
   7  10   4 6910.78  780.06
   7  10   4 6499.57 1696.36
  -7  10  -4 8522.81 1749.18
   7 -10  -4 6325.46 1284.66
   7 -10  -4 6721.76  870.36
   7 -10   4 6847.74 1480.90
   7  10  -4 6155.49 1672.34
   7  10   5  749.17  464.12
   7  10   5  262.47  392.01
  -7  10  -5  411.50  649.72
   7 -10  -5  461.50  275.00
   7 -10  -5  192.34  499.73
   7  10  -5  594.96  645.82
   7 -10   5  757.59  581.77
   7  10   6 2951.93  975.46
   7  10   6 2942.17 1343.10
  -7  10  -6 4585.94 1390.31
   7 -10  -6 4099.12 1029.20
   7  10  -6 3632.63 1283.63
   7 -10   6 4280.75 1184.88
   7  10   7   97.46  285.90
   7  10   7  814.32  394.88
  -7  10  -7   46.40  656.59
   7 -10  -7  338.22  274.96
   7  10  -7  269.54  614.50
   7 -10   7  713.10  336.99
   7  10   8  505.83  839.19
  -7  10  -8  685.42  488.60
   7 -10  -8 1020.87  564.23
   7  10   8  725.17  620.73
   7  10  -8  507.81  454.39
   7 -10   8 1206.08  436.26
   7  10   9  825.26  677.98
   7  10   9  797.74  515.05
  -7  10  -9  507.41  865.93
   7 -10  -9 1157.08  572.95
   7  10  -9  760.98  467.57
   7 -10   9 1497.30  757.44
   7  10  10 8258.06 1580.26
   7  10  10 6735.15 1872.11
  -7  10 -10 5059.88 1888.68
   7 -10 -10 7199.33  842.75
   7  10 -10 7162.57 1097.86
   7 -10  10 6744.17 1664.31
   7  10  11  687.64  731.57
   7  10  11  307.63  610.61
  -7  10 -11  313.84  458.09
   7 -10 -11  581.84  472.65
   7  10 -11  501.82  383.61
   7 -10  11  528.67  647.08
   7  10  1213642.00 2325.14
  -7  10 -1211782.60 1801.41
   7  10  1212983.40 1804.50
   7  10 -1215355.80 2651.12
   7 -10  1214122.20 2383.70
   7  10  13  661.08  626.02
   7  10  13  238.35  560.32
  -7  10 -13  355.43  406.31
   7  10 -13   64.12  594.31
   7 -10  13  184.48  317.29
   7  10  1413428.50 2809.89
   7  10  1413395.70 2511.98
  -7  10 -1410595.40 2805.63
   7  10 -1413371.10 2547.71
   7 -10  1415324.70 1675.70
   7  10  15   86.00  369.51
   7  10  15  252.84  338.03
  -7  10 -15 -127.41  679.50
   7  10 -15  489.16  566.25
   7 -10  15  407.41  547.71
   7  10  16 7940.35 1477.03
   7  10  1610381.60 1456.54
  -7  10 -16 6568.08 2373.49
   7  10 -16 6917.37 1971.26
   7 -10  1611521.20 2072.34
   7  10  17  461.15  693.28
   7  10  17  244.43  683.06
  -7  10 -17   36.86  762.91
   7  10 -17  173.27  630.81
   7 -10  17  631.70  628.00
   7  10  18 5963.14 1553.82
   7  10  18 2241.53 1582.33
  -7  10 -18 3124.40 1682.91
   7  10 -18 -249.68  893.07
   7 -10  18 6717.64  909.12
   7 -11   0  603.85  560.73
   7 -11   0  254.36  359.16
   7  11   0 1027.07  678.04
   7  11   1 2770.14  677.38
  -7  11  -1 1650.68  596.19
   7 -11  -1 1792.95  876.81
   7 -11  -1 2718.54  973.69
   7  11  -1 2995.85 1119.64
   7 -11   1 2042.01  935.22
   7  11   2 2596.60  721.97
  -7  11  -2 2844.48 1079.44
   7 -11  -2 2503.95  946.96
   7 -11  -2 2285.34  540.12
   7  11  -2 2964.53  694.01
   7 -11   2 2673.96  602.28
   7  11   3 1975.36 1176.36
  -7  11  -3 2565.44 1144.43
   7 -11  -3 2844.63  940.10
   7 -11  -3 1541.38  954.37
   7  11  -3 2287.21  692.82
   7 -11   3 3594.74  652.94
   7  11   4 7282.52 1194.36
  -7  11  -4 5509.38 1110.89
   7 -11  -4 6036.22  857.83
   7 -11  -4 7866.66 1435.72
   7  11  -4 7214.17 1721.32
   7 -11   4 7553.83 1037.08
   7  11   5 3173.96  896.63
   7  11   5 2913.51 1262.48
  -7  11  -5 1514.19 1287.41
   7 -11  -5 3785.33 1021.42
   7  11  -5 3509.86 1244.18
   7 -11   5 4129.10 1152.38
   7  11   6 9394.73 1396.51
  -7  11  -6 9336.95 1439.35
   7 -11  -6 9689.79 1078.28
   7  11   6 8691.57 1520.38
   7 -11   6 7785.70 1806.33
   7  11  -6 9942.73 2041.12
   7  11   7 9907.91 1194.57
   7  11   711154.10 2262.88
  -7  11  -7 9962.40 2273.62
   7 -11  -7 9632.95 1704.97
   7  11  -710759.40 1442.22
   7 -11   713230.10 2076.85
   7  11   814967.10 2110.71
   7  11   812782.60 1775.57
  -7  11  -813285.10 2686.23
   7 -11  -813237.60 1973.47
   7  11  -813262.20 1762.10
   7 -11   816613.90 2419.75
   7  11   9 4152.39 1203.04
   7  11   9 -140.91 1515.28
  -7  11  -9 2152.40  942.47
   7 -11  -9 4382.84  687.05
   7  11  -9 5510.93  885.00
   7 -11   9 5156.18  829.00
   7  11  10 9625.49 1879.82
   7  11  1011771.80 1558.88
  -7  11 -10 8032.07 2297.76
   7 -11 -10 8793.02 1615.73
   7 -11  10 9363.89 1299.00
   7  11 -1010742.20 1387.16
   7  11  11 6420.76 1482.38
   7  11  11 5197.99 1787.61
   7 -11 -11 5407.39 1249.00
   7 -11  11 6087.79 1552.53
   7  11  12 2485.34  599.04
   7  11  12 1736.63 1107.21
  -7  11 -12 1899.24 1206.71
   7 -11 -12 1241.14  778.96
   7  11 -12 1406.14  643.25
   7 -11  12 1924.26 1016.52
   7  11  13  211.12  311.23
   7  11  13  -52.01  345.78
  -7  11 -13  425.82  365.98
   7  11 -13  102.25  327.09
   7 -11  13  466.29  541.52
   7  11  14  605.82  804.27
  -7  11 -14  445.10  513.78
   7  11  14  188.96  730.83
   7  11 -14  476.66  463.02
   7 -11  14  911.18  425.83
   7  11  15  -63.65  782.64
   7  11  15  749.29  715.71
  -7  11 -15  339.41  507.75
   7  11 -15  894.97  419.39
   7 -11  15  354.25  407.57
   7  11  16  695.98  862.45
   7  11  16  300.31  841.89
  -7  11 -16  421.02  575.90
   7  11 -16 1045.70  467.68
   7 -11  16  733.30  451.17
   7  11  17  530.84  492.05
   7  11  17  729.11  834.36
  -7  11 -17  534.78  553.28
   7  11 -17  328.89  781.26
   7 -11  17 1063.36  775.97
   7  12   0  219.88  741.08
  -7  12   0  788.19  387.43
   7 -12   0  646.33  364.95
  -7  12  -119325.40 2894.74
   7 -12  -117858.90 2008.05
   7 -12  -118877.80 1776.86
   7  12   117703.00 2183.70
   7  12  -119281.90 3014.24
   7 -12   119169.00 2692.58
   7  12   2  433.52  627.88
  -7  12  -2 -525.43  553.26
   7 -12  -2  422.19  505.70
   7 -12  -2 1020.43  497.61
   7  12  -2  146.91  353.34
   7 -12   2  382.16  520.48
   7  12   315751.10 2716.94
  -7  12  -313778.80 1780.11
   7 -12  -313172.10 1493.54
   7 -12  -315539.20 2233.06
   7  12  -314183.70 1825.79
   7 -12   314272.90 2267.90
   7  12   4  437.66  401.89
  -7  12  -4  306.64  640.82
   7 -12  -4  560.75  327.95
   7 -12   4  208.09  596.92
   7  12  -4  210.48  658.90
   7  12   5 6885.78 1773.41
  -7  12  -5 7014.69 1739.47
   7 -12  -5 7713.95 1447.33
   7  12  -5  -82.21 1734.92
   7 -12   5 7425.21 1021.16
   7  12   6   26.49  252.56
   7  12   6 -212.49  338.07
  -7  12  -6  119.64  578.04
   7 -12  -6  142.78  455.00
   7  12  -6  757.52  579.82
   7 -12   6  790.57  304.04
   7  12   7  501.05  552.08
   7  12   7 -393.66  726.12
  -7  12  -7  -83.60  455.62
   7 -12  -7  704.02  339.19
   7  12  -7 1302.47  449.98
   7 -12   7  450.83  654.52
   7  12   8 1010.69  615.97
   7  12   8 -281.27  456.15
  -7  12  -8  985.20  800.39
   7 -12  -8 1186.60  619.92
   7  12  -8  910.77  467.01
   7 -12   8  807.43  710.26
   7  12   9  -26.39  873.51
  -7  12  -9  446.74  922.22
   7 -12  -9 1286.94  685.95
   7  12   9 1833.90  449.99
   7  12  -9  250.05  518.50
   7 -12   9 1218.55  844.12
   7  12  10   87.39  321.04
   7  12  10  -96.31  643.16
  -7  12 -10 -399.03  427.50
   7 -12 -10  692.22  296.83
   7  12 -10  178.59  377.80
   7 -12  10  882.81  355.44
   7  12  11 6191.65 1614.49
   7  12  11 5580.68 1079.66
  -7  12 -11 6634.10 1281.73
   7 -12 -11 6945.86 1419.45
   7  12 -11 5154.99 1906.27
   7 -12  11 7871.13 1111.13
   7  12  12 -161.59  515.63
   7  12  12 -155.37  554.82
  -7  12 -12  555.31  620.49
   7 -12 -12   96.00  424.87
   7  12 -12  429.40  571.50
   7 -12  12  297.30  307.06
   7  12  1310733.80 2223.71
   7  12  1311377.40 2475.33
  -7  12 -13 9479.22 2635.27
   7  12 -1310641.40 2437.63
   7 -12  1311945.20 2252.40
   7  12  14 -148.46  594.30
   7  12  14   69.54  381.25
  -7  12 -14  351.70  698.57
   7  12 -14  497.52  602.69
   7 -12  14  669.93  587.40
   7  12  1510969.20 2219.83
   7  12  1510783.60 1554.62
  -7  12 -15 2695.93 2393.76
   7  12 -15 6591.20 2185.10
   7 -12  1511191.90 2112.31
   7  12  16   42.64  519.83
   7  12  16  108.10  552.71
  -7  12 -16   26.64  576.70
   7  12 -16 -174.02  510.25
   7 -12  16 -218.71  279.68
  -7  13   0  383.01  650.90
   7 -13   0  932.15  621.74
   7  13   0  502.38  458.04
   7  13   1 1613.99  530.94
  -7  13  -1 1655.38  822.59
   7 -13  -1  396.11  434.56
   7 -13  -1 1783.42  737.83
   7  13  -1  -26.86  883.70
   7 -13   1 1108.29  448.04
   7  13   2 -139.48  762.01
  -7  13  -2  799.36  422.12
   7 -13  -2  730.93  383.83
   7 -13  -2 1023.40  403.38
   7 -13   2 1050.33  415.44
   7  13  -2   48.90  447.15
  -7  13  -3 4177.54 1307.84
   7 -13  -3 5214.16  732.07
   7  13   3 3482.43  894.92
   7  13  -3   -9.99  828.26
   7 -13   3 3850.22  774.42
   7  13   4 -465.80 1659.70
  -7  13  -4 6106.27 1624.83
   7 -13  -4 5654.09 1372.77
   7  13  -4 7354.32 1616.83
   7 -13   4 6076.55 1485.79
   7  13   510514.60 1610.32
  -7  13  -513312.80 1783.12
   7 -13  -513947.70 2112.25
   7  13  -513268.40 2565.79
   7 -13   513461.10 2285.05
   7  13   6 -347.39 1400.36
  -7  13  -6 2631.72 1419.46
   7 -13  -6 3921.61  690.70
   7  13  -6 4464.37 1402.44
   7 -13   6 5646.20 1296.25
   7  13   713469.80 1791.34
  -7  13  -711934.30 2713.50
   7 -13  -714935.30 2284.48
   7  13   715217.70 2215.34
   7  13  -714031.20 1891.14
   7 -13   716534.80 1790.55
   7  13   8 6994.57  920.07
   7  13   8  -27.88 1704.79
  -7  13  -8 4122.27 1127.70
   7 -13  -8 8518.13 1453.95
   7  13  -8 5607.51 1092.50
   7 -13   8 6813.65 1027.49
   7  13   9 6832.64 1525.54
   7  13   9 6745.67 1112.23
  -7  13  -9 5359.20 1182.94
   7 -13  -9 7719.44 1484.18
   7  13  -9  -21.88 1813.79
   7 -13   9 7267.09 1061.52
   7  13  10 3957.21 1144.08
   7  13  10 -154.71 1323.41
  -7  13 -10 2058.27 1432.16
   7 -13 -10 4140.90 1090.35
   7 -13  10 3237.06 1228.99
   7  13 -10 2969.12 1393.81
   7  13  11 -377.79 1578.55
  -7  13 -11 4817.00 1686.80
   7 -13 -11 5962.90  811.87
   7  13  11 5154.75 1440.44
   7  13 -11 3910.56 1662.61
   7 -13  11 4698.80 1536.05
   7  13  12 2169.62  992.10
   7  13  12   21.34  636.77
  -7  13 -12 2882.23  694.77
   7 -13 -12  792.27  870.56
   7  13 -12 1427.68 1107.95
   7 -13  12 3110.90 1048.13
   7  13  13  811.07  505.90
   7  13  13  -89.77  863.50
  -7  13 -13  181.16  576.26
   7 -13 -13 1060.66  425.91
   7  13 -13  448.05  905.13
   7 -13  13 1594.26  513.65
   7  13  14  644.04  421.82
   7  13  14  -18.90  701.21
  -7  13 -14  415.52  459.53
   7  13 -14   15.05  702.71
   7 -13  14  550.45  393.74
   7  13  15 -115.56  962.69
  -7  13 -15 1307.22  628.84
   7  13  15 1351.29  595.62
   7  13 -15  708.64  963.70
   7 -13  15 1201.20  549.34
   7  14   020636.30 2460.37
  -7  14   019178.70 3023.56
   7 -14   022673.30 2194.25
  -7  14  -1 1753.34  546.01
   7 -14  -1 1993.32  889.72
   7  14   1  785.61  995.91
   7  14  -1 1069.45 1010.44
   7 -14   1 2024.88  862.35
  -7  14   1  507.48  824.11
   7  14   211953.60 2399.30
  -7  14  -210517.40 2281.87
   7  14  -211412.20 1526.27
   7 -14   212393.00 2136.52
   7  14   3 -350.49  332.84
  -7  14  -3  263.22  550.64
   7 -14  -3 -114.58  289.33
   7  14  -3 -442.30  330.24
   7 -14   3    4.92  515.20
   7  14   4 4971.84 2048.19
  -7  14  -4 7922.55 1390.69
   7 -14  -4 9617.87 1195.51
   7 -14   4 9888.59 1259.13
   7  14  -4 7426.19 2039.41
   7  14   5  203.26  504.43
  -7  14  -5  534.71  802.54
   7 -14  -5 1148.20  700.06
   7  14  -5  787.33  846.82
   7 -14   5 1039.00  457.24
   7  14   6  597.53  829.29
  -7  14  -6  682.75  823.98
   7 -14  -6  466.76  689.74
   7  14  -6 1079.05  487.23
   7 -14   6  787.03  458.45
   7  14   7  -17.75  482.65
  -7  14  -7  364.64  495.20
   7 -14  -7  837.97  401.28
   7  14  -7 1242.89  481.20
   7 -14   7  979.00  742.98
   7  14   8 2402.60  973.33
   7  14   8 -160.21 1209.79
  -7  14  -8  867.61 1250.70
   7 -14  -8 3541.52 1035.08
   7  14  -8 3080.18 1247.35
   7 -14   8 2821.91 1108.52
   7  14   9  734.88  630.92
   7  14   9  307.17  746.44
  -7  14  -9  305.31  772.28
   7 -14  -9  679.90  374.56
   7  14  -9 -476.19  761.39
   7 -14   9 1015.99  703.64
   7  14  10 2802.27  621.54
   7  14  10   20.75  690.64
  -7  14 -10 2415.14  750.58
   7 -14 -10 -108.72  980.19
   7  14 -10 2037.62 1217.10
   7 -14  10 3232.91  674.89
   7  14  11  446.58  369.76
   7  14  11  142.99  668.88
  -7  14 -11  463.25  433.87
   7 -14 -11 -109.32  579.40
   7  14 -11  727.70  715.95
   7 -14  11  389.22  401.80
   7  14  12 9270.02 1916.43
   7  14  12 -249.13 1995.52
  -7  14 -12 6197.48 2252.03
   7 -14 -12 8570.45 1723.28
   7  14 -12 9830.83 1435.70
   7 -14  12 9955.60 1973.93
   7  14  13   83.65  537.85
   7  14  13  -27.10  324.81
  -7  14 -13  398.39  617.80
   7 -14 -13 -104.97  466.17
   7  14 -13  320.14  327.61
   7 -14  13  409.10  539.87
   7  14  14 6690.14 2033.72
   7  14  14 -336.94 2052.90
  -7  14 -14 6474.97 2255.74
   7  14 -14 9391.72 1407.27
   7 -14  1411597.20 2060.65
  -7  15   0  411.74  398.51
   7 -15   0  618.98  675.70
   7  15   0  862.66  452.96
   7  15   1  800.98  831.61
  -7  15  -1  949.98  754.57
   7 -15  -1  908.98  456.37
   7  15  -1 1055.65  838.58
   7 -15   1  965.08  732.10
  -7  15   1  492.11  409.40
   7  15   2 3985.43 1016.90
  -7  15  -2 4450.17 1495.87
   7 -15  -2 5563.14  878.36
   7 -15   2 5202.16  895.95
  -7  15   2 4321.64 1312.21
   7  15  -2 4085.94 1663.96
  -7  15  -3 2263.63  716.20
   7 -15  -3 2050.86 1106.22
   7  15   3 1819.45 1276.84
   7  15  -3 3118.38  764.27
   7 -15   3 2660.78  682.79
   7  15   4 7107.22 2168.87
  -7  15  -4 6760.02 2117.10
   7 -15  -410643.60 1914.68
   7  15  -4 7688.77 2110.88
   7 -15   410687.80 1984.39
   7  15   5 3685.67 1467.24
  -7  15  -5 2159.47  884.53
   7 -15  -5 4938.30  799.95
   7  15  -5 3291.92 1492.65
   7 -15   5 3779.27 1375.66
   7  15   6 7832.49 1364.16
  -7  15  -6 4633.41 2145.21
   7 -15  -610398.10 1932.68
   7  15  -611085.00 1498.38
   7 -15   6 8116.70 2007.09
  -7  15  -7 3866.03 1853.70
   7 -15  -7 6485.64 1071.03
   7  15   7 5922.97 1937.52
   7  15  -7 6882.44 1240.47
   7 -15   7 8517.05 1171.35
   7  15   8 5705.51 1163.65
  -7  15  -8 4227.07 1132.66
   7 -15  -8 9135.64 1594.64
   7  15  -8 -427.99 1903.83
   7 -15   8 7449.83 1066.22
   7  15   9 2841.16 1493.40
  -7  15  -9 2702.58  932.55
   7 -15  -9 4326.29 1276.68
   7  15  -9  -61.45 1539.08
   7 -15   9 5364.74  852.41
   7  15  10 5536.47 1418.65
   7  15  10 -184.99 1652.01
  -7  15 -10 3346.97 1680.69
   7 -15 -10 6586.43  920.61
   7  15 -10  233.90 1677.25
   7 -15  10 5424.65 1575.24
   7  15  11 3129.80 1036.00
   7  15  11 -222.37  710.94
  -7  15 -11 3298.75 1201.20
   7 -15 -11  -72.41  989.88
   7  15 -11 3172.43  760.25
   7  15  12 -134.84  932.60
  -7  15 -12  978.33  985.59
   7 -15 -12 -195.98  478.38
   7  15  12 2263.41  519.74
   7  15 -12 1155.50  559.45
   7 -15  12 1528.18  892.37
   7  15  13 1036.45  513.32
   7  15  13 -325.16  876.34
  -7  15 -13 1064.48  586.80
   7 -15 -13  -47.20  761.17
   7  15 -13 1523.15  913.38
   7 -15  13 1042.69  512.76
  -7  16   0  256.13  604.59
   7 -16   0  922.36  656.15
   7  16   0  262.32  420.34
   7  16   111559.00 2698.46
  -7  16  -113462.20 2558.68
   7 -16  -114893.30 2465.83
   7  16  -113272.00 2690.80
   7 -16   114140.10 1647.11
  -7  16   111360.30 2280.56
   7  16   2  923.84  526.76
  -7  16  -2  507.42  822.70
   7 -16  -2  958.75  483.95
   7 -16   2  876.12  487.95
   7  16  -2 1844.60  966.09
  -7  16  -3 7381.89 2031.34
   7 -16  -3 9207.90 1257.28
   7  16   3 6412.93 2162.73
   7  16  -310028.40 1454.84
   7 -16   3 7458.19 1929.20
   7  16   4 1198.63  620.43
  -7  16  -4 1441.85  587.94
   7 -16  -4  938.36  919.31
   7  16  -4 1113.00 1021.33
   7 -16   4 1967.99  942.29
   7  16   5  639.00 1084.83
  -7  16  -5 1391.16 1128.18
   7 -16  -5 1952.92  613.07
   7  16  -5 2585.17 1119.78
   7 -16   5 1729.68  633.81
   7  16   6 1633.56  590.96
  -7  16  -6  592.61  941.80
   7 -16  -6  764.81  855.33
   7  16  -6 1017.90  591.75
   7 -16   6 1196.39  554.08
   7  16   7   95.33  649.44
  -7  16  -7  389.30  401.84
   7 -16  -7  254.71  585.63
   7  16  -7 -167.80  696.82
   7 -16   7  458.00  369.50
   7  16   8  451.05  441.84
  -7  16  -8  299.53  748.98
   7 -16  -8  924.80  392.75
   7  16  -8 -739.08  769.36
   7 -16   8  133.23  685.57
   7  16   9 1912.73  638.77
  -7  16  -9 1533.96 1129.00
   7 -16  -9 1172.31  983.88
   7  16  -9  213.45 1140.56
   7 -16   9 1847.13 1014.03
   7  16  10 -304.42  457.21
  -7  16 -10  139.75  493.44
   7 -16 -10   -4.23  243.32
   7  16 -10  232.79  282.55
   7  16  11 7703.55 1170.98
   7  16  11 8986.50 1358.64
  -7  16 -11 3690.42 1308.81
   7 -16 -11  -83.42 1820.08
   7  16 -11 7477.59 1298.65
   7 -16  1110744.90 1308.35
   7  17   0  129.64  341.86
  -7  17   0  169.06  291.91
   7 -17   0  219.72  315.49
   7  17   1  317.85  759.39
  -7  17  -1  -25.07  684.13
   7 -17  -1  489.00  709.43
   7  17  -1  971.71  769.38
   7 -17   1  773.11  671.73
   7  17   2 1769.85  639.87
  -7  17  -2 1141.92  972.54
   7 -17  -2 1284.78  961.94
   7  17  -2 1482.85 1056.33
   7 -17   2  908.32  941.26
   7  17   3 2773.20 1487.13
  -7  17  -3 3495.57 1425.89
   7 -17  -3 3667.83  830.06
   7  17  -3 4362.95  972.59
   7 -17   3 4305.23 1360.83
   7  17   4 1741.50  780.64
  -7  17  -4 3116.01 1249.79
   7 -17  -4 1808.20 1160.51
   7  17  -4 2174.60 1324.40
   7 -17   4 3362.95  735.37
   7  17   5 6135.24 1926.38
  -7  17  -5 4060.84 1820.40
   7 -17  -5 6813.39 1817.93
   7  17  -5 7975.87 2083.64
   7 -17   5 8081.00 1199.29
  -7  17  -6 2203.81  854.18
   7 -17  -6 6117.58  849.05
   7  17   6 3257.07  856.69
   7  17  -6 -236.71  909.81
   7 -17   6 4112.26 1391.93
   7  17   7 6028.26 1058.66
  -7  17  -7 2839.40 1652.48
   7 -17  -7 3522.85 1530.93
   7  17  -7  238.15 1709.45
   7 -17   7 6922.70 1615.95
   7  17   8 2775.01 1549.89
  -7  17  -8 2805.73 1618.17
   7 -17  -8 5221.84  916.55
   7  17  -8  -81.51 1625.87
   7 -17   8 5469.73 1486.29
   7  17   9 3911.92  828.05
  -7  17  -9 2258.84  868.51
   7 -17  -9 -262.85 1258.28
   7  17  -9 -459.57  894.57
   7 -17   9 5090.14  819.93
   7  18   0 6951.43 2206.53
   7 -18   0 8232.29 1266.61
   7  18   1  302.15  740.24
  -7  18  -1  885.87  387.63
   7 -18  -1  174.93  400.62
   7  18  -1   60.61  425.11
   7 -18   1  438.84  650.72
   7  18   2 8117.41 1371.38
  -7  18  -2 5153.11 1832.36
   7 -18  -2 4366.79 1899.57
   7  18  -2 6864.34 2046.02
   7 -18   2 8945.75 1845.67
   7  18   3  924.75  983.40
  -7  18  -3  574.71  544.52
   7 -18  -3 1104.46  519.34
   7  18  -3  793.21  591.66
   7 -18   3 1394.96  523.65
   7  18   4 -179.72 1862.97
  -7  18  -4 3755.72 1712.52
   7 -18  -4 7843.26 1095.97
   7  18  -4 5309.93 1888.26
   7 -18   4 7039.42 1751.27
   7  18   5 -248.07  392.28
  -7  18  -5  556.51  381.61
   7 -18  -5  211.97  611.87
   7  18  -5  244.68  407.01
   7 -18   5  874.74  634.09
   7  18   6 1855.14  948.64
  -7  18  -6 1404.79  924.05
   7 -18  -6 1243.70  518.99
   7  18  -6 -123.67  576.73
   7 -18   6 1273.44  892.07
   8   0   025309.10 2625.14
   8   0   026477.20 2842.11
   8   0   1  270.78  360.21
   8   0   1   36.80  335.89
   8   0  -1  996.63  585.96
   8   0   218739.40 3060.82
   8   0   216990.40 1505.41
   8   0   310206.30 1545.03
   8   0   3 9986.34 2227.47
   8   0  -3 8693.36 2010.84
   8   0   4 6548.80 1215.12
   8   0   4 6378.09 1136.19
   8   0  -4 4899.89 1596.43
   8   0   5 7440.06 1266.89
   8   0   5 4295.21 1808.09
   8   0  -5 3549.59 1567.64
   8   0  -6  184.03 1058.81
   8   0   6 3718.06  910.14
   8   0   6 4046.59 1336.54
   8   0   7 9469.07 1611.84
   8   0   7 7744.50 1366.63
   8   0  -7 7086.76 1098.49
   8   0   8  572.29  791.62
   8   0  -8  645.27  359.47
   8   0   8  332.23  568.30
   8   0   9 1826.06  585.46
   8   0   9 3212.68 1274.56
   8   0  -9 1903.98  943.33
   8   0  10 4669.11 1302.28
   8   0  10 6981.87 1140.41
   8   0 -10 3043.41 1297.82
   8   0  11  734.00  444.03
   8   0  11 1469.50  937.28
   8   0 -11  775.45  407.82
   8   0  1213807.40 2139.81
   8   0  12 7510.69 2552.12
   8   0  13 -485.52  383.33
   8   0  13  -40.41  313.96
   8   0  1415051.80 2262.30
   8   0  1417431.00 2814.30
   8   0  15  166.93  635.12
   8   0  15  164.77  534.32
   8   0  16 6608.41 1763.04
   8   0  16 3515.26 2061.62
   8   0  17 1023.91  834.55
   8   0  17   85.18  953.16
   8   0  18 5810.18 1115.74
   8   0  18 3479.30 2063.56
   8  -1   012564.90 1708.97
   8  -1   013084.60 2445.24
   8   1   013250.80 1792.01
   8  -1  -1 3978.16 1393.43
   8   1   1 6916.30  974.67
   8   1   1 2037.72  893.52
   8  -1  -1 4601.80  592.66
   8   1  -1 3070.05 1418.39
   8  -1   1 2907.51  961.09
   8  -1   1 3170.57  902.90
   8   1   2 1103.09  633.48
   8   1   2 1663.07  990.03
   8  -1  -2 1932.52  972.71
   8  -1   2 1185.25  658.99
   8   1  -2 2287.52  988.30
   8  -1   2 1707.59  634.39
   8   1   3 2966.70 1359.46
   8   1   3 3820.54  578.81
   8   1  -3 3201.45 1250.15
   8  -1   3 2532.85  919.79
   8  -1   3 2031.14 1317.87
   8   1   4 2968.91  968.12
   8   1   4 4288.75  934.84
   8  -1  -4 3442.03 1315.55
   8  -1   4 4165.95 1010.43
   8   1  -4 4396.53 1347.09
   8  -1   4 3678.73  927.94
   8  -1  -5 3954.80 1439.24
   8   1   5 5894.38  773.16
   8   1   5 6403.80 1743.61
   8   1  -5 5212.07 1537.93
   8  -1   5 5829.64 1241.42
   8  -1   5 4118.15 1719.64
   8   1   6 4764.37 1021.47
   8   1   6 4231.74 1410.02
   8  -1  -6 -302.00 1206.06
   8   1  -6 3343.00 1235.55
   8  -1   6 5517.67 1054.57
   8  -1   6 2909.14 1430.92
   8   1   7 5688.82 1727.01
   8  -1  -7 5406.99  874.31
   8   1   7 7473.74 1275.44
   8  -1   7 5096.57 1269.78
   8  -1   7 4138.58 1055.92
   8   1  -7 4869.31 1443.29
   8   1   8 4789.72  776.12
   8   1   8 4127.10 1050.27
   8  -1  -8 4140.43 1276.18
   8   1  -8 4798.80  843.87
   8  -1   8 4069.68 1659.27
   8  -1   8 6892.96 1278.09
   8   1   9 4253.63 1135.38
   8   1   9 2495.46 1476.02
   8  -1  -9 2833.97 1119.86
   8   1  -9 2858.27 1166.72
   8  -1   9 2589.94 1440.60
   8  -1   9 3962.00  695.29
   8   1  10 5184.89  802.97
   8   1  10 3328.43  985.69
   8  -1 -10 4753.64  762.43
   8  -1  10 3541.75  992.17
   8   1 -10 1126.45 1215.28
   8  -1  10 4775.17 1237.88
   8   1  11 3511.40 1284.85
   8   1  11 3303.63 1567.68
   8   1 -11 2318.14 1153.29
   8  -1  11 3071.03 1600.38
   8  -1  11 5047.79  796.96
   8   1  12 2988.47 1492.63
   8   1  12 5100.60  757.12
   8  -1  12  -89.94 1178.62
   8   1 -12 1987.01 1027.07
   8  -1  12 1257.72 1430.73
   8   1  13  684.04  463.95
   8   1  13  702.45  643.27
   8  -1  13 -366.78  377.22
   8  -1  13  949.52  451.98
   8   1  14 1587.17  752.39
   8   1  14 1370.57  631.87
   8  -1  14 2858.51 1062.62
   8  -1  14 1272.02  725.71
   8   1  15 1054.15 1075.34
   8   1  15  952.17 1282.69
   8  -1  15 2286.29  679.39
   8  -1  15 1279.06 1241.28
   8   1  16 2468.48 1377.95
   8   1  16 1954.62  702.01
   8  -1  16 2139.45 1188.76
   8  -1  16 1749.32 1386.95
   8   1  17 2153.39 1329.44
   8   1  17 1653.59 1119.68
   8  -1  17 2046.95 1115.82
   8  -1  17  536.06 1263.91
   8  -2   0 2988.38  852.30
   8  -2   0 4623.66 1332.18
   8   2   0 3593.91  837.78
   8   2   112754.10 1636.91
   8   2   112609.70 1514.52
   8  -2  -112201.30 2239.84
   8  -2  -112112.50 1100.52
   8   2  -112451.80 2399.08
   8  -2   111247.00 1114.76
   8  -2   112461.60 1658.55
   8   2   2 2491.58 1127.71
   8   2   2 1567.86  700.35
   8  -2  -2 1902.62 1049.25
   8  -2  -2 1252.87  658.77
   8  -2   2 2906.89  799.58
   8   2  -2 2380.36 1065.59
   8  -2   2 2116.31  711.94
   8   2   314032.40 1336.63
   8  -2  -316752.00 2581.47
   8   2   315552.20 2741.24
   8   2  -316389.20 2683.77
   8  -2   313340.20 1923.01
   8  -2   315944.60 2801.77
   8   2   4 6097.08 1142.12
   8   2   4 5779.58 1088.46
   8  -2   4 6313.33 1085.17
   8  -2   4 3308.18 1184.64
   8   2  -4 3421.08 1566.47
   8   2   5 4187.24  921.80
   8   2   5 3263.00 1356.74
   8  -2  -5 -187.11 1101.04
   8   2  -5 2152.97 1214.65
   8  -2   5 3663.46  968.42
   8  -2   5 3405.77  809.46
   8   2   6 5173.89  776.45
   8   2   6 6396.92 1045.22
   8  -2  -6  102.04 1266.98
   8   2  -6 2417.78 1441.90
   8  -2   6 5232.07  769.91
   8  -2   6 3717.29 1639.87
   8   2   7  962.25  683.09
   8  -2  -7 -234.76  317.17
   8   2   7  938.64  502.27
   8   2  -7  826.67  583.24
   8  -2   7  409.14  418.23
   8  -2   7  650.21  514.96
   8   2   8 3950.47 1016.96
   8   2   8 -356.79  798.84
   8  -2  -8  158.05 1007.41
   8  -2   8 2654.19 1360.59
   8   2  -8 2741.00  666.95
   8  -2   8 4797.71  650.06
   8   2   9 2175.13 1239.22
   8  -2  -9 1507.79  915.99
   8   2   9 3076.81  600.33
   8   2  -9 1786.06  639.45
   8  -2   9 2610.60  966.56
   8  -2   9 2258.83 1266.42
   8   2  10 1085.42  786.32
   8   2  10  900.42  603.90
   8  -2 -10 1229.32  415.44
   8   2 -10  814.44  804.82
   8  -2  10 1426.09  609.05
   8  -2  10  990.30  465.29
   8   2  11 5125.39  913.03
   8   2  11 5130.57 1844.27
   8   2 -11 4780.59 1338.35
   8  -2  11 5851.65 1395.16
   8  -2  11 4842.82 1774.92
   8   2  12  557.04  698.28
   8   2  12 -398.29  865.11
   8   2 -12  834.99  370.43
   8  -2  12 1695.02  858.38
   8  -2  12 -174.82  685.67
   8   2  13 9975.64 1989.46
   8   2  13 7165.48 1577.68
   8  -2  13 9604.73 1286.85
   8  -2  1310384.40 1580.16
   8   2  14   63.34  354.07
   8   2  14  958.23  445.12
   8  -2  14 -172.86  600.73
   8  -2  14  420.70  433.21
   8   2  15 7330.04 2571.29
   8   2  1510492.20 2184.93
   8  -2  1511136.60 1426.68
   8  -2  15 7014.78 2540.41
   8   2  16  -67.51  299.54
   8   2  16  257.22  609.55
   8  -2  16  571.04  518.02
   8  -2  16   79.89  588.96
   8   2  17 3210.83 1669.42
   8   2  17 3179.03 1438.14
   8  -2  17 3329.67  871.67
   8  -2  17 2547.02 1663.71
   8  -3   0 6693.14  865.00
   8  -3   0 4775.98 1792.80
   8   3   0 8749.89 1301.54
   8   3   1 6879.72 1183.05
   8  -3  -1 4319.04 1740.01
   8  -3  -1 6841.62 1203.67
   8   3  -1 4656.08 1804.47
   8  -3   1 7122.79 1255.51
   8  -3   1 7570.91 1201.47
   8   3   2 3792.12 1394.62
   8   3   2 2511.19  848.65
   8  -3  -2 4227.38  568.43
   8  -3  -2 2683.87 1235.04
   8   3  -2 2759.33 1382.83
   8  -3   2 2532.62  870.30
   8  -3   2 3922.16  595.50
   8  -3  -3 3332.31 1158.13
   8   3   3 2497.67  802.53
   8   3   3 3469.09  517.95
   8  -3  -3 2458.51  767.50
   8   3  -3 3213.70 1260.55
   8  -3   3 2202.27  898.98
   8  -3   3 2758.15 1314.12
   8   3   4 4165.75  903.89
   8   3   4 3852.73  619.22
   8  -3  -4 3051.83 1240.52
   8  -3   4 3610.81 1032.31
   8   3  -4 4316.03 1364.26
   8  -3   4 3418.09  918.68
   8   3   5 5473.40 1389.00
   8   3   5 3970.88  976.93
   8  -3  -5 -299.04 1169.95
   8   3  -5  682.45 1271.67
   8  -3   5 4348.65 1425.09
   8  -3   5 4569.99  667.46
   8   3   6 5126.25  997.79
   8  -3  -6 5379.81  812.81
   8   3   6 6329.15 1143.78
   8  -3   6 3676.46 1639.79
   8  -3   6 3658.95 1210.53
   8   3  -6 3218.81 1417.03
   8   3   7 6599.52  859.13
   8   3   7 4198.79 1835.92
   8  -3  -7 6099.33  903.60
   8   3  -7 5511.97 1568.79
   8  -3   7 6898.15  912.75
   8  -3   7 6426.13 1156.44
   8   3   8 3494.06  805.71
   8   3   8 -359.85  631.56
   8  -3  -8   39.31  813.69
   8  -3   8 3644.77  834.01
   8   3  -8 2169.12  934.40
   8  -3   8 2687.84 1109.20
   8   3   9 4617.50 1071.26
   8   3   9 -119.94 1394.96
   8  -3  -9 2842.97  657.93
   8   3  -9 3126.38  715.34
   8  -3   9 3712.19 1110.82
   8  -3   9 3910.92 1407.63
   8   3  10 5892.86  813.72
   8   3  10  -60.08  965.41
   8  -3  10 4910.19  778.36
   8   3 -10 3293.81  759.50
   8  -3  10 4438.69  952.37
   8   3  11 2373.27  864.79
   8   3  11 -337.84  639.94
   8   3 -11 2625.83  831.06
   8  -3  11 -229.11  855.15
   8  -3  11 3461.49 1050.09
   8   3  12 2896.72  918.21
   8   3 -12 2038.75  833.89
   8  -3  12 3490.34 1087.88
   8  -3  12 -383.04  554.81
   8   3  13 2509.90  776.11
   8   3  13 2178.40 1510.05
   8   3 -13 2641.42  700.18
   8  -3  13  -80.16 1234.78
   8  -3  13 5115.76  939.87
   8   3  14  765.44  845.40
   8   3  14 1270.75  622.07
   8  -3  14 -357.20  816.59
   8  -3  14 1046.30  610.16
   8   3  15 1401.90  616.19
   8   3  15  835.89  505.69
   8  -3  15 -130.52  498.21
   8  -3  15 1358.64  616.96
   8   3  16 1607.86  840.02
   8   3  16  910.37  967.66
   8  -3  16  -77.77  814.69
   8  -3  16  392.43  965.04
   8   3  17 -236.01 1224.93
   8   3  17 1399.94 1095.24
   8  -3  17 1991.28  637.89
   8  -3  17  944.65 1252.73
   8  -4   011409.10 1758.63
   8  -4   012393.50 2391.51
   8   4   013657.20 1703.42
   8   4   1 1182.48  751.33
   8  -4  -1  388.52  293.10
   8  -4  -1  477.37  700.31
   8   4  -1  310.68  434.93
   8  -4   1  662.35  316.85
   8  -4   1 1152.66  437.54
   8  -4  -2 8016.97 1266.66
   8  -4  -2 9266.82 1814.85
   8   4   2 6845.90 1926.27
   8   4  -2 8300.23 1900.77
   8  -4   2 7774.98 1411.47
   8  -4   2 6624.08 1198.15
   8   4   3 2480.01  785.06
   8   4   3 3315.31  485.50
   8  -4  -3 2164.06  768.34
   8  -4  -3 1700.31 1012.34
   8   4  -3 1597.20 1150.68
   8  -4   3 1275.10 1216.58
   8  -4   3 1911.71  923.80
   8   4   4 6486.34 1923.68
   8   4   4 7744.23  857.71
   8  -4  -4 9110.85 1620.63
   8  -4   4 6003.04 1228.26
   8   4  -4 3054.99 1787.50
   8  -4   4 7631.66  946.66
   8   4   5 2201.69 1117.80
   8   4   5 2157.69  777.88
   8  -4  -5 1915.40  887.49
   8   4  -5  770.60 1003.63
   8  -4   5 1645.93  822.67
   8  -4   5 1274.55 1082.63
   8   4   6 1004.59  457.50
   8   4   6 1054.12  525.29
   8  -4  -6 -247.39  344.17
   8   4  -6  402.23  660.37
   8  -4   6 1372.53  580.13
   8  -4   6  859.99  763.61
   8   4   7 -229.42 1150.82
   8   4   7 3988.32  841.58
   8  -4  -7 -239.63  879.62
   8   4  -7 2091.48 1071.66
   8  -4   7 2555.01 1201.22
   8   4   8 2257.67  655.36
   8   4   8   17.10  507.50
   8  -4  -8 -339.63  616.98
   8   4  -8 1545.37  752.33
   8  -4   8 1138.95  513.49
   8  -4   8  523.45  681.05
   8   4   9 1773.71  536.71
   8   4   9 -153.36 1109.51
   8   4  -9 1814.18  960.38
   8  -4   9 1566.93  584.83
   8  -4   9 3890.71 1187.57
   8   4  10 -116.47 1334.24
   8   4  10 2514.72 1065.26
   8  -4  10 2476.84 1059.76
   8   4 -10 2753.56  674.69
   8  -4  10 3628.74  822.79
   8   4  11 2643.05  744.41
   8   4  11 -234.44  548.66
   8   4 -11  622.81  440.18
   8  -4  11 1141.56  748.30
   8  -4  11 1318.85  941.40
   8   4  12 6286.46  946.54
   8   4  12 -267.31 1769.47
   8  -4  12 5574.33  922.48
   8   4 -12 4758.79 1436.91
   8  -4  12 4521.04 1795.98
   8   4  13  658.34  462.10
   8   4  13 -366.53  558.09
   8   4 -13  147.33  427.88
   8  -4  13 -301.97  472.40
   8  -4  13  316.33  568.83
   8   4  14 4677.77 1412.89
   8   4  14 -166.72 1014.65
   8   4 -14 5745.02  838.20
   8  -4  14   77.53 1379.48
   8  -4  14 5445.57 1042.14
   8   4  15  757.06  397.54
   8   4  15  495.55  453.12
   8  -4  15   63.70  389.61
   8  -4  15  185.62  456.31
   8   4  16 4149.07 1549.67
   8   4  16 -422.43 1757.70
   8  -4  16 7287.90 1556.41
   8  -4  16 4043.21 1137.37
   8   4  17  658.27  472.36
   8   4  17  602.14  890.49
   8  -4  17  274.57  757.69
   8  -4  17  248.90  917.33
   8  -5   0 1599.30  705.23
   8  -5   0  873.24  586.79
   8   5   0 1803.29  620.36
   8   5   1 2740.48 1200.97
   8  -5  -1 2466.24  813.22
   8  -5  -1 2072.57 1103.28
   8   5  -1 2638.99  735.82
   8  -5   1 2040.38  534.13
   8  -5   1 2067.69  707.85
   8   5   2 3035.69 1508.94
   8  -5  -2 4934.72  645.05
   8  -5  -2 4020.36 1297.19
   8   5  -2 4321.22 1404.20
   8  -5   2 2644.35 1424.40
   8  -5   2 2971.81 1129.92
   8   5   3 2782.42  814.02
   8  -5  -3 2327.94  823.50
   8  -5  -3 2740.22 1108.82
   8   5  -3 2900.82 1201.91
   8  -5   3 2182.70 1265.34
   8  -5   3 3305.89  598.28
   8   5   4 4893.46 1621.35
   8   5   4 5139.42  690.50
   8  -5  -4 5625.98 1033.71
   8  -5  -4 4806.28 1353.34
   8   5  -4 1900.46 1542.25
   8  -5   4 6975.34 1282.25
   8  -5   4 5448.33 1040.12
   8   5   5 2257.05 1124.91
   8   5   5 2244.73  459.99
   8  -5  -5 1726.19  530.26
   8   5  -5 1509.05 1039.59
   8  -5   5 1004.12  853.72
   8  -5   5 1904.42 1089.36
   8   5   6 -110.26 1451.24
   8   5   6 4201.26  655.63
   8  -5  -6 3265.95  699.65
   8   5  -6 4047.69 1344.25
   8  -5   6 4397.16  713.22
   8  -5   6 4266.52  899.96
   8   5   7  -49.79 1261.82
   8   5   7 3930.88  907.76
   8  -5  -7 -293.61  939.32
   8   5  -7 3207.36 1178.57
   8  -5   7 4553.29 1017.80
   8  -5   7 3242.90 1330.76
   8   5   8  -33.89 1274.69
   8   5   8 3424.69  971.08
   8   5  -8 2093.78 1154.58
   8  -5   8 3398.72 1061.72
   8  -5   8 2940.02  797.96
   8   5   9 5629.63 1116.99
   8   5   9 5937.13 1449.73
   8   5  -9 5276.70 1595.66
   8  -5   9 7073.24  989.38
   8  -5   9 5537.96 1890.26
   8   5  10 4636.22  782.95
   8   5  10 -139.46 1513.29
   8   5 -10 3917.80 1319.38
   8  -5  10 4347.19 1298.55
   8  -5  10 3856.02  958.58
   8   5  11 1305.83  514.51
   8   5  11  199.29  610.57
   8   5 -11 1147.01  506.55
   8  -5  11 1919.93  858.68
   8  -5  11 1799.31  643.01
   8   5  12 -113.95  934.10
   8   5  12 -164.22 1092.87
   8   5 -12 1760.93  561.28
   8  -5  12 1919.92  577.57
   8  -5  12 3285.06 1202.36
   8   5  13 1317.35  844.28
   8   5  13   22.46  988.27
   8   5 -13  869.38  777.74
   8  -5  13  295.06  818.94
   8  -5  13 2048.61 1032.01
   8   5  14   -3.84  578.97
   8   5  14 1380.12  518.93
   8   5 -14  373.13  758.87
   8  -5  14   17.43  810.54
   8  -5  14 2638.67 1028.41
   8   5  15 1457.62 1054.01
   8   5  15 -236.19  725.92
   8  -5  15 1654.23  611.96
   8  -5  15 2624.44  755.36
   8   5  16  847.50  916.67
   8   5  16  770.77  595.46
   8  -5  16 1794.74  886.63
   8  -5  16  460.29  631.71
   8   5  17 1310.58  616.51
   8   5  17 1217.89 1122.56
   8  -5  17 1014.64  946.57
   8  -5  17  824.42  714.55
   8   6   0 1190.00  542.47
   8  -6   0 1394.83  395.26
   8  -6   0  550.95  505.54
   8   6   111035.50 2304.94
   8  -6  -112685.00 1710.87
   8  -6  -1 9254.72 2061.06
   8  -6   110482.10 1516.10
   8  -6   110800.10 1730.27
   8   6  -1 9012.07 1481.96
   8   6   2 1516.48  923.87
   8  -6  -2 1336.48  622.38
   8  -6  -2  188.64  794.51
   8   6  -2  574.16  525.92
   8  -6   2 1372.94  671.83
   8  -6   2 1153.52  846.43
   8   6   3 5807.36 1076.41
   8  -6  -3 4955.55  696.89
   8  -6  -3 3652.77 1351.06
   8   6  -3 5330.41 1598.16
   8  -6   3 6293.64  850.89
   8  -6   3 3880.39 1588.03
   8   6   4   29.13 1193.65
   8  -6  -4 1318.19  771.95
   8  -6  -4 3322.08  981.60
   8   6  -4 1358.97 1113.70
   8  -6   4 3054.18  959.15
   8  -6   4 2553.00  724.62
   8   6   5 -164.17  720.14
   8   6   5 2855.87  504.31
   8  -6  -5 2824.02  477.36
   8  -6  -5 2451.49  575.23
   8   6  -5 2930.75 1124.40
   8  -6   5 3238.38  980.01
   8  -6   5 3067.18 1246.11
   8   6   6 1150.47  473.97
   8  -6  -6 2003.86  791.79
   8   6   6  145.59 1061.13
   8   6  -6 1604.51  994.34
   8  -6   6 1636.62  528.51
   8  -6   6 1667.20  663.24
   8   6   7  449.25  411.84
   8   6   7  254.55  303.23
   8   6  -7  754.23  634.34
   8  -6   7  697.49  542.54
   8  -6   7 -362.65  710.67
   8   6   8 -151.85 1596.61
   8   6   8 4980.37  809.36
   8   6  -8 3556.26 1431.77
   8  -6   8 3629.74 1325.05
   8  -6   8 4447.17  990.54
   8   6   9   44.76  586.54
   8   6   9 1828.91  772.00
   8   6  -9 1510.20  874.19
   8  -6   9 1666.33  479.67
   8  -6   9  873.63 1038.14
   8   6  10 2255.63 1100.10
   8   6  10 -228.16 1338.84
   8   6 -10 1668.83 1175.58
   8  -6  10 3705.10 1146.58
   8  -6  10 4338.64 1413.32
   8   6  11  298.56 1631.22
   8   6  11 6616.95 1432.00
   8   6 -11 6290.31 1464.32
   8  -6  11 6335.05 1454.38
   8  -6  11 3485.85 1097.62
   8   6  12 -105.63  450.12
   8   6  12  -33.56  383.76
   8   6 -12 1273.16  679.00
   8  -6  12  992.16  401.53
   8  -6  12  887.80  507.62
   8   6  13 -125.33 2070.15
   8   6  13 8524.59 1155.97
   8   6 -13 7490.07 1114.74
   8  -6  13 8384.52 1788.04
   8  -6  13 5289.99 2202.02
   8   6  14  195.05  492.01
   8   6  14   11.02  553.05
   8   6 -14  302.36  267.52
   8  -6  14  176.63  478.78
   8  -6  14 -885.22  608.91
   8   6  15 5705.91 1782.36
   8   6  15 4748.41 1241.74
   8   6 -15 5209.84 1617.89
   8  -6  15 6527.48 1057.73
   8  -6  15 3407.57 2021.49
   8   6  16  118.06  351.65
   8   6  16  291.13  378.17
   8  -6  16  197.03  335.16
   8  -6  16  127.10  409.59
   8  -7   0 1222.98  457.66
   8  -7   0 1478.75  582.43
   8   7   0 2323.58 1031.67
   8  -7  -1 1891.35  772.09
   8  -7  -1 1248.81  596.87
   8   7   1 2479.68 1079.04
   8   7  -1 1819.01  678.57
   8  -7   1 1995.99  830.85
   8  -7   1 1067.49 1016.47
   8   7   2 -283.92  693.09
   8  -7  -2 2498.73  797.62
   8  -7  -2 2038.12  598.16
   8   7  -2 2331.72  659.93
   8  -7   2 2971.52  900.90
   8  -7   2 1583.59 1078.98
   8   7   3 -196.75  827.13
   8  -7  -3 4645.46  583.74
   8  -7  -3 2351.46  693.02
   8   7  -3 3860.69 1286.87
   8  -7   3 2809.27  650.76
   8  -7   3 3377.53 1300.31
   8   7   4   67.10 1251.20
   8  -7  -4 3638.09  845.64
   8  -7  -4 2416.10  625.83
   8   7  -4 1337.77 1227.01
   8  -7   4 2643.84  997.51
   8  -7   4 2470.85  774.71
   8   7   5  174.11  804.90
   8  -7  -5 3855.38  887.24
   8  -7  -5 3074.91  642.10
   8   7  -5 4312.25 1299.38
   8  -7   5 3748.57 1078.55
   8  -7   5 3164.48 1310.37
   8   7   6 -148.30 1441.98
   8   7   6 4332.93 1005.24
   8  -7  -6 3046.17 1049.05
   8   7  -6 3731.10 1340.11
   8  -7   6 3381.03  718.82
   8  -7   6 4073.89  900.94
   8   7   7 5499.53 1006.83
   8   7   7 -275.91  827.42
   8   7  -7 4969.40 1212.74
   8  -7   7 4194.00 1100.13
   8  -7   7 -272.31 1371.37
   8   7   8  -21.92 1331.35
   8   7   8 3949.92 1034.32
   8  -7   8 3162.77 1149.31
   8  -7   8  161.37 1451.20
   8   7  -8 5169.32 1235.47
   8   7   9 -219.66  674.54
   8   7   9 1790.84  539.84
   8   7  -9 1628.79 1021.28
   8  -7   9 2502.83  561.66
   8  -7   9 2078.43  733.52
   8   7  10  243.83 1230.53
   8   7  10 1930.68  595.23
   8   7 -10 3039.20 1105.69
   8  -7  10 2707.91 1054.97
   8  -7  10 2418.31 1343.62
   8   7  11 -568.50 1296.19
   8   7  11 2659.40  681.41
   8   7 -11 2164.15 1134.83
   8  -7  11 2274.41 1120.92
   8  -7  11 4242.87 1434.71
   8   7  12 -583.02  539.08
   8   7  12    0.63  767.80
   8   7 -12  704.44  790.45
   8  -7  12 1107.34  456.71
   8  -7  12 1924.57  579.89
   8   7  13 -328.42  632.70
   8   7  13   38.11  922.50
   8   7 -13  953.54  874.78
   8  -7  13 2059.30  538.06
   8  -7  13 1667.82  681.59
   8   7  14  807.06  973.93
   8   7  14 -196.70  856.88
   8   7 -14  858.54  821.53
   8  -7  14 1519.13  838.73
   8  -7  14  945.27  619.72
   8   7  15  523.44 1215.93
   8   7  15 1436.51  692.78
   8   7 -15 2165.23  633.15
   8  -7  15 1528.13 1094.99
   8  -7  15 1809.86  791.47
   8   7  16 1153.36  684.72
   8   7  16 1084.75 1050.35
   8   7 -16 1719.24  562.83
   8  -7  16  928.62  586.80
   8  -7  16  901.49  698.53
   8  -8   0 7683.44  938.40
   8  -8   0 7630.58 1114.11
   8   8   0  -74.91 1813.44
   8   8   1  139.69  732.89
   8  -8  -1  604.76  545.83
   8  -8  -1 1042.93  393.08
   8   8  -1 -523.52  431.16
   8  -8   1 1166.81  591.01
   8  -8   1  581.58  689.42
   8   8   2 9236.02 1360.38
   8  -8  -2 8992.31 1618.40
   8  -8  -2 9301.27 1260.44
   8   8  -2 8679.43 1338.98
   8  -8   211835.50 1845.11
   8  -8   2 9175.67 2107.42
   8   8   3   37.23 1078.74
   8  -8  -3 2023.65  469.89
   8  -8  -3 1203.02  514.55
   8   8  -3 -282.89 1030.39
   8  -8   3 1589.12  523.99
   8  -8   3 1855.03  624.44
   8   8   4  108.06 1096.18
   8  -8  -4 2833.08  742.87
   8  -8  -4 1497.45  527.08
   8   8  -4 -384.32 1044.79
   8  -8   4 1710.50  882.30
   8  -8   4 2091.57 1084.84
   8   8   5 5944.91 1130.56
   8  -8  -5 7600.99 1329.67
   8  -8  -5 3527.50 1398.19
   8   8  -5 6861.68 1798.13
   8  -8   5 3650.48 1511.27
   8  -8   5 6696.52 1198.22
   8   8   6  151.07  802.19
   8  -8  -6  766.06  318.69
   8   8  -6 1249.41  749.91
   8  -8   6  494.03  398.05
   8  -8   6 -209.12  824.92
   8   8   7 2272.81  836.88
   8   8   7  -73.42  657.85
   8   8  -7 3363.89  639.60
   8  -8   7 2469.72  923.06
   8  -8   7  106.59  711.53
   8   8   8  685.44  619.32
   8   8   8 -272.79  822.81
   8   8  -8  941.80  436.46
   8  -8   8  452.94  686.43
   8  -8   8   31.62  874.93
   8   8   9 2414.26 1250.53
   8   8   9 -747.58 1545.17
   8   8  -9 5793.98  947.58
   8  -8   9 6148.73  856.53
   8  -8   9 -137.58 1030.57
   8   8  10  -22.32  768.05
   8   8  10 2972.01 1013.69
   8  -8  10 3835.21  637.66
   8  -8  10 2513.20  794.24
   8   8 -10  -24.21  680.30
   8   8  11 -574.09 1103.86
   8   8  11 2177.79  937.68
   8   8 -11   36.61  597.51
   8  -8  11 2045.00  950.83
   8  -8  11 2716.66  701.53
   8   8  12 -609.03  420.22
   8   8  12   17.57  360.98
   8  -8  12  152.70  241.71
   8   8  13  118.01  388.03
  -8   8 -13  258.02  473.30
   8   8  13  281.45  451.91
   8   8 -13  498.98  654.68
   8  -8  13  654.91  382.84
   8   8  14 7522.04 2452.42
   8   8  14 9863.85 1457.48
  -8   8 -14 8685.05 1627.23
   8   8 -14 9736.77 2175.26
   8  -8  14 9929.17 2155.86
   8   8  15   81.39  562.42
  -8   8 -15  -43.76  388.02
   8   8 -15 1202.45  532.92
   8  -8  15 -434.12  527.88
   8  -9   0 2533.85  581.26
   8  -9   0 2377.45 1079.88
   8   9   0  122.72 1160.50
   8   9   1 -117.53 1053.42
   8  -9  -1 2520.82  821.27
   8  -9  -1 2481.59  934.14
   8   9  -1 -838.18  644.58
   8  -9   1 3447.72  884.05
   8  -9   1 2325.07  998.83
   8   9   2   67.50  558.47
   8  -9  -2 2749.30  764.50
   8  -9  -2 1304.72  848.37
   8   9  -2  189.20  585.21
   8  -9   2 1544.94  794.51
   8  -9   2 2052.51  586.58
   8   9   3  100.00 1127.85
   8  -9  -3 2880.00  562.19
   8  -9  -3 1925.85  978.81
   8   9  -3  -20.77 1177.81
   8  -9   3 2280.02  619.33
   8  -9   3 1878.64 1188.09
   8   9   4 -250.77  611.66
   8  -9  -4 3128.21  763.85
   8  -9  -4 1662.89  809.54
   8  -9   4 2395.28  864.18
   8  -9   4 1528.56 1042.21
   8   9  -4  -58.42 1006.05
   8  -9  -5 7703.90 1089.99
   8   9   5   76.97 1521.93
   8   9  -5 7845.36 1423.44
   8  -9   5 2708.72 1273.94
   8  -9   5  161.61  953.10
   8   9   6  607.65  713.42
   8  -9  -6 1963.01  478.01
   8   9  -6 2655.35  678.90
   8  -9   6 2682.31  601.41
   8  -9   6  108.26 1214.10
   8   9   7  413.96 1177.58
   8  -9  -7  563.55  744.38
   8   9  -7 3448.00  680.89
   8  -9   7 3251.56  605.83
   8  -9   7 -481.67  726.76
   8   9   8 8628.41 1494.93
   8   9   8 9203.26 1814.18
   8   9  -8 9847.03 1441.65
   8  -9   811499.10 2047.64
   8  -9   8 8876.70 1562.76
   8   9   9 2834.16  523.71
   8   9   9 -219.21 1075.48
   8   9  -9  209.70  592.17
   8  -9   9 2540.69  911.79
   8  -9   9   17.02  658.41
   8   9  10 3963.32  704.54
   8   9  10 -165.89  847.79
  -8   9 -10 2534.55  877.15
   8   9 -10  189.55  769.87
   8  -9  10 5178.46  759.95
   8   9  11  -65.36  410.35
   8   9  11  134.95  812.25
  -8   9 -11 1500.47  519.16
   8   9 -11 -156.84  433.24
   8  -9  11 1648.25  700.28
   8   9  12  -14.88 1045.72
  -8   9 -12 2659.65 1280.10
   8   9  12   64.28 1212.90
   8   9 -12 2336.70  665.52
   8  -9  12 1920.66 1039.25
   8   9  13  264.53  451.88
   8   9  13  -12.92  671.94
  -8   9 -13   51.05  788.07
   8   9 -13  517.02  410.17
   8  -9  13  665.30  676.53
   8   9  14 1604.15  763.73
   8   9  14  -90.33 1149.31
  -8   9 -14 1073.08 1299.96
   8   9 -14 2379.58  694.83
   8  -9  14 1915.70  670.80
   8 -10   0  626.99  340.73
   8 -10   0  -98.01  618.60
   8  10   0   52.45  703.26
   8  10   1 8630.84 1367.09
   8 -10  -111880.80 1829.37
   8 -10  -1 7995.56 1912.44
   8 -10   1 9391.49 1207.45
   8 -10   1 8242.14 1334.10
   8  10  -1 8837.64 1401.50
   8  10   2   97.50  460.86
   8 -10  -2  963.13  383.58
   8 -10  -2  785.63  671.26
   8  10  -2 -102.55  474.12
   8 -10   2  863.52  655.69
   8 -10   2 1072.92  470.97
   8  10   3   19.97 1671.67
   8 -10  -3 7813.31  899.51
   8 -10  -3 3446.06 1397.63
   8  10  -3  -82.44 1635.21
   8 -10   3 8583.27 1472.61
   8 -10   3 4556.84 1761.20
   8 -10  -4  334.09  701.40
   8  10   4 -396.72  541.83
   8  10  -4 -164.38  913.98
   8 -10   4 2314.82  483.76
   8 -10   4 1432.67  587.69
   8  10   5   93.74 1182.83
   8 -10  -5 2861.80  555.70
   8  10  -5  -18.65 1181.08
   8 -10   5 3493.85 1052.29
   8 -10   5 -109.23 1255.87
   8  10   6 6930.55 1295.67
   8 -10  -6 9177.30 1543.28
   8  10  -6 9545.58 1433.32
   8 -10   6 8585.91 1913.61
   8 -10   6 6671.56 1405.43
   8  10   7   13.09  855.55
   8 -10  -7  291.30  547.18
   8  10  -7  623.25  466.43
   8 -10   7 1033.81  432.18
   8 -10   7  494.56  503.53
   8  10   8  149.59  701.48
  -8  10  -8 2572.46  682.02
   8  10  -8  220.71  628.00
   8 -10   8 2155.95  587.83
   8  10   9 1418.49  839.50
   8  10   9   46.08 1115.34
  -8  10  -9 2574.76 1115.02
   8  10  -9  251.02  988.03
   8 -10   9 1856.51  950.59
   8  10  10 1311.35  802.70
   8  10  10  -11.45  984.84
  -8  10 -10 1277.32 1035.87
   8  10 -10 -329.53  893.86
   8 -10  10 1861.23  864.23
   8  10  11  -13.41  568.26
   8  10  11 -357.43  418.15
   8  10 -11  -35.15  625.46
   8  10  12  -70.04  614.35
   8  10  12  287.77  736.89
  -8  10 -12  301.38  438.30
   8  10 -12  186.85  666.76
   8 -10  12  713.13  621.40
   8  10  13 4384.06 1838.06
   8  10  13  -18.54 1605.45
  -8  10 -13 4921.13 1903.97
   8  10 -13 6361.08 1669.31
   8 -10  13 6220.07 1602.35
   8 -11   0 1838.53  987.85
   8 -11   0 2463.07  671.96
   8  11   0  -28.79 1171.85
   8  11   1  157.35  667.34
   8 -11  -1 2812.22  883.45
   8 -11  -1 2012.35  931.70
   8  11  -1  -45.16  642.26
   8 -11   1 2245.65  545.41
   8 -11   1 1714.65  605.69
   8  11   2  155.22 1014.06
   8 -11  -2 1481.61  500.08
   8 -11  -2 1145.84  844.06
   8 -11   2 2209.09  525.01
   8 -11   2 2206.18 1022.01
   8  11  -2 -144.70  603.62
   8 -11  -3  699.47  720.61
   8  11   3  160.52  907.61
   8  11  -3  -85.63  911.93
   8 -11   3 1764.41  804.81
   8 -11   3 2278.20  944.32
   8  11   4 -530.89  547.29
   8 -11  -4 2177.00  711.99
   8  11  -4  -43.28  897.12
   8 -11   4 2905.25  770.68
   8 -11   4  172.42  922.25
   8  11   5  143.38 1116.70
   8 -11  -5 2861.72  520.80
   8  11  -5  -40.60  659.02
   8 -11   5 2924.11  615.91
   8 -11   5 -195.07  715.12
   8  11   6   75.21  729.76
   8 -11  -6 3669.27  883.31
   8  11  -6 4041.69  740.70
   8 -11   6 3990.82 1083.17
   8 -11   6 -263.44  699.11
   8  11   7 -170.34 1268.61
  -8  11  -7 3450.83 1319.62
   8 -11  -7 3405.61  573.25
   8  11  -7   -5.13  763.46
   8 -11   7 2925.85 1161.13
   8  11   8  457.48 1186.54
  -8  11  -8 3291.85 1244.09
   8 -11  -8 1478.46  870.61
   8  11  -8  -94.69 1178.21
   8 -11   8 2816.55  658.96
   8  11   9 6605.73 1170.66
  -8  11  -9 6058.17 1221.67
   8  11  -9  129.65 1773.74
   8 -11   9 6279.21 1069.46
   8  11  10 4168.96 1120.60
   8  11  10  264.37 1352.82
  -8  11 -10 2419.43  849.03
   8  11 -10  181.98 1259.46
   8 -11  10 3170.62 1213.80
   8  11  11 2312.80 1141.02
   8  11  11 2719.95  868.44
  -8  11 -11 1878.33 1451.10
   8  11 -11  313.25 1284.18
   8 -11  11 3457.98 1283.90
   8  11  12 1114.96 1103.54
   8  11  12 1684.83  828.53
  -8  11 -12 1117.58 1349.42
   8  11 -12  164.76 1191.35
   8 -11  12 2941.46  713.00
   8  12   0 -173.44 1659.12
   8 -12   0 6454.19  926.58
   8 -12   0 5731.04 1634.51
   8  12   1  -16.12  402.44
   8 -12  -1  506.77  338.02
   8 -12  -1  512.08  362.52
   8  12  -1  -38.42  672.01
   8 -12   1  548.64  581.83
   8 -12   1  125.19  659.28
   8 -12  -2 8963.29 1685.35
   8  12   2 -169.29 1958.09
   8  12  -2 8364.74 1259.12
   8 -12   2 8377.58 1752.04
   8 -12   2 5990.52 1994.47
   8  12   3 -235.25  661.44
   8 -12  -3 1859.40  878.42
   8 -12   3 2008.18  578.03
   8 -12   3 2693.63  666.40
   8  12  -3  -64.81 1062.24
   8  12   4  -96.00 1519.98
   8 -12  -4 5140.34  764.45
   8  12  -4   15.12 1509.46
   8 -12   4 3551.34 1341.81
   8 -12   4 4382.18  968.10
   8  12   5 -338.26  684.39
  -8  12  -5 3352.24  683.12
   8 -12  -5 2207.45  849.30
   8  12  -5  -53.65  655.95
   8 -12   5 2691.90  966.05
  -8  12  -6 2340.58 1088.40
   8 -12  -6 1251.31  477.82
   8  12   6 -331.23 1056.06
   8  12  -6 1883.53  671.56
   8 -12   6 1390.04  576.09
   8  12   7 -368.00  891.15
  -8  12  -7 3117.24  912.20
   8 -12  -7 3364.16 1125.52
   8 -12   7 5342.62  807.77
   8  12  -7 -443.79 1396.32
   8  12   8 -331.65  433.98
  -8  12  -8 -245.51  264.87
   8 -12  -8  430.96  326.70
   8  12  -8  -92.18  429.17
   8 -12   8  392.79  403.77
   8  12   9 -270.59  594.55
  -8  12  -9 3197.65 1022.84
   8  12  -9   29.69  968.28
   8 -12   9 2182.89  913.56
   8  12  10  235.57 1052.26
  -8  12 -10  802.64 1070.20
   8  12 -10 -231.76 1006.88
   8 -12  10 1803.17  568.50
   8  12  11  631.93  691.22
   8  12  11 -219.29  800.13
  -8  12 -11 1234.14  524.21
   8  12 -11   55.42  473.81
   8 -12  11  456.00  758.62
   8  13   0   40.92  975.22
   8 -13   0 1538.99  849.17
   8 -13   0 1406.84  922.41
   8  13   1 1174.93  625.24
   8 -13  -1 1501.34  889.09
   8  13  -1  -96.42 1026.30
   8 -13   1 1600.37  545.04
   8 -13   1 1116.85  622.98
   8 -13  -2 5045.73  747.66
   8  13   2 1244.25 1428.30
   8  13  -2   36.35  835.53
   8 -13   2 3084.86 1242.24
   8 -13   2 4276.26 1390.16
   8  13   3 1572.91  644.70
   8 -13  -3 1827.94  827.62
   8  13  -3  -63.17 1004.83
   8 -13   3 1295.26  928.14
   8 -13   3  867.83  592.89
   8  13   4  -16.75 1316.05
  -8  13  -4 3328.83  768.77
   8 -13  -4 2383.40 1024.84
   8  13  -4 -116.42 1285.49
   8 -13   4 2714.66  695.61
   8  13   5 -115.50  730.48
  -8  13  -5 2256.48 1159.77
   8 -13  -5 1948.91  555.98
   8  13  -5 2288.91  699.01
   8 -13   5 2235.72  630.95
  -8  13  -6 4813.24 1052.19
   8 -13  -6 4820.22 1389.16
   8  13   6   55.25 1654.25
   8  13  -6 4700.02 1023.96
   8 -13   6 4414.76 1584.64
   8  13   7   50.36  724.76
  -8  13  -7 3277.55 1234.16
   8 -13  -7 2418.86  592.55
   8  13  -7 2216.53 1196.00
   8 -13   7 1580.34 1098.15
   8  13   8  214.13 1269.20
  -8  13  -8 3188.25 1327.12
   8 -13  -8 2366.71  996.18
   8  13  -8  -24.52 1246.50
   8 -13   8 2764.87  706.50
   8  13   9 -188.28 1098.68
  -8  13  -9 1724.03  687.73
   8 -13  -9 2524.24  863.79
   8  13  -9 -397.27  665.31
   8 -13   9 3493.33 1069.56
   8 -14   0   93.19  346.68
   8  14   0 -167.69  391.33
   8  14   1 7997.40 1346.12
   8 -14  -1 8587.01 1188.13
   8  14  -1   34.23 2008.53
   8 -14   1 9875.05 1844.20
   8 -14   1 7340.92 1972.57
   8  14   2 1265.44  940.88
   8 -14  -2  605.63  794.11
   8  14  -2  129.13  570.02
   8 -14   2  945.88  515.96
   8 -14   2 1897.81  577.24
   8  14   3 3006.64  870.73
  -8  14  -3 1749.39  803.88
   8 -14  -3 3636.46 1143.21
   8  14  -3 3127.12 1382.12
   8 -14   3 2551.21  757.53
   8  14   4 1854.27 1262.52
  -8  14  -4 1402.67 1235.22
   8 -14  -4 2216.72  641.48
   8  14  -4 3074.41 1278.13
   8 -14   4 1735.90 1147.97
  -8  14  -5 1032.06  598.83
   8 -14  -5  564.61  806.01
   8  14   5 1672.56  633.04
   8  14  -5  928.39  613.86
   8 -14   5 1167.92  913.61
   8  14   6 1372.00 1305.36
  -8  14  -6  813.21 1250.44
   8 -14  -6 1991.25  649.34
   8  14  -6 2309.47 1258.98
   8 -14   6 2412.53  685.87
   8  14   7 -233.76  394.93
  -8  14  -7  779.85  397.66
   8 -14  -7  -99.09  532.03
   8  14  -7  111.32  641.95
   8 -14   7  344.71  601.53
   8  15   0 1377.12 1214.28
   8 -15   0 2357.72 1100.30
   8  15   1 1645.94  725.99
   8 -15  -1 2821.91 1049.84
   8  15  -1  -36.87 1165.33
   8 -15   1 1650.35  627.62
   8  15   2 3029.46 1496.75
  -8  15  -2 3291.26  841.28
   8 -15  -2 2896.63  784.12
   8  15  -2 3462.65  918.42
   8 -15   2 2666.59 1356.61
   8  15   3 2227.21  846.17
  -8  15  -3  992.66 1291.30
   8 -15  -3 3019.03 1159.49
   8  15  -3 2966.22 1379.26
   8 -15   3 3094.51 1277.54
   8  15   4 1312.14 1111.73
  -8  15  -4 1054.98  653.10
   8 -15  -4 1621.24  921.20
   8  15  -4 1870.67 1128.80
   8 -15   4 1451.50  622.03
   9   0   0 1707.73 1100.73
   9   0   1 3644.65  895.90
   9   0  -1 -246.23  537.48
   9   0   2 3079.37  655.17
   9   0  -2  -48.73  630.55
   9   0   3 5006.93 1309.28
   9   0  -3  104.28 1232.07
   9   0   4 3418.15 1136.86
   9   0   4 3773.45 1560.07
   9   0  -4 4620.95 1487.95
   9   0   5  442.63  330.50
   9   0   5  109.55  474.82
   9   0  -5 1426.39  716.19
   9   0   614906.10 1966.30
   9   0   6 -389.91 2436.65
   9   0  -611632.40 2241.64
   9   0   7  538.72  524.31
   9   0   7    8.81  423.26
   9   0  -7  503.38  589.24
   9   0   8 9502.93 1156.93
   9   0   8 -525.88 2241.74
   9   0  -8 7708.21 1216.11
   9   0   9  465.32  677.19
   9   0   9 1523.83  941.54
   9   0  -9  562.09  439.12
   9   0  10 4573.44 1169.78
   9   0  10 5679.87  960.11
   9   0  11  217.38  753.22
   9   0  11 1121.27  934.68
   9   0  12 -131.57  606.82
   9   0  12  785.13  755.20
   9   1   0 -691.79 1341.46
   9  -1   0 5365.05 1289.66
   9  -1  -1 6101.11 1335.10
   9   1  -1 -142.25  841.12
   9  -1   1 6764.64 1354.64
   9  -1  -2  307.82  594.78
   9   1   2 2734.49  624.10
   9  -1   2 2799.61  633.30
   9   1  -2 -484.87  607.84
   9   1   3 4950.15 1371.62
   9  -1  -3  521.99  788.47
   9   1  -3 -159.80 1297.32
   9  -1   3 5349.76 1390.36
   9  -1   3 4865.79  970.07
   9   1   4  -67.40  974.45
   9  -1  -4   40.80  547.18
   9   1  -4  194.53  904.41
   9  -1   4 2081.46  429.03
   9  -1   4  453.59  985.60
   9   1   5  923.77  478.64
   9   1   5 -481.11  420.47
   9  -1  -5  -37.77  368.86
   9   1  -5 1129.31  616.70
   9  -1   5  928.61  496.81
   9  -1   5  185.08  415.64
   9  -1  -6  232.38  432.01
   9   1   6  -73.31  859.24
   9   1   6 1211.67  627.33
   9   1  -6  935.09  761.26
   9  -1   6  898.15  364.71
   9  -1   6 -155.20  859.09
   9   1   7  671.03  376.66
   9   1   7  108.77  516.08
   9  -1  -7  819.83  436.69
   9  -1   7 1263.63  644.04
   9   1  -7  935.53  740.64
   9  -1   7  219.34  544.95
   9   1   8  -64.36  771.02
   9   1   8  108.31 1027.39
   9  -1  -8 1217.07  483.19
   9   1  -8 1429.51  847.51
   9  -1   8 1351.13  767.24
   9  -1   8 1051.94  615.65
   9   1   9   -6.11  702.60
   9   1   9 -154.88  534.41
   9   1  -9 1699.79  760.97
   9  -1   9 1470.11  953.06
   9  -1   9 1436.69  695.29
   9   1  10   14.05  707.99
   9   1  10 -110.13  539.29
   9   1 -10  227.57  429.90
   9  -1  10 1561.42  713.09
   9  -1  10 1626.91  549.74
   9   1  11 -113.39 1086.50
   9   1  11 -230.57 1338.79
   9  -1  11 3090.34  674.61
   9  -1  11 2403.10 1361.79
   9   1  12  -66.30  535.34
   9   1  12 1287.18 1076.90
   9  -1  12 1720.27  889.23
   9  -1  12 2483.54 1090.98
   9   2   0 -116.21  506.65
   9  -2   0 2636.71  814.61
   9   2   1  746.67 1109.04
   9  -2  -1 2525.64 1072.17
   9   2  -1  343.83  645.54
   9  -2   1 2739.55  642.56
   9  -2  -2  932.76  907.47
   9   2   2 -113.80  991.48
   9   2  -2 -130.17  953.69
   9  -2   2 1912.64  578.63
   9   2   3 5939.92  876.88
   9  -2  -3  -81.85  817.35
   9  -2   3 5230.41 1406.17
   9  -2   3 3273.50  987.63
   9   2  -3 -129.76 1343.68
   9   2   4  205.12  930.15
   9  -2  -4  437.54  485.99
   9   2  -4  286.97  899.88
   9  -2   4  893.52  649.67
   9  -2   4 1950.11  560.73
   9   2   5    5.33  281.84
   9   2  -5 -183.44  410.54
   9  -2   5  117.26  466.44
   9   2   6  260.77  402.63
   9  -2  -6  -55.01  286.45
   9   2   6 -450.47  566.87
   9   2  -6  431.91  508.96
   9  -2   6  376.29  414.37
   9  -2   6  191.12  341.80
   9   2   713192.80 2210.76
   9   2   711402.50 1757.37
   9  -2  -710260.70 1484.33
   9   2  -713175.00 2528.92
   9  -2   712375.50 2855.53
   9  -2   713323.00 1501.98
   9   2   8 -343.60  809.44
   9  -2  -8  415.58  653.64
   9   2   8  409.64  368.08
   9   2  -8  775.35  698.26
   9  -2   8  912.15  622.08
   9  -2   8  533.39  506.33
   9   2   9 -114.26  631.68
   9   2  -9  340.96  827.23
   9  -2   9 3246.50 1029.05
   9   2  10 -190.88  544.87
   9   2  10 -100.10  415.95
   9   2 -10   67.51  549.59
   9  -2  10  931.98  562.98
   9  -2  10  577.56  425.70
   9   2  11 -141.44  367.87
   9   2 -11 -560.74  587.78
   9  -2  11 -178.98  373.73
   9   2  12   55.22  400.16
   9   2  12 -284.19  285.22
   9  -2  12 -152.93  398.27
   9  -2  12 1154.72  506.35
   9   3   0 6556.89 1224.85
   9  -3   0 6325.58 1823.40
   9   3   1 -287.57 1366.14
   9  -3  -1 5215.57 1283.23
   9   3  -1 -375.54  833.05
   9  -3   1 5398.48  832.44
   9   3   2 -330.75  763.75
   9  -3  -2  -16.03  701.18
   9   3  -2 -647.70  755.52
   9  -3   2  498.26  523.11
   9  -3   2 2359.74  750.47
   9   3   3 -142.30  616.18
   9  -3  -3 1348.44  942.21
   9  -3   3 1787.66  462.43
   9   3  -3  325.61  997.01
   9  -3   3 1987.26 1016.63
   9   3   4  -21.80  612.06
   9  -3  -4 -131.28  332.90
   9   3  -4 -203.06  554.57
   9  -3   4  851.37  443.30
   9  -3   4  314.13  377.52
   9   3   5   27.17  368.52
   9  -3  -5 -104.61  312.79
   9   3  -5   79.98  573.28
   9  -3   5  489.86  267.13
   9  -3   5  460.33  660.72
   9   3   6  113.29  714.20
   9  -3  -6  298.05  601.83
   9   3  -6 -138.17  655.83
   9  -3   6 1375.95  541.17
   9  -3   6  -93.56  433.18
   9   3   7 1506.72  472.62
   9  -3  -7   -6.17  899.25
   9   3   7 -454.31  634.60
   9   3  -7 1868.64  577.82
   9  -3   7 1868.33 1117.33
   9  -3   7 1669.72  492.45
   9   3   8 -295.10 1018.76
   9   3   8  914.82  756.93
   9   3  -8 1159.23  904.57
   9  -3   8 1762.41  790.17
   9  -3   8  870.18  626.73
   9   3   9 -111.59  847.10
   9   3   9   43.21  637.49
   9   3  -9 -153.84  950.62
   9  -3   9 1064.78 1126.23
   9  -3   9 2719.93  519.04
   9   3  10 -239.96  274.30
   9   3  10 -243.04  336.62
   9   3 -10  216.13  467.97
   9  -3  10  154.56  592.75
   9  -3  10 1445.59  458.76
   9   3  11 -266.11  366.71
   9   3  11  -31.49  711.04
   9   3 -11 -407.01  563.99
   9  -3  11  -64.20  360.49
   9   3  12 -282.01  700.68
   9   3  12 -103.89  517.97
   9  -3  12 3038.62  856.46
   9  -3  12 -217.56  678.76
   9   4   0  -89.98  294.25
   9  -4   0  223.87  284.73
   9   4   1 -189.75  912.90
   9  -4  -1  536.17  824.28
   9   4  -1   96.21  541.67
   9  -4   1 1021.50  602.64
   9  -4   1 1387.50  515.66
   9   4   2 -237.97  944.18
   9  -4  -2  219.86  834.84
   9  -4   2 1373.68  397.53
   9  -4   2  517.90  938.24
   9   4  -2   32.20  921.38
   9  -4  -3 1311.72  717.96
   9   4   3 -107.72  483.98
   9   4  -3  -45.84  768.58
   9  -4   3 1343.17  598.38
   9  -4   3   47.75  816.27
   9   4   4 -386.60 1891.12
   9  -4  -4 4421.70 1643.99
   9   4  -4 -287.54 1701.17
   9  -4   4 7246.91  909.97
   9  -4   4 6385.58 1175.51
   9   4   5  103.46  264.09
   9  -4  -5   31.33  374.60
   9   4  -5   79.00  239.46
   9  -4   5  -66.38  325.67
   9  -4   5 -167.07  445.85
   9  -4  -6   20.89 1728.74
   9   4  -6 8294.95 1253.50
   9  -4   6 7995.35 1083.09
   9  -4   6 7309.39 1395.78
   9   4   7   78.23  321.41
   9   4  -7   54.18  294.25
   9  -4   7  173.14  425.73
   9  -4   7  190.09  574.88
   9   4   8  -93.60 2400.90
   9   4   810732.40 1927.57
   9   4  -8 8710.76 1390.97
   9  -4   811408.20 1733.89
   9  -4   811633.40 2020.42
   9   4   9  -19.54  376.24
   9   4   9   18.99  295.01
   9   4  -9  232.07  328.80
   9  -4   9  429.35  397.70
   9  -4   9  543.21  518.89
   9   4  10  -95.61  496.13
   9   4  10 -526.91  397.66
   9   4 -10  -78.83  340.94
   9  -4  10  -80.13  526.50
   9  -4  10 3362.26  662.40
   9   4  11  -79.43  526.61
   9   4  11 -272.24  635.51
   9   4 -11  -87.82  535.47
   9  -4  11 -150.19  312.77
   9  -4  11 1031.93  400.31
   9  -5   0 -532.65  403.67
   9   5   0  122.15  428.41
   9   5   1  -67.00  706.89
   9  -5  -1 -273.72  386.88
   9   5  -1 -212.69  407.76
   9  -5   1 2271.12  512.20
   9  -5   1 -540.97  680.32
   9   5   2 -210.34  735.31
   9  -5  -2 -433.45  638.09
   9   5  -2  -17.56  683.93
   9  -5   2 -362.99  719.00
   9   5   3  -53.69  498.45
   9  -5  -3 1258.42  709.62
   9   5  -3  182.99  783.55
   9  -5   3 1326.08  597.26
   9  -5   3  -35.91  484.46
   9   5   4 -161.04 1049.31
   9  -5  -4 1531.65  903.45
   9   5  -4 -336.18  612.19
   9  -5   4 2191.50  483.80
   9  -5   4   54.13 1051.61
   9   5   5  -11.61  436.52
   9  -5  -5 -285.46  620.30
   9   5  -5 -115.67  417.16
   9  -5   5 2283.79  561.80
   9  -5   5 -387.28  745.58
   9   5   6 -336.27  744.74
   9   5  -6 -368.00  410.71
   9  -5   6 -113.53  767.95
   9   5   7 -200.98  450.56
   9   5  -7  887.46  413.19
   9  -5   7    9.36  467.55
   9  -5   7  988.46  596.58
   9   5   8 -162.34  950.25
   9   5  -8  116.08  827.38
   9  -5   8 1332.78  440.56
   9  -5   8 -278.65  972.16
   9   5   9  330.62  482.38
   9   5   9   44.90  651.72
   9   5  -9   55.92  718.66
   9  -5   9  917.83  665.77
   9  -5   9  788.91  512.64
   9   5  10  -95.46  475.57
   9   5  10  -24.21  639.13
   9   5 -10  -22.23  402.56
   9  -5  10 1953.44  642.93
   9  -5  10 1110.52  819.35
   9   5  11 -118.34  629.90
   9   5  11  -50.14  307.19
   9   5 -11 -184.14  313.50
   9  -5  11 -246.72  309.31
   9  -5  11  435.08  635.10
   9  -6   0 2938.34  773.26
   9  -6   0  215.85 1013.26
   9   6   0   27.29  638.80
   9   6   1  -30.63  620.63
   9  -6  -1 -261.21  323.70
   9   6  -1   49.85  574.51
   9  -6   1 1146.11  442.86
   9  -6   1  -65.34  582.21
   9   6   2   21.26  958.55
   9  -6  -2  312.71  502.10
   9   6  -2    6.67  915.27
   9  -6   2 2654.70  704.26
   9  -6   2 -136.71  913.97
   9   6   3 -299.48  688.23
   9  -6  -3 2708.17  585.33
   9  -6   3 3504.91  845.92
   9  -6   3 -655.92  651.22
   9   6  -3 -259.03 1030.93
   9   6   4 -379.19  835.95
   9  -6  -4  364.25  682.39
   9   6  -4   48.30  460.55
   9  -6   4 1009.94  369.60
   9  -6   4   78.83  821.10
   9   6   5 8023.70 1429.19
   9  -6  -5 6431.94 1173.78
   9   6  -5 7876.17 1317.60
   9  -6   5 6528.68 1398.27
   9  -6   5 9141.80 1722.80
   9   6   6 -104.21  768.19
   9   6  -6  741.53  733.62
   9  -6   6  554.82  350.92
   9  -6   6 -419.60  763.43
   9   6   7 7563.19 1428.81
   9   6  -7 7612.32 2091.11
   9  -6   7 9345.06 1856.12
   9  -6   7 7740.04 1483.53
   9   6   8 -170.44  529.01
   9   6  -8 -204.02  471.62
   9  -6   8  185.38  251.66
   9  -6   8  130.27  531.34
   9   6   9 -164.97  822.43
   9   6  -9 -372.23 1182.71
   9  -6   9 4546.46 1130.46
   9  -6   9 5827.22 1376.21
   9   6  10  295.20  529.27
   9   6  10  -74.19  427.23
   9   6 -10  346.60  783.95
   9  -6  10  843.53  749.76
   9  -6  10 1788.12  557.31
   9   7   0 6355.78 1050.05
   9  -7   0 3886.65 1300.20
   9  -7   0 -558.02 1591.54
   9  -7  -1 -124.26  538.89
   9   7   1  123.53  554.01
   9   7  -1 -407.89  571.54
   9  -7   1   37.08  557.11
   9   7   2 -297.24 1839.65
   9  -7  -2 6195.43 1083.70
   9   7  -2 -192.15 1902.64
   9  -7   2 7250.10 1534.31
   9  -7   2 7555.57 1218.97
   9   7   3 -205.59  699.11
   9  -7  -3 2634.61  617.33
   9   7  -3 -534.53  682.68
   9  -7   3  479.89 1125.98
   9  -7   3 3850.25  899.26
   9   7   4   33.34 1023.24
   9  -7  -4 1973.93  514.91
   9   7  -4 -180.92  593.96
   9  -7   4 -273.14 1001.06
   9   7   5 -175.35  457.60
   9   7  -5 1358.84  724.45
   9  -7   5 1032.69  613.82
   9  -7   5 -424.06  744.43
   9   7   6  -60.19 1069.69
   9   7  -6 1298.75  963.13
   9  -7   6 1545.76  493.70
   9  -7   6 -136.52 1057.81
   9   7   7 -102.49  303.03
   9   7  -7  226.26  468.64
   9  -7   7  407.88  413.02
   9  -7   7 -247.13  527.40
   9   7   8  228.20  822.09
   9   7  -8  544.32  743.66
   9  -7   8  764.56  676.07
   9  -7   8  294.50  491.32
   9   7   9 -103.17  922.49
   9   7  -9  -54.43  818.02
   9  -7   9 1235.01  465.46
   9  -7   9 -438.34  961.24
   9  -8   0  566.73  399.83
   9  -8   0  231.07  487.32
   9   8   0 -605.22  295.70
   9   8   1 -432.48 1088.04
   9  -8  -1 2491.19  524.36
   9  -8  -1  203.37 1032.76
   9   8  -1 -503.37 1102.45
   9  -8   1 3163.60  873.13
   9  -8   1 -263.14  656.19
   9   8   2 -216.65 1054.95
   9  -8  -2 2110.93  789.64
   9  -8  -2  -53.38  946.49
   9   8  -2  -57.40 1030.81
   9  -8   2  466.65 1039.05
   9  -8   2 2456.83  853.03
   9   8   3  268.26  481.61
   9  -8  -3  789.06  696.88
   9   8  -3 -186.48  487.15
   9  -8   3 -344.92  814.58
   9  -8   3 1887.63  664.62
   9   8   4 -212.44 1663.72
   9   8  -4 5360.42 1038.64
   9  -8   4 6131.13  871.28
   9  -8   4 -109.65 1010.68
   9   8   5 -252.48  238.34
   9  -8   5  366.87  330.23
   9  -8   5   93.03  400.19
   9   8  -5  161.57  370.63
   9   8   6 -580.19 2297.35
   9   8  -610520.80 2170.75
   9  -8   6 9271.03 1261.92
   9  -8   6 7215.40 1440.57
   9   8   7   -5.54  374.09
   9   8  -7  766.31  585.15
   9  -8   7  143.51  514.63
   9  -8   7 -112.69  652.21
   9   8   8  -70.55 2423.39
   9   8  -8 9215.69 1505.23
   9  -8   811588.90 2036.53
   9  -8   8 7644.48 1557.44
   9   9   0 7039.47 1380.52
   9  -9   0 9347.80 1835.41
   9  -9   0 6585.74 1293.36
   9   9   1 -429.13  702.33
   9  -9  -1 -207.91  399.64
   9   9  -1 -340.24  732.20
   9  -9   1  -65.33  683.16
   9  -9  -2  135.60  498.73
   9   9   2  -57.39  559.49
   9   9  -2 -191.47  553.44
   9  -9   2 -220.89  538.24
   9   9   3 -124.86  547.09
   9   9  -3 1417.20  553.02
   9  -9   3 2424.44  784.13
   9  -9   3 -116.24  534.11
   9   9   4 -368.96 1461.75
   9   9  -4 4070.70 1439.62
   9  -9   4 4040.88  763.09
   9  -9   4  -87.34 1490.00
   9   9   5  -28.18  494.43
   9   9  -5 1700.77  846.37
   9  -9   5 1552.25  717.44
   9  -9   5  192.10  515.84
   9   9   6  233.26  946.98
   9   9  -6 1255.50  926.79
   9  -9   6  987.91  811.45
   9  -9   6  469.13 1002.22
   9   9   7 -446.05  379.07
   9   9  -7  663.37  342.77
   9  -9   7  502.37  313.13
   9  -9   7 -497.44  379.55
   9 -10   0 1415.50  464.93
   9 -10   0 -482.13  897.61
   9  10   0  340.17  583.07
   9  10   1   -7.79  594.52
   9 -10  -1 1058.33  466.52
   9 -10  -1   -6.57  540.35
   9  10  -1  -75.31  586.00
   9 -10   1 -218.54  482.78
   9 -10   1 -413.40  570.08
   9  10   2  -68.93 1134.97
   9 -10  -2 2009.28  523.32
   9  10  -2   18.51 1185.63
   9 -10   2 2400.17  598.15
   9 -10   2 -245.03  668.16
   9  10   3  -65.45  684.07
   9 -10  -3 3208.19  875.94
   9  10  -3 -128.26  688.52
   9 -10   3 3015.59  977.79
   9 -10   3 2925.05 1133.45
   9  10   4  251.62 1049.26
   9  10  -4 1870.63 1065.78
   9 -10   4 1845.36  929.88
   9 -10   4  204.96 1081.80
   9  10   5   14.45 1035.98
   9  10  -5 6675.38 1691.90
   9 -10   5 6566.94  926.32
   9 -10   5  -62.58 1754.09
   0   0   0    0.00    0.00
;
_shelx_hkl_checksum              42057
loop_
_space_group_symop_operation_xyz
'x, y, z'
'-x+1/2, -y, z+1/2'
'x+1/2, -y+1/2, -z'
'-x, y+1/2, -z+1/2'
loop_
_atom_site_label
_atom_site_type_symbol
_atom_site_fract_x
_atom_site_fract_y
_atom_site_fract_z
_atom_site_U_iso_or_equiv
_atom_site_adp_type
_atom_site_occupancy
_atom_site_site_symmetry_order
_atom_site_calc_flag
_atom_site_refinement_flags_posn
_atom_site_refinement_flags_adp
_atom_site_refinement_flags_occupancy
_atom_site_disorder_assembly
_atom_site_disorder_group
C1 C 0.551(2) 0.5071(7) 0.2141(8) 0.025(2) Uani 1 1 d . . . . .
C2 C 0.595(3) 0.5109(8) 0.2670(7) 0.025(2) Uani 1 1 d . . . . .
C3 C 0.642(2) 0.5626(8) 0.2911(8) 0.025(2) Uani 1 1 d . . . . .
H1 H 0.658056 0.600780 0.274730 0.031 Uiso 1 1 calc R U . . .
C4 C 0.661(3) 0.5503(9) 0.3425(8) 0.029(5) Uani 1 1 d . . . . .
H2 H 0.691084 0.578028 0.369236 0.035 Uiso 1 1 calc R U . . .
C5 C 0.628(2) 0.4880(9) 0.3484(7) 0.026(5) Uani 1 1 d . . . . .
C6 C 0.623(2) 0.4570(8) 0.3944(7) 0.0241(17) Uani 1 1 d . . . . .
C7 C 0.592(3) 0.3975(8) 0.4017(7) 0.0241(17) Uani 1 1 d . . . . .
C8 C 0.583(2) 0.3681(8) 0.4482(6) 0.0241(17) Uani 1 1 d . . . . .
H3 H 0.580857 0.386181 0.481940 0.029 Uiso 1 1 calc R U . . .
C9 C 0.577(3) 0.3088(8) 0.4376(7) 0.0241(17) Uani 1 1 d . . . . .
H4 H 0.573175 0.276729 0.462349 0.029 Uiso 1 1 calc R U . . .
C10 C 0.577(3) 0.3027(8) 0.3828(6) 0.0241(17) Uani 1 1 d . . . . .
C11 C 0.563(3) 0.2490(7) 0.3559(7) 0.022(2) Uani 1 1 d . . . . .
C12 C 0.565(3) 0.2429(7) 0.3034(7) 0.022(2) Uani 1 1 d . . . . .
C13 C 0.569(3) 0.1884(7) 0.2757(7) 0.022(2) Uani 1 1 d . . . . .
H5 H 0.568622 0.148908 0.290432 0.027 Uiso 1 1 calc R U . . .
C14 C 0.573(3) 0.2014(8) 0.2258(7) 0.028(4) Uani 1 1 d . . . . .
H6 H 0.576138 0.172910 0.197905 0.033 Uiso 1 1 calc R U . . .
C15 C 0.572(3) 0.2632(7) 0.2207(6) 0.022(4) Uani 1 1 d . . . . .
C16 C 0.557(3) 0.2952(8) 0.1760(7) 0.025(4) Uani 1 1 d . . . . .
C17 C 0.543(3) 0.3556(8) 0.1709(8) 0.034(3) Uani 1 1 d . . . . .
C18 C 0.496(3) 0.3870(9) 0.1238(8) 0.034(3) Uani 1 1 d . . . . .
H7 H 0.470818 0.369568 0.090793 0.041 Uiso 1 1 calc R U . . .
C19 C 0.494(3) 0.4460(9) 0.1364(8) 0.034(3) Uani 1 1 d . . . . .
H8 H 0.473300 0.478513 0.112991 0.041 Uiso 1 1 calc R U . . .
C20 C 0.528(3) 0.4516(8) 0.1887(7) 0.028(5) Uani 1 1 d . . . . .
C21 C 0.6336(16) 0.4941(5) 0.4418(4) 0.030(5) Uani 1 1 d G . . . .
C22 C 0.4936(14) 0.5057(6) 0.4708(5) 0.038(6) Uani 1 1 d G . . . .
C23 C 0.5021(16) 0.5420(7) 0.5152(5) 0.039(6) Uani 1 1 d G . . . .
C24 C 0.651(2) 0.5666(6) 0.5306(4) 0.041(6) Uani 1 1 d G . . . .
C25 C 0.7909(15) 0.5550(6) 0.5016(5) 0.037(5) Uani 1 1 d G . . . .
C26 C 0.7823(14) 0.5187(6) 0.4572(5) 0.032(5) Uani 1 1 d G . . . .
C27 C 0.5661(19) 0.1925(4) 0.3864(4) 0.024(4) Uani 1 1 d G . . . .
C28 C 0.4195(16) 0.1635(6) 0.3977(5) 0.038(5) Uani 1 1 d G . . . .
C29 C 0.4195(18) 0.1102(6) 0.4267(5) 0.034(5) Uani 1 1 d G . . . .
C30 C 0.566(2) 0.0858(4) 0.4443(5) 0.037(5) Uani 1 1 d G . . . .
C31 C 0.7125(18) 0.1148(6) 0.4331(5) 0.051(7) Uani 1 1 d G . . . .
C32 C 0.7125(16) 0.1681(6) 0.4041(6) 0.038(5) Uani 1 1 d G . . . .
C33 C 0.5651(18) 0.2603(6) 0.1267(4) 0.030(5) Uani 1 1 d G . . . .
C34 C 0.4283(15) 0.2332(6) 0.1046(5) 0.036(5) Uani 1 1 d G . . . .
C35 C 0.4415(18) 0.2027(6) 0.0572(5) 0.045(6) Uani 1 1 d G . . . .
C36 C 0.591(2) 0.1993(6) 0.0319(4) 0.044(6) Uani 1 1 d G . . . .
C37 C 0.7282(17) 0.2263(6) 0.0540(5) 0.042(6) Uani 1 1 d G . . . .
C38 C 0.7151(15) 0.2569(6) 0.1014(5) 0.032(5) Uani 1 1 d G . . . .
C39 C 0.192(3) 0.4610(10) 0.2844(11) 0.047(3) Uani 1 1 d . . . . .
H9 H 0.241033 0.481060 0.253538 0.057 Uiso 1 1 calc R U . . .
H10 H 0.281059 0.440845 0.303930 0.057 Uiso 1 1 calc R U . . .
C40 C 0.116(3) 0.5092(10) 0.3192(11) 0.052(7) Uani 1 1 d . . . . .
H11 H 0.016064 0.525227 0.302557 0.062 Uiso 1 1 calc R U . . .
H12 H 0.085357 0.491047 0.353260 0.062 Uiso 1 1 calc R U . . .
C41 C 0.231(4) 0.5582(12) 0.3278(11) 0.065(9) Uani 1 1 d . . . . .
H13 H 0.241785 0.581959 0.295119 0.078 Uiso 1 1 calc R U . . .
H14 H 0.339202 0.540939 0.336264 0.078 Uiso 1 1 calc R U . . .
C42 C 0.179(4) 0.5986(11) 0.3704(10) 0.059(8) Uani 1 1 d . . . . .
H33 H 0.072837 0.616357 0.361828 0.089 Uiso 1 1 calc R U . . .
H34 H 0.259911 0.631018 0.374706 0.089 Uiso 1 1 calc R U . . .
H35 H 0.170575 0.575429 0.402948 0.089 Uiso 1 1 calc R U . . .
C43 C -0.051(3) 0.4393(10) 0.2295(8) 0.038(2) Uani 1 1 d . . . . .
H15 H -0.104037 0.474686 0.246054 0.046 Uiso 1 1 calc R U . . .
H16 H -0.135541 0.408133 0.223251 0.046 Uiso 1 1 calc R U . . .
C44 C 0.023(3) 0.4583(10) 0.1776(9) 0.038(2) Uani 1 1 d . . . . .
H17 H 0.026621 0.422846 0.153920 0.046 Uiso 1 1 calc R U . . .
H18 H 0.136326 0.472206 0.183383 0.046 Uiso 1 1 calc R U . . .
C45 C -0.074(3) 0.5088(9) 0.1514(8) 0.038(2) Uani 1 1 d . . . . .
H19 H -0.191722 0.499606 0.152912 0.046 Uiso 1 1 calc R U . . .
H20 H -0.041329 0.512199 0.114170 0.046 Uiso 1 1 calc R U . . .
C46 C -0.039(4) 0.5683(13) 0.1795(10) 0.073(10) Uani 1 1 d . . . . .
H36 H -0.105183 0.570465 0.211430 0.109 Uiso 1 1 calc R U . . .
H37 H -0.066774 0.602272 0.156521 0.109 Uiso 1 1 calc R U . . .
H38 H 0.076925 0.570321 0.188751 0.109 Uiso 1 1 calc R U . . .
C47 C 0.179(3) 0.3684(11) 0.2402(9) 0.047(3) Uani 1 1 d . . . . .
H21 H 0.260929 0.353348 0.265377 0.057 Uiso 1 1 calc R U . . .
H22 H 0.237248 0.387511 0.210630 0.057 Uiso 1 1 calc R U . . .
C48 C 0.072(3) 0.3122(9) 0.2188(9) 0.047(3) Uani 1 1 d . . . . .
H23 H -0.045393 0.321954 0.221303 0.057 Uiso 1 1 calc R U . . .
H24 H 0.098641 0.304842 0.181491 0.057 Uiso 1 1 calc R U . . .
C49 C 0.108(3) 0.2565(10) 0.2498(9) 0.047(3) Uani 1 1 d . . . . .
H25 H 0.066111 0.261549 0.285906 0.057 Uiso 1 1 calc R U . . .
H26 H 0.227416 0.250193 0.251746 0.057 Uiso 1 1 calc R U . . .
C50 C 0.029(3) 0.2027(10) 0.2250(12) 0.060(8) Uani 1 1 d . . . . .
H39 H -0.088899 0.209343 0.222570 0.090 Uiso 1 1 calc R U . . .
H40 H 0.050581 0.166578 0.246219 0.090 Uiso 1 1 calc R U . . .
H41 H 0.074102 0.196787 0.189797 0.090 Uiso 1 1 calc R U . . .
C51 C -0.008(2) 0.3872(10) 0.3115(8) 0.038(2) Uani 1 1 d . . . . .
H27 H -0.077791 0.353608 0.298815 0.046 Uiso 1 1 calc R U . . .
H28 H -0.081081 0.418204 0.326868 0.046 Uiso 1 1 calc R U . . .
C52 C 0.099(3) 0.3635(9) 0.3534(8) 0.038(2) Uani 1 1 d . . . . .
H29 H 0.166567 0.329964 0.339470 0.046 Uiso 1 1 calc R U . . .
H30 H 0.173516 0.396029 0.365451 0.046 Uiso 1 1 calc R U . . .
C53 C 0.001(3) 0.3414(14) 0.3980(12) 0.068(9) Uani 1 1 d . . . . .
H31 H -0.064502 0.375690 0.411781 0.082 Uiso 1 1 calc R U . . .
H32 H -0.076945 0.310540 0.384892 0.082 Uiso 1 1 calc R U . . .
C54 C 0.093(4) 0.3153(11) 0.4408(10) 0.057(7) Uani 1 1 d . . . . .
H42 H 0.115063 0.272442 0.433443 0.085 Uiso 1 1 calc R U . . .
H43 H 0.030461 0.318714 0.473312 0.085 Uiso 1 1 calc R U . . .
H44 H 0.196981 0.337000 0.444619 0.085 Uiso 1 1 calc R U . . .
N1 N 0.5944(18) 0.4640(6) 0.3008(5) 0.0206(16) Uani 1 1 d . . . . .
N2 N 0.5806(19) 0.3583(6) 0.3607(5) 0.0206(16) Uani 1 1 d . . . . .
N3 N 0.568(2) 0.2891(6) 0.2689(5) 0.0206(16) Uani 1 1 d . . . . .
N4 N 0.5518(16) 0.3961(6) 0.2101(6) 0.0206(16) Uani 1 1 d . . . . .
N5 N 0.075(2) 0.4142(7) 0.2661(6) 0.038(2) Uani 1 1 d . . . . .
O1 O 0.5283(19) 0.5543(6) 0.1892(5) 0.037(4) Uani 1 1 d . . . . .
F1 F 0.3559(16) 0.4851(6) 0.4575(5) 0.044(3) Uani 1 1 d . . . . .
F2 F 0.3747(17) 0.5527(6) 0.5425(5) 0.048(4) Uani 1 1 d . . . . .
F3 F 0.6553(17) 0.6011(6) 0.5696(5) 0.048(3) Uani 1 1 d . . . . .
F4 F 0.926(2) 0.5796(5) 0.5128(4) 0.048(3) Uani 1 1 d . . . . .
F5 F 0.9120(18) 0.5069(5) 0.4316(4) 0.042(3) Uani 1 1 d . . . . .
F6 F 0.2832(18) 0.1843(6) 0.3814(6) 0.052(4) Uani 1 1 d . . . . .
F7 F 0.287(2) 0.0834(6) 0.4368(6) 0.057(4) Uani 1 1 d . . . . .
F8 F 0.565(2) 0.0374(5) 0.4715(4) 0.053(4) Uani 1 1 d . . . . .
F9 F 0.8512(19) 0.0914(6) 0.4482(7) 0.062(5) Uani 1 1 d . . . . .
F10 F 0.8460(18) 0.1929(6) 0.3931(7) 0.056(4) Uani 1 1 d . . . . .
F11 F 0.2931(17) 0.2359(7) 0.1272(5) 0.054(4) Uani 1 1 d . . . . .
F12 F 0.316(2) 0.1776(8) 0.0378(6) 0.069(5) Uani 1 1 d . . . . .
F13 F 0.604(2) 0.1708(6) -0.0115(5) 0.060(4) Uani 1 1 d . . . . .
F14 F 0.8675(18) 0.2207(7) 0.0317(5) 0.059(4) Uani 1 1 d . . . . .
F15 F 0.8440(15) 0.2813(6) 0.1204(5) 0.039(3) Uani 1 1 d . . . . .
PT1 Pt 0.57465(8) 0.37668(3) 0.28558(3) 0.0193(2) Uani 1 1 d . . . . .
loop_
_atom_site_aniso_label
_atom_site_aniso_U_11
_atom_site_aniso_U_22
_atom_site_aniso_U_33
_atom_site_aniso_U_23
_atom_site_aniso_U_13
_atom_site_aniso_U_12
C1 0.033(6) 0.017(5) 0.026(5) -0.001(5) 0.003(6) 0.000(5)
C2 0.033(6) 0.017(5) 0.026(5) -0.001(5) 0.003(6) 0.000(5)
C3 0.033(6) 0.017(5) 0.026(5) -0.001(5) 0.003(6) 0.000(5)
C4 0.046(13) 0.018(10) 0.024(11) 0.005(8) -0.008(9) -0.002(9)
C5 0.032(12) 0.024(10) 0.023(10) -0.004(8) -0.003(8) 0.004(8)
C6 0.034(5) 0.019(4) 0.019(4) 0.003(3) -0.002(4) 0.001(4)
C7 0.034(5) 0.019(4) 0.019(4) 0.003(3) -0.002(4) 0.001(4)
C8 0.034(5) 0.019(4) 0.019(4) 0.003(3) -0.002(4) 0.001(4)
C9 0.034(5) 0.019(4) 0.019(4) 0.003(3) -0.002(4) 0.001(4)
C10 0.034(5) 0.019(4) 0.019(4) 0.003(3) -0.002(4) 0.001(4)
C11 0.028(6) 0.013(4) 0.026(5) 0.001(4) 0.002(6) 0.003(5)
C12 0.028(6) 0.013(4) 0.026(5) 0.001(4) 0.002(6) 0.003(5)
C13 0.028(6) 0.013(4) 0.026(5) 0.001(4) 0.002(6) 0.003(5)
C14 0.033(10) 0.019(9) 0.031(11) -0.006(7) -0.006(10) -0.001(9)
C15 0.032(9) 0.023(9) 0.011(8) 0.002(7) -0.008(10) 0.000(9)
C16 0.031(11) 0.017(9) 0.027(10) -0.005(7) 0.000(10) -0.005(9)
C17 0.057(8) 0.019(6) 0.026(6) 0.007(5) -0.004(6) -0.001(5)
C18 0.057(8) 0.019(6) 0.026(6) 0.007(5) -0.004(6) -0.001(5)
C19 0.057(8) 0.019(6) 0.026(6) 0.007(5) -0.004(6) -0.001(5)
C20 0.049(15) 0.010(9) 0.024(10) 0.001(8) 0.007(9) 0.001(8)
C21 0.062(15) 0.007(9) 0.021(10) -0.003(8) -0.021(10) 0.001(9)
C22 0.068(17) 0.020(11) 0.026(12) 0.002(9) 0.010(11) 0.015(11)
C23 0.049(14) 0.038(13) 0.031(13) 0.008(10) 0.029(11) 0.014(11)
C24 0.054(15) 0.023(12) 0.047(15) -0.012(11) -0.007(12) 0.008(11)
C25 0.037(13) 0.032(12) 0.043(14) -0.002(10) -0.004(11) -0.012(11)
C26 0.053(15) 0.023(11) 0.019(11) -0.002(8) -0.011(11) -0.001(10)
C27 0.035(11) 0.021(9) 0.016(9) -0.002(7) 0.003(10) 0.005(10)
C28 0.062(15) 0.025(11) 0.028(11) 0.003(8) 0.023(13) 0.012(13)
C29 0.042(12) 0.034(12) 0.027(10) 0.002(8) 0.004(11) -0.014(12)
C30 0.072(16) 0.019(10) 0.021(10) 0.002(8) 0.007(13) -0.016(14)
C31 0.10(2) 0.020(12) 0.032(12) -0.005(10) -0.033(13) 0.006(14)
C32 0.051(15) 0.027(12) 0.036(13) 0.008(10) -0.014(12) 0.000(11)
C33 0.046(12) 0.026(10) 0.017(9) -0.003(8) 0.005(10) 0.000(11)
C34 0.038(12) 0.028(11) 0.042(12) -0.008(9) 0.002(13) -0.013(12)
C35 0.077(18) 0.032(12) 0.026(12) -0.003(9) -0.013(14) -0.017(14)
C36 0.071(19) 0.033(12) 0.029(12) -0.010(9) -0.009(14) -0.015(14)
C37 0.059(16) 0.036(13) 0.032(12) 0.014(10) 0.022(12) 0.022(12)
C38 0.042(13) 0.021(11) 0.034(12) -0.004(9) 0.003(11) 0.008(10)
C39 0.051(7) 0.042(6) 0.050(7) -0.011(6) -0.014(6) -0.010(6)
C40 0.037(15) 0.032(13) 0.087(19) -0.018(13) 0.005(13) -0.007(10)
C41 0.08(2) 0.051(17) 0.063(18) -0.019(14) 0.020(16) -0.035(16)
C42 0.10(2) 0.037(14) 0.041(15) -0.011(11) 0.016(15) -0.021(14)
C43 0.032(5) 0.036(5) 0.046(5) -0.001(4) -0.001(4) -0.005(4)
C44 0.032(5) 0.036(5) 0.046(5) -0.001(4) -0.001(4) -0.005(4)
C45 0.032(5) 0.036(5) 0.046(5) -0.001(4) -0.001(4) -0.005(4)
C46 0.11(3) 0.064(18) 0.041(15) -0.007(13) 0.017(17) -0.013(19)
C47 0.051(7) 0.042(6) 0.050(7) -0.011(6) -0.014(6) -0.010(6)
C48 0.051(7) 0.042(6) 0.050(7) -0.011(6) -0.014(6) -0.010(6)
C49 0.051(7) 0.042(6) 0.050(7) -0.011(6) -0.014(6) -0.010(6)
C50 0.060(18) 0.028(12) 0.09(2) 0.000(13) 0.002(15) -0.005(11)
C51 0.032(5) 0.036(5) 0.046(5) -0.001(4) -0.001(4) -0.005(4)
C52 0.032(5) 0.036(5) 0.046(5) -0.001(4) -0.001(4) -0.005(4)
C53 0.042(14) 0.070(19) 0.09(2) 0.057(17) 0.001(15) -0.013(13)
C54 0.08(2) 0.041(14) 0.052(15) 0.009(11) -0.016(16) 0.016(15)
N1 0.016(3) 0.017(3) 0.029(4) -0.002(3) 0.000(4) 0.001(3)
N2 0.016(3) 0.017(3) 0.029(4) -0.002(3) 0.000(4) 0.001(3)
N3 0.016(3) 0.017(3) 0.029(4) -0.002(3) 0.000(4) 0.001(3)
N4 0.016(3) 0.017(3) 0.029(4) -0.002(3) 0.000(4) 0.001(3)
N5 0.032(5) 0.036(5) 0.046(5) -0.001(4) -0.001(4) -0.005(4)
O1 0.071(12) 0.019(7) 0.021(7) 0.005(6) -0.006(7) 0.008(7)
F1 0.040(8) 0.044(8) 0.048(8) 0.003(7) -0.003(6) 0.001(6)
F2 0.067(10) 0.044(8) 0.035(7) -0.001(6) 0.010(7) 0.002(7)
F3 0.069(9) 0.043(8) 0.033(7) -0.009(6) -0.002(6) -0.004(6)
F4 0.067(9) 0.038(7) 0.040(7) -0.006(5) -0.005(8) -0.024(8)
F5 0.047(8) 0.042(7) 0.036(7) -0.002(5) -0.002(7) -0.016(7)
F6 0.041(8) 0.034(8) 0.082(11) 0.013(7) 0.004(8) 0.004(7)
F7 0.076(11) 0.039(8) 0.056(9) 0.008(7) 0.027(8) -0.022(8)
F8 0.101(11) 0.028(6) 0.029(6) 0.010(5) -0.011(8) -0.003(9)
F9 0.065(10) 0.023(7) 0.097(12) 0.018(7) -0.041(9) -0.005(6)
F10 0.042(8) 0.029(7) 0.097(12) 0.015(8) -0.024(8) -0.003(6)
F11 0.046(8) 0.066(10) 0.049(8) -0.023(7) 0.013(7) -0.022(7)
F12 0.083(12) 0.066(11) 0.058(10) -0.028(8) -0.005(9) -0.036(10)
F13 0.094(13) 0.052(8) 0.034(7) -0.018(6) 0.012(8) -0.018(9)
F14 0.065(11) 0.069(10) 0.042(8) -0.010(7) 0.030(7) 0.003(8)
F15 0.036(7) 0.047(8) 0.034(7) 0.000(6) 0.002(6) 0.003(6)
PT1 0.0247(4) 0.0130(3) 0.0201(3) 0.0029(3) -0.0003(3) -0.0015(3)
loop_
_atom_type_symbol
_atom_type_description
_atom_type_scat_dispersion_real
_atom_type_scat_dispersion_imag
_atom_type_scat_source
C C 0.0041 0.0020 'International Tables Vol C Tables 4.2.6.8 and 6.1.1.4'
H H 0.0000 0.0000 'International Tables Vol C Tables 4.2.6.8 and 6.1.1.4'
F F 0.0215 0.0127 'International Tables Vol C Tables 4.2.6.8 and 6.1.1.4'
N N 0.0078 0.0041 'International Tables Vol C Tables 4.2.6.8 and 6.1.1.4'
O O 0.0135 0.0075 'International Tables Vol C Tables 4.2.6.8 and 6.1.1.4'
Pt Pt -2.7169 9.8130 'International Tables Vol C Tables 4.2.6.8 and 6.1.1.4'
loop_
_geom_angle_atom_site_label_1
_geom_angle_atom_site_label_2
_geom_angle_atom_site_label_3
_geom_angle
_geom_angle_site_symmetry_1
_geom_angle_site_symmetry_3
_geom_angle_publ_flag
O1 C1 C20 118.6(19) . . ?
O1 C1 C2 119.1(16) . . ?
C20 C1 C2 122.3(16) . . ?
N1 C2 C3 111.0(16) . . ?
N1 C2 C1 124.8(16) . . ?
C3 C2 C1 124.2(17) . . ?
C2 C3 C4 107.8(17) . . ?
C2 C3 H1 126.1 . . ?
C4 C3 H1 126.1 . . ?
C3 C4 C5 106.1(18) . . ?
C3 C4 H2 127.0 . . ?
C5 C4 H2 127.0 . . ?
N1 C5 C6 124.9(18) . . ?
N1 C5 C4 109.0(17) . . ?
C6 C5 C4 126.1(18) . . ?
C7 C6 C5 127.9(18) . . ?
C7 C6 C21 116.1(15) . . ?
C5 C6 C21 115.7(16) . . ?
C6 C7 C8 126.6(17) . . ?
C6 C7 N2 121.7(16) . . ?
C8 C7 N2 111.5(15) . . ?
C9 C8 C7 106.9(15) . . ?
C9 C8 H3 126.5 . . ?
C7 C8 H3 126.5 . . ?
C8 C9 C10 107.2(15) . . ?
C8 C9 H4 126.4 . . ?
C10 C9 H4 126.4 . . ?
N2 C10 C11 125.1(16) . . ?
N2 C10 C9 109.3(15) . . ?
C11 C10 C9 125.4(16) . . ?
C12 C11 C10 125.6(16) . . ?
C12 C11 C27 116.3(14) . . ?
C10 C11 C27 117.6(15) . . ?
C11 C12 N3 125.2(15) . . ?
C11 C12 C13 126.2(16) . . ?
N3 C12 C13 108.5(15) . . ?
C14 C13 C12 107.9(15) . . ?
C14 C13 H5 126.0 . . ?
C12 C13 H5 126.0 . . ?
C13 C14 C15 108.0(16) . . ?
C13 C14 H6 126.0 . . ?
C15 C14 H6 126.0 . . ?
C16 C15 N3 123.0(15) . . ?
C16 C15 C14 127.0(16) . . ?
N3 C15 C14 109.5(15) . . ?
C17 C16 C15 127.5(17) . . ?
C17 C16 C33 116.0(16) . . ?
C15 C16 C33 116.4(15) . . ?
N4 C17 C16 125.6(17) . . ?
N4 C17 C18 108.5(16) . . ?
C16 C17 C18 125.5(19) . . ?
C19 C18 C17 105.5(18) . . ?
C19 C18 H7 127.2 . . ?
C17 C18 H7 127.2 . . ?
C18 C19 C20 108.7(18) . . ?
C18 C19 H8 125.7 . . ?
C20 C19 H8 125.7 . . ?
N4 C20 C19 109.9(16) . . ?
N4 C20 C1 125.9(18) . . ?
C19 C20 C1 124.0(18) . . ?
C22 C21 C26 120.0 . . ?
C22 C21 C6 119.6(12) . . ?
C26 C21 C6 120.4(12) . . ?
F1 C22 C23 118.3(12) . . ?
F1 C22 C21 121.7(12) . . ?
C23 C22 C21 120.0 . . ?
F2 C23 C22 120.7(12) . . ?
F2 C23 C24 119.3(12) . . ?
C22 C23 C24 120.0 . . ?
F3 C24 C25 120.8(13) . . ?
F3 C24 C23 119.2(13) . . ?
C25 C24 C23 120.0 . . ?
F4 C25 C24 121.3(12) . . ?
F4 C25 C26 118.5(12) . . ?
C24 C25 C26 120.0 . . ?
F5 C26 C25 119.7(11) . . ?
F5 C26 C21 120.3(11) . . ?
C25 C26 C21 120.0 . . ?
C28 C27 C32 120.0 . . ?
C28 C27 C11 118.9(13) . . ?
C32 C27 C11 121.1(13) . . ?
F6 C28 C29 118.6(12) . . ?
F6 C28 C27 121.4(12) . . ?
C29 C28 C27 120.0 . . ?
F7 C29 C28 120.5(13) . . ?
F7 C29 C30 119.5(13) . . ?
C28 C29 C30 120.0 . . ?
F8 C30 C31 120.3(15) . . ?
F8 C30 C29 119.7(15) . . ?
C31 C30 C29 120.0 . . ?
F9 C31 C32 119.4(12) . . ?
F9 C31 C30 120.6(12) . . ?
C32 C31 C30 120.0 . . ?
F10 C32 C31 119.3(12) . . ?
F10 C32 C27 120.7(12) . . ?
C31 C32 C27 120.0 . . ?
C34 C33 C38 120.0 . . ?
C34 C33 C16 122.4(13) . . ?
C38 C33 C16 117.6(13) . . ?
F11 C34 C35 119.6(11) . . ?
F11 C34 C33 120.4(11) . . ?
C35 C34 C33 120.0 . . ?
F12 C35 C34 119.3(13) . . ?
F12 C35 C36 120.7(13) . . ?
C34 C35 C36 120.0 . . ?
F13 C36 C37 119.9(14) . . ?
F13 C36 C35 120.1(14) . . ?
C37 C36 C35 120.0 . . ?
F14 C37 C36 119.6(13) . . ?
F14 C37 C38 120.3(13) . . ?
C36 C37 C38 120.0 . . ?
F15 C38 C37 118.0(11) . . ?
F15 C38 C33 122.0(11) . . ?
C37 C38 C33 120.0 . . ?
N5 C39 C40 114.2(19) . . ?
N5 C39 H9 108.7 . . ?
C40 C39 H9 108.7 . . ?
N5 C39 H10 108.7 . . ?
C40 C39 H10 108.7 . . ?
H9 C39 H10 107.6 . . ?
C41 C40 C39 110(2) . . ?
C41 C40 H11 109.6 . . ?
C39 C40 H11 109.6 . . ?
C41 C40 H12 109.6 . . ?
C39 C40 H12 109.6 . . ?
H11 C40 H12 108.1 . . ?
C40 C41 C42 112(2) . . ?
C40 C41 H13 109.2 . . ?
C42 C41 H13 109.2 . . ?
C40 C41 H14 109.2 . . ?
C42 C41 H14 109.2 . . ?
H13 C41 H14 107.9 . . ?
C41 C42 H33 109.5 . . ?
C41 C42 H34 109.5 . . ?
H33 C42 H34 109.5 . . ?
C41 C42 H35 109.5 . . ?
H33 C42 H35 109.5 . . ?
H34 C42 H35 109.5 . . ?
N5 C43 C44 112.0(18) . . ?
N5 C43 H15 109.2 . . ?
C44 C43 H15 109.2 . . ?
N5 C43 H16 109.2 . . ?
C44 C43 H16 109.2 . . ?
H15 C43 H16 107.9 . . ?
C43 C44 C45 112.5(19) . . ?
C43 C44 H17 109.1 . . ?
C45 C44 H17 109.1 . . ?
C43 C44 H18 109.1 . . ?
C45 C44 H18 109.1 . . ?
H17 C44 H18 107.8 . . ?
C44 C45 C46 109(2) . . ?
C44 C45 H19 109.9 . . ?
C46 C45 H19 109.9 . . ?
C44 C45 H20 109.9 . . ?
C46 C45 H20 109.9 . . ?
H19 C45 H20 108.3 . . ?
C45 C46 H36 109.5 . . ?
C45 C46 H37 109.5 . . ?
H36 C46 H37 109.5 . . ?
C45 C46 H38 109.5 . . ?
H36 C46 H38 109.5 . . ?
H37 C46 H38 109.5 . . ?
N5 C47 C48 111.8(19) . . ?
N5 C47 H21 109.3 . . ?
C48 C47 H21 109.3 . . ?
N5 C47 H22 109.3 . . ?
C48 C47 H22 109.3 . . ?
H21 C47 H22 107.9 . . ?
C49 C48 C47 110.3(19) . . ?
C49 C48 H23 109.6 . . ?
C47 C48 H23 109.6 . . ?
C49 C48 H24 109.6 . . ?
C47 C48 H24 109.6 . . ?
H23 C48 H24 108.1 . . ?
C48 C49 C50 110.1(19) . . ?
C48 C49 H25 109.6 . . ?
C50 C49 H25 109.6 . . ?
C48 C49 H26 109.6 . . ?
C50 C49 H26 109.6 . . ?
H25 C49 H26 108.2 . . ?
C49 C50 H39 109.5 . . ?
C49 C50 H40 109.5 . . ?
H39 C50 H40 109.5 . . ?
C49 C50 H41 109.5 . . ?
H39 C50 H41 109.5 . . ?
H40 C50 H41 109.5 . . ?
N5 C51 C52 116.0(17) . . ?
N5 C51 H27 108.3 . . ?
C52 C51 H27 108.3 . . ?
N5 C51 H28 108.3 . . ?
C52 C51 H28 108.3 . . ?
H27 C51 H28 107.4 . . ?
C53 C52 C51 110.5(18) . . ?
C53 C52 H29 109.6 . . ?
C51 C52 H29 109.6 . . ?
C53 C52 H30 109.6 . . ?
C51 C52 H30 109.6 . . ?
H29 C52 H30 108.1 . . ?
C54 C53 C52 115(2) . . ?
C54 C53 H31 108.5 . . ?
C52 C53 H31 108.5 . . ?
C54 C53 H32 108.5 . . ?
C52 C53 H32 108.5 . . ?
H31 C53 H32 107.5 . . ?
C53 C54 H42 109.5 . . ?
C53 C54 H43 109.5 . . ?
H42 C54 H43 109.5 . . ?
C53 C54 H44 109.5 . . ?
H42 C54 H44 109.5 . . ?
H43 C54 H44 109.5 . . ?
C2 N1 C5 105.9(15) . . ?
C2 N1 PT1 128.6(12) . . ?
C5 N1 PT1 125.2(12) . . ?
C10 N2 C7 104.8(14) . . ?
C10 N2 PT1 126.7(11) . . ?
C7 N2 PT1 128.5(11) . . ?
C12 N3 C15 106.0(13) . . ?
C12 N3 PT1 126.6(11) . . ?
C15 N3 PT1 127.3(11) . . ?
C17 N4 C20 107.1(15) . . ?
C17 N4 PT1 125.8(11) . . ?
C20 N4 PT1 126.9(12) . . ?
C51 N5 C47 110.0(18) . . ?
C51 N5 C39 109.4(17) . . ?
C47 N5 C39 104.5(18) . . ?
C51 N5 C43 108.7(17) . . ?
C47 N5 C43 111.6(16) . . ?
C39 N5 C43 112.6(17) . . ?
N2 PT1 N1 90.4(5) . . ?
N2 PT1 N3 90.5(5) . . ?
N1 PT1 N3 176.8(7) . . ?
N2 PT1 N4 176.0(6) . . ?
N1 PT1 N4 89.3(5) . . ?
N3 PT1 N4 89.9(5) . . ?
loop_
_geom_bond_atom_site_label_1
_geom_bond_atom_site_label_2
_geom_bond_distance
_geom_bond_site_symmetry_2
_geom_bond_publ_flag
C1 O1 1.23(2) . ?
C1 C20 1.40(2) . ?
C1 C2 1.40(3) . ?
C2 N1 1.35(2) . ?
C2 C3 1.35(3) . ?
C3 C4 1.35(3) . ?
C3 H1 0.9500 . ?
C4 C5 1.41(3) . ?
C4 H2 0.9500 . ?
C5 N1 1.35(2) . ?
C5 C6 1.36(3) . ?
C6 C7 1.35(2) . ?
C6 C21 1.47(2) . ?
C7 C8 1.36(2) . ?
C7 N2 1.36(2) . ?
C8 C9 1.34(2) . ?
C8 H3 0.9500 . ?
C9 C10 1.40(2) . ?
C9 H4 0.9500 . ?
C10 N2 1.35(2) . ?
C10 C11 1.38(2) . ?
C11 C12 1.35(2) . ?
C11 C27 1.471(18) . ?
C12 N3 1.35(2) . ?
C12 C13 1.40(2) . ?
C13 C14 1.31(2) . ?
C13 H5 0.9500 . ?
C14 C15 1.37(2) . ?
C14 H6 0.9500 . ?
C15 C16 1.35(2) . ?
C15 N3 1.36(2) . ?
C16 C17 1.34(3) . ?
C16 C33 1.480(19) . ?
C17 N4 1.34(2) . ?
C17 C18 1.44(3) . ?
C18 C19 1.34(3) . ?
C18 H7 0.9500 . ?
C19 C20 1.37(3) . ?
C19 H8 0.9500 . ?
C20 N4 1.36(2) . ?
C21 C22 1.3900 . ?
C21 C26 1.3900 . ?
C22 F1 1.263(16) . ?
C22 C23 1.3900 . ?
C23 F2 1.277(16) . ?
C23 C24 1.3900 . ?
C24 F3 1.254(15) . ?
C24 C25 1.3900 . ?
C25 F4 1.263(18) . ?
C25 C26 1.3900 . ?
C26 F5 1.276(17) . ?
C27 C28 1.3900 . ?
C27 C32 1.3900 . ?
C28 F6 1.277(18) . ?
C28 C29 1.3900 . ?
C29 F7 1.260(17) . ?
C29 C30 1.3900 . ?
C30 F8 1.274(13) . ?
C30 C31 1.3900 . ?
C31 F9 1.306(17) . ?
C31 C32 1.3900 . ?
C32 F10 1.254(18) . ?
C33 C34 1.3900 . ?
C33 C38 1.3900 . ?
C34 F11 1.251(17) . ?
C34 C35 1.3900 . ?
C35 F12 1.266(18) . ?
C35 C36 1.3900 . ?
C36 F13 1.279(14) . ?
C36 C37 1.3900 . ?
C37 F14 1.282(17) . ?
C37 C38 1.3900 . ?
C38 F15 1.281(16) . ?
C39 N5 1.48(3) . ?
C39 C40 1.52(3) . ?
C39 H9 0.9900 . ?
C39 H10 0.9900 . ?
C40 C41 1.45(3) . ?
C40 H11 0.9900 . ?
C40 H12 0.9900 . ?
C41 C42 1.47(3) . ?
C41 H13 0.9900 . ?
C41 H14 0.9900 . ?
C42 H33 0.9800 . ?
C42 H34 0.9800 . ?
C42 H35 0.9800 . ?
C43 N5 1.50(3) . ?
C43 C44 1.52(3) . ?
C43 H15 0.9900 . ?
C43 H16 0.9900 . ?
C44 C45 1.52(3) . ?
C44 H17 0.9900 . ?
C44 H18 0.9900 . ?
C45 C46 1.52(3) . ?
C45 H19 0.9900 . ?
C45 H20 0.9900 . ?
C46 H36 0.9800 . ?
C46 H37 0.9800 . ?
C46 H38 0.9800 . ?
C47 N5 1.47(3) . ?
C47 C48 1.61(3) . ?
C47 H21 0.9900 . ?
C47 H22 0.9900 . ?
C48 C49 1.49(3) . ?
C48 H23 0.9900 . ?
C48 H24 0.9900 . ?
C49 C50 1.49(3) . ?
C49 H25 0.9900 . ?
C49 H26 0.9900 . ?
C50 H39 0.9800 . ?
C50 H40 0.9800 . ?
C50 H41 0.9800 . ?
C51 N5 1.47(3) . ?
C51 C52 1.48(3) . ?
C51 H27 0.9900 . ?
C51 H28 0.9900 . ?
C52 C53 1.48(3) . ?
C52 H29 0.9900 . ?
C52 H30 0.9900 . ?
C53 C54 1.45(3) . ?
C53 H31 0.9900 . ?
C53 H32 0.9900 . ?
C54 H42 0.9800 . ?
C54 H43 0.9800 . ?
C54 H44 0.9800 . ?
N1 PT1 1.972(14) . ?
N2 PT1 1.962(14) . ?
N3 PT1 1.980(13) . ?
N4 PT1 1.985(15) . ?
loop_
_geom_torsion_atom_site_label_1
_geom_torsion_atom_site_label_2
_geom_torsion_atom_site_label_3
_geom_torsion_atom_site_label_4
_geom_torsion
_geom_torsion_site_symmetry_1
_geom_torsion_site_symmetry_2
_geom_torsion_site_symmetry_3
_geom_torsion_site_symmetry_4
_geom_torsion_publ_flag
O1 C1 C2 N1 167.3(19) . . . . ?
C20 C1 C2 N1 -11(3) . . . . ?
O1 C1 C2 C3 -12(3) . . . . ?
C20 C1 C2 C3 170(2) . . . . ?
N1 C2 C3 C4 -4(2) . . . . ?
C1 C2 C3 C4 175(2) . . . . ?
C2 C3 C4 C5 1(2) . . . . ?
C3 C4 C5 N1 2(2) . . . . ?
C3 C4 C5 C6 -175.6(19) . . . . ?
N1 C5 C6 C7 3(3) . . . . ?
C4 C5 C6 C7 -180(2) . . . . ?
N1 C5 C6 C21 -169.2(17) . . . . ?
C4 C5 C6 C21 8(3) . . . . ?
C5 C6 C7 C8 -178(2) . . . . ?
C21 C6 C7 C8 -5(3) . . . . ?
C5 C6 C7 N2 8(3) . . . . ?
C21 C6 C7 N2 -179.4(17) . . . . ?
C6 C7 C8 C9 -170(2) . . . . ?
N2 C7 C8 C9 4(3) . . . . ?
C7 C8 C9 C10 -2(3) . . . . ?
C8 C9 C10 N2 -1(3) . . . . ?
C8 C9 C10 C11 -176(2) . . . . ?
N2 C10 C11 C12 6(4) . . . . ?
C9 C10 C11 C12 -179(2) . . . . ?
N2 C10 C11 C27 178(2) . . . . ?
C9 C10 C11 C27 -7(4) . . . . ?
C10 C11 C12 N3 -6(4) . . . . ?
C27 C11 C12 N3 -177.7(19) . . . . ?
C10 C11 C12 C13 172(2) . . . . ?
C27 C11 C12 C13 0(4) . . . . ?
C11 C12 C13 C14 -179(2) . . . . ?
N3 C12 C13 C14 0(3) . . . . ?
C12 C13 C14 C15 0(3) . . . . ?
C13 C14 C15 C16 -172(2) . . . . ?
C13 C14 C15 N3 0(3) . . . . ?
N3 C15 C16 C17 3(4) . . . . ?
C14 C15 C16 C17 174(3) . . . . ?
N3 C15 C16 C33 180(2) . . . . ?
C14 C15 C16 C33 -9(4) . . . . ?
C15 C16 C17 N4 5(4) . . . . ?
C33 C16 C17 N4 -172.2(19) . . . . ?
C15 C16 C17 C18 -167(2) . . . . ?
C33 C16 C17 C18 16(4) . . . . ?
N4 C17 C18 C19 6(3) . . . . ?
C16 C17 C18 C19 179(2) . . . . ?
C17 C18 C19 C20 -3(3) . . . . ?
C18 C19 C20 N4 0(3) . . . . ?
C18 C19 C20 C1 174(2) . . . . ?
O1 C1 C20 N4 178.4(19) . . . . ?
C2 C1 C20 N4 -3(3) . . . . ?
O1 C1 C20 C19 6(3) . . . . ?
C2 C1 C20 C19 -176(2) . . . . ?
C7 C6 C21 C22 -70.2(19) . . . . ?
C5 C6 C21 C22 103.2(17) . . . . ?
C7 C6 C21 C26 111.3(17) . . . . ?
C5 C6 C21 C26 -75.3(19) . . . . ?
C26 C21 C22 F1 178.6(16) . . . . ?
C6 C21 C22 F1 0.2(16) . . . . ?
C26 C21 C22 C23 0.0 . . . . ?
C6 C21 C22 C23 -178.5(13) . . . . ?
F1 C22 C23 F2 1.9(15) . . . . ?
C21 C22 C23 F2 -179.4(15) . . . . ?
F1 C22 C23 C24 -178.7(15) . . . . ?
C21 C22 C23 C24 0.0 . . . . ?
F2 C23 C24 F3 -3.2(16) . . . . ?
C22 C23 C24 F3 177.3(15) . . . . ?
F2 C23 C24 C25 179.4(15) . . . . ?
C22 C23 C24 C25 0.0 . . . . ?
F3 C24 C25 F4 -1.5(16) . . . . ?
C23 C24 C25 F4 175.8(15) . . . . ?
F3 C24 C25 C26 -177.3(15) . . . . ?
C23 C24 C25 C26 0.0 . . . . ?
F4 C25 C26 F5 6.0(15) . . . . ?
C24 C25 C26 F5 -178.1(14) . . . . ?
F4 C25 C26 C21 -175.9(15) . . . . ?
C24 C25 C26 C21 0.0 . . . . ?
C22 C21 C26 F5 178.1(14) . . . . ?
C6 C21 C26 F5 -3.4(16) . . . . ?
C22 C21 C26 C25 0.0 . . . . ?
C6 C21 C26 C25 178.5(13) . . . . ?
C12 C11 C27 C28 -87(2) . . . . ?
C10 C11 C27 C28 101(2) . . . . ?
C12 C11 C27 C32 93(2) . . . . ?
C10 C11 C27 C32 -79(2) . . . . ?
C32 C27 C28 F6 -179.0(16) . . . . ?
C11 C27 C28 F6 1.2(17) . . . . ?
C32 C27 C28 C29 0.0 . . . . ?
C11 C27 C28 C29 -179.8(13) . . . . ?
F6 C28 C29 F7 -0.5(17) . . . . ?
C27 C28 C29 F7 -179.6(16) . . . . ?
F6 C28 C29 C30 179.1(15) . . . . ?
C27 C28 C29 C30 0.0 . . . . ?
F7 C29 C30 F8 -1.4(16) . . . . ?
C28 C29 C30 F8 179.0(13) . . . . ?
F7 C29 C30 C31 179.6(16) . . . . ?
C28 C29 C30 C31 0.0 . . . . ?
F8 C30 C31 F9 2.9(17) . . . . ?
C29 C30 C31 F9 -178.1(16) . . . . ?
F8 C30 C31 C32 -179.0(13) . . . . ?
C29 C30 C31 C32 0.0 . . . . ?
F9 C31 C32 F10 -0.1(16) . . . . ?
C30 C31 C32 F10 -178.2(16) . . . . ?
F9 C31 C32 C27 178.1(16) . . . . ?
C30 C31 C32 C27 0.0 . . . . ?
C28 C27 C32 F10 178.2(16) . . . . ?
C11 C27 C32 F10 -2.1(17) . . . . ?
C28 C27 C32 C31 0.0 . . . . ?
C11 C27 C32 C31 179.7(13) . . . . ?
C17 C16 C33 C34 -96(2) . . . . ?
C15 C16 C33 C34 87(2) . . . . ?
C17 C16 C33 C38 82(2) . . . . ?
C15 C16 C33 C38 -96(2) . . . . ?
C38 C33 C34 F11 179.8(16) . . . . ?
C16 C33 C34 F11 -2.5(17) . . . . ?
C38 C33 C34 C35 0.0 . . . . ?
C16 C33 C34 C35 177.7(14) . . . . ?
F11 C34 C35 F12 -0.6(18) . . . . ?
C33 C34 C35 F12 179.2(16) . . . . ?
F11 C34 C35 C36 -179.8(16) . . . . ?
C33 C34 C35 C36 0.0 . . . . ?
F12 C35 C36 F13 0.3(17) . . . . ?
C34 C35 C36 F13 179.5(15) . . . . ?
F12 C35 C36 C37 -179.2(17) . . . . ?
C34 C35 C36 C37 0.0 . . . . ?
F13 C36 C37 F14 -2.6(16) . . . . ?
C35 C36 C37 F14 176.9(15) . . . . ?
F13 C36 C37 C38 -179.5(15) . . . . ?
C35 C36 C37 C38 0.0 . . . . ?
F14 C37 C38 F15 3.2(16) . . . . ?
C36 C37 C38 F15 -179.9(14) . . . . ?
F14 C37 C38 C33 -176.9(15) . . . . ?
C36 C37 C38 C33 0.0 . . . . ?
C34 C33 C38 F15 179.9(14) . . . . ?
C16 C33 C38 F15 2.1(15) . . . . ?
C34 C33 C38 C37 0.0 . . . . ?
C16 C33 C38 C37 -177.8(14) . . . . ?
N5 C39 C40 C41 -170(2) . . . . ?
C39 C40 C41 C42 -167(3) . . . . ?
N5 C43 C44 C45 -152.4(18) . . . . ?
C43 C44 C45 C46 75(3) . . . . ?
N5 C47 C48 C49 -111(2) . . . . ?
C47 C48 C49 C50 -171(2) . . . . ?
N5 C51 C52 C53 176(2) . . . . ?
C51 C52 C53 C54 178(2) . . . . ?
C3 C2 N1 C5 5(2) . . . . ?
C1 C2 N1 C5 -174(2) . . . . ?
C3 C2 N1 PT1 -168.3(13) . . . . ?
C1 C2 N1 PT1 12(3) . . . . ?
C6 C5 N1 C2 173(2) . . . . ?
C4 C5 N1 C2 -4(2) . . . . ?
C6 C5 N1 PT1 -13(3) . . . . ?
C4 C5 N1 PT1 169.6(14) . . . . ?
C11 C10 N2 C7 179(2) . . . . ?
C9 C10 N2 C7 3(3) . . . . ?
C11 C10 N2 PT1 -2(4) . . . . ?
C9 C10 N2 PT1 -177.6(14) . . . . ?
C6 C7 N2 C10 170(2) . . . . ?
C8 C7 N2 C10 -5(2) . . . . ?
C6 C7 N2 PT1 -9(3) . . . . ?
C8 C7 N2 PT1 176.3(14) . . . . ?
C11 C12 N3 C15 179(2) . . . . ?
C13 C12 N3 C15 0(2) . . . . ?
C11 C12 N3 PT1 1(3) . . . . ?
C13 C12 N3 PT1 -176.9(14) . . . . ?
C16 C15 N3 C12 172(2) . . . . ?
C14 C15 N3 C12 0(3) . . . . ?
C16 C15 N3 PT1 -11(3) . . . . ?
C14 C15 N3 PT1 177.0(15) . . . . ?
C16 C17 N4 C20 -179(2) . . . . ?
C18 C17 N4 C20 -6(2) . . . . ?
C16 C17 N4 PT1 -4(3) . . . . ?
C18 C17 N4 PT1 169.1(13) . . . . ?
C19 C20 N4 C17 4(2) . . . . ?
C1 C20 N4 C17 -170(2) . . . . ?
C19 C20 N4 PT1 -171.1(14) . . . . ?
C1 C20 N4 PT1 15(3) . . . . ?
C52 C51 N5 C47 61(2) . . . . ?
C52 C51 N5 C39 -53(3) . . . . ?
C52 C51 N5 C43 -176.3(18) . . . . ?
C48 C47 N5 C51 61(2) . . . . ?
C48 C47 N5 C39 178.5(19) . . . . ?
C48 C47 N5 C43 -60(2) . . . . ?
C40 C39 N5 C51 -54(3) . . . . ?
C40 C39 N5 C47 -172(2) . . . . ?
C40 C39 N5 C43 67(3) . . . . ?
C44 C43 N5 C51 -170.3(17) . . . . ?
C44 C43 N5 C47 -49(2) . . . . ?
C44 C43 N5 C39 68(2) . . . . ?
