#------------------------------------------------------------------------------
#$Date: 2022-02-04 21:14:52 +0200 (Fri, 04 Feb 2022) $
#$Revision: 272591 $
#$URL: file:///home/coder/svn-repositories/cod/cif/1/56/58/1565815.cif $
#------------------------------------------------------------------------------
#
# This file is available in the Crystallography Open Database (COD),
# http://www.crystallography.net/
#
# All data on this site have been placed in the public domain by the
# contributors.
#
data_1565815
loop_
_publ_author_name
'Zhou, Weinan'
'Sarma, Tridib'
'Su, Yonghuan'
'Lei, Chuanhu'
'Sessler, Jonathan L.'
_publ_section_title
;
 Kinetic trapping of a cobalt(ii) metallocage using a carbazole-containing
 expanded carbaporphyrinoid ligand
;
_journal_issue                   3
_journal_name_full               'Chemical Science'
_journal_page_first              692
_journal_page_last               697
_journal_paper_doi               10.1039/D1SC06514A
_journal_volume                  13
_journal_year                    2022
_chemical_formula_moiety         'C76 H78 Cl2 N8 Zn2, 2(C H Cl3), 3(C H4 O)'
_chemical_formula_sum            'C81 H92 Cl8 N8 O3 Zn2'
_chemical_formula_weight         1639.96
_space_group_crystal_system      monoclinic
_space_group_IT_number           14
_space_group_name_Hall           '-P 2ybc'
_space_group_name_H-M_alt        'P 1 21/c 1'
_atom_sites_solution_hydrogens   mixed
_atom_sites_solution_primary     dual
_audit_creation_date             2020-06-26
_audit_creation_method
;
Olex2 1.2
(compiled 2018.05.29 svn.r3508 for OlexSys, GUI svn.r5506)
;
_audit_update_record
;
2021-08-25 deposited with the CCDC.	2021-12-20 downloaded from the CCDC.
;
_cell_angle_alpha                90
_cell_angle_beta                 101.36(3)
_cell_angle_gamma                90
_cell_formula_units_Z            4
_cell_length_a                   28.535(6)
_cell_length_b                   13.861(3)
_cell_length_c                   20.682(4)
_cell_measurement_reflns_used    69159
_cell_measurement_temperature    173(2)
_cell_measurement_theta_max      25
_cell_measurement_theta_min      0.39
_cell_volume                     8020(3)
_computing_molecular_graphics    'Olex2 (Dolomanov et al., 2009)'
_computing_publication_material  'Olex2 (Dolomanov et al., 2009)'
_computing_structure_refinement  'ShelXL (Sheldrick, 2015)'
_computing_structure_solution    'ShelXT (Sheldrick, 2015)'
_diffrn_ambient_temperature      173.15
_diffrn_measured_fraction_theta_full 0.980
_diffrn_measured_fraction_theta_max 0.957
_diffrn_measurement_device_type  'Bruker APEX-II CCD'
_diffrn_measurement_method       '\w scans'
_diffrn_radiation_type           MoK\a
_diffrn_radiation_wavelength     0.71073
_diffrn_reflns_av_R_equivalents  0.0460
_diffrn_reflns_av_unetI/netI     0.0447
_diffrn_reflns_Laue_measured_fraction_full 0.980
_diffrn_reflns_Laue_measured_fraction_max 0.957
_diffrn_reflns_limit_h_max       36
_diffrn_reflns_limit_h_min       -36
_diffrn_reflns_limit_k_max       0
_diffrn_reflns_limit_k_min       -17
_diffrn_reflns_limit_l_max       24
_diffrn_reflns_limit_l_min       -26
_diffrn_reflns_number            28063
_diffrn_reflns_point_group_measured_fraction_full 0.980
_diffrn_reflns_point_group_measured_fraction_max 0.957
_diffrn_reflns_theta_full        25.242
_diffrn_reflns_theta_max         27.160
_diffrn_reflns_theta_min         1.846
_diffrn_standards_number         0
_exptl_absorpt_coefficient_mu    0.917
_exptl_absorpt_correction_type   none
_exptl_crystal_colour            dark
_exptl_crystal_density_diffrn    1.358
_exptl_crystal_description       needle
_exptl_crystal_F_000             3416
_refine_diff_density_max         1.727
_refine_diff_density_min         -1.649
_refine_diff_density_rms         0.096
_refine_ls_extinction_method     none
_refine_ls_goodness_of_fit_ref   1.081
_refine_ls_hydrogen_treatment    constr
_refine_ls_matrix_type           full
_refine_ls_number_parameters     936
_refine_ls_number_reflns         17044
_refine_ls_number_restraints     24
_refine_ls_restrained_S_all      1.103
_refine_ls_R_factor_all          0.1050
_refine_ls_R_factor_gt           0.0931
_refine_ls_shift/su_max          0.001
_refine_ls_shift/su_mean         0.000
_refine_ls_structure_factor_coef Fsqd
_refine_ls_weighting_details
'w=1/[\s^2^(Fo^2^)+(0.1901P)^2^+4.7169P] where P=(Fo^2^+2Fc^2^)/3'
_refine_ls_weighting_scheme      calc
_refine_ls_wR_factor_gt          0.2829
_refine_ls_wR_factor_ref         0.3013
_reflns_Friedel_coverage         0.000
_reflns_number_gt                13455
_reflns_number_total             17044
_reflns_threshold_expression     'I > 2\s(I)'
_cod_data_source_file            d1sc06514a2.cif
_cod_data_source_block           a
_cod_depositor_comments
'Adding full bibliography for 1565814--1565817.cif.'
_cod_database_code               1565815
_shelx_shelxl_version_number     2017/1
_shelx_space_group_comment
;
The symmetry employed for this shelxl refinement is uniquely defined
by the following loop, which should always be used as a source of
symmetry information in preference to the above space-group names.
They are only intended as comments.
;
_olex2_refinement_description
;
1. Fixed Uiso
 At 1.2 times of:
  All C(H) groups, All C(H,H) groups, All N(H) groups
 At 1.5 times of:
  All C(H,H,H) groups, All O(H) groups
2. Uiso/Uaniso restraints and constraints
Uanis(C81) \\sim Ueq, Uanis(Cl7) \\sim Ueq, Uanis(Cl8) \\sim Ueq, Uanis(Cl6)
\\sim Ueq: with sigma of 0.01 and sigma for terminal atoms of 0.02
3.a Riding coordinates:
 O1(H1)
3.b Ternary CH refined with riding coordinates:
 C80(H80), C81(H81)
3.c Secondary CH2 refined with riding coordinates:
 C5(H5A,H5B), C7(H7A,H7B), C14(H14A,H14B), C16(H16A,H16B), C23(H23A,H23B),
 C25(H25A,H25B), C43(H43A,H43B), C45(H45A,H45B), C52(H52A,H52B), C54(H54A,H54B),
  C61(H61A,H61B), C63(H63A,H63B)
3.d Aromatic/amide H refined with riding coordinates:
 N4(H4), N8(H8), C9(H9), C18(H18), C28(H28), C29(H29), C32(H32), C33(H33),
 C35(H35), C38(H38), C47(H47), C56(H56), C66(H66), C67(H67), C70(H70), C71(H71),
  C73(H73), C76(H76)
3.e Idealised Me refined as rotating group:
 C6(H6A,H6B,H6C), C8(H8A,H8B,H8C), C15(H15A,H15B,H15C), C17(H17A,H17B,H17C),
 C24(H24A,H24B,H24C), C26(H26A,H26B,H26C), C44(H44A,H44B,H44C), C46(H46A,H46B,
 H46C), C53(H53A,H53B,H53C), C55(H55A,H55B,H55C), C62(H62A,H62B,H62C), C64(H64A,
 H64B,H64C), C77(H77A,H77B,H77C), C78(H78A,H78B,H78C), C79(H79A,H79B,H79C)
3.f Idealised tetrahedral OH refined as rotating group:
 O2(H2), O3(H3)
;
_shelx_res_file
;
TITL a_a.res in P2(1)/c
    a.res
    created by SHELXL-2017/1 at 09:34:32 on 26-Jun-2020
REM Old TITL a in P2(1)/c
REM SHELXT solution in P2(1)/c
REM R1 0.269, Rweak 0.011, Alpha 0.056, Orientation as input
REM Formula found by SHELXT: C81 N12 O7 Zn2
CELL 0.71073 28.535 13.861 20.682 90 101.357 90
ZERR 4 0.0057 0.0028 0.0041 0 0.03 0
LATT 1
SYMM -X,0.5+Y,0.5-Z
SFAC C H Cl N O Zn
UNIT 324 368 32 32 12 8
ISOR 0.01 0.02 C81 Cl7 Cl8 Cl6

L.S. 10
PLAN  20
TEMP -100
HTAB N4 O2
HTAB N8 O3
HTAB O1 O2
HTAB O2 Cl2
HTAB O3 Cl1
BOND $H
list 4
fmap 2
acta
OMIT 3 3 6
OMIT -4 5 2
OMIT 9 0 0
OMIT -8 4 4
OMIT 9 0 2
REM <olex2.extras>
REM <HklSrc "%.\\a.hkl">
REM </olex2.extras>

WGHT    0.190100    4.716900
FVAR       0.38155
ZN1   6    0.893599    0.640485    0.974171    11.00000    0.06697    0.08019 =
         0.05457    0.00035   -0.01614    0.00450
ZN2   6    0.625099    0.962186    0.544837    11.00000    0.06527    0.06158 =
         0.05612    0.00620   -0.01412    0.00034
CL1   3    0.941978    0.749691    0.935311    11.00000    0.07420    0.08571 =
         0.06928    0.00352   -0.01571   -0.00263
CL2   3    0.625032    1.078167    0.626333    11.00000    0.07786    0.06593 =
         0.06383    0.00012   -0.01662    0.00254
N1    4    0.893575    0.512438    0.928216    11.00000    0.06700    0.07364 =
         0.06063    0.00306   -0.01334    0.00575
N2    4    0.928405    0.593739    1.060174    11.00000    0.07246    0.08897 =
         0.06295    0.00092   -0.01974    0.00591
N3    4    0.853988    0.732319    1.017251    11.00000    0.07395    0.08497 =
         0.05352   -0.00005   -0.01351    0.00307
N4    4    0.701980    0.864172    0.785167    11.00000    0.07079    0.06019 =
         0.05448    0.00153   -0.01460   -0.00002
AFIX  43
H4    2    0.703792    0.927404    0.782741    11.00000   -1.20000
AFIX   0
N5    4    0.577014    0.857245    0.550647    11.00000    0.06209    0.06274 =
         0.05104    0.00107   -0.01483    0.00305
N6    4    0.591365    1.011910    0.458754    11.00000    0.07099    0.06492 =
         0.05974    0.00729   -0.01231   -0.00062
N7    4    0.689556    0.989975    0.523123    11.00000    0.06914    0.06969 =
         0.06086    0.00729   -0.01136   -0.00189
N8    4    0.824001    0.784245    0.745769    11.00000    0.06217    0.06731 =
         0.05993   -0.00100   -0.01434   -0.00043
AFIX  43
H8    2    0.844327    0.826796    0.766821    11.00000   -1.20000
AFIX   0
C1    1    0.874818    0.480897    0.867436    11.00000    0.06863    0.07296 =
         0.06749    0.00129   -0.01575    0.00747
C2    1    0.893236    0.387008    0.855467    11.00000    0.08206    0.07534 =
         0.07277   -0.00061   -0.02340    0.01298
C3    1    0.923166    0.361761    0.914302    11.00000    0.08187    0.07890 =
         0.07479    0.00580   -0.02310    0.01121
C4    1    0.924139    0.438168    0.958405    11.00000    0.06945    0.07974 =
         0.06843    0.00724   -0.01579    0.00317
C5    1    0.885549    0.332590    0.791136    11.00000    0.11331    0.09175 =
         0.07888   -0.01208   -0.03387    0.03127
AFIX  23
H5A   2    0.916907    0.309291    0.783901    11.00000   -1.20000
H5B   2    0.872798    0.377907    0.754939    11.00000   -1.20000
AFIX   0
C6    1    0.851976    0.247398    0.786958    11.00000    0.14756    0.08678 =
         0.10243   -0.00768   -0.04702    0.01133
AFIX 137
H6A   2    0.847573    0.218740    0.742856    11.00000   -1.50000
H6B   2    0.821019    0.269077    0.795299    11.00000   -1.50000
H6C   2    0.865580    0.199169    0.820013    11.00000   -1.50000
AFIX   0
C7    1    0.950714    0.268997    0.928235    11.00000    0.09305    0.08620 =
         0.08217   -0.00258   -0.02960    0.01671
AFIX  23
H7A   2    0.984075    0.283902    0.949754    11.00000   -1.20000
H7B   2    0.951486    0.235983    0.886010    11.00000   -1.20000
AFIX   0
C8    1    0.928808    0.200870    0.972796    11.00000    0.13399    0.07971 =
         0.10894    0.01565   -0.03504   -0.00457
AFIX 137
H8A   2    0.896661    0.181817    0.950230    11.00000   -1.50000
H8B   2    0.926886    0.234016    1.014048    11.00000   -1.50000
H8C   2    0.948898    0.143307    0.982545    11.00000   -1.50000
AFIX   0
C9    1    0.951944    0.440653    1.022351    11.00000    0.07054    0.08781 =
         0.07002    0.00830   -0.01887    0.00745
AFIX  43
H9    2    0.971941    0.386150    1.034409    11.00000   -1.20000
AFIX   0
C10   1    0.954468    0.510063    1.069861    11.00000    0.06976    0.10306 =
         0.06083    0.00591   -0.01746    0.00509
C11   1    0.983641    0.513066    1.135965    11.00000    0.08578    0.13737 =
         0.06337   -0.00271   -0.02028    0.02807
C12   1    0.972909    0.597931    1.163712    11.00000    0.09069    0.13968 =
         0.06360   -0.00465   -0.01843    0.02462
C13   1    0.937720    0.646105    1.115376    11.00000    0.08014    0.11590 =
         0.05458   -0.00438   -0.01694    0.00484
C14   1    1.018247    0.437477    1.166495    11.00000    0.12241    0.14948 =
         0.07805    0.01279   -0.03004    0.04649
AFIX  23
H14A  2    1.031907    0.405494    1.131600    11.00000   -1.20000
H14B  2    1.044795    0.468431    1.197612    11.00000   -1.20000
AFIX   0
C15   1    0.996232    0.366228    1.201040    11.00000    0.19931    0.20570 =
         0.12225    0.04878    0.01852    0.09887
AFIX 137
H15A  2    0.966113    0.345082    1.173248    11.00000   -1.50000
H15B  2    0.989825    0.394105    1.241973    11.00000   -1.50000
H15C  2    1.017717    0.310813    1.211502    11.00000   -1.50000
AFIX   0
C16   1    0.991923    0.633484    1.232388    11.00000    0.10509    0.19136 =
         0.06527   -0.01972   -0.02642    0.04722
AFIX  23
H16A  2    1.022983    0.601990    1.249804    11.00000   -1.20000
H16B  2    0.997445    0.703920    1.231226    11.00000   -1.20000
AFIX   0
C17   1    0.958095    0.612716    1.277323    11.00000    0.14472    0.21654 =
         0.08677    0.00393    0.01496    0.04322
AFIX 137
H17A  2    0.928246    0.648247    1.262280    11.00000   -1.50000
H17B  2    0.972492    0.632911    1.322256    11.00000   -1.50000
H17C  2    0.951354    0.543368    1.276910    11.00000   -1.50000
AFIX   0
C18   1    0.915200    0.734902    1.120175    11.00000    0.07986    0.11576 =
         0.05551   -0.01110   -0.01623    0.00732
AFIX  43
H18   2    0.927120    0.771511    1.158739    11.00000   -1.20000
AFIX   0
C19   1    0.877765    0.776258    1.075919    11.00000    0.07189    0.09567 =
         0.05285   -0.00108   -0.01020   -0.00466
C20   1    0.855432    0.866141    1.084043    11.00000    0.07299    0.08763 =
         0.05512   -0.00813   -0.00107   -0.00580
C21   1    0.816899    0.876024    1.033411    11.00000    0.06867    0.08439 =
         0.05958   -0.00556   -0.00693   -0.00675
C22   1    0.817564    0.790386    0.992204    11.00000    0.06831    0.07695 =
         0.05318   -0.00021   -0.00966    0.00255
C23   1    0.873080    0.938940    1.136989    11.00000    0.08504    0.10766 =
         0.05612   -0.01507   -0.00488   -0.00960
AFIX  23
H23A  2    0.881471    0.905682    1.180081    11.00000   -1.20000
H23B  2    0.847229    0.985611    1.139464    11.00000   -1.20000
AFIX   0
C24   1    0.917089    0.993603    1.123560    11.00000    0.09231    0.12270 =
         0.07688   -0.01563    0.00056   -0.02432
AFIX 137
H24A  2    0.908620    1.028144    1.081534    11.00000   -1.50000
H24B  2    0.942814    0.947602    1.121390    11.00000   -1.50000
H24C  2    0.927874    1.039892    1.159202    11.00000   -1.50000
AFIX   0
C25   1    0.780040    0.953378    1.025100    11.00000    0.08573    0.08367 =
         0.07071   -0.00952   -0.00365    0.00039
AFIX  23
H25A  2    0.773508    0.970216    1.068997    11.00000   -1.20000
H25B  2    0.750054    0.927850    0.998155    11.00000   -1.20000
AFIX   0
C26   1    0.794112    1.046065    0.992199    11.00000    0.10840    0.08323 =
         0.09171    0.00344   -0.00932   -0.00375
AFIX 137
H26A  2    0.803853    1.029428    0.950717    11.00000   -1.50000
H26B  2    0.820737    1.077643    1.021799    11.00000   -1.50000
H26C  2    0.766680    1.089973    0.983191    11.00000   -1.50000
AFIX   0
C27   1    0.783060    0.763706    0.932468    11.00000    0.06371    0.07877 =
         0.05333    0.00025   -0.00911   -0.00018
C28   1    0.770755    0.666115    0.919694    11.00000    0.07061    0.07262 =
         0.05313    0.00329   -0.01170    0.00262
AFIX  43
H28   2    0.785823    0.618234    0.949569    11.00000   -1.20000
AFIX   0
C29   1    0.737456    0.637914    0.865070    11.00000    0.06394    0.06922 =
         0.05881    0.00549   -0.01379    0.00210
AFIX  43
H29   2    0.729274    0.571870    0.857536    11.00000   -1.20000
AFIX   0
C30   1    0.716050    0.709589    0.821007    11.00000    0.06208    0.06557 =
         0.05433    0.00118   -0.00861    0.00188
C31   1    0.680347    0.708655    0.761325    11.00000    0.06367    0.06367 =
         0.05336    0.00612   -0.00776    0.00406
C32   1    0.654579    0.636513    0.722263    11.00000    0.06727    0.06297 =
         0.06048    0.00490   -0.00862    0.00097
AFIX  43
H32   2    0.660074    0.570468    0.733524    11.00000   -1.20000
AFIX   0
C33   1    0.621253    0.662057    0.667464    11.00000    0.06968    0.06442 =
         0.05313    0.00010   -0.01057    0.00077
AFIX  43
H33   2    0.603867    0.612959    0.640967    11.00000   -1.20000
AFIX   0
C34   1    0.612267    0.759923    0.649642    11.00000    0.06072    0.06295 =
         0.05259    0.00353   -0.01158    0.00231
C35   1    0.639040    0.832167    0.686383    11.00000    0.06407    0.05926 =
         0.05172    0.00381   -0.01075    0.00371
AFIX  43
H35   2    0.634240    0.897999    0.674072    11.00000   -1.20000
AFIX   0
C36   1    0.672664    0.806270    0.741001    11.00000    0.06221    0.06326 =
         0.05459    0.00254   -0.00869    0.00436
C37   1    0.728327    0.807124    0.834292    11.00000    0.06199    0.07054 =
         0.05098    0.00175   -0.00791    0.00307
C38   1    0.761765    0.835067    0.889424    11.00000    0.06769    0.06949 =
         0.05422   -0.00163   -0.01084    0.00022
AFIX  43
H38   2    0.769812    0.901087    0.897416    11.00000   -1.20000
AFIX   0
C39   1    0.574209    0.784655    0.593476    11.00000    0.06557    0.05507 =
         0.05595   -0.00074   -0.00988    0.00235
C40   1    0.528299    0.737368    0.578486    11.00000    0.06529    0.06013 =
         0.05971   -0.00160   -0.00925    0.00032
C41   1    0.502805    0.784190    0.524036    11.00000    0.06329    0.06367 =
         0.05818   -0.00211   -0.01386    0.00263
C42   1    0.532617    0.858467    0.506778    11.00000    0.06459    0.06020 =
         0.05522   -0.00026   -0.01458    0.00137
C43   1    0.510150    0.660424    0.617669    11.00000    0.07034    0.06433 =
         0.06493    0.00174   -0.00972   -0.00226
AFIX  23
H43A  2    0.477872    0.678781    0.624181    11.00000   -1.20000
H43B  2    0.531317    0.656789    0.661703    11.00000   -1.20000
AFIX   0
C44   1    0.507391    0.559773    0.585427    11.00000    0.08946    0.06490 =
         0.07340    0.00326   -0.01435   -0.01038
AFIX 137
H44A  2    0.484219    0.561066    0.543606    11.00000   -1.50000
H44B  2    0.497284    0.512320    0.615036    11.00000   -1.50000
H44C  2    0.538917    0.541950    0.577140    11.00000   -1.50000
AFIX   0
C45   1    0.453013    0.760530    0.489033    11.00000    0.06644    0.06864 =
         0.07089    0.00132   -0.01798    0.00118
AFIX  23
H45A  2    0.434410    0.820908    0.479435    11.00000   -1.20000
H45B  2    0.437247    0.720200    0.518005    11.00000   -1.20000
AFIX   0
C46   1    0.453193    0.706173    0.424007    11.00000    0.08328    0.07096 =
         0.08261   -0.00519   -0.02819   -0.00581
AFIX 137
H46A  2    0.464594    0.749311    0.392876    11.00000   -1.50000
H46B  2    0.420695    0.684578    0.405013    11.00000   -1.50000
H46C  2    0.474406    0.650092    0.432817    11.00000   -1.50000
AFIX   0
C47   1    0.518611    0.919972    0.454185    11.00000    0.07027    0.06082 =
         0.05671   -0.00270   -0.01611    0.00671
AFIX  43
H47   2    0.486325    0.913898    0.431776    11.00000   -1.20000
AFIX   0
C48   1    0.546028    0.991376    0.428935    11.00000    0.07171    0.06547 =
         0.05280    0.00366   -0.01342    0.00676
C49   1    0.532341    1.047917    0.370110    11.00000    0.07733    0.07512 =
         0.05325    0.00538   -0.01420    0.01014
C50   1    0.571341    1.103145    0.365493    11.00000    0.08443    0.07748 =
         0.06231    0.01576   -0.01265    0.01108
C51   1    0.608693    1.078539    0.421677    11.00000    0.07992    0.08079 =
         0.06440    0.01822   -0.01500    0.00551
C52   1    0.485034    1.042201    0.323071    11.00000    0.08226    0.08443 =
         0.05267    0.00501   -0.01782    0.01236
AFIX  23
H52A  2    0.480252    1.101765    0.296161    11.00000   -1.20000
H52B  2    0.459151    1.038682    0.348595    11.00000   -1.20000
AFIX   0
C53   1    0.481475    0.954058    0.276805    11.00000    0.10989    0.10623 =
         0.06957   -0.01675   -0.02604    0.01403
AFIX 137
H53A  2    0.450331    0.954238    0.246652    11.00000   -1.50000
H53B  2    0.484872    0.894726    0.303085    11.00000   -1.50000
H53C  2    0.506960    0.957221    0.251290    11.00000   -1.50000
AFIX   0
C54   1    0.577515    1.173328    0.311143    11.00000    0.09785    0.11301 =
         0.07357    0.03313    0.00063    0.01577
AFIX  23
H54A  2    0.546836    1.206829    0.294743    11.00000   -1.20000
H54B  2    0.601583    1.222610    0.329534    11.00000   -1.20000
AFIX   0
C55   1    0.592838    1.123999    0.255792    11.00000    0.25167    0.18987 =
         0.10276    0.06460    0.07482    0.09344
AFIX 137
H55A  2    0.590011    1.168320    0.218304    11.00000   -1.50000
H55B  2    0.572527    1.067464    0.242866    11.00000   -1.50000
H55C  2    0.626177    1.103367    0.269350    11.00000   -1.50000
AFIX   0
C56   1    0.656302    1.110919    0.437517    11.00000    0.08338    0.08378 =
         0.07566    0.02645   -0.01225   -0.00515
AFIX  43
H56   2    0.664031    1.165840    0.414205    11.00000   -1.20000
AFIX   0
C57   1    0.693188    1.071024    0.483656    11.00000    0.07651    0.07388 =
         0.07382    0.01583   -0.01357   -0.00306
C58   1    0.742336    1.100881    0.494048    11.00000    0.08072    0.08058 =
         0.08232    0.01137   -0.00517   -0.01026
C59   1    0.767931    1.036697    0.536949    11.00000    0.07230    0.07668 =
         0.06972    0.00515   -0.00382   -0.00600
C60   1    0.733906    0.970491    0.555376    11.00000    0.06370    0.07159 =
         0.05712    0.00208   -0.00912    0.00144
C61   1    0.761138    1.184666    0.458808    11.00000    0.10481    0.08970 =
         0.08749    0.00597   -0.00001   -0.00540
AFIX  23
H61A  2    0.737821    1.238377    0.453278    11.00000   -1.20000
H61B  2    0.791583    1.208277    0.485651    11.00000   -1.20000
AFIX   0
C62   1    0.768907    1.153315    0.394043    11.00000    0.12652    0.09509 =
         0.12124   -0.00219    0.01238    0.00054
AFIX 137
H62A  2    0.738599    1.131071    0.367308    11.00000   -1.50000
H62B  2    0.792152    1.100431    0.399694    11.00000   -1.50000
H62C  2    0.781164    1.207484    0.371831    11.00000   -1.50000
AFIX   0
C63   1    0.821617    1.031142    0.557942    11.00000    0.07003    0.08890 =
         0.07166    0.00556   -0.00479   -0.00859
AFIX  23
H63A  2    0.836110    1.045177    0.519236    11.00000   -1.20000
H63B  2    0.830501    0.964314    0.572226    11.00000   -1.20000
AFIX   0
C64   1    0.842979    1.100148    0.613744    11.00000    0.08087    0.09130 =
         0.08916    0.00235   -0.00551   -0.01418
AFIX 137
H64A  2    0.834377    1.166644    0.600282    11.00000   -1.50000
H64B  2    0.877856    1.093545    0.623419    11.00000   -1.50000
H64C  2    0.830388    1.084450    0.653270    11.00000   -1.50000
AFIX   0
C65   1    0.743669    0.884921    0.597290    11.00000    0.06244    0.06834 =
         0.05448   -0.00083   -0.00980    0.00211
C66   1    0.717594    0.798906    0.578185    11.00000    0.06285    0.06889 =
         0.05251    0.00116   -0.00942    0.00434
AFIX  43
H66   2    0.692797    0.799077    0.540066    11.00000   -1.20000
AFIX   0
C67   1    0.727729    0.715194    0.614124    11.00000    0.06193    0.06715 =
         0.05377   -0.00311   -0.01122    0.00146
AFIX  43
H67   2    0.710372    0.657708    0.600788    11.00000   -1.20000
AFIX   0
C68   1    0.763897    0.716150    0.670440    11.00000    0.06161    0.06720 =
         0.05318    0.00131   -0.01052    0.00486
C69   1    0.784617    0.643227    0.717410    11.00000    0.06208    0.06664 =
         0.05417    0.00181   -0.00925    0.00485
C70   1    0.776048    0.545302    0.723649    11.00000    0.06695    0.06782 =
         0.05814    0.00002   -0.01343    0.00041
AFIX  43
H70   2    0.750748    0.514017    0.694436    11.00000   -1.20000
AFIX   0
C71   1    0.805473    0.494154    0.773795    11.00000    0.07549    0.06885 =
         0.06169    0.00379   -0.01319    0.00260
AFIX  43
H71   2    0.800000    0.427162    0.778570    11.00000   -1.20000
AFIX   0
C72   1    0.843324    0.539511    0.817810    11.00000    0.07033    0.07602 =
         0.05419   -0.00023   -0.01384    0.00819
C73   1    0.851018    0.637395    0.812971    11.00000    0.06776    0.07409 =
         0.05149   -0.00232   -0.01377    0.00441
AFIX  43
H73   2    0.875741    0.669117    0.842917    11.00000   -1.20000
AFIX   0
C74   1    0.821121    0.688611    0.762347    11.00000    0.06395    0.07299 =
         0.05064    0.00026   -0.00823    0.00455
C75   1    0.789068    0.801809    0.689795    11.00000    0.06078    0.06965 =
         0.05361   -0.00170   -0.01109    0.00683
C76   1    0.779681    0.886720    0.653409    11.00000    0.06152    0.07063 =
         0.05826    0.00052   -0.01108   -0.00325
AFIX  43
H76   2    0.797315    0.943957    0.666529    11.00000   -1.20000
AFIX   0

CL3   3    0.618030    0.880907    0.975511    11.00000    0.16961    0.14799 =
         0.09695    0.01394    0.00136    0.00629
CL4   3    0.627079    0.704133    0.907294    11.00000    0.15513    0.17337 =
         0.08973    0.03265    0.02704    0.07713
CL5   3    0.569161    0.854302    0.839449    11.00000    0.14603    0.15203 =
         0.09941    0.03638   -0.01448    0.04394
C80   1    0.598375    0.803820    0.913129    11.00000    0.30989    0.10355 =
         0.21233    0.03160   -0.14813    0.02495
AFIX  13
H80   2    0.570087    0.776830    0.928820    11.00000   -1.20000
AFIX   0

CL6   3    0.670495    1.095270    0.082747    11.00000    0.12186    0.30324 =
         0.56726   -0.30353   -0.10227    0.06469
CL7   3    0.691472    1.175549    0.205954    11.00000    0.23927    0.13088 =
         0.34464    0.05610    0.14771    0.04672
CL8   3    0.754301    1.207332    0.120367    11.00000    0.25185    0.15849 =
         0.14019   -0.01615    0.06057   -0.05691
C81   1    0.693614    1.201170    0.121125    11.00000    0.15807    0.15551 =
         0.18121   -0.00121    0.02376    0.01122
AFIX  13
H81   2    0.675432    1.260303    0.103444    11.00000   -1.20000
AFIX   0

O1    5    0.674802    1.165573    0.865497    11.00000    0.15644    0.14337 =
         0.17076   -0.02439    0.01963   -0.02690
AFIX   3
H1    2    0.694412    1.141043    0.846347    11.00000   -1.50000
AFIX   0
O2    5    0.699861    1.068706    0.760090    11.00000    0.09901    0.07887 =
         0.09104   -0.00103   -0.02318   -0.00254
AFIX 147
H2    2    0.680662    1.071502    0.723702    11.00000   -1.50000
AFIX   0
C77   1    0.649079    1.090699    0.893978    11.00000    0.17080    0.18759 =
         0.18825    0.02178    0.04477   -0.01290
AFIX 137
H77A  2    0.619642    1.074262    0.862780    11.00000   -1.50000
H77B  2    0.641071    1.114414    0.935107    11.00000   -1.50000
H77C  2    0.669266    1.033180    0.903159    11.00000   -1.50000
AFIX   0
C78   1    0.745439    1.090141    0.751005    11.00000    0.10940    0.13208 =
         0.22997   -0.02982    0.00681   -0.02109
AFIX 137
H78A  2    0.745436    1.094363    0.703704    11.00000   -1.50000
H78B  2    0.767522    1.039253    0.770785    11.00000   -1.50000
H78C  2    0.755669    1.152002    0.772086    11.00000   -1.50000
AFIX   0

O3    5    0.868581    0.897234    0.856973    11.00000    0.10733    0.08670 =
         0.10038   -0.00117   -0.02495   -0.00830
AFIX 147
H3    2    0.881382    0.854149    0.883165    11.00000   -1.50000
AFIX   0
C79   1    0.883291    0.986956    0.882389    11.00000    0.13924    0.10005 =
         0.14866   -0.01029    0.00668   -0.00630
AFIX 137
H79A  2    0.912300    1.006139    0.867029    11.00000   -1.50000
H79B  2    0.890018    0.983975    0.930676    11.00000   -1.50000
H79C  2    0.857980    1.034338    0.867474    11.00000   -1.50000
AFIX   0
HKLF 4




REM  a_a.res in P2(1)/c
REM R1 =  0.0931 for   13455 Fo > 4sig(Fo)  and  0.1050 for all   17044 data
REM    936 parameters refined using     24 restraints

END

WGHT      0.1901      4.7166

REM Highest difference peak  1.727,  deepest hole -1.649,  1-sigma level  0.096
Q1    1   0.6628  1.1423  0.9973  11.00000  0.05    1.73
Q2    1   0.6632  1.0755  0.1093  11.00000  0.05    1.26
Q3    1   0.6747  1.1568  0.0357  11.00000  0.05    1.24
Q4    1   0.6655  1.0988  0.1359  11.00000  0.05    0.72
Q5    1   0.6708  1.1047  0.8118  11.00000  0.05    0.69
Q6    1   0.6774  1.2572  0.0739  11.00000  0.05    0.68
Q7    1   0.5890  0.8039  0.9207  11.00000  0.05    0.64
Q8    1   1.0328  0.4305  1.2227  11.00000  0.05    0.56
Q9    1   0.8500  0.9643  0.8233  11.00000  0.05    0.52
Q10   1   0.7730  1.2496  0.4477  11.00000  0.05    0.52
Q11   1   0.5610  0.7620  0.8156  11.00000  0.05    0.52
Q12   1   0.6267  0.8233  0.8897  11.00000  0.05    0.48
Q13   1   0.7489  1.0588  0.4680  11.00000  0.05    0.48
Q14   1   0.9544  0.4931  1.1538  11.00000  0.05    0.48
Q15   1   0.7287  1.2732  0.1006  11.00000  0.05    0.47
Q16   1   0.9419  0.5724  1.1823  11.00000  0.05    0.46
Q17   1   0.9239  0.9520  0.9472  11.00000  0.05    0.45
Q18   1   0.7677  1.1198  0.4348  11.00000  0.05    0.45
Q19   1   0.7296  1.1841  0.6489  11.00000  0.05    0.44
Q20   1   0.7372  1.2924  0.1430  11.00000  0.05    0.44
;
_shelx_res_checksum              10467
_shelx_hkl_file
;
  -3   0   0  559.18   15.97
  -5   0   0  429.68   21.90
  -6   0   0 3027.53   82.96
  -7   0   0 5757.91  191.07
  -9   0   0  223.87    6.29
 -10   0   0   90.22    4.62
 -11   0   0  211.91    6.32
 -12   0   0 1760.09   41.99
 -13   0   0 1259.70   37.22
 -14   0   0  496.09   10.70
 -15   0   0 1522.09   41.26
 -16   0   0 2469.11   68.07
 -17   0   0   55.25    2.53
 -18   0   0  915.08   23.38
 -19   0   0 2054.03   47.12
 -20   0   0 1236.25   29.23
 -21   0   0  304.56    8.71
 -22   0   0   20.70    1.30
 -23   0   0  412.27   12.21
 -24   0   0    1.55    0.79
 -25   0   0  571.93   16.44
 -26   0   0   31.87    1.48
 -27   0   0  170.87    9.18
 -28   0   0    3.04    0.58
 -29   0   0   36.93    1.99
 -30   0   0    2.57    0.94
 -31   0   0   45.38    2.02
 -32   0   0    0.07    0.76
 -33   0   0    8.64    0.98
 -34   0   0    0.33    0.43
 -35   0   0    4.48    1.48
  35   0   1    1.81    1.77
  34   0   1    0.90    1.08
  33   0   1   -0.51    0.79
  32   0   1    0.90    0.69
  31   0   1    0.58    0.98
  30   0   1   -0.07    0.79
  29   0   1    1.05    0.94
  28   0   1    1.91    0.90
  27   0   1   -0.90    1.05
  26   0   1    0.11    0.47
  25   0   1    0.18    0.47
  24   0   1    0.18    0.54
  23   0   1   -2.35    1.48
  22   0   1   -1.30    0.98
  21   0   1    1.12    0.47
  20   0   1   -0.51    0.76
  19   0   1   -0.36    0.65
  18   0   1    1.05    1.26
  17   0   1    1.37    0.65
  16   0   1    0.40    0.69
  15   0   1   -0.51    0.90
  14   0   1    0.83    0.51
  13   0   1    1.55    0.54
  12   0   1    1.63    0.43
  11   0   1   -0.65    0.43
  10   0   1    1.34    0.40
   9   0   1    0.61    0.36
   8   0   1   -1.63    0.87
   7   0   1    3.25    0.54
   6   0   1    1.84    0.29
   5   0   1    0.90    0.22
   4   0   1    0.22    0.51
   2   0   1    0.87    0.25
   1   0   1    0.58    0.14
  -2   0   1    0.40    0.14
  -3   0   1    0.98    0.18
  -4   0   1    0.25    0.11
  -5   0   1    0.43    0.29
  -7   0   1   -0.11    0.47
  -8   0   1    1.95    0.54
  -9   0   1   -0.14    0.47
 -10   0   1   -0.58    0.47
 -11   0   1   -0.07    0.51
 -12   0   1   -0.04    0.69
 -13   0   1   -0.18    0.51
 -14   0   1    0.87    0.51
 -15   0   1    0.07    0.47
 -16   0   1    0.79    0.61
 -17   0   1    0.25    0.61
 -18   0   1    1.34    0.83
 -19   0   1    0.40    1.30
 -20   0   1    0.33    0.72
 -21   0   1    1.19    0.98
 -22   0   1    0.58    0.47
 -23   0   1   -0.40    0.83
 -24   0   1    0.04    0.69
 -25   0   1   -0.54    1.01
 -26   0   1   -0.33    1.37
 -27   0   1   -0.47    0.72
 -28   0   1    0.36    1.05
 -29   0   1    1.70    0.72
 -30   0   1   -0.11    0.94
 -32   0   1    0.14    0.65
 -33   0   1   -0.65    0.61
 -34   0   1   -1.73    1.55
 -35   0   1    0.72    0.98
 -36   0   1    1.19    1.05
  35   0   2   11.53    1.37
  34   0   2    7.15    1.08
  33   0   2    9.50    1.08
  32   0   2   -1.55    1.66
  31   0   2   82.09    3.29
  30   0   2    5.53    1.19
  29   0   2   66.19    3.47
  28   0   2    1.91    0.69
  27   0   2  260.80    5.96
  26   0   2    2.13    0.72
  25   0   2    4.05    0.58
  24   0   2    3.69    0.90
  23   0   2  928.59   31.00
  22   0   2    0.11    0.98
  21   0   2  126.06    4.88
  20   0   2  140.70   10.73
  18   0   2    2.38    2.13
  17   0   2  604.70   22.04
  16   0   2 1855.16   55.03
  15   0   2   94.30    3.69
  14   0   2   66.92    2.46
  13   0   2  300.91   10.51
  12   0   2 2393.85   67.46
  11   0   2 1449.03   32.41
  10   0   2 3578.14   86.64
   9   0   2  312.50   10.12
   8   0   2  897.37   23.49
   5   0   2 1474.51   31.58
   2   0   2   17.52    0.76
   1   0   2   38.99    1.37
  -3   0   2 1273.40   34.33
  -5   0   2  179.94    6.90
  -8   0   2 1811.58   53.11
  -9   0   2 3566.94   94.30
 -10   0   2 1956.43   51.20
 -11   0   2  178.67    6.76
 -12   0   2   38.05    1.63
 -14   0   2 3544.36  119.71
 -15   0   2  225.75    7.55
 -16   0   2   20.88    1.88
 -17   0   2  900.70   24.10
 -18   0   2 1661.27   46.86
 -19   0   2  189.19    5.20
 -20   0   2   42.89    2.38
 -21   0   2  779.18   15.39
 -22   0   2    9.68    1.16
 -23   0   2  178.49    5.71
 -24   0   2    5.20    0.65
 -26   0   2   83.03    3.14
 -27   0   2   -0.29    1.01
 -28   0   2    0.36    0.51
 -29   0   2   57.23    2.31
 -30   0   2    0.36    0.79
 -31   0   2    1.66    1.19
 -32   0   2    2.46    0.61
 -33   0   2   40.36    2.17
 -34   0   2    2.06    0.87
 -35   0   2   -1.30    0.87
 -36   0   2   -1.77    1.05
  34   0   3   -0.76    0.98
  33   0   3   -0.94    0.72
  32   0   3    1.66    0.72
  31   0   3    0.98    1.26
  30   0   3    1.23    1.30
  29   0   3    2.89    1.30
  28   0   3    0.61    1.12
  27   0   3    0.98    1.12
  26   0   3    0.14    0.94
  25   0   3    1.30    1.81
  24   0   3   -1.63    1.23
  23   0   3   -1.08    1.41
  22   0   3   -0.29    1.01
  21   0   3   -0.33    0.79
  20   0   3    0.25    0.76
  19   0   3    1.30    0.36
  18   0   3    0.29    0.51
  17   0   3   -0.33    0.72
  16   0   3    1.16    0.69
  15   0   3   -0.18    0.61
  14   0   3    0.33    0.76
  13   0   3    0.76    0.51
  12   0   3    0.04    0.54
  11   0   3    1.19    0.76
  10   0   3    0.79    0.61
   9   0   3    0.00    0.33
   8   0   3    0.69    0.69
   7   0   3    0.18    0.43
   6   0   3    0.58    0.25
   5   0   3    0.11    0.25
   4   0   3    0.90    0.29
   3   0   3    0.87    0.25
   2   0   3    0.07    0.14
   1   0   3    0.61    0.14
   0   0   3   -0.29    0.18
  -1   0   3   -0.07    0.14
  -2   0   3    0.04    0.14
  -3   0   3    0.18    0.18
  -4   0   3    0.61    0.54
  -5   0   3    0.33    0.40
  -6   0   3   -0.11    0.47
  -7   0   3    1.77    0.51
  -8   0   3    0.11    0.29
  -9   0   3    0.04    0.40
 -10   0   3    0.00    0.51
 -11   0   3    0.54    0.33
 -12   0   3    0.40    0.79
 -13   0   3    1.23    0.58
 -14   0   3    0.14    0.69
 -15   0   3   -0.07    0.79
 -16   0   3    0.76    0.51
 -17   0   3   -0.40    0.47
 -18   0   3    0.36    0.69
 -19   0   3    0.11    0.87
 -20   0   3   -0.33    0.58
 -21   0   3    0.25    0.54
 -22   0   3    2.46    1.16
 -23   0   3    0.29    0.51
 -24   0   3    1.26    0.79
 -25   0   3   -0.29    1.05
 -26   0   3   -0.58    0.69
 -27   0   3    1.95    0.83
 -28   0   3   -0.94    1.26
 -29   0   3   -0.83    0.83
 -30   0   3   -0.90    1.01
 -31   0   3    0.04    0.65
 -32   0   3   -1.41    1.52
 -33   0   3   -0.51    0.61
 -34   0   3   -1.52    0.94
 -35   0   3   -2.38    0.79
 -36   0   3    0.90    1.30
  34   0   4   -0.07    1.05
  33   0   4    2.20    1.05
  32   0   4    8.31    0.94
  31   0   4   16.84    1.48
  30   0   4    1.26    0.87
  29   0   4   32.63    2.28
  28   0   4  212.20    7.26
  27   0   4  444.57   11.78
  26   0   4   -1.23    0.76
  25   0   4   30.93    1.77
  24   0   4   54.02    2.28
  23   0   4  307.63   10.15
  22   0   4  159.38    5.42
  21   0   4  906.04   23.27
  20   0   4  101.21    4.55
  19   0   4  357.81   12.54
  18   0   4  315.54    9.39
  17   0   4 2105.51   58.21
  16   0   4  224.23    8.02
  15   0   4  357.31   13.48
  14   0   4  622.23   15.28
  13   0   4  398.90   10.04
  12   0   4  370.21   10.55
  11   0   4  733.55   16.91
  10   0   4 1792.65   53.37
   9   0   4  296.10   14.34
   8   0   4 1603.64   67.64
   7   0   4 1346.82   27.06
   6   0   4 1341.36   36.57
   5   0   4  644.41   18.21
   4   0   4 1509.05   41.59
   3   0   4  696.73   16.30
   2   0   4 2153.61   55.53
   1   0   4 1819.60   44.30
   0   0   4   25.62    1.55
  -1   0   4    4.88    0.40
  -2   0   4  234.03   10.70
  -3   0   4    1.73    0.25
  -4   0   4 2121.99   54.88
  -7   0   4 3988.96   98.53
  -9   0   4   28.29    1.37
 -10   0   4 6842.77  240.96
 -11   0   4 1617.05   37.07
 -12   0   4 1087.61   36.53
 -13   0   4  400.38    9.72
 -14   0   4 1229.93   34.58
 -15   0   4  293.93    8.13
 -16   0   4  267.92    6.07
 -17   0   4  150.09    5.17
 -18   0   4  627.83   16.98
 -19   0   4   75.23    3.61
 -20   0   4 1209.70   36.67
 -21   0   4  470.51   10.01
 -22   0   4   64.10    3.61
 -23   0   4  115.69    7.23
 -24   0   4   48.74    2.10
 -25   0   4  196.05    4.91
 -26   0   4    2.20    0.83
 -27   0   4    7.48    0.79
 -28   0   4   12.39    1.41
 -29   0   4   41.99    1.73
 -30   0   4    1.77    0.69
 -31   0   4    0.94    0.87
 -32   0   4   -0.79    0.76
 -33   0   4   22.65    1.81
 -34   0   4    0.00    0.72
 -35   0   4    8.24    1.12
 -36   0   4    1.99    0.94
  33   0   5    1.41    1.05
  32   0   5    1.16    0.83
  31   0   5    0.33    1.08
  30   0   5   -1.34    1.19
  28   0   5   -1.48    1.05
  27   0   5   -0.04    0.69
  26   0   5   -0.98    0.76
  25   0   5   -0.22    0.61
  24   0   5    1.48    1.05
  23   0   5    1.70    0.72
  22   0   5   -0.18    1.08
  21   0   5    1.12    0.69
  20   0   5    0.54    0.87
  19   0   5    0.25    0.58
  18   0   5    0.47    0.72
  17   0   5    1.19    0.58
  16   0   5   -0.69    0.72
  15   0   5   -0.43    0.79
  14   0   5   -0.18    0.54
  13   0   5    1.05    0.61
  12   0   5    1.52    0.40
  11   0   5    2.31    0.54
  10   0   5    0.18    0.47
   9   0   5    0.79    0.33
   8   0   5    0.22    0.40
   7   0   5   -0.22    0.33
   6   0   5    0.51    0.36
   5   0   5    0.94    0.36
   4   0   5    0.58    0.29
   3   0   5    1.01    0.29
   2   0   5    0.04    0.25
   1   0   5    0.07    0.25
   0   0   5    0.33    0.22
  -2   0   5   -0.04    0.25
  -3   0   5    0.22    0.29
  -4   0   5   -0.22    0.33
  -5   0   5    0.76    0.25
  -6   0   5    0.47    0.29
  -7   0   5    0.22    0.29
  -8   0   5   -0.18    0.54
  -9   0   5   -0.11    0.33
 -10   0   5   -0.04    0.25
 -11   0   5    0.14    0.61
 -12   0   5    0.33    0.58
 -13   0   5    0.33    0.47
 -14   0   5   -0.47    0.36
 -15   0   5    0.54    0.54
 -16   0   5    0.54    0.54
 -17   0   5   -0.51    0.65
 -18   0   5    0.98    0.87
 -19   0   5    0.65    0.65
 -20   0   5    1.16    0.51
 -21   0   5    0.51    0.69
 -22   0   5    0.14    0.69
 -23   0   5   -0.04    0.76
 -24   0   5    1.01    0.65
 -25   0   5    0.29    1.05
 -27   0   5   -0.40    1.63
 -28   0   5    1.41    1.12
 -29   0   5    0.87    1.70
 -30   0   5   -0.51    0.76
 -31   0   5   -0.72    1.01
 -32   0   5    1.48    1.37
 -33   0   5    0.18    0.72
 -34   0   5    1.08    1.01
 -35   0   5   -2.60    1.59
 -36   0   5   -0.43    1.12
  33   0   6   -0.40    0.72
  32   0   6   -0.04    0.54
  31   0   6   13.84    0.98
  30   0   6   -1.55    1.08
  29   0   6    3.25    0.79
  28   0   6   27.06    1.59
  27   0   6    6.40    0.87
  26   0   6   72.66    2.75
  25   0   6   70.67    2.96
  24   0   6    4.88    0.76
  23   0   6   89.93    6.54
  22   0   6  227.27    6.61
  21   0   6 1183.14   36.67
  20   0   6    4.01    0.72
  19   0   6  332.92   13.66
  18   0   6  175.71    5.85
  17   0   6   38.63    2.06
  16   0   6    3.18    0.69
  15   0   6  476.76   12.50
  14   0   6   14.53    1.12
  13   0   6 1456.84   36.28
  12   0   6  304.41    8.64
  11   0   6   44.19    3.79
  10   0   6 1176.60   33.60
   9   0   6 4637.78  123.90
   8   0   6  254.08    8.20
   7   0   6 5647.06  132.10
   6   0   6  180.08    7.08
   5   0   6  225.90    7.73
   4   0   6 4154.41  144.35
   1   0   6  175.42    8.89
  -1   0   6 1002.01   29.99
  -3   0   6  191.25    6.32
  -4   0   6 1325.86   52.46
  -5   0   6 1237.70   35.01
  -6   0   6  702.69   14.49
  -7   0   6  129.39    3.87
  -8   0   6 2592.93   67.24
  -9   0   6    5.02    0.51
 -10   0   6   70.28    3.32
 -11   0   6   62.83    4.08
 -12   0   6   75.91    2.42
 -13   0   6  322.01   11.78
 -14   0   6   95.10    3.43
 -15   0   6  155.98    8.24
 -17   0   6 1527.30   35.73
 -18   0   6    6.83    0.72
 -19   0   6   15.65    1.01
 -20   0   6   52.03    2.17
 -21   0   6  900.66   29.48
 -22   0   6    4.84    0.87
 -23   0   6    3.07    0.69
 -24   0   6  196.74    9.83
 -25   0   6   26.30    1.37
 -26   0   6    2.67    0.47
 -27   0   6   23.81    1.91
 -28   0   6    3.04    0.69
 -29   0   6   15.61    1.12
 -30   0   6    0.22    0.69
 -31   0   6    1.05    0.83
 -32   0   6   -0.29    1.01
 -33   0   6    7.37    1.70
 -34   0   6    0.87    0.94
 -35   0   6   22.76    1.30
  32   0   7    0.36    1.01
  31   0   7    0.07    0.94
  30   0   7    0.00    0.79
  29   0   7   -1.12    0.83
  28   0   7   -0.54    0.83
  27   0   7    0.22    1.19
  26   0   7    0.29    0.83
  25   0   7   -0.98    0.98
  24   0   7   -0.61    0.61
  23   0   7    0.33    1.01
  22   0   7   -0.61    0.83
  21   0   7    2.13    1.01
  20   0   7    2.42    0.94
  19   0   7   -0.58    0.83
  18   0   7   -0.61    0.72
  17   0   7    0.29    0.69
  16   0   7   -0.25    1.26
  15   0   7   -1.81    0.83
  14   0   7    0.79    0.72
  13   0   7   -0.11    0.98
  12   0   7    0.11    0.69
  11   0   7    0.76    0.43
  10   0   7   -1.01    0.58
   9   0   7   -0.29    1.01
   8   0   7    2.75    0.54
   7   0   7    0.18    0.51
   6   0   7    1.08    0.40
   5   0   7    0.51    0.29
   4   0   7    1.16    0.29
   3   0   7    0.36    0.29
   2   0   7   -0.07    0.33
   1   0   7    1.48    0.47
   0   0   7   -0.36    0.43
  -2   0   7    0.43    0.36
  -3   0   7   -0.69    0.43
  -4   0   7    0.07    0.36
  -5   0   7   -0.14    0.61
  -6   0   7    1.59    0.47
  -7   0   7   -0.04    0.29
  -8   0   7    0.36    0.36
  -9   0   7    0.29    0.36
 -10   0   7    0.90    0.51
 -11   0   7   -0.43    0.54
 -12   0   7    0.18    0.33
 -13   0   7    1.37    0.58
 -14   0   7   -0.94    1.41
 -15   0   7    0.14    0.43
 -16   0   7    0.58    1.19
 -17   0   7   -3.40    1.77
 -18   0   7    1.01    0.79
 -19   0   7    0.22    0.76
 -20   0   7   -1.26    0.69
 -21   0   7    1.45    0.61
 -22   0   7   -1.23    1.23
 -23   0   7    0.33    0.69
 -24   0   7    1.26    0.61
 -26   0   7   -0.25    0.61
 -27   0   7    0.14    0.90
 -28   0   7    0.69    0.94
 -29   0   7   -0.25    0.90
 -30   0   7    2.64    0.79
 -31   0   7    1.30    1.01
 -32   0   7   -2.53    1.48
 -33   0   7   -1.01    1.16
 -34   0   7    0.14    0.72
 -35   0   7    1.05    0.90
  32   0   8    6.11    1.08
  31   0   8   30.06    1.77
  30   0   8    3.83    0.94
  29   0   8   32.37    1.73
  28   0   8    5.17    0.94
  27   0   8  100.99    3.79
  26   0   8    2.60    1.12
  25   0   8   46.94    2.57
  24   0   8    2.71    0.98
  23   0   8   18.75    1.41
  22   0   8   19.80    1.19
  21   0   8  663.53   20.27
  20   0   8   83.61    4.23
  19   0   8  237.86    8.35
  18   0   8   29.34    1.55
  17   0   8  259.21    9.43
  16   0   8  226.29    8.67
  15   0   8  477.09   14.53
  14   0   8  131.12    5.82
  13   0   8 1528.60   33.42
  12   0   8  501.62   13.73
  11   0   8  473.04   17.70
  10   0   8   86.39    2.96
   9   0   8 2086.47   85.99
   8   0   8 1007.86   29.84
   7   0   8 1494.63   34.51
   5   0   8 2985.90  101.28
   4   0   8   16.51    0.79
   3   0   8  911.32   25.04
   1   0   8   52.86    2.93
   0   0   8   95.97    3.79
  -1   0   8   24.28    1.45
  -2   0   8   55.14    2.38
  -3   0   8    1.66    0.65
  -4   0   8  109.95    6.79
  -5   0   8   53.44    2.20
  -7   0   8   10.95    0.69
  -8   0   8    8.24    0.47
  -9   0   8    4.26    0.61
 -10   0   8 1412.40   32.01
 -11   0   8   55.90    2.02
 -12   0   8 2988.76   77.54
 -13   0   8  951.24   20.78
 -15   0   8  732.29   17.96
 -16   0   8   27.64    1.45
 -17   0   8  445.90   17.52
 -18   0   8  123.32    4.16
 -19   0   8   96.40    6.47
 -20   0   8  161.08    5.06
 -21   0   8  376.13   15.18
 -22   0   8   16.77    1.37
 -23   0   8  100.01    2.96
 -24   0   8    1.08    1.26
 -25   0   8   72.44    2.67
 -27   0   8   84.84    4.62
 -28   0   8    0.43    1.01
 -29   0   8    6.68    1.16
 -30   0   8    8.09    0.94
 -31   0   8    9.18    1.16
 -32   0   8   -0.14    0.65
 -33   0   8    0.90    0.54
 -34   0   8    1.73    0.79
 -35   0   8   13.69    1.37
 -36   0   8    1.19    1.37
  31   0   9    0.98    1.08
  30   0   9    0.47    0.98
  29   0   9    1.05    0.90
  28   0   9   -1.52    1.08
  27   0   9   -0.11    1.26
  26   0   9    0.07    0.69
  25   0   9    0.29    1.16
  24   0   9   -0.04    0.79
  23   0   9   -3.22    1.45
  22   0   9   -1.05    1.23
  21   0   9    1.45    1.08
  20   0   9    0.00    0.69
  19   0   9   -0.65    0.72
  18   0   9    0.22    0.69
  16   0   9   -0.11    0.69
  15   0   9    0.07    0.61
  14   0   9   -0.94    0.69
  13   0   9   -0.72    1.12
  12   0   9   -0.36    0.69
  11   0   9    0.33    0.65
  10   0   9    0.79    0.54
   9   0   9   -0.65    0.98
   8   0   9    2.31    0.69
   7   0   9    0.69    0.43
   6   0   9   -0.51    0.43
   5   0   9    0.25    0.65
   4   0   9    0.58    0.33
   3   0   9    0.40    0.36
   2   0   9    0.79    0.65
   1   0   9    1.48    0.51
   0   0   9    0.51    0.43
  -4   0   9    0.43    0.43
  -5   0   9    0.25    0.33
  -6   0   9    0.40    0.43
  -7   0   9    0.90    0.36
  -8   0   9    0.29    0.51
  -9   0   9    0.54    0.51
 -10   0   9    1.08    0.47
 -11   0   9    0.33    0.58
 -12   0   9    1.26    0.47
 -13   0   9   -0.14    1.05
 -14   0   9    1.34    0.79
 -15   0   9    1.08    1.30
 -16   0   9   -4.81    1.84
 -17   0   9    0.51    0.79
 -18   0   9    0.51    0.61
 -19   0   9    0.43    0.51
 -20   0   9    0.90    0.54
 -21   0   9   -1.95    1.08
 -22   0   9   -0.58    0.87
 -23   0   9   -0.76    0.79
 -24   0   9   -1.34    0.98
 -25   0   9   -2.13    1.08
 -26   0   9   -0.43    0.79
 -27   0   9    1.01    0.83
 -28   0   9   -1.26    0.94
 -30   0   9    1.77    0.61
 -31   0   9    0.25    0.94
 -32   0   9   -1.01    0.83
 -33   0   9    0.18    0.83
 -34   0   9   -1.81    1.19
 -35   0   9    0.47    1.16
  30   0  10    3.29    1.08
  29   0  10   49.61    2.35
  28   0  10   37.72    1.88
  27   0  10   59.51    2.82
  26   0  10   13.37    1.70
  25   0  10  394.42   15.97
  24   0  10   22.69    1.66
  23   0  10   39.02    2.13
  22   0  10    3.14    0.90
  21   0  10  224.63    9.07
  20   0  10  410.64   15.03
  19   0  10   46.39    2.78
  18   0  10  112.70    5.85
  17   0  10   40.36    3.50
  16   0  10   78.44    4.05
  15   0  10  645.75   32.16
  14   0  10  914.72   22.15
  13   0  10  991.42   28.18
  12   0  10  248.55    9.50
  11   0  10 1633.05   35.66
  10   0  10  542.52   16.87
   9   0  10  773.48   23.67
   8   0  10  169.21    8.74
   7   0  10  840.07   23.85
   6   0  10 4766.74   93.62
   5   0  10  401.21    9.90
   4   0  10  689.00   19.87
   3   0  10 1159.11   32.66
   1   0  10   72.34    4.84
  -2   0  10   67.89    3.94
  -3   0  10  176.69   10.51
  -4   0  10 1089.92   23.81
  -5   0  10  951.53   20.85
  -6   0  10  613.92   19.33
  -7   0  10   68.51    2.53
  -8   0  10  203.17    5.42
  -9   0  10    4.66    0.58
 -10   0  10   10.80    0.69
 -11   0  10  802.09   19.19
 -12   0  10  695.65   22.33
 -13   0  10  772.93   22.33
 -15   0  10  174.66    5.06
 -16   0  10  978.52   26.88
 -17   0  10   10.62    1.34
 -18   0  10   42.67    2.42
 -19   0  10  122.13    6.14
 -20   0  10  506.03   14.31
 -21   0  10    3.22    1.41
 -22   0  10   10.23    0.94
 -23   0  10    3.58    0.83
 -24   0  10   48.60    3.54
 -25   0  10    4.12    0.79
 -26   0  10    9.86    0.87
 -27   0  10   74.03    4.44
 -28   0  10    8.60    2.10
 -29   0  10   -0.04    0.90
 -30   0  10    3.25    0.90
 -31   0  10   29.30    1.63
 -32   0  10    6.14    0.83
 -33   0  10    2.35    1.34
 -34   0  10    0.47    0.69
  29   0  11    0.29    0.94
  28   0  11    1.88    1.34
  27   0  11   -0.36    1.19
  26   0  11    0.76    0.90
  25   0  11    1.88    1.08
  24   0  11    1.66    1.37
  23   0  11    0.36    0.94
  22   0  11    1.41    1.12
  21   0  11    1.08    1.59
  20   0  11   -0.25    0.72
  19   0  11   -1.52    0.72
  18   0  11    0.58    0.69
  17   0  11    0.07    0.69
  16   0  11   -0.33    0.90
  15   0  11    3.18    1.95
  14   0  11    1.16    0.69
  13   0  11    0.65    0.83
  12   0  11    0.51    0.76
  11   0  11    0.25    0.54
  10   0  11    0.58    0.51
   9   0  11   -0.54    0.51
   8   0  11    0.61    1.01
   7   0  11    0.40    0.51
   6   0  11   -0.36    0.65
   5   0  11    1.12    0.47
   4   0  11   -0.07    0.47
   3   0  11    0.25    0.47
   2   0  11    0.47    0.40
   1   0  11    1.30    0.72
  -3   0  11    0.47    0.29
  -4   0  11   -0.29    0.29
  -5   0  11    0.07    0.33
  -6   0  11   -0.18    0.47
  -7   0  11    0.04    0.36
  -8   0  11   -0.11    0.40
  -9   0  11   -0.22    0.47
 -10   0  11    0.40    0.54
 -11   0  11    0.61    0.54
 -12   0  11    0.18    0.72
 -13   0  11    0.22    0.69
 -14   0  11    0.47    1.08
 -15   0  11    0.25    0.90
 -16   0  11    0.43    1.45
 -17   0  11    1.19    1.66
 -18   0  11    0.33    0.79
 -19   0  11    0.61    0.58
 -20   0  11   -0.90    1.12
 -21   0  11    0.90    0.54
 -22   0  11    1.12    1.12
 -23   0  11    0.94    1.37
 -24   0  11    0.04    0.90
 -25   0  11    1.01    0.87
 -26   0  11   -0.04    1.19
 -27   0  11   -1.16    0.83
 -28   0  11   -1.55    0.76
 -29   0  11   -0.79    1.30
 -30   0  11   -0.72    1.12
 -31   0  11    0.43    1.01
 -32   0  11    1.77    1.55
 -33   0  11    0.22    1.45
  28   0  12   31.04    1.95
  27   0  12   38.73    1.73
  26   0  12    2.06    0.94
  25   0  12  100.23    3.76
  24   0  12   11.42    1.37
  23   0  12  189.62    4.70
  22   0  12   13.04    0.87
  21   0  12   35.81    2.31
  20   0  12   73.09    2.67
  19   0  12  490.09   17.38
  18   0  12   43.97    1.84
  17   0  12  152.37    9.29
  16   0  12  102.07    4.05
  15   0  12  323.63    9.25
  14   0  12  625.99   27.03
  13   0  12  846.43   38.84
  12   0  12   22.98    1.37
  11   0  12 1280.05   31.04
  10   0  12  114.43    3.58
   9   0  12   16.66    1.05
   8   0  12  957.42   28.54
   7   0  12 5392.65  125.92
   6   0  12  110.35    4.34
   5   0  12  640.58   15.43
   4   0  12 1243.12   34.90
   3   0  12 1273.72   34.29
   2   0  12   22.04    1.63
   0   0  12  542.95   22.44
  -2   0  12    4.05    0.51
  -4   0  12  712.30   20.27
  -5   0  12  577.86   23.38
  -6   0  12  411.90   16.80
  -7   0  12  180.62    6.14
  -8   0  12 1560.75   56.98
  -9   0  12   85.45    2.82
 -10   0  12  409.19   10.33
 -11   0  12  263.62    6.50
 -12   0  12  535.91   11.38
 -13   0  12    0.61    0.79
 -14   0  12  384.37   10.51
 -15   0  12  125.63    3.61
 -16   0  12  332.81    8.42
 -17   0  12   21.86    1.34
 -18   0  12    7.08    0.87
 -19   0  12   -1.23    1.01
 -20   0  12   11.96    0.87
 -21   0  12   10.23    1.16
 -22   0  12   98.31    3.04
 -23   0  12    9.57    0.90
 -24   0  12   55.79    2.78
 -25   0  12    0.98    0.83
 -26   0  12   46.86    2.35
 -28   0  12   34.22    2.85
 -29   0  12    4.01    0.69
 -30   0  12   14.67    1.08
 -31   0  12   10.26    1.45
 -32   0  12   -0.14    1.23
 -33   0  12    3.43    0.79
 -34   0  12    0.61    0.79
  27   0  13    1.63    1.48
  26   0  13   -0.25    0.69
  25   0  13   -1.30    1.95
  24   0  13    0.83    0.94
  23   0  13   -0.90    1.08
  22   0  13   -0.65    1.30
  21   0  13   -1.01    0.83
  20   0  13    0.14    0.83
  19   0  13    0.00    1.01
  18   0  13    0.14    0.65
  17   0  13    0.76    0.83
  16   0  13   -0.43    0.76
  15   0  13   -0.14    0.76
  14   0  13   -0.69    1.08
  13   0  13    1.95    0.69
  12   0  13    0.22    0.79
  11   0  13    0.40    0.69
  10   0  13   -0.25    0.65
   9   0  13    0.18    0.54
   8   0  13    0.83    0.72
   7   0  13   -0.11    0.65
   6   0  13   -0.87    0.69
   5   0  13    0.87    0.43
   4   0  13    0.33    0.94
   3   0  13   -0.11    0.51
  -4   0  13    0.69    0.61
  -5   0  13   -0.36    0.43
  -6   0  13    0.43    0.58
  -7   0  13    0.72    0.58
  -8   0  13    0.40    0.58
  -9   0  13    0.11    0.61
 -10   0  13    0.90    0.58
 -11   0  13   -0.54    0.76
 -12   0  13    0.65    0.58
 -13   0  13    0.69    0.47
 -14   0  13    1.26    0.69
 -15   0  13    0.18    0.94
 -16   0  13    0.90    1.23
 -17   0  13    2.38    1.19
 -18   0  13    1.19    0.61
 -19   0  13   -1.26    1.45
 -20   0  13    0.36    1.88
 -21   0  13    0.43    0.79
 -23   0  13   -1.08    0.76
 -24   0  13   -0.54    0.90
 -25   0  13    2.06    0.94
 -26   0  13    0.11    0.90
 -27   0  13    0.51    0.90
 -28   0  13   -0.47    1.52
 -29   0  13   -0.25    1.08
 -30   0  13    0.43    0.98
 -31   0  13    1.12    0.90
 -32   0  13    1.70    0.83
 -33   0  13    0.29    1.63
 -34   0  13   -0.36    0.76
  26   0  14   54.41    4.44
  25   0  14    3.69    1.05
  24   0  14   24.64    3.11
  23   0  14  239.41   10.95
  22   0  14   67.96    2.67
  21   0  14    2.10    0.94
  20   0  14    9.25    1.19
  19   0  14  251.48   12.75
  18   0  14  240.89    7.05
  17   0  14    2.02    0.90
  16   0  14    2.35    1.37
  15   0  14 1940.36   36.57
  14   0  14  313.84    7.95
  13   0  14    1.30    0.72
  12   0  14 1910.15   49.93
  11   0  14 1089.41   29.09
  10   0  14  130.58    4.26
   9   0  14  629.31   27.75
   8   0  14  355.86    8.64
   7   0  14 2570.79   53.11
   6   0  14  514.41   15.03
   5   0  14  158.11    4.66
   4   0  14   84.01    3.29
   3   0  14 1401.88   38.70
   2   0  14  850.91   35.73
   1   0  14  149.19    7.30
   0   0  14  275.83    8.02
  -2   0  14    4.05    0.94
  -3   0  14  192.58    6.14
  -5   0  14  623.17   20.09
  -6   0  14  729.97   28.29
  -7   0  14  728.85   19.66
  -8   0  14  646.80   22.26
  -9   0  14   17.56    1.23
 -10   0  14 1125.22   42.06
 -11   0  14   44.84    2.82
 -12   0  14   42.13    2.10
 -13   0  14   46.94    2.24
 -14   0  14  676.14   16.55
 -15   0  14   12.65    1.37
 -16   0  14  117.00    3.87
 -17   0  14  355.83    9.61
 -18   0  14  142.36    4.05
 -19   0  14    0.79    1.73
 -20   0  14   76.27    3.47
 -21   0  14   82.45    3.18
 -22   0  14   38.44    1.95
 -23   0  14   82.45    5.64
 -24   0  14    6.43    1.01
 -25   0  14    2.24    1.23
 -27   0  14   -0.83    0.79
 -28   0  14    0.83    0.94
 -31   0  14    5.71    0.72
 -32   0  14    0.22    1.12
 -33   0  14    1.01    1.99
 -34   0  14   -0.72    1.30
  25   0  15   -1.23    1.30
  24   0  15    0.72    1.01
  23   0  15   -0.29    1.12
  22   0  15    1.26    1.08
  21   0  15   -2.46    1.45
  20   0  15    0.33    0.94
  19   0  15    0.04    1.23
  18   0  15    0.79    0.69
  17   0  15   -0.25    1.01
  16   0  15    3.90    1.12
  15   0  15   -1.23    1.19
  14   0  15    1.08    0.94
  13   0  15   -1.73    1.08
  12   0  15    0.29    0.79
  11   0  15   -0.36    0.61
  10   0  15    0.43    0.72
   9   0  15    0.61    0.76
   8   0  15    1.84    0.76
   7   0  15   -0.22    0.69
   6   0  15    0.51    0.51
   5   0  15    0.22    0.61
   4   0  15   -0.11    0.61
   3   0  15    0.58    0.87
   1   0  15    0.33    0.83
  -1   0  15    0.14    0.51
  -3   0  15    0.94    0.65
  -4   0  15   -1.19    0.83
  -6   0  15    0.58    0.87
  -7   0  15    0.33    1.26
  -9   0  15   -0.25    0.65
 -10   0  15   -0.51    0.54
 -11   0  15    0.33    0.69
 -12   0  15    0.22    0.58
 -13   0  15    0.54    0.69
 -14   0  15   -0.36    0.61
 -15   0  15    1.19    0.69
 -16   0  15   -0.11    0.69
 -17   0  15    0.18    1.34
 -18   0  15    0.29    0.76
 -19   0  15    0.33    1.12
 -20   0  15   -0.51    0.79
 -21   0  15   -0.25    0.90
 -22   0  15   -1.16    0.98
 -23   0  15    0.18    1.66
 -24   0  15    0.98    0.79
 -25   0  15    0.36    1.16
 -27   0  15    0.07    0.79
 -28   0  15   -0.14    0.83
 -29   0  15   -0.83    0.83
 -31   0  15   -0.87    1.16
 -32   0  15   -0.90    1.37
  24   0  16    9.72    1.23
  23   0  16   15.86    1.26
  22   0  16    7.48    1.12
  21   0  16    3.32    1.55
  20   0  16   82.71    3.22
  19   0  16  124.19    4.30
  18   0  16   62.76    2.42
  17   0  16    0.11    1.19
  16   0  16  122.09    4.91
  15   0  16  636.97   18.39
  14   0  16    9.07    0.98
  13   0  16   45.74    2.49
  12   0  16   55.03    1.91
  11   0  16   37.54    1.66
  10   0  16  166.46    6.21
   9   0  16  418.66    9.36
   8   0  16   25.55    1.45
   7   0  16  555.60   16.15
   6   0  16   43.50    2.13
   5   0  16  117.61    4.95
   3   0  16  345.85    9.83
   2   0  16   68.40    5.46
   1   0  16  311.82   15.50
   0   0  16   16.84    1.52
  -3   0  16  187.05    7.19
  -6   0  16  438.50   18.68
  -8   0  16  525.68   14.85
  -9   0  16   53.76    2.71
 -10   0  16  789.99   21.28
 -11   0  16   21.68    1.45
 -12   0  16  199.05    8.42
 -13   0  16    6.18    0.94
 -14   0  16   98.53    3.50
 -15   0  16    6.00    0.98
 -16   0  16    2.02    1.01
 -17   0  16   42.64    3.87
 -18   0  16  150.67    3.97
 -19   0  16   36.17    1.84
 -20   0  16    1.66    0.83
 -21   0  16    6.65    0.90
 -22   0  16   49.21    2.46
 -23   0  16    2.10    1.34
 -24   0  16   19.55    1.48
 -26   0  16   67.06    4.95
 -27   0  16    4.52    0.90
 -28   0  16    1.12    0.83
 -29   0  16   11.24    3.04
 -30   0  16    0.18    1.48
 -31   0  16    1.16    0.90
 -32   0  16   -1.01    1.34
  22   0  17    3.07    1.41
  21   0  17   -2.17    1.30
  20   0  17   -0.18    1.01
  19   0  17    0.40    0.94
  18   0  17    1.23    1.37
  17   0  17   -0.72    0.79
  16   0  17    1.23    0.87
  15   0  17    0.79    1.26
  14   0  17    0.79    0.76
  13   0  17    0.25    0.69
  12   0  17   -1.30    1.16
  11   0  17   -2.38    1.01
  10   0  17   -0.90    0.83
   9   0  17    0.79    0.54
   8   0  17    0.54    0.76
   7   0  17    0.58    0.83
   6   0  17    0.65    0.87
   5   0  17    0.98    0.65
   4   0  17    0.83    0.90
   3   0  17    0.61    0.90
   2   0  17    1.12    0.72
  -2   0  17   -0.11    0.54
  -3   0  17   -0.40    0.72
  -5   0  17    0.04    0.61
  -8   0  17    1.45    1.01
  -9   0  17    1.48    0.69
 -12   0  17   -0.61    0.65
 -13   0  17    0.11    0.72
 -14   0  17    0.04    0.61
 -15   0  17    0.69    0.61
 -16   0  17    0.72    0.69
 -17   0  17   -0.90    0.54
 -18   0  17    0.69    0.83
 -19   0  17    0.61    0.79
 -20   0  17    0.25    0.94
 -21   0  17    0.36    0.65
 -22   0  17    1.41    1.41
 -23   0  17    1.05    0.65
 -24   0  17    0.07    1.01
 -25   0  17    0.07    0.90
 -26   0  17   -0.07    0.87
 -27   0  17    0.47    1.05
 -28   0  17    4.81    2.06
 -29   0  17   -1.88    2.06
 -30   0  17    0.22    0.87
 -31   0  17    0.47    1.37
  21   0  18   -0.87    1.52
  20   0  18   83.97    3.47
  19   0  18   62.29    2.42
  18   0  18    2.89    0.83
  17   0  18   13.12    1.63
  16   0  18    4.62    0.79
  15   0  18  242.30    9.54
  14   0  18  104.02    3.36
  13   0  18   55.25    2.71
  12   0  18   -0.79    0.90
  11   0  18    3.22    0.72
  10   0  18  140.63    5.49
   9   0  18  106.30    5.09
   8   0  18  145.65    5.13
   7   0  18   22.47    1.37
   6   0  18   49.18    2.93
   5   0  18  347.77   14.31
   4   0  18  509.93   20.96
   2   0  18    0.18    1.26
   1   0  18  297.26   12.18
   0   0  18   53.01    2.24
  -2   0  18   39.56    2.06
  -3   0  18   71.69    4.48
  -4   0  18  365.15   14.53
  -5   0  18   68.76    4.16
  -6   0  18   40.43    1.52
  -7   0  18   69.16    2.67
  -8   0  18   17.16    1.66
 -10   0  18  123.10    4.52
 -12   0  18   12.72    1.08
 -14   0  18   57.52    2.75
 -15   0  18    5.85    0.69
 -16   0  18    0.33    0.83
 -17   0  18   11.35    1.26
 -18   0  18   34.33    2.10
 -19   0  18    0.58    0.83
 -20   0  18    0.04    0.76
 -21   0  18    1.52    0.79
 -22   0  18    4.81    1.45
 -23   0  18    1.37    0.98
 -24   0  18   11.24    1.05
 -25   0  18    1.08    1.05
 -27   0  18   -0.69    1.95
 -28   0  18   14.53    1.23
 -29   0  18   -0.33    0.98
  19   0  19    1.55    1.05
  18   0  19   -0.76    1.05
  17   0  19   -0.25    0.94
  16   0  19    0.18    0.94
  15   0  19   -0.25    0.87
  14   0  19   -1.59    1.12
  13   0  19    0.40    0.87
  12   0  19    0.47    0.83
  11   0  19   -1.81    1.12
  10   0  19    0.79    0.69
   9   0  19    0.90    0.87
   8   0  19    0.11    0.61
   7   0  19    0.14    0.76
   6   0  19    0.98    0.79
   3   0  19   -0.33    1.12
   1   0  19    0.22    0.94
  -3   0  19   -0.43    0.51
  -4   0  19    0.76    0.43
  -5   0  19   -0.22    0.76
  -6   0  19   -0.65    0.61
  -7   0  19    0.90    0.47
  -8   0  19    0.40    0.58
  -9   0  19   -1.81    0.76
 -10   0  19   -1.26    1.05
 -11   0  19    0.33    0.72
 -12   0  19   -2.31    1.16
 -13   0  19    1.19    0.69
 -14   0  19    0.69    1.05
 -15   0  19    1.23    1.12
 -16   0  19   -0.72    0.90
 -17   0  19   -1.81    0.98
 -18   0  19    0.90    0.69
 -19   0  19    1.19    1.41
 -20   0  19    0.83    0.72
 -21   0  19   -0.25    1.55
 -22   0  19   -0.76    0.94
 -23   0  19    0.65    1.05
 -24   0  19   -1.70    1.55
 -25   0  19   -1.45    1.63
 -26   0  19    3.22    2.13
 -27   0  19    0.00    1.37
 -28   0  19   -1.45    2.13
  18   0  20   30.53    2.24
  17   0  20   52.79    3.14
  15   0  20   97.30    4.99
  14   0  20    0.76    0.79
  13   0  20   46.10    2.31
  12   0  20    2.42    1.01
  11   0  20    4.34    1.01
  10   0  20   75.55    3.29
   9   0  20  115.30    4.23
   8   0  20    4.48    0.83
   7   0  20   11.56    1.73
   4   0  20    1.34    1.19
   1   0  20  145.79    4.91
   0   0  20  357.13   17.70
  -1   0  20  111.76    3.94
  -2   0  20   80.39    2.60
  -3   0  20   30.60    2.13
  -4   0  20    1.66    0.72
  -5   0  20  143.41    6.87
  -7   0  20    9.83    1.26
  -8   0  20   15.54    1.48
  -9   0  20   17.81    1.23
 -10   0  20   13.80    0.90
 -11   0  20   19.80    1.91
 -12   0  20   43.90    2.06
 -13   0  20   14.09    1.23
 -14   0  20    7.01    0.94
 -15   0  20   -0.79    1.01
 -17   0  20    0.65    1.70
 -18   0  20   24.43    1.70
 -19   0  20    3.54    1.45
 -20   0  20   30.13    2.13
 -21   0  20    0.04    1.59
 -22   0  20    4.48    1.19
 -23   0  20    4.12    0.98
 -24   0  20   17.31    1.26
 -26   0  20    0.07    1.30
 -27   0  20   -1.99    1.45
  16   0  21    1.12    1.05
  15   0  21    0.29    1.73
  14   0  21    0.25    1.05
  13   0  21    0.18    0.90
  12   0  21   -0.58    1.19
  11   0  21   -0.07    1.99
  10   0  21   -1.01    0.94
   9   0  21   -0.22    1.37
   8   0  21   -0.04    0.87
   7   0  21   -0.76    1.01
   5   0  21   -1.95    1.66
   4   0  21    1.08    0.87
   3   0  21    0.61    0.76
   1   0  21   -0.36    1.01
   0   0  21   -0.47    0.76
  -9   0  21    1.01    0.98
 -10   0  21   -1.52    1.05
 -11   0  21    0.40    0.58
 -12   0  21    0.25    0.76
 -14   0  21    0.18    1.30
 -15   0  21    0.69    1.37
 -17   0  21    2.24    1.23
 -19   0  21    1.08    0.94
 -20   0  21   -1.16    2.02
 -21   0  21   -1.34    1.12
 -22   0  21   -1.45    0.76
 -23   0  21   -0.43    0.83
 -24   0  21    1.19    2.38
 -27   0  21   -0.94    2.20
  14   0  22   10.55    1.23
  12   0  22   10.62    1.66
  11   0  22   11.35    1.16
   9   0  22   76.96    5.85
   8   0  22   73.64    4.44
   7   0  22    6.65    1.23
   4   0  22    4.48    1.23
   2   0  22    0.22    0.83
  -1   0  22   92.90    4.77
  -5   0  22   29.34    2.53
 -12   0  22   20.99    1.55
 -13   0  22    1.52    1.16
 -20   0  22   48.81    2.71
 -21   0  22    1.23    0.87
 -22   0  22    1.19    1.63
 -24   0  22    7.15    1.63
  10   0  23   -0.04    1.81
   5   0  23   -0.04    1.77
   4   0  23    0.18    0.61
   0   0  23    0.25    1.05
 -14   0  23   -0.58    1.23
 -20   0  23   -0.76    1.84
 -21   0  23    0.94    1.12
 -22   0  23   -0.47    1.08
   8   0  24   -0.98    1.48
 -20   0  24   25.18    2.20
  15  -1 -25    0.94    1.73
  13  -1 -25    4.41    0.98
  -3  -1 -25   27.42    2.10
  14  -1 -24    1.37    1.01
  13  -1 -24    0.54    0.87
  11  -1 -24    1.45    1.30
  10  -1 -24    2.82    0.65
   9  -1 -24   21.79    2.06
   8  -1 -24    3.36    0.98
   7  -1 -24    5.09    0.87
   4  -1 -24   13.40    0.94
   1  -1 -24    0.69    0.94
   0  -1 -24    0.69    0.79
  -2  -1 -24   16.77    1.23
  -4  -1 -24    1.08    1.99
  -5  -1 -24    3.83    1.26
  -7  -1 -24    0.69    2.10
  20  -1 -23   30.21    2.89
  19  -1 -23    0.25    1.05
  15  -1 -23   -0.54    0.90
  14  -1 -23    1.91    1.01
  13  -1 -23    0.69    1.63
  12  -1 -23   18.43    1.41
  10  -1 -23    0.94    0.69
   6  -1 -23    1.34    0.94
   4  -1 -23    4.08    0.83
   3  -1 -23    0.33    1.12
   2  -1 -23    0.22    1.01
   1  -1 -23   83.57    5.42
   0  -1 -23    9.76    0.98
  -1  -1 -23   92.28    6.87
  -2  -1 -23   13.08    1.77
  -3  -1 -23   35.99    2.67
  -6  -1 -23    1.88    1.08
  -9  -1 -23   39.71    3.32
 -10  -1 -23    2.78    1.08
 -11  -1 -23   34.33    3.22
  22  -1 -22    2.82    1.23
  20  -1 -22   -0.47    0.72
  19  -1 -22   -2.17    1.66
  18  -1 -22    4.08    1.55
  17  -1 -22    5.46    0.98
  16  -1 -22   -0.25    0.87
  15  -1 -22   -0.94    1.19
  13  -1 -22    6.07    1.45
  12  -1 -22   -1.66    1.48
  11  -1 -22   -0.07    1.55
  10  -1 -22   -0.14    1.05
   8  -1 -22   19.76    2.28
   6  -1 -22   -0.04    0.61
   5  -1 -22   16.19    2.06
   3  -1 -22    0.14    0.87
   2  -1 -22   58.90    2.64
   1  -1 -22   31.22    2.46
  -4  -1 -22    8.24    0.76
  -6  -1 -22   34.04    3.04
  -7  -1 -22    2.02    1.08
  -9  -1 -22    2.13    1.16
 -10  -1 -22   28.72    2.17
 -11  -1 -22    3.61    1.30
 -12  -1 -22   -0.51    0.94
 -13  -1 -22    0.79    0.90
  27  -1 -21    1.30    1.66
  25  -1 -21    0.18    0.79
  24  -1 -21    1.70    0.87
  23  -1 -21    0.40    1.01
  22  -1 -21    0.43    1.01
  21  -1 -21    0.33    0.83
  20  -1 -21   15.21    1.30
  19  -1 -21    1.88    0.98
  18  -1 -21    9.72    1.26
  17  -1 -21   -0.11    1.01
  14  -1 -21   41.62    2.06
  13  -1 -21    7.05    1.08
  12  -1 -21    0.43    1.16
  10  -1 -21   20.16    1.66
   9  -1 -21    6.94    0.87
   8  -1 -21   26.16    2.24
   7  -1 -21   21.53    1.66
   5  -1 -21   47.26    3.32
   4  -1 -21    6.76    1.26
   3  -1 -21   10.70    1.26
   2  -1 -21  160.14    9.68
   0  -1 -21   40.76    2.28
  -1  -1 -21   13.55    1.05
  -5  -1 -21  218.02   10.77
  -6  -1 -21   38.95    1.91
  -7  -1 -21    3.11    1.19
  -8  -1 -21   19.94    1.37
  -9  -1 -21  162.41    5.82
 -10  -1 -21    1.19    1.08
 -11  -1 -21    2.57    1.08
 -12  -1 -21   -0.65    1.30
 -13  -1 -21   47.95    2.60
 -14  -1 -21    3.69    1.12
 -15  -1 -21    9.68    1.41
 -16  -1 -21   11.27    2.31
  28  -1 -20   -0.61    1.55
  25  -1 -20    1.70    1.41
  24  -1 -20    0.43    0.83
  23  -1 -20    3.94    0.98
  22  -1 -20    0.90    0.79
  21  -1 -20   11.49    1.19
  20  -1 -20    0.69    1.08
  19  -1 -20    0.18    0.83
  18  -1 -20    0.47    0.65
  17  -1 -20   10.12    1.01
  16  -1 -20    1.26    1.01
  15  -1 -20    8.49    1.05
  14  -1 -20    2.53    0.94
  12  -1 -20   10.91    0.90
  11  -1 -20    9.18    0.98
   9  -1 -20    1.30    0.58
   7  -1 -20    7.01    1.55
   5  -1 -20   21.43    1.26
   4  -1 -20   63.30    3.79
   3  -1 -20    3.94    1.16
   1  -1 -20   21.06    2.10
  -2  -1 -20  104.10    4.52
  -3  -1 -20    0.22    0.76
  -4  -1 -20   31.11    1.91
  -5  -1 -20    3.07    1.77
  -6  -1 -20   32.74    1.66
  -7  -1 -20   68.76    2.71
  -8  -1 -20   -0.94    0.87
  -9  -1 -20    0.83    0.94
 -10  -1 -20   20.70    1.63
 -11  -1 -20   20.13    1.41
 -12  -1 -20   32.48    1.55
 -13  -1 -20   21.61    1.59
 -14  -1 -20   23.38    1.84
 -15  -1 -20    8.96    1.23
 -16  -1 -20   63.85    2.13
 -17  -1 -20  122.31    4.30
 -18  -1 -20   -0.72    0.83
  28  -1 -19    2.06    0.90
  26  -1 -19    0.76    0.90
  25  -1 -19   -0.11    1.12
  24  -1 -19    6.87    0.90
  23  -1 -19    2.06    1.23
  22  -1 -19    4.01    0.87
  20  -1 -19   16.84    1.34
  19  -1 -19    3.11    0.69
  18  -1 -19    8.06    0.98
  17  -1 -19    4.48    0.72
  16  -1 -19   11.49    1.16
  15  -1 -19    1.19    0.69
  14  -1 -19   78.55    3.47
  13  -1 -19    0.22    0.79
  12  -1 -19    1.95    0.94
  11  -1 -19    4.95    0.87
  10  -1 -19   13.80    1.08
   9  -1 -19   17.85    1.66
   7  -1 -19   75.62    3.36
   4  -1 -19    0.58    0.90
   3  -1 -19    7.37    0.79
   2  -1 -19   72.01    2.93
   1  -1 -19    0.36    0.72
   0  -1 -19   84.15    4.91
  -3  -1 -19   52.39    3.00
  -4  -1 -19   18.61    1.23
  -5  -1 -19  167.51    5.67
  -6  -1 -19   17.02    1.95
  -7  -1 -19    1.12    0.83
  -8  -1 -19   43.86    2.42
  -9  -1 -19  179.39    6.00
 -10  -1 -19   24.61    1.63
 -11  -1 -19   15.68    1.12
 -12  -1 -19   15.68    1.37
 -13  -1 -19   96.29    3.14
 -14  -1 -19   15.14    1.52
 -15  -1 -19   49.32    1.88
 -16  -1 -19    2.35    1.01
 -17  -1 -19    2.96    0.87
 -18  -1 -19   12.28    1.08
 -19  -1 -19   22.11    1.30
  27  -1 -18    1.91    1.01
  26  -1 -18    5.78    1.70
  25  -1 -18    4.30    0.90
  24  -1 -18    1.55    1.59
  23  -1 -18   -0.40    0.83
  22  -1 -18    1.95    1.34
  21  -1 -18    3.83    0.83
  20  -1 -18    1.55    0.83
  19  -1 -18   -0.65    0.76
  18  -1 -18    1.01    0.79
  17  -1 -18    5.42    1.12
  16  -1 -18    1.12    0.83
  15  -1 -18   21.68    1.23
  14  -1 -18    4.77    1.16
  13  -1 -18   29.12    1.55
  12  -1 -18    5.93    0.76
  11  -1 -18   63.81    2.71
  10  -1 -18   -0.22    0.72
   7  -1 -18   95.28    5.06
   6  -1 -18  218.13    7.41
   5  -1 -18   85.78    3.65
   0  -1 -18   46.03    3.29
  -1  -1 -18    1.23    0.90
  -2  -1 -18  194.46   10.44
  -3  -1 -18    9.07    1.23
  -4  -1 -18    2.10    1.34
  -5  -1 -18  560.04   12.36
  -6  -1 -18    2.35    0.79
  -7  -1 -18   14.53    1.08
  -8  -1 -18   24.89    1.34
  -9  -1 -18   26.88    1.52
 -10  -1 -18   23.09    1.08
 -11  -1 -18   69.34    2.42
 -12  -1 -18  119.34    3.36
 -13  -1 -18   18.90    1.84
 -14  -1 -18   27.24    1.16
 -15  -1 -18   -0.36    1.01
 -16  -1 -18   54.67    2.75
 -17  -1 -18   29.05    2.28
 -18  -1 -18   92.46    3.00
 -19  -1 -18   39.56    2.49
 -20  -1 -18   11.27    1.23
 -21  -1 -18    5.09    1.01
  32  -1 -17    0.83    1.88
  29  -1 -17    3.07    1.01
  28  -1 -17    1.37    0.94
  27  -1 -17    2.02    1.12
  26  -1 -17    8.67    1.08
  25  -1 -17    2.60    0.79
  24  -1 -17    3.54    1.12
  23  -1 -17    1.08    0.79
  22  -1 -17    7.23    0.79
  20  -1 -17    6.07    1.05
  19  -1 -17    1.26    0.72
  18  -1 -17   43.65    1.66
  17  -1 -17    1.84    0.76
  16  -1 -17    0.72    0.98
  15  -1 -17    3.83    1.41
  14  -1 -17  104.28    6.50
  13  -1 -17   -0.94    0.98
  12  -1 -17    6.21    0.61
  11  -1 -17    7.91    0.79
  10  -1 -17   77.76    3.32
   9  -1 -17   28.58    1.48
   8  -1 -17    2.67    0.69
   7  -1 -17  121.08    7.19
   6  -1 -17   18.68    0.98
   5  -1 -17  101.02    6.36
   3  -1 -17   98.42    6.18
   2  -1 -17    3.07    1.23
   1  -1 -17    3.07    0.54
   0  -1 -17   18.14    1.30
  -1  -1 -17  405.47   17.60
  -2  -1 -17   24.46    1.34
  -3  -1 -17  175.64    5.09
  -4  -1 -17   21.72    1.30
  -5  -1 -17  168.30    4.81
  -6  -1 -17  469.03   13.48
  -7  -1 -17  198.22    7.05
  -8  -1 -17    2.75    0.72
  -9  -1 -17  547.00   13.59
 -10  -1 -17   53.19    3.54
 -11  -1 -17    0.33    0.87
 -12  -1 -17   22.65    1.08
 -13  -1 -17   62.58    2.46
 -14  -1 -17   -1.55    1.01
 -15  -1 -17  182.94    5.82
 -16  -1 -17   55.28    2.38
 -17  -1 -17   25.15    1.48
 -18  -1 -17    5.56    1.08
 -19  -1 -17   24.28    1.55
 -20  -1 -17   66.01    6.72
 -21  -1 -17    5.71    0.94
 -22  -1 -17    7.12    1.77
  32  -1 -16   -0.54    1.23
  31  -1 -16    0.69    0.87
  30  -1 -16    6.07    1.48
  29  -1 -16    0.72    0.87
  28  -1 -16    4.66    0.76
  27  -1 -16    6.14    1.55
  26  -1 -16    8.96    1.34
  25  -1 -16   18.50    3.18
  24  -1 -16    1.66    0.87
  23  -1 -16   26.70    3.11
  22  -1 -16   17.02    1.41
  21  -1 -16    1.70    0.98
  20  -1 -16    1.70    1.30
  19  -1 -16    4.34    0.98
  18  -1 -16   16.44    1.41
  17  -1 -16    3.72    0.90
  16  -1 -16    1.34    0.76
  15  -1 -16  109.77    3.43
  14  -1 -16   41.70    2.57
  13  -1 -16   17.31    1.05
  12  -1 -16   77.36    2.96
  11  -1 -16  263.51    8.24
  10  -1 -16   76.53    3.94
   9  -1 -16   84.91    3.50
   8  -1 -16    1.37    1.08
   7  -1 -16  945.82   37.72
   4  -1 -16  117.07    6.61
   2  -1 -16  163.32    9.43
   1  -1 -16  187.20   11.20
   0  -1 -16   32.30    1.95
  -1  -1 -16  107.49    4.95
  -2  -1 -16  344.55   15.90
  -3  -1 -16    6.61    0.54
  -4  -1 -16   18.25    1.12
  -5  -1 -16  177.66    8.27
  -6  -1 -16   47.77    1.81
  -7  -1 -16  101.39    3.58
  -8  -1 -16   59.94    2.35
  -9  -1 -16    3.22    0.76
 -10  -1 -16   47.26    2.06
 -11  -1 -16   43.32    1.99
 -12  -1 -16  218.53   11.20
 -13  -1 -16    6.61    0.65
 -14  -1 -16  229.69    8.74
 -15  -1 -16    1.52    1.01
 -16  -1 -16  127.98    9.68
 -17  -1 -16   19.04    1.16
 -18  -1 -16  117.75    4.44
 -19  -1 -16    4.44    1.19
 -20  -1 -16    9.72    1.59
 -21  -1 -16   10.44    1.45
 -22  -1 -16    1.59    0.83
 -23  -1 -16   -1.41    1.16
 -24  -1 -16    2.02    1.12
  32  -1 -15   -0.83    0.76
  31  -1 -15    2.57    1.55
  30  -1 -15    1.77    0.61
  29  -1 -15    5.82    1.23
  28  -1 -15   -1.05    1.99
  27  -1 -15   -0.07    1.19
  26  -1 -15   20.92    1.81
  25  -1 -15    4.77    2.57
  24  -1 -15   -0.58    0.69
  23  -1 -15    4.01    1.84
  22  -1 -15   28.87    1.41
  21  -1 -15    1.08    0.69
  20  -1 -15    2.28    2.35
  19  -1 -15   25.44    1.84
  18  -1 -15   23.09    2.78
  17  -1 -15   10.15    1.26
  16  -1 -15   19.01    1.23
  15  -1 -15   29.77    1.48
  14  -1 -15  171.19    5.35
  13  -1 -15   60.16    2.13
  12  -1 -15   63.70    2.02
  11  -1 -15  195.65    5.85
  10  -1 -15  397.49   10.70
   9  -1 -15   26.85    0.94
   8  -1 -15  348.35   10.51
   7  -1 -15  250.29    5.67
   6  -1 -15  146.12    7.91
   5  -1 -15  101.35    4.34
   4  -1 -15   71.14    3.65
   3  -1 -15  198.11    7.30
   2  -1 -15   13.66    1.01
   0  -1 -15    1.52    0.69
  -1  -1 -15  992.22   27.46
  -2  -1 -15   28.54    1.63
  -3  -1 -15  109.05    3.90
  -4  -1 -15    6.90    0.65
  -5  -1 -15  360.20   12.32
  -6  -1 -15  258.49    9.14
  -7  -1 -15  900.84   17.27
  -8  -1 -15   44.26    2.71
  -9  -1 -15  149.88    4.84
 -10  -1 -15    1.63    0.54
 -11  -1 -15  174.84    5.02
 -12  -1 -15  136.47    4.48
 -13  -1 -15   70.78    2.24
 -14  -1 -15   89.90    3.79
 -15  -1 -15  298.59   12.79
 -16  -1 -15    5.64    0.90
 -17  -1 -15    6.29    1.41
 -18  -1 -15   96.47    4.26
 -19  -1 -15  128.20    5.42
 -20  -1 -15   52.86    2.13
 -21  -1 -15    2.96    1.55
 -22  -1 -15   48.45    1.88
 -23  -1 -15   45.02    2.60
 -24  -1 -15    4.16    2.31
 -25  -1 -15    1.73    1.12
  33  -1 -14   -0.58    1.08
  32  -1 -14    5.64    1.41
  31  -1 -14    1.01    1.05
  29  -1 -14   14.96    1.45
  28  -1 -14    0.72    0.79
  27  -1 -14    1.48    0.83
  26  -1 -14    7.15    1.12
  25  -1 -14    0.83    1.41
  24  -1 -14   18.86    1.45
  23  -1 -14    1.84    0.87
  22  -1 -14   33.31    2.02
  21  -1 -14   -2.13    1.30
  20  -1 -14   29.30    2.53
  19  -1 -14   73.78    3.43
  18  -1 -14   22.98    1.81
  17  -1 -14    0.90    1.26
  16  -1 -14    1.12    0.94
  15  -1 -14  234.57    5.89
  14  -1 -14    9.83    1.23
  13  -1 -14   14.89    1.01
  12  -1 -14  104.49    2.85
  11  -1 -14  501.29   12.00
  10  -1 -14    3.65    0.58
   9  -1 -14   58.50    2.02
   8  -1 -14   72.30    2.89
   7  -1 -14   59.94    1.99
   6  -1 -14  336.75   10.51
   5  -1 -14  280.42    9.25
   4  -1 -14  354.27   11.53
   3  -1 -14  140.84    5.53
   2  -1 -14    8.35    1.37
   1  -1 -14   54.78    4.08
   0  -1 -14   75.05    4.30
  -1  -1 -14  266.33    9.36
  -2  -1 -14  177.88    6.36
  -3  -1 -14  118.66    3.29
  -4  -1 -14  370.14    8.89
  -5  -1 -14   98.39    3.11
  -6  -1 -14   60.45    1.95
  -7  -1 -14  135.17    5.42
  -8  -1 -14    6.29    0.72
  -9  -1 -14  136.58    5.06
 -10  -1 -14  328.69    8.24
 -11  -1 -14   82.81    3.72
 -12  -1 -14  402.11   12.47
 -13  -1 -14  718.63   18.68
 -14  -1 -14  283.78    9.57
 -15  -1 -14    3.50    1.12
 -16  -1 -14   12.43    2.06
 -17  -1 -14   10.98    1.23
 -18  -1 -14  191.35    6.36
 -19  -1 -14   19.73    2.57
 -20  -1 -14   -0.43    0.76
 -21  -1 -14   17.49    1.84
 -22  -1 -14   16.22    1.52
 -23  -1 -14   28.33    3.76
 -24  -1 -14   21.06    1.45
 -25  -1 -14    2.64    1.01
 -26  -1 -14    4.48    0.94
  34  -1 -13    0.25    0.87
  33  -1 -13    2.71    1.19
  32  -1 -13    0.61    1.34
  31  -1 -13    5.74    0.87
  30  -1 -13    4.41    0.98
  29  -1 -13    7.95    0.94
  28  -1 -13   13.98    1.16
  27  -1 -13    9.83    0.90
  26  -1 -13   31.11    2.67
  25  -1 -13   16.08    1.26
  24  -1 -13   24.82    2.82
  23  -1 -13   23.92    1.37
  22  -1 -13  126.17    3.94
  21  -1 -13   36.57    2.13
  20  -1 -13   50.33    2.02
  19  -1 -13   18.72    1.08
  18  -1 -13   35.63    1.84
  17  -1 -13   26.70    1.66
  16  -1 -13   74.90    3.22
  15  -1 -13   53.48    3.87
  14  -1 -13   10.12    0.76
  13  -1 -13   94.88    3.04
  12  -1 -13  288.15    7.73
  11  -1 -13   89.28    3.00
  10  -1 -13  114.10    4.30
   9  -1 -13  104.13    3.04
   8  -1 -13  116.13    3.54
   7  -1 -13  100.01    3.32
   6  -1 -13  327.61   10.01
   5  -1 -13  632.96   19.87
   4  -1 -13 1323.30   36.20
   3  -1 -13   78.23    3.14
   2  -1 -13    0.29    0.61
   0  -1 -13  876.20   21.03
  -1  -1 -13   62.62    3.07
  -2  -1 -13    0.65    0.51
  -3  -1 -13  463.21   11.78
  -4  -1 -13  494.32   12.32
  -5  -1 -13   76.13    1.95
  -6  -1 -13   50.08    2.75
  -7  -1 -13  532.33   15.54
  -8  -1 -13  490.60   12.75
  -9  -1 -13   87.48    3.61
 -10  -1 -13  207.25    6.72
 -11  -1 -13  235.62    8.92
 -12  -1 -13   61.89    2.89
 -13  -1 -13   98.78    4.05
 -14  -1 -13  870.24   30.93
 -15  -1 -13  559.36   19.98
 -17  -1 -13   11.31    1.08
 -18  -1 -13  116.67    4.05
 -19  -1 -13  545.63   16.51
 -20  -1 -13   24.61    1.73
 -21  -1 -13   20.85    1.41
 -22  -1 -13   86.68    3.76
 -23  -1 -13   65.04    3.58
 -24  -1 -13   10.66    1.30
 -25  -1 -13   12.75    1.01
 -26  -1 -13   61.06    5.35
 -27  -1 -13   24.71    2.02
  34  -1 -12    3.65    1.16
  33  -1 -12    2.31    0.90
  32  -1 -12    1.16    1.34
  31  -1 -12    1.55    2.31
  30  -1 -12    0.14    0.76
  29  -1 -12    9.57    1.59
  28  -1 -12    1.34    0.61
  27  -1 -12   23.77    1.37
  26  -1 -12    0.43    1.34
  25  -1 -12    4.44    0.79
  24  -1 -12   -0.36    0.94
  23  -1 -12   23.31    1.23
  22  -1 -12  173.25    6.72
  21  -1 -12  196.96    6.54
  20  -1 -12   11.49    1.19
  19  -1 -12   31.22    1.84
  18  -1 -12   45.31    1.84
  17  -1 -12   61.39    2.17
  16  -1 -12    2.20    0.98
  15  -1 -12   28.69    1.48
  14  -1 -12  671.91   19.44
  13  -1 -12    5.35    0.90
  12  -1 -12   -2.02    0.90
  11  -1 -12  470.80   14.81
  10  -1 -12  117.54    3.54
   9  -1 -12    8.24    0.61
   8  -1 -12  367.61   10.08
   7  -1 -12    2.38    0.43
   6  -1 -12   14.67    1.05
   5  -1 -12    2.38    0.51
   4  -1 -12  352.83    7.95
   3  -1 -12  274.78    8.82
   2  -1 -12   25.73    2.38
   1  -1 -12  586.89   24.17
   0  -1 -12  131.99    4.08
  -1  -1 -12  963.78   21.46
  -2  -1 -12   53.11    2.20
  -3  -1 -12    2.06    0.43
  -4  -1 -12 2640.45   87.91
  -5  -1 -12   10.51    1.05
  -6  -1 -12   11.89    0.90
  -7  -1 -12  177.66    4.95
  -9  -1 -12 1090.53   25.87
 -10  -1 -12  583.75   17.49
 -11  -1 -12  124.98    4.26
 -12  -1 -12  151.68    5.35
 -13  -1 -12    3.65    1.52
 -14  -1 -12  386.25   17.52
 -15  -1 -12  126.24    6.29
 -16  -1 -12  289.13   14.92
 -17  -1 -12   43.39    2.13
 -19  -1 -12  103.70    3.83
 -20  -1 -12   -0.29    0.69
 -21  -1 -12    7.99    2.46
 -22  -1 -12    1.05    1.12
 -23  -1 -12   32.37    2.85
 -24  -1 -12    0.61    1.37
 -25  -1 -12    1.81    1.19
 -26  -1 -12   67.71    3.07
 -27  -1 -12    0.40    2.42
 -28  -1 -12   16.26    1.48
  35  -1 -11    4.23    0.76
  34  -1 -11    0.94    1.08
  33  -1 -11    6.83    1.45
  32  -1 -11    0.54    0.98
  31  -1 -11   21.86    1.37
  30  -1 -11    0.14    0.72
  29  -1 -11    7.55    1.45
  28  -1 -11   34.94    1.84
  27  -1 -11   57.88    2.67
  26  -1 -11    9.68    0.83
  25  -1 -11    1.95    1.01
  24  -1 -11   11.27    1.05
  23  -1 -11  127.04    6.00
  22  -1 -11   16.98    1.37
  21  -1 -11   68.07    2.96
  20  -1 -11  264.27    6.94
  19  -1 -11   78.55    2.64
  18  -1 -11    5.35    0.90
  17  -1 -11   12.97    1.05
  16  -1 -11  615.07   16.73
  15  -1 -11  130.87    7.59
  14  -1 -11   16.77    1.26
  13  -1 -11   51.74    2.38
  12  -1 -11  579.81   16.19
  11  -1 -11  593.72   14.63
  10  -1 -11    8.06    0.94
   9  -1 -11   63.74    2.78
   8  -1 -11  862.00   23.27
   7  -1 -11  234.35    6.07
   6  -1 -11  148.21    5.93
   5  -1 -11   42.67    1.66
   4  -1 -11  571.43   25.40
   3  -1 -11  314.49   10.88
   2  -1 -11  214.52   12.28
   1  -1 -11 1000.71   24.39
   0  -1 -11 1442.02   60.63
  -1  -1 -11  262.57    7.15
  -2  -1 -11 1429.45   34.72
  -3  -1 -11   48.09    1.77
  -4  -1 -11  455.15   20.60
  -5  -1 -11 1633.16   41.95
  -6  -1 -11  492.69   11.67
  -7  -1 -11  628.66   14.60
  -8  -1 -11  539.23   16.37
  -9  -1 -11  950.23   37.00
 -10  -1 -11  655.83   14.16
 -11  -1 -11  425.20   14.42
 -12  -1 -11   39.75    1.88
 -13  -1 -11  170.65    9.43
 -14  -1 -11  370.68   12.36
 -15  -1 -11    2.89    1.08
 -16  -1 -11  160.25    5.42
 -17  -1 -11  313.62   17.34
 -18  -1 -11    4.99    0.98
 -20  -1 -11  212.42    6.50
 -21  -1 -11  154.57    5.85
 -22  -1 -11    6.29    1.52
 -23  -1 -11   91.31    3.61
 -24  -1 -11   73.06    3.22
 -25  -1 -11   95.57    4.44
 -26  -1 -11    8.13    0.87
 -27  -1 -11    0.51    1.26
 -29  -1 -11   63.48    2.71
  35  -1 -10    1.34    1.84
  34  -1 -10    0.29    1.01
  33  -1 -10    6.36    0.98
  31  -1 -10   -0.25    0.69
  30  -1 -10    0.29    0.87
  29  -1 -10    9.29    1.01
  28  -1 -10   -0.76    0.72
  27  -1 -10   10.73    1.08
  26  -1 -10   -2.24    0.94
  25  -1 -10   -0.72    1.08
  24  -1 -10    7.88    0.87
  22  -1 -10   98.71    3.43
  21  -1 -10   11.38    1.37
  20  -1 -10   35.84    1.55
  19  -1 -10  194.61    6.47
  18  -1 -10   20.49    1.23
  17  -1 -10   33.24    1.41
  16  -1 -10   30.17    1.52
  15  -1 -10  739.48   16.55
  14  -1 -10 1248.57   27.82
  13  -1 -10    0.18    0.65
  12  -1 -10  112.08    4.30
  11  -1 -10    9.57    0.69
   9  -1 -10   13.62    1.63
   8  -1 -10 1034.96   21.46
   7  -1 -10  156.60    7.73
   6  -1 -10  157.14    4.30
   5  -1 -10    4.88    0.43
   4  -1 -10  491.29   15.25
   3  -1 -10  373.71   10.59
   2  -1 -10   32.95    1.70
   1  -1 -10  202.92    9.54
   0  -1 -10   90.44    3.69
  -1  -1 -10   55.53    1.91
  -2  -1 -10   55.75    2.42
  -3  -1 -10  248.08    7.41
  -4  -1 -10  657.67   19.80
  -5  -1 -10  194.17    5.78
  -6  -1 -10  325.04    9.57
  -7  -1 -10   84.73    4.16
  -8  -1 -10  564.31   23.49
  -9  -1 -10  418.37   13.95
 -10  -1 -10  186.66   10.73
 -11  -1 -10  361.32    8.31
 -12  -1 -10  239.12   13.98
 -13  -1 -10   65.18    3.43
 -14  -1 -10 1066.51   33.53
 -15  -1 -10   65.87    3.18
 -16  -1 -10   24.10    1.55
 -17  -1 -10   33.53    2.31
 -18  -1 -10    1.73    0.83
 -19  -1 -10   62.80    2.75
 -20  -1 -10   -1.45    2.10
 -21  -1 -10   65.40    3.40
 -22  -1 -10   60.95    2.75
 -23  -1 -10   11.67    1.45
 -24  -1 -10   14.06    1.30
 -25  -1 -10    0.98    0.58
 -26  -1 -10   18.39    1.34
 -27  -1 -10    8.27    0.94
 -28  -1 -10   19.26    1.48
 -29  -1 -10   20.20    1.95
 -30  -1 -10    4.99    1.26
  34  -1  -9    1.73    0.79
  33  -1  -9    0.51    0.58
  32  -1  -9    1.91    0.83
  31  -1  -9   12.54    1.12
  30  -1  -9    1.34    0.79
  29  -1  -9    1.30    0.69
  28  -1  -9   21.17    1.34
  27  -1  -9  127.40    5.13
  26  -1  -9    1.63    0.61
  25  -1  -9    0.00    0.83
  24  -1  -9   25.18    2.46
  23  -1  -9   29.59    1.37
  21  -1  -9   40.87    2.71
  19  -1  -9   20.88    1.88
  18  -1  -9   35.26    1.66
  17  -1  -9   87.66    3.29
  16  -1  -9   72.12    3.25
  15  -1  -9  507.15   16.22
  14  -1  -9 1844.57   39.28
  13  -1  -9  330.93   11.13
  12  -1  -9  901.56   27.10
  11  -1  -9   13.33    1.23
  10  -1  -9  154.17    4.84
   9  -1  -9  295.49    6.90
   8  -1  -9  704.50   27.10
   7  -1  -9  549.49   12.25
   6  -1  -9 1066.25   20.27
   5  -1  -9  304.66    9.76
   4  -1  -9   83.32    2.67
   3  -1  -9  952.65   30.78
   2  -1  -9 3347.19   74.65
   1  -1  -9  264.67    7.77
   0  -1  -9 3656.59   91.92
  -1  -1  -9  566.95   13.12
  -2  -1  -9 1388.40   31.94
  -3  -1  -9   38.55    2.13
  -4  -1  -9    8.78    0.69
  -5  -1  -9 1131.43   33.31
  -6  -1  -9 1833.98   34.36
  -7  -1  -9 1560.14   30.75
  -8  -1  -9   23.12    1.45
  -9  -1  -9 1312.31   30.46
 -10  -1  -9  406.74   21.57
 -11  -1  -9   20.67    1.55
 -12  -1  -9  187.60   10.12
 -13  -1  -9 1031.89   46.72
 -14  -1  -9  558.20   18.72
 -15  -1  -9   44.84    2.78
 -16  -1  -9  505.49   17.49
 -17  -1  -9  187.34    7.55
 -18  -1  -9  191.82    7.99
 -19  -1  -9  165.56    5.96
 -20  -1  -9    0.72    0.76
 -21  -1  -9   84.19    4.44
 -22  -1  -9   77.54    3.58
 -23  -1  -9    9.14    0.83
 -24  -1  -9   12.43    1.08
 -25  -1  -9  131.38    4.70
 -26  -1  -9    7.23    1.19
 -27  -1  -9    4.95    0.83
 -28  -1  -9   10.30    1.23
 -29  -1  -9   34.43    2.17
 -30  -1  -9    3.07    1.16
 -31  -1  -9    1.12    0.79
  35  -1  -8    1.81    0.79
  34  -1  -8    2.82    1.16
  33  -1  -8   -0.18    0.61
  32  -1  -8    7.48    0.83
  31  -1  -8   10.33    1.84
  30  -1  -8    2.57    0.54
  29  -1  -8    8.13    1.19
  28  -1  -8   32.48    1.55
  26  -1  -8    1.19    0.90
  25  -1  -8   20.02    0.94
  24  -1  -8   70.42    4.16
  23  -1  -8   24.86    1.05
  21  -1  -8   36.28    1.45
  20  -1  -8  133.51    4.48
  19  -1  -8   75.37    3.11
  18  -1  -8   59.36    2.49
  17  -1  -8   38.23    2.24
  16  -1  -8  596.39   16.19
  15  -1  -8  359.12    9.39
  14  -1  -8    7.70    0.58
  12  -1  -8   76.60    2.67
  11  -1  -8  264.70    7.48
  10  -1  -8   34.00    2.71
   9  -1  -8 1824.55   47.69
   8  -1  -8   13.15    0.83
   7  -1  -8   91.20    3.90
   6  -1  -8   18.57    0.90
   5  -1  -8    4.81    0.43
   4  -1  -8  289.60   15.57
   3  -1  -8  624.11   19.37
   2  -1  -8   13.95    0.87
   1  -1  -8 2368.12   68.04
   0  -1  -8  115.95    3.40
  -1  -1  -8    3.18    0.43
  -2  -1  -8 1344.69   34.87
  -3  -1  -8  426.28   14.13
  -4  -1  -8  135.82    5.20
  -5  -1  -8 4413.08  113.96
  -6  -1  -8 1591.83   42.45
  -7  -1  -8 1732.42   65.62
  -8  -1  -8    1.16    0.36
  -9  -1  -8  168.56    4.41
 -10  -1  -8  187.81    7.15
 -11  -1  -8  235.98    8.42
 -12  -1  -8  372.01   14.38
 -13  -1  -8   13.87    1.16
 -14  -1  -8  112.19    7.37
 -15  -1  -8   23.52    1.45
 -16  -1  -8   27.21    1.30
 -17  -1  -8    5.09    0.65
 -18  -1  -8  346.40    9.90
 -19  -1  -8   95.71    6.65
 -20  -1  -8    1.91    1.66
 -21  -1  -8   16.44    1.45
 -22  -1  -8  191.75    5.38
 -23  -1  -8   40.14    2.06
 -24  -1  -8   67.64    2.75
 -25  -1  -8    3.07    0.76
 -26  -1  -8   -0.76    1.08
 -27  -1  -8    0.79    0.98
 -28  -1  -8   28.98    2.42
 -29  -1  -8   50.48    2.64
 -30  -1  -8   -0.61    1.01
 -31  -1  -8   10.48    1.45
 -32  -1  -8    2.06    1.08
  36  -1  -7    0.40    0.76
  35  -1  -7    2.46    1.05
  34  -1  -7    0.90    0.79
  33  -1  -7    2.02    0.76
  32  -1  -7    7.33    0.87
  31  -1  -7    0.33    0.72
  30  -1  -7    0.29    0.79
  29  -1  -7    2.02    0.83
  28  -1  -7   10.62    1.01
  27  -1  -7   36.96    2.71
  26  -1  -7   -1.26    1.08
  25  -1  -7   85.63    2.93
  24  -1  -7   64.46    3.14
  23  -1  -7   24.39    1.70
  22  -1  -7    4.19    0.65
  21  -1  -7  122.49    6.40
  20  -1  -7  428.74   10.88
  19  -1  -7   19.84    1.26
  18  -1  -7   70.85    4.12
  17  -1  -7  140.73    3.87
  16  -1  -7  435.17   14.31
  15  -1  -7   62.44    3.97
  14  -1  -7  113.71    3.65
  13  -1  -7  890.36   35.59
  12  -1  -7    5.42    0.65
  11  -1  -7  578.94   16.48
  10  -1  -7  742.62   24.32
   9  -1  -7    3.76    0.76
   8  -1  -7    3.25    0.90
   7  -1  -7  290.79    8.53
   6  -1  -7 1259.49   32.74
   5  -1  -7 1058.12   26.67
   4  -1  -7 1751.06   36.06
   3  -1  -7   11.38    1.05
   2  -1  -7 2088.93   53.55
   1  -1  -7  132.93    4.34
   0  -1  -7  464.76   15.32
  -1  -1  -7  437.23   12.36
  -2  -1  -7 4022.85  135.75
  -3  -1  -7  805.02   35.26
  -4  -1  -7  126.93    6.97
  -5  -1  -7  786.52   25.04
  -6  -1  -7 3767.19   77.32
  -7  -1  -7  464.98   12.03
  -8  -1  -7   13.98    1.05
  -9  -1  -7 1403.58   53.51
 -10  -1  -7  430.01   14.53
 -11  -1  -7   46.65    2.75
 -12  -1  -7  400.59   14.02
 -13  -1  -7  627.58   20.92
 -14  -1  -7   -0.51    0.65
 -15  -1  -7  259.75    8.38
 -16  -1  -7    2.49    0.54
 -17  -1  -7  544.87   16.40
 -18  -1  -7  148.61    5.85
 -19  -1  -7  341.41    9.68
 -20  -1  -7   30.21    1.99
 -21  -1  -7  808.89   18.86
 -22  -1  -7   17.56    2.89
 -23  -1  -7   21.64    2.28
 -24  -1  -7    0.65    0.76
 -25  -1  -7    0.90    1.01
 -26  -1  -7    0.51    0.94
 -27  -1  -7   45.13    2.57
 -28  -1  -7    0.58    0.58
 -29  -1  -7   43.86    3.40
 -30  -1  -7   -0.54    0.98
 -31  -1  -7    4.05    0.79
 -32  -1  -7    0.79    1.05
  36  -1  -6   13.62    1.84
  35  -1  -6    1.23    0.72
  34  -1  -6    1.08    0.87
  33  -1  -6   -0.40    0.61
  32  -1  -6   10.37    1.52
  31  -1  -6    0.33    0.51
  30  -1  -6   12.54    1.16
  29  -1  -6    2.13    0.61
  28  -1  -6   14.67    1.08
  27  -1  -6    0.43    1.01
  26  -1  -6    3.22    0.61
  25  -1  -6   52.86    2.02
  24  -1  -6  128.95    5.67
  23  -1  -6    2.75    0.72
  22  -1  -6    1.23    0.72
  21  -1  -6   71.51    2.13
  20  -1  -6  308.86    8.42
  19  -1  -6  249.64    9.54
  18  -1  -6  417.25   10.15
  17  -1  -6  305.60    9.11
  16  -1  -6  183.26    6.00
  15  -1  -6   46.07    1.81
  14  -1  -6 1150.62   24.79
  13  -1  -6  165.09    4.37
  12  -1  -6  591.88   13.04
  11  -1  -6  433.91   10.70
  10  -1  -6 1032.87   28.69
   9  -1  -6   97.52    2.96
   8  -1  -6 1602.49   39.06
   7  -1  -6 1323.91   58.32
   6  -1  -6  268.03    6.94
   5  -1  -6 1910.22   50.37
   4  -1  -6  374.58   18.43
   3  -1  -6   12.14    0.69
   2  -1  -6 1721.14   35.26
   1  -1  -6  755.95   17.81
   0  -1  -6   74.40    2.82
  -1  -1  -6  970.39   26.01
  -2  -1  -6 2273.24   91.52
  -3  -1  -6  253.65    9.76
  -5  -1  -6 3656.12  129.50
  -6  -1  -6  571.61   17.49
  -7  -1  -6  424.91   21.61
  -8  -1  -6  887.62   22.94
  -9  -1  -6  296.53    8.31
 -11  -1  -6  674.84   16.30
 -12  -1  -6  101.17    4.12
 -13  -1  -6   26.88    1.63
 -14  -1  -6  103.37    5.20
 -15  -1  -6   18.46    1.37
 -16  -1  -6   45.27    2.06
 -17  -1  -6   11.82    1.01
 -18  -1  -6  170.98    9.79
 -19  -1  -6    2.06    0.65
 -20  -1  -6   15.97    1.23
 -21  -1  -6   87.22    3.54
 -22  -1  -6    1.37    0.76
 -23  -1  -6   16.62    1.88
 -24  -1  -6  258.23    8.56
 -25  -1  -6  105.87    3.40
 -26  -1  -6   37.61    2.53
 -27  -1  -6    0.65    0.61
 -28  -1  -6   28.65    2.89
 -29  -1  -6    2.13    0.83
 -30  -1  -6    4.41    1.23
 -31  -1  -6   30.82    1.70
 -32  -1  -6    4.66    0.90
 -33  -1  -6   -0.33    0.65
  36  -1  -5   -0.43    0.90
  35  -1  -5    9.68    1.12
  34  -1  -5    0.79    0.87
  33  -1  -5    1.84    0.83
  32  -1  -5   -0.51    0.65
  31  -1  -5   -0.22    0.61
  30  -1  -5    1.23    0.90
  29  -1  -5   43.68    1.77
  28  -1  -5    1.34    0.54
  27  -1  -5   53.19    1.95
  26  -1  -5    5.20    1.19
  25  -1  -5    3.94    1.81
  24  -1  -5  122.13    4.12
  23  -1  -5   15.03    1.34
  22  -1  -5   14.81    2.13
  21  -1  -5  196.85    4.95
  20  -1  -5  156.81    3.72
  19  -1  -5    2.38    0.54
  17  -1  -5  448.14   16.11
  16  -1  -5   27.32    1.88
  15  -1  -5  277.28    7.95
  14  -1  -5  595.67   16.33
  13  -1  -5   40.07    2.75
  12  -1  -5 1147.91   46.14
  11  -1  -5   48.92    2.38
  10  -1  -5 3756.09  133.40
   9  -1  -5   67.96    2.20
   8  -1  -5  642.93   15.83
   7  -1  -5  303.65    8.60
   6  -1  -5  479.33   15.07
   5  -1  -5 2894.67   75.30
   4  -1  -5  642.35   14.49
   3  -1  -5  355.94   15.14
   2  -1  -5 3780.70  128.38
   1  -1  -5    0.90    0.33
   0  -1  -5  313.37    8.09
  -1  -1  -5  261.99    7.44
  -2  -1  -5   26.48    1.16
  -3  -1  -5 1114.34   43.90
  -4  -1  -5  906.69   27.06
  -5  -1  -5 2728.07   59.65
  -6  -1  -5 2850.66  102.22
  -8  -1  -5 4038.32   87.51
  -9  -1  -5 1738.41   70.85
 -10  -1  -5 1182.31   28.91
 -11  -1  -5  245.95    7.12
 -12  -1  -5   44.62    1.88
 -13  -1  -5 1710.74   41.41
 -14  -1  -5  116.92    5.60
 -15  -1  -5  519.97   27.14
 -16  -1  -5    2.46    0.83
 -17  -1  -5  746.38   38.41
 -18  -1  -5  275.83   11.74
 -19  -1  -5  186.87    9.07
 -20  -1  -5   42.06    2.46
 -21  -1  -5  164.15    4.55
 -22  -1  -5   43.58    3.97
 -23  -1  -5  400.59   12.18
 -24  -1  -5    1.45    0.83
 -25  -1  -5  156.99    4.44
 -26  -1  -5    1.48    1.12
 -27  -1  -5   80.29    3.61
 -28  -1  -5    4.41    0.87
 -29  -1  -5   11.06    1.12
 -30  -1  -5    4.88    1.05
 -31  -1  -5    7.59    0.76
 -32  -1  -5   12.50    1.26
 -33  -1  -5    0.54    1.01
  36  -1  -4    5.46    2.10
  35  -1  -4    0.11    0.90
  34  -1  -4    1.37    0.79
  33  -1  -4    2.93    1.77
  32  -1  -4   10.66    1.48
  31  -1  -4    1.91    0.58
  30  -1  -4   21.32    1.19
  29  -1  -4    4.05    0.94
  28  -1  -4    4.30    0.76
  27  -1  -4   52.75    1.99
  26  -1  -4    0.61    0.72
  25  -1  -4    9.97    0.83
  24  -1  -4   33.42    2.17
  23  -1  -4   55.10    2.46
  22  -1  -4  155.76    4.41
  21  -1  -4   24.10    1.45
  20  -1  -4    8.82    0.90
  19  -1  -4  150.49    5.53
  18  -1  -4  883.50   24.53
  17  -1  -4  495.37   11.96
  16  -1  -4  149.95    5.06
  15  -1  -4  196.16    7.30
  14  -1  -4 1127.17   23.81
  13  -1  -4  723.04   15.61
  12  -1  -4 1270.29   36.93
  11  -1  -4  247.79    9.29
  10  -1  -4    9.86    0.87
   9  -1  -4 2495.92   46.50
   8  -1  -4 2571.26   54.34
   6  -1  -4  554.30   12.65
   4  -1  -4 1919.18   68.87
   3  -1  -4   33.24    1.59
   2  -1  -4  428.56   10.62
   1  -1  -4  138.64    4.30
   0  -1  -4  101.39    3.54
  -1  -1  -4  422.92   20.52
  -2  -1  -4  337.33    9.18
  -3  -1  -4   59.04    3.94
  -4  -1  -4 1597.68   41.55
  -5  -1  -4  912.91   23.52
  -6  -1  -4   28.51    1.37
  -7  -1  -4 1543.19   39.85
  -8  -1  -4  156.27    6.14
  -9  -1  -4  951.46   22.65
 -10  -1  -4  141.89    5.38
 -11  -1  -4   64.97    2.82
 -12  -1  -4   89.32    3.65
 -13  -1  -4 1597.46   30.28
 -14  -1  -4  283.38    8.35
 -15  -1  -4  717.87   22.11
 -16  -1  -4  510.62   12.07
 -17  -1  -4   33.42    2.13
 -18  -1  -4  289.89    9.00
 -19  -1  -4  319.44    7.91
 -20  -1  -4  272.25   11.49
 -21  -1  -4   15.39    1.30
 -22  -1  -4  160.97    5.64
 -23  -1  -4   38.77    2.28
 -24  -1  -4   34.00    1.63
 -25  -1  -4   89.82    3.43
 -26  -1  -4  286.74   10.01
 -27  -1  -4   37.14    2.13
 -28  -1  -4    5.06    0.61
 -29  -1  -4   38.41    1.99
 -30  -1  -4   35.77    2.64
 -31  -1  -4    8.53    1.19
 -32  -1  -4    2.17    0.79
 -33  -1  -4    3.87    1.12
 -34  -1  -4    0.14    1.08
  35  -1  -3    2.10    0.90
  34  -1  -3    2.02    1.08
  33  -1  -3   39.96    3.58
  32  -1  -3    2.10    0.87
  31  -1  -3    1.59    1.59
  29  -1  -3  112.59    3.04
  28  -1  -3    0.61    0.61
  27  -1  -3    7.73    0.79
  26  -1  -3   37.18    2.10
  25  -1  -3   51.74    1.99
  24  -1  -3    5.42    0.54
  23  -1  -3   28.18    1.41
  22  -1  -3   38.41    2.64
  21  -1  -3  352.61    9.47
  20  -1  -3   -0.11    0.76
  19  -1  -3   17.67    0.90
  18  -1  -3  420.79   15.14
  17  -1  -3   87.33    2.28
  16  -1  -3  156.23    6.00
  14  -1  -3 1404.09   27.06
  13  -1  -3 1554.50   31.76
  12  -1  -3   53.26    1.91
  11  -1  -3   63.12    2.85
  10  -1  -3 1003.31   27.03
   9  -1  -3    9.47    0.54
   8  -1  -3 2301.21   43.47
   7  -1  -3  443.45   10.66
   5  -1  -3 1532.93   42.49
   4  -1  -3  165.63    5.74
   3  -1  -3  783.09   20.78
   2  -1  -3   71.58    2.13
   1  -1  -3 1088.51   28.29
   0  -1  -3 2126.98   53.66
  -1  -1  -3    8.49    0.61
  -2  -1  -3 2296.11   54.67
  -3  -1  -3  788.76   24.57
  -4  -1  -3 4272.53  146.88
  -6  -1  -3 1947.44   51.99
  -7  -1  -3  277.10    8.74
  -8  -1  -3 1414.20   33.78
  -9  -1  -3  981.05   28.07
 -10  -1  -3  602.36   16.87
 -11  -1  -3  302.03   11.20
 -12  -1  -3   20.09    1.52
 -13  -1  -3 1456.87   42.60
 -14  -1  -3   52.82    2.53
 -15  -1  -3 1283.88   32.41
 -16  -1  -3  304.52   19.04
 -17  -1  -3  763.11   19.33
 -18  -1  -3  247.43   10.01
 -19  -1  -3  386.72   13.44
 -20  -1  -3   26.45    1.19
 -21  -1  -3  123.61    3.32
 -22  -1  -3  190.16    5.89
 -23  -1  -3  128.45    4.05
 -24  -1  -3   18.82    1.16
 -25  -1  -3    2.78    1.41
 -26  -1  -3    5.67    1.05
 -27  -1  -3  108.14    4.26
 -28  -1  -3    6.18    0.87
 -29  -1  -3    9.29    0.94
 -30  -1  -3   34.54    2.49
 -31  -1  -3  105.83    4.44
 -32  -1  -3    0.61    0.72
 -33  -1  -3    1.16    0.79
 -34  -1  -3    7.33    1.41
  35  -1  -2    5.67    1.12
  33  -1  -2    2.93    0.69
  32  -1  -2    1.34    1.12
  31  -1  -2    0.87    0.72
  30  -1  -2    0.36    0.58
  29  -1  -2    0.98    1.34
  28  -1  -2   10.51    1.05
  27  -1  -2   24.28    1.45
  26  -1  -2   13.37    1.55
  25  -1  -2   39.53    1.48
  24  -1  -2   34.90    1.66
  23  -1  -2   94.63    3.00
  22  -1  -2  214.77    6.18
  21  -1  -2   80.18    2.64
  20  -1  -2   14.53    1.45
  19  -1  -2  110.96    3.76
  18  -1  -2  515.78   12.65
  16  -1  -2 1513.89   35.81
  15  -1  -2   12.86    1.52
  14  -1  -2  169.24    5.17
  13  -1  -2  156.20   12.61
  12  -1  -2   86.32    3.65
  11  -1  -2 1250.96   52.57
  10  -1  -2    1.19    0.36
   9  -1  -2    3.11    0.51
   8  -1  -2  197.32    5.53
   6  -1  -2 1528.70   29.16
   5  -1  -2  971.80   26.09
   4  -1  -2  465.88   13.84
   1  -1  -2  139.29    3.43
   0  -1  -2   46.94    2.17
  -1  -1  -2   30.24    1.19
  -2  -1  -2   27.97    1.08
  -4  -1  -2   76.82    2.93
  -5  -1  -2   60.74    2.42
  -6  -1  -2 1031.10   23.16
  -7  -1  -2 1364.67   28.18
  -8  -1  -2   68.58    2.75
  -9  -1  -2   12.65    0.83
 -10  -1  -2 1113.77   26.38
 -11  -1  -2 2883.87  117.61
 -12  -1  -2  101.49    4.73
 -13  -1  -2   70.78    3.22
 -14  -1  -2  675.56   20.34
 -15  -1  -2  475.71   15.10
 -16  -1  -2  195.69    7.91
 -17  -1  -2   35.45    1.91
 -18  -1  -2   23.81    1.95
 -19  -1  -2  127.00    3.04
 -20  -1  -2  392.03   20.34
 -21  -1  -2  191.10    7.12
 -22  -1  -2  443.41   16.04
 -23  -1  -2   44.08    2.10
 -24  -1  -2    7.26    0.83
 -25  -1  -2  119.34    3.90
 -26  -1  -2  255.24    6.94
 -27  -1  -2   -0.61    1.12
 -28  -1  -2   22.37    2.89
 -29  -1  -2    1.37    0.87
 -30  -1  -2   16.69    1.19
 -31  -1  -2   -1.37    1.01
 -32  -1  -2    1.55    0.83
 -33  -1  -2    2.17    0.94
 -34  -1  -2    3.61    0.83
  36  -1  -1    4.19    1.23
  35  -1  -1    0.11    2.35
  34  -1  -1    7.88    0.76
  33  -1  -1   32.41    2.78
  32  -1  -1    2.75    0.79
  31  -1  -1   16.40    1.63
  30  -1  -1    1.48    0.69
  29  -1  -1  107.89    3.97
  28  -1  -1   21.82    1.37
  27  -1  -1   82.42    4.55
  26  -1  -1   59.00    4.99
  25  -1  -1  314.75   10.04
  24  -1  -1    4.99    0.61
  23  -1  -1   90.87    3.54
  22  -1  -1   46.14    2.57
  21  -1  -1   33.96    1.45
  20  -1  -1   70.53    3.94
  19  -1  -1  924.76   21.90
  18  -1  -1  139.58    5.13
  17  -1  -1  375.19    9.94
  16  -1  -1  517.99   18.07
  15  -1  -1  762.24   28.72
  14  -1  -1 1918.10   34.72
  13  -1  -1 1247.78   25.94
  12  -1  -1  871.00   23.45
  11  -1  -1  879.56   25.26
  10  -1  -1 1094.94   52.32
   9  -1  -1 3262.78   57.88
   8  -1  -1   82.34    3.58
   7  -1  -1  527.42   25.69
   5  -1  -1   88.27    2.71
   3  -1  -1  820.41   22.47
   1  -1  -1  161.33    4.55
  -1  -1  -1    5.78    0.54
  -2  -1  -1    1.19    0.14
  -3  -1  -1  556.07   12.72
  -4  -1  -1   26.48    1.16
  -5  -1  -1  340.69   10.41
  -6  -1  -1  444.57   11.24
  -7  -1  -1   37.43    1.77
  -8  -1  -1 5984.06  150.24
  -9  -1  -1   70.17    2.46
 -10  -1  -1  709.63   35.66
 -11  -1  -1 2498.96   52.46
 -12  -1  -1  876.81   28.58
 -13  -1  -1    5.64    0.69
 -14  -1  -1   87.37    4.48
 -15  -1  -1 1721.65   40.03
 -16  -1  -1   24.53    2.67
 -17  -1  -1  532.26   15.54
 -18  -1  -1  109.59    3.54
 -19  -1  -1 1561.91   41.12
 -20  -1  -1   68.65    2.53
 -21  -1  -1    0.04    0.61
 -22  -1  -1   21.72    1.77
 -23  -1  -1  248.84    8.92
 -24  -1  -1   15.72    1.01
 -25  -1  -1    7.62    0.79
 -26  -1  -1    6.83    0.83
 -27  -1  -1   81.26    3.97
 -28  -1  -1   13.87    0.94
 -29  -1  -1   18.39    1.81
 -30  -1  -1   10.15    1.30
 -31  -1  -1   25.55    2.10
 -32  -1  -1   -0.04    1.01
 -33  -1  -1   30.89    2.46
 -34  -1  -1    5.24    0.94
 -35  -1  -1    7.88    1.63
  35  -1   0    0.07    0.90
  34  -1   0    0.47    0.65
  33  -1   0    1.63    1.23
  32  -1   0    4.19    0.94
  31  -1   0    0.65    0.98
  30  -1   0    1.99    0.61
  29  -1   0   12.47    1.63
  28  -1   0    5.20    0.87
  27  -1   0   96.83    3.50
  26  -1   0   62.58    2.13
  25  -1   0   32.66    1.48
  24  -1   0   66.63    2.38
  23  -1   0   85.38    2.49
  22  -1   0  210.69    7.01
  20  -1   0   37.94    2.53
  19  -1   0 1048.84   31.58
  18  -1   0  289.85    7.95
  17  -1   0   23.45    1.48
  16  -1   0  652.18   21.72
  15  -1   0  149.66    6.32
  14  -1   0   94.23    2.89
  13  -1   0  731.35   22.37
  12  -1   0  330.50    9.86
  11  -1   0 2390.63   64.60
  10  -1   0 2004.38   51.63
   9  -1   0  271.86    7.41
   7  -1   0 2280.00   48.16
   6  -1   0 1626.48   30.71
   5  -1   0    2.46    0.22
   4  -1   0 1680.13   35.92
   0  -1   0    0.54    0.11
  -4  -1   0 1410.88   36.71
  -5  -1   0    4.37    0.40
  -6  -1   0 1493.66   57.77
  -7  -1   0 2215.07   54.92
  -8  -1   0  138.89    7.26
  -9  -1   0  244.87    7.70
 -10  -1   0 1904.62   40.65
 -11  -1   0 2616.78   60.02
 -12  -1   0  293.10   10.62
 -13  -1   0  649.43   16.37
 -14  -1   0   88.13    4.41
 -15  -1   0  137.16    4.08
 -16  -1   0  692.14   16.30
 -17  -1   0   24.89    1.48
 -18  -1   0  317.31   11.09
 -19  -1   0  870.85   23.56
 -20  -1   0   40.47    1.59
 -21  -1   0    1.34    0.47
 -22  -1   0  200.86    5.60
 -23  -1   0   81.33    2.60
 -24  -1   0   70.17    2.93
 -25  -1   0   33.17    1.77
 -26  -1   0   68.72    3.29
 -27  -1   0   84.40    3.04
 -28  -1   0    5.85    0.69
 -29  -1   0   12.97    0.90
 -30  -1   0    1.34    0.76
 -31  -1   0    2.42    0.83
 -32  -1   0    5.93    0.87
 -33  -1   0   -0.18    0.61
 -34  -1   0   -0.11    0.72
 -35  -1   0   -0.87    0.87
  34  -1   1    6.50    1.16
  33  -1   1   29.59    1.73
  32  -1   1    0.36    1.26
  31  -1   1   26.74    1.26
  30  -1   1   11.67    0.94
  29  -1   1   18.90    1.26
  28  -1   1   18.32    1.23
  27  -1   1  105.32    6.03
  26  -1   1    9.90    0.90
  25  -1   1    6.68    1.12
  24  -1   1   18.68    1.34
  23  -1   1  268.71   13.12
  22  -1   1   21.86    1.48
  21  -1   1   -0.25    0.65
  20  -1   1   73.09    3.43
  19  -1   1 1644.33   38.12
  18  -1   1  113.02    3.54
  17  -1   1  572.76   15.75
  16  -1   1   23.12    1.91
  15  -1   1 1747.95   71.90
  14  -1   1   81.04    3.14
  13  -1   1    4.34    0.65
  12  -1   1  839.45   20.38
  11  -1   1 2652.73   76.71
  10  -1   1  749.27   24.06
   9  -1   1   65.18    3.11
   7  -1   1   38.30    1.45
   6  -1   1  457.32   11.67
   5  -1   1  376.06    8.67
   3  -1   1  652.51   24.50
   2  -1   1    2.02    0.22
   1  -1   1    9.68    0.43
  -1  -1   1  151.00    4.30
  -3  -1   1  711.37   15.83
  -5  -1   1   82.42    2.60
  -7  -1   1  473.00   16.04
  -8  -1   1   99.94    4.08
  -9  -1   1 2882.75   81.62
 -10  -1   1 1110.30   45.49
 -11  -1   1  862.79   27.79
 -12  -1   1  891.27   26.52
 -13  -1   1 1219.24   37.04
 -14  -1   1 1981.33   77.61
 -15  -1   1  779.47   19.58
 -16  -1   1  564.74   19.33
 -17  -1   1  380.65   11.38
 -18  -1   1  146.62    5.56
 -19  -1   1  944.81   22.94
 -20  -1   1   74.79    2.82
 -21  -1   1   31.40    2.38
 -22  -1   1   46.90    2.28
 -23  -1   1   94.20    3.29
 -24  -1   1    3.25    0.69
 -25  -1   1  301.23    8.38
 -26  -1   1   68.07    4.55
 -27  -1   1   81.33    4.30
 -28  -1   1   22.94    2.28
 -29  -1   1   98.28    2.60
 -30  -1   1    3.32    0.83
 -31  -1   1   15.61    0.98
 -32  -1   1    2.24    0.61
 -33  -1   1   32.77    1.99
 -34  -1   1    5.64    1.05
  35  -1   2   -1.55    1.34
  34  -1   2    1.70    1.01
  33  -1   2    0.22    0.87
  32  -1   2    0.43    0.61
  31  -1   2   -0.33    1.23
  30  -1   2   18.79    1.41
  29  -1   2   -0.76    0.87
  28  -1   2   25.22    2.42
  27  -1   2   -0.61    1.01
  26  -1   2  240.82    7.70
  25  -1   2  149.15    5.74
  24  -1   2    7.33    1.01
  23  -1   2   41.37    2.46
  22  -1   2  503.90   11.53
  21  -1   2  185.68    6.36
  20  -1   2  439.00   13.12
  19  -1   2  141.53    6.43
  18  -1   2   23.74    1.26
  17  -1   2   40.97    2.53
  16  -1   2  225.50    7.33
  15  -1   2  474.59   14.16
  14  -1   2  688.49   18.79
  13  -1   2   76.82    3.58
  12  -1   2  127.47    4.30
  11  -1   2 2940.23   82.02
  10  -1   2 1176.06   34.33
   9  -1   2   14.02    0.87
   8  -1   2   70.82    2.64
   7  -1   2 1376.99   37.36
   6  -1   2  956.09   39.78
   5  -1   2   79.78    3.36
   4  -1   2   82.74    3.79
   1  -1   2   31.40    1.73
  -3  -1   2 1320.95   32.27
  -4  -1   2  411.94   16.58
  -5  -1   2 1018.23   19.84
  -6  -1   2 1585.54   56.44
  -8  -1   2  190.42    5.38
  -9  -1   2    4.23    0.51
 -10  -1   2    0.94    0.40
 -11  -1   2 1310.03   40.43
 -12  -1   2   88.52    4.70
 -13  -1   2  165.99    4.95
 -14  -1   2  160.25    5.28
 -15  -1   2   14.89    1.08
 -16  -1   2 1384.72   35.41
 -17  -1   2   21.86    1.41
 -18  -1   2  572.98   14.74
 -19  -1   2  105.94    3.54
 -20  -1   2   15.97    2.46
 -21  -1   2   84.62    4.19
 -22  -1   2  200.35    6.83
 -23  -1   2   89.50    2.31
 -24  -1   2   33.67    2.49
 -25  -1   2   38.55    1.77
 -26  -1   2   13.91    1.16
 -27  -1   2   24.32    1.23
 -28  -1   2   10.33    1.05
 -29  -1   2    2.42    1.63
 -30  -1   2    2.75    1.08
 -31  -1   2    1.70    0.72
 -32  -1   2    0.00    0.61
 -33  -1   2    1.81    0.76
 -34  -1   2    3.54    1.30
 -35  -1   2    3.69    1.26
 -36  -1   2    1.55    0.94
  33  -1   3    1.01    0.87
  32  -1   3    0.14    0.79
  31  -1   3   97.41    4.12
  30  -1   3   37.40    2.35
  29  -1   3   12.36    1.12
  28  -1   3    2.67    0.61
  27  -1   3  106.77    4.08
  26  -1   3    3.40    1.37
  25  -1   3    0.90    0.76
  24  -1   3   18.61    1.73
  23  -1   3  129.97    6.97
  22  -1   3  195.69    5.35
  21  -1   3  151.83    5.89
  20  -1   3   26.74    1.66
  19  -1   3  396.37   11.16
  18  -1   3  274.71    8.20
  17  -1   3  801.80   25.15
  16  -1   3  264.56   12.36
  15  -1   3 1212.01   30.57
  14  -1   3   52.79    2.49
  13  -1   3 1627.20   48.96
  12  -1   3   25.98    1.41
  11  -1   3  339.24    9.94
  10  -1   3  581.04   20.85
   9  -1   3  982.64   23.12
   8  -1   3 1504.75   37.47
   7  -1   3  295.67    8.20
   6  -1   3 2552.97  100.88
   4  -1   3 4409.72  145.36
   3  -1   3  846.79   22.91
   2  -1   3 1318.38   51.42
   1  -1   3   15.36    1.23
  -2  -1   3   68.36    1.66
  -4  -1   3  181.17    4.73
  -5  -1   3 1609.06   43.03
  -7  -1   3  477.19   20.67
  -8  -1   3 2642.72   70.31
  -9  -1   3    8.78    0.54
 -10  -1   3 1027.41   25.69
 -11  -1   3   59.47    2.31
 -12  -1   3   53.98    2.02
 -13  -1   3 1472.74   59.94
 -14  -1   3 1415.61   40.03
 -15  -1   3   39.09    2.82
 -16  -1   3  148.97    7.66
 -17  -1   3   99.15    3.58
 -18  -1   3  373.78    8.92
 -19  -1   3   17.96    1.34
 -20  -1   3    3.07    0.65
 -21  -1   3  397.67    8.89
 -22  -1   3   32.70    3.40
 -23  -1   3   31.00    1.52
 -24  -1   3    9.03    0.94
 -25  -1   3   53.37    3.40
 -26  -1   3   32.70    1.16
 -27  -1   3    7.84    1.19
 -28  -1   3    0.22    0.90
 -29  -1   3  125.31    3.94
 -30  -1   3    1.88    1.01
 -31  -1   3    3.32    0.72
 -32  -1   3    0.98    0.65
 -33  -1   3   36.02    1.52
 -34  -1   3    2.42    1.19
  33  -1   4    1.63    1.01
  32  -1   4    1.81    0.72
  31  -1   4   15.39    0.83
  30  -1   4   25.73    2.78
  29  -1   4   33.67    1.59
  28  -1   4    3.43    1.01
  27  -1   4   36.64    1.84
  26  -1   4  286.89    8.82
  25  -1   4   82.02    3.50
  24  -1   4   37.69    2.20
  23  -1   4   38.88    1.77
  22  -1   4  174.19    5.74
  21  -1   4   14.67    1.26
  20  -1   4  270.70    8.56
  19  -1   4  349.14   10.41
  18  -1   4  280.96    8.89
  17  -1   4   30.42    1.81
  16  -1   4  514.95   17.78
  15  -1   4  748.18   23.52
  14  -1   4  260.58   11.71
  13  -1   4 1699.61   48.89
  12  -1   4   85.74    3.79
  11  -1   4   60.92    2.28
  10  -1   4  152.26    6.72
   9  -1   4  884.15   42.17
   8  -1   4  166.93    8.67
   7  -1   4 1598.11   71.40
   6  -1   4   25.80    0.98
   5  -1   4  910.89   22.69
   4  -1   4 1638.40   44.12
   3  -1   4   71.25    4.19
   2  -1   4  347.44   14.74
  -2  -1   4  461.51   16.33
  -3  -1   4   40.18    1.45
  -4  -1   4 1747.70   58.03
  -6  -1   4  546.10   13.62
  -8  -1   4 2615.52   48.49
  -9  -1   4 2534.62   54.31
 -10  -1   4   11.42    1.05
 -11  -1   4  241.61    8.74
 -12  -1   4 1306.42   27.93
 -13  -1   4  658.14   15.14
 -14  -1   4 1105.78   44.48
 -15  -1   4  193.20    6.65
 -16  -1   4  137.84    4.95
 -17  -1   4  499.20   13.95
 -19  -1   4  146.55    6.32
 -20  -1   4    9.25    0.94
 -21  -1   4   26.63    1.66
 -22  -1   4  170.11    8.56
 -23  -1   4   52.03    1.84
 -24  -1   4   32.66    1.63
 -25  -1   4   10.95    0.98
 -26  -1   4    0.54    0.76
 -27  -1   4   60.02    2.60
 -28  -1   4    1.77    1.12
 -29  -1   4    3.94    0.76
 -30  -1   4   20.23    1.59
 -31  -1   4    2.57    0.79
 -32  -1   4    8.89    1.12
 -33  -1   4    1.45    0.72
 -34  -1   4    2.60    0.79
  33  -1   5    1.70    1.01
  32  -1   5    7.52    0.90
  31  -1   5    6.90    1.16
  30  -1   5    5.13    1.34
  29  -1   5   10.48    1.59
  28  -1   5    4.41    0.90
  27  -1   5   83.50    2.75
  26  -1   5    0.83    0.79
  25  -1   5  161.76    4.19
  24  -1   5    2.82    1.23
  23  -1   5  442.51   11.35
  22  -1   5   49.14    2.64
  21  -1   5  155.98    6.00
  20  -1   5   35.05    2.71
  19  -1   5  185.00    6.97
  17  -1   5  716.21   16.51
  16  -1   5    2.57    0.65
  15  -1   5  563.77   19.01
  14  -1   5  121.44    4.41
  13  -1   5 1649.42   47.19
  12  -1   5   46.75    2.42
  11  -1   5  250.03    7.59
  10  -1   5 1245.86   24.75
   9  -1   5 2012.04   57.63
   8  -1   5 4007.79  101.57
   7  -1   5   35.45    2.02
   6  -1   5 3080.06   80.75
   5  -1   5 2912.38   73.13
   4  -1   5 1067.63   27.39
   3  -1   5 1083.81   29.19
   2  -1   5   31.51    2.10
   1  -1   5  312.97    9.21
  -3  -1   5  318.65   13.30
  -4  -1   5  702.26   26.67
  -5  -1   5 3073.13   59.91
  -6  -1   5  457.54   10.88
  -7  -1   5  307.84    8.38
  -8  -1   5  622.55   21.17
  -9  -1   5   69.77    2.38
 -10  -1   5 3621.61   74.43
 -11  -1   5   41.70    2.85
 -12  -1   5 1151.52   48.42
 -13  -1   5   38.08    2.28
 -14  -1   5  637.11   16.77
 -15  -1   5  270.01    9.90
 -16  -1   5   27.06    3.22
 -17  -1   5  452.95   10.62
 -18  -1   5   54.49    2.64
 -19  -1   5    0.76    1.26
 -20  -1   5  150.42    5.71
 -21  -1   5  187.81    4.73
 -22  -1   5   14.31    1.08
 -23  -1   5   17.96    1.77
 -24  -1   5  116.45    4.84
 -25  -1   5    3.14    0.94
 -26  -1   5    4.95    0.79
 -27  -1   5   52.32    2.10
 -28  -1   5    0.76    0.90
 -29  -1   5   41.84    1.88
 -30  -1   5   -2.20    1.59
 -31  -1   5   -0.51    0.61
 -32  -1   5    1.16    0.65
 -33  -1   5    0.54    0.83
 -35  -1   5    4.41    0.65
  33  -1   6   -3.00    2.06
  32  -1   6    4.84    1.16
  31  -1   6   29.19    1.59
  30  -1   6    5.06    0.98
  29  -1   6    3.83    0.79
  28  -1   6   28.47    1.88
  27  -1   6   -0.14    0.90
  26  -1   6   51.31    4.05
  25  -1   6  100.66    3.72
  24  -1   6  272.22   10.51
  23  -1   6   12.90    1.01
  22  -1   6    3.65    0.94
  21  -1   6   85.24    3.54
  20  -1   6   17.70    1.23
  19  -1   6    2.06    0.72
  18  -1   6  204.47   13.22
  17  -1   6   13.01    1.08
  16  -1   6   43.90    3.90
  15  -1   6   19.76    2.02
  14  -1   6   95.79    4.88
  13  -1   6   28.40    1.30
  12  -1   6   93.73    3.32
  11  -1   6  660.82   22.29
  10  -1   6 1172.95   35.66
   9  -1   6  314.31   10.55
   8  -1   6  955.58   24.61
   7  -1   6  415.08   10.44
   6  -1   6  609.15   14.99
   5  -1   6 4026.47   82.13
   4  -1   6  219.68   10.12
   3  -1   6  239.30    7.88
   1  -1   6 1054.40   41.66
  -5  -1   6 2175.97   51.34
  -6  -1   6  279.16    7.33
  -7  -1   6 1514.25   35.16
  -8  -1   6 1729.42   39.93
  -9  -1   6   96.29    3.72
 -10  -1   6 1050.72   44.73
 -11  -1   6  452.41   11.92
 -12  -1   6  606.04   18.64
 -13  -1   6  155.87    6.11
 -14  -1   6 1086.88   22.98
 -15  -1   6   39.13    1.73
 -16  -1   6  192.22    5.09
 -17  -1   6  298.70    8.96
 -18  -1   6  440.27   12.65
 -19  -1   6  244.76    8.38
 -20  -1   6  322.08   11.38
 -21  -1   6   81.08    5.13
 -22  -1   6    1.88    0.87
 -23  -1   6    1.41    1.08
 -24  -1   6  106.48    5.31
 -25  -1   6   52.10    2.60
 -26  -1   6    2.93    0.90
 -27  -1   6    2.17    0.65
 -28  -1   6   12.57    1.08
 -29  -1   6    3.76    0.69
 -30  -1   6   15.54    1.63
 -31  -1   6    0.25    0.98
 -32  -1   6    7.48    1.77
 -33  -1   6   -0.07    0.76
 -34  -1   6    0.00    0.65
 -35  -1   6    0.69    0.90
 -36  -1   6   14.34    1.16
  32  -1   7    1.19    0.58
  31  -1   7    3.04    1.30
  30  -1   7    0.76    1.99
  29  -1   7   46.07    2.13
  28  -1   7    1.05    0.94
  27  -1   7   46.00    2.75
  26  -1   7    0.04    1.01
  25  -1   7    0.36    0.83
  24  -1   7    1.01    0.79
  23  -1   7   17.67    1.23
  22  -1   7   12.28    0.94
  21  -1   7  791.54   18.75
  20  -1   7   28.87    1.55
  19  -1   7  342.31    9.68
  18  -1   7  144.09    5.09
  17  -1   7  523.91   14.63
  16  -1   7    2.17    0.69
  15  -1   7  265.21    9.32
  14  -1   7    1.30    0.61
  12  -1   7  384.95   10.30
  11  -1   7   45.38    2.60
  10  -1   7  429.72   10.95
   9  -1   7 1397.76   48.56
   8  -1   7   15.93    0.79
   7  -1   7  447.13   14.31
   6  -1   7 3648.78   96.04
   5  -1   7  805.81   22.55
   4  -1   7  129.75    4.88
   3  -1   7  841.33   32.19
   1  -1   7  430.51   19.55
  -6  -1   7 1390.18   50.58
  -7  -1   7  297.33    9.76
  -8  -1   7    3.32    0.40
  -9  -1   7    4.55    0.58
 -10  -1   7  736.77   17.34
 -11  -1   7  569.51   15.03
 -12  -1   7    5.67    0.94
 -13  -1   7  851.74   18.75
 -14  -1   7  103.59    3.40
 -15  -1   7   71.69    3.43
 -16  -1   7  464.95   17.49
 -17  -1   7  155.26    5.35
 -18  -1   7   72.81    3.07
 -19  -1   7   18.32    1.01
 -20  -1   7  382.78   10.30
 -21  -1   7  104.49    3.22
 -22  -1   7    4.41    0.69
 -23  -1   7   20.70    0.98
 -24  -1   7   57.23    2.20
 -25  -1   7   84.73    4.66
 -26  -1   7    1.81    0.76
 -27  -1   7   37.04    2.31
 -28  -1   7    9.18    1.01
 -29  -1   7    0.65    0.65
 -30  -1   7   -0.43    0.87
 -31  -1   7   -1.41    0.90
 -32  -1   7    9.32    1.30
 -33  -1   7    0.51    0.87
 -34  -1   7    0.04    0.54
 -35  -1   7    3.65    0.98
 -36  -1   7    1.01    1.08
  32  -1   8    1.26    0.79
  31  -1   8    7.55    0.87
  30  -1   8   -0.14    0.69
  29  -1   8   46.25    4.34
  28  -1   8   21.32    2.28
  26  -1   8    2.10    0.98
  25  -1   8   -0.58    1.81
  24  -1   8   64.53    3.11
  23  -1   8   35.45    3.00
  22  -1   8  196.12    9.25
  21  -1   8   18.43    2.35
  20  -1   8    2.85    0.87
  19  -1   8   90.33    4.41
  18  -1   8  312.61    9.18
  17  -1   8    4.66    1.01
  16  -1   8   23.70    1.77
  15  -1   8   22.33    1.26
  14  -1   8   90.55    3.25
  13  -1   8   16.19    0.98
  12  -1   8  355.07   10.73
  11  -1   8  237.17    8.42
  10  -1   8  186.33    6.47
   9  -1   8  158.94    5.02
   8  -1   8    0.54    0.47
   7  -1   8 1636.67   36.13
   6  -1   8 1519.89   63.52
   5  -1   8 4523.21  113.63
   4  -1   8  139.40    5.28
   0  -1   8  132.93    5.60
  -3  -1   8  685.42   19.91
  -4  -1   8  282.91   10.12
  -5  -1   8    6.65    0.61
  -6  -1   8   15.79    1.55
  -7  -1   8   94.02    3.83
  -8  -1   8   12.72    0.87
  -9  -1   8 1885.87   39.78
 -10  -1   8   30.60    1.30
 -11  -1   8  252.16    6.61
 -12  -1   8   73.38    2.71
 -14  -1   8    8.42    0.94
 -15  -1   8  343.80    8.42
 -17  -1   8   41.23    2.02
 -18  -1   8   69.73    3.29
 -19  -1   8   69.26    3.50
 -20  -1   8  147.24    5.06
 -21  -1   8   33.78    2.28
 -22  -1   8    2.31    0.79
 -23  -1   8   20.67    1.45
 -24  -1   8   77.18    3.76
 -25  -1   8   16.80    1.59
 -26  -1   8    1.30    0.94
 -27  -1   8    1.66    0.72
 -28  -1   8   29.77    1.55
 -29  -1   8    6.00    1.26
 -30  -1   8    1.30    0.87
 -31  -1   8    8.35    1.84
 -32  -1   8    5.24    0.94
 -33  -1   8    0.18    0.65
 -34  -1   8    3.11    0.94
 -35  -1   8    0.36    1.37
  31  -1   9    1.95    1.23
  29  -1   9   28.33    1.81
  27  -1   9    3.79    0.87
  26  -1   9    5.06    0.90
  25  -1   9  130.58    4.34
  24  -1   9   12.72    1.41
  23  -1   9    9.83    1.26
  22  -1   9   73.67    3.87
  20  -1   9    0.29    1.08
  19  -1   9  158.80    4.81
  18  -1   9  191.86    5.53
  17  -1   9  190.31    6.83
  16  -1   9  503.17   12.28
  15  -1   9   34.11    1.70
  14  -1   9  500.35   15.57
  13  -1   9 1028.89   28.69
  12  -1   9  188.17    8.49
  11  -1   9   23.09    1.55
  10  -1   9  363.60   14.89
   9  -1   9 1330.52   30.64
   8  -1   9   23.31    1.34
   7  -1   9 1499.98   28.80
   6  -1   9 1706.91   36.10
   5  -1   9 1043.06   30.21
   4  -1   9    8.56    1.26
   1  -1   9  558.27   16.84
   0  -1   9 3723.18  122.85
  -1  -1   9  306.15   12.39
  -4  -1   9   73.89    3.76
  -5  -1   9  304.09   13.84
  -6  -1   9 1107.88   29.27
  -8  -1   9  619.70   18.68
  -9  -1   9  293.93    7.62
 -10  -1   9  153.02    3.54
 -11  -1   9   16.01    1.19
 -12  -1   9  971.80   20.02
 -13  -1   9  332.45    7.59
 -15  -1   9  505.63   16.51
 -16  -1   9   63.48    4.01
 -17  -1   9   79.38    3.76
 -19  -1   9   22.11    1.19
 -20  -1   9  146.37    5.42
 -21  -1   9   45.27    2.67
 -22  -1   9   72.26    3.04
 -24  -1   9   28.47    2.75
 -25  -1   9    0.18    0.79
 -26  -1   9    0.94    0.61
 -27  -1   9  117.90    3.47
 -28  -1   9   12.75    0.87
 -29  -1   9    0.90    0.61
 -30  -1   9   -0.29    0.79
 -31  -1   9   12.10    1.26
 -32  -1   9    0.29    0.83
 -33  -1   9    1.45    0.90
 -34  -1   9    2.35    1.34
 -35  -1   9    1.48    0.54
 -36  -1   9    1.55    1.30
  30  -1  10    4.41    0.98
  29  -1  10   24.93    1.52
  28  -1  10   22.04    1.99
  27  -1  10    7.99    1.52
  26  -1  10   14.63    2.53
  25  -1  10    2.49    2.10
  24  -1  10   12.68    0.90
  23  -1  10   10.77    1.48
  22  -1  10   53.08    4.05
  21  -1  10   59.29    4.19
  20  -1  10   -0.40    1.16
  19  -1  10   63.45    2.20
  18  -1  10    2.06    0.79
  17  -1  10   34.72    2.20
  16  -1  10   24.28    1.84
  15  -1  10   71.76    3.76
  14  -1  10  969.17   23.88
  13  -1  10   65.87    3.40
  12  -1  10  223.87    8.53
  11  -1  10  377.14   12.50
  10  -1  10  186.04    5.53
   9  -1  10  459.38   15.03
   8  -1  10  624.11   15.86
   7  -1  10   75.66    2.42
   6  -1  10  310.01    9.11
   5  -1  10  192.73    6.47
   4  -1  10  638.02   25.58
   3  -1  10  227.02    5.60
   2  -1  10   49.61    2.67
   0  -1  10   85.45    2.85
  -8  -1  10 1069.69   38.70
  -9  -1  10   10.04    0.72
 -10  -1  10  311.06   10.04
 -11  -1  10   11.27    0.65
 -12  -1  10  105.00    3.11
 -13  -1  10    0.22    1.01
 -14  -1  10 1193.00   31.90
 -15  -1  10  804.84   20.45
 -16  -1  10   32.01    1.73
 -17  -1  10   31.62    2.10
 -18  -1  10   17.96    1.01
 -19  -1  10  184.92    5.56
 -20  -1  10   31.33    1.55
 -21  -1  10   12.57    1.48
 -23  -1  10    0.07    1.01
 -24  -1  10    8.56    1.66
 -25  -1  10    0.43    1.05
 -26  -1  10    0.79    0.83
 -27  -1  10   10.91    1.01
 -28  -1  10    1.16    0.79
 -29  -1  10    7.70    0.98
 -30  -1  10    0.07    0.79
 -31  -1  10    0.33    0.98
 -32  -1  10    3.69    1.81
 -33  -1  10    4.08    0.87
 -34  -1  10    1.19    0.79
 -35  -1  10   -0.11    0.79
  29  -1  11   62.65    3.11
  28  -1  11   13.19    1.16
  27  -1  11    1.01    1.30
  26  -1  11    9.65    1.19
  25  -1  11   74.36    3.58
  24  -1  11   62.54    2.96
  23  -1  11   92.39    3.76
  22  -1  11    7.44    1.26
  21  -1  11  143.44    4.81
  20  -1  11  198.69    7.44
  19  -1  11  201.22    6.43
  18  -1  11    4.91    0.90
  17  -1  11  297.58   10.55
  16  -1  11  157.57    5.49
  15  -1  11    5.89    0.83
  14  -1  11  326.02    8.49
  13  -1  11  175.96   11.35
  12  -1  11   41.26    3.61
  11  -1  11  440.01   14.27
  10  -1  11  650.70   20.20
   9  -1  11  939.36   21.93
   8  -1  11  497.28   12.32
   7  -1  11  579.23   14.63
   6  -1  11  481.17   14.06
   5  -1  11 1589.01   41.77
   4  -1  11  427.58   18.10
   2  -1  11 1506.34   58.43
   0  -1  11 1495.57   55.50
  -1  -1  11  940.77   36.78
  -2  -1  11  205.55   10.04
  -4  -1  11  569.66   16.87
  -6  -1  11  163.64    7.73
  -7  -1  11  213.03    9.97
  -9  -1  11   65.72    2.60
 -10  -1  11    8.78    0.79
 -11  -1  11  536.09   12.32
 -12  -1  11  509.89   11.20
 -13  -1  11   46.65    2.60
 -14  -1  11   17.96    1.37
 -15  -1  11  131.81    4.30
 -16  -1  11  568.61   16.15
 -17  -1  11   10.55    1.08
 -18  -1  11    5.06    0.87
 -19  -1  11   78.41    3.32
 -20  -1  11  263.80   11.31
 -21  -1  11   57.85    2.06
 -22  -1  11   15.61    1.05
 -23  -1  11  115.08    4.77
 -24  -1  11    9.43    0.87
 -25  -1  11    2.42    0.90
 -26  -1  11   11.20    1.48
 -27  -1  11   58.61    5.28
 -28  -1  11   31.76    3.11
 -29  -1  11    5.28    0.83
 -30  -1  11   -0.11    0.69
 -31  -1  11   13.55    1.05
 -32  -1  11   -0.22    0.69
 -33  -1  11    9.79    2.57
 -34  -1  11    1.01    1.77
  28  -1  12   15.18    1.70
  27  -1  12    1.23    0.90
  26  -1  12   72.95    3.00
  25  -1  12    3.36    1.30
  24  -1  12    3.36    0.83
  23  -1  12   29.99    1.59
  22  -1  12    2.13    0.69
  21  -1  12    7.59    0.90
  20  -1  12    1.59    0.90
  19  -1  12   94.38    3.14
  18  -1  12  165.34    5.89
  17  -1  12   43.07    2.28
  16  -1  12  256.64    6.25
  15  -1  12  115.12    4.16
  14  -1  12  373.93   21.61
  13  -1  12    4.55    0.94
  12  -1  12  129.39    8.82
  11  -1  12  128.05    4.19
  10  -1  12  519.90   21.21
   9  -1  12 1074.67   23.74
   8  -1  12 1073.91   23.12
   7  -1  12  153.42    5.53
   6  -1  12   10.73    0.76
   5  -1  12    7.80    0.76
   4  -1  12 2489.71   87.98
   1  -1  12 1052.02   39.09
  -1  -1  12  543.75   23.23
  -2  -1  12   18.93    1.30
  -3  -1  12  275.14   12.10
  -4  -1  12  313.70    9.32
  -6  -1  12   16.01    0.90
  -7  -1  12    1.73    0.54
  -9  -1  12    8.20    0.69
 -10  -1  12  122.85    7.59
 -11  -1  12  463.79   12.79
 -12  -1  12    0.94    0.51
 -13  -1  12    5.49    0.58
 -14  -1  12  689.83   22.51
 -15  -1  12   24.43    1.05
 -16  -1  12    1.37    0.58
 -17  -1  12   58.32    2.42
 -18  -1  12   43.90    4.26
 -19  -1  12   25.47    1.73
 -20  -1  12    8.45    1.08
 -21  -1  12  198.73    6.29
 -22  -1  12  169.78    9.07
 -23  -1  12   19.69    1.45
 -24  -1  12    1.30    1.08
 -25  -1  12    3.94    0.76
 -26  -1  12   -0.40    0.90
 -27  -1  12   22.15    1.55
 -28  -1  12   -1.12    1.01
 -29  -1  12   10.66    0.98
 -30  -1  12    0.00    0.90
 -32  -1  12   -0.61    1.55
 -33  -1  12    1.88    1.66
  27  -1  13   22.94    3.54
  26  -1  13   59.29    3.47
  25  -1  13    8.64    1.05
  24  -1  13    8.56    1.26
  23  -1  13   53.84    2.46
  22  -1  13   80.47    3.83
  21  -1  13   20.13    1.05
  20  -1  13   20.78    1.37
  19  -1  13  482.07   12.65
  18  -1  13  113.56    4.66
  17  -1  13   10.04    1.08
  16  -1  13   53.84    3.00
  15  -1  13  493.60   11.92
  14  -1  13  848.56   21.28
  13  -1  13   91.59    3.04
  12  -1  13   55.17    2.78
  11  -1  13  222.57    6.00
  10  -1  13  197.57    5.89
   9  -1  13   75.01    3.47
   8  -1  13  445.83   12.86
   7  -1  13  452.99   14.38
   6  -1  13   43.76    1.99
   5  -1  13   70.13    3.58
   1  -1  13   63.19    3.14
  -4  -1  13 1287.24   38.01
  -5  -1  13  609.51   23.16
  -6  -1  13  310.92   11.63
  -7  -1  13   95.68    3.72
  -8  -1  13  108.65    5.82
  -9  -1  13  105.76    4.37
 -10  -1  13  111.58    4.59
 -11  -1  13   80.18    3.25
 -12  -1  13  273.48    8.53
 -13  -1  13   79.85    2.64
 -14  -1  13    7.99    0.79
 -15  -1  13   47.48    1.84
 -16  -1  13   79.35    3.40
 -17  -1  13   28.11    1.63
 -18  -1  13   33.78    1.91
 -19  -1  13   22.37    3.07
 -20  -1  13   45.13    2.53
 -21  -1  13   33.24    2.31
 -22  -1  13  100.77    4.08
 -23  -1  13   26.01    1.55
 -24  -1  13   23.34    2.06
 -25  -1  13   15.36    1.81
 -26  -1  13   31.62    1.34
 -27  -1  13   11.27    1.01
 -28  -1  13   11.60    0.94
 -29  -1  13    4.66    0.90
 -30  -1  13    2.46    0.87
 -31  -1  13    4.48    0.98
 -32  -1  13    1.23    0.61
 -33  -1  13    8.71    1.48
 -34  -1  13    0.04    1.01
  26  -1  14    6.72    0.98
  25  -1  14    2.46    0.90
  24  -1  14   25.91    1.70
  23  -1  14   27.79    1.84
  22  -1  14   15.21    1.26
  21  -1  14   15.68    1.45
  20  -1  14    2.42    1.16
  19  -1  14   18.90    2.89
  18  -1  14  146.95    5.09
  17  -1  14    8.09    1.05
  16  -1  14   10.12    1.08
  15  -1  14    5.82    0.94
  14  -1  14  280.53    8.09
  13  -1  14  663.71   16.44
  12  -1  14  367.17   12.68
  11  -1  14   71.79    2.35
  10  -1  14  293.03    7.52
   9  -1  14  125.70    4.19
   8  -1  14    5.64    0.79
   7  -1  14  131.74    5.49
   5  -1  14   78.98    4.77
   3  -1  14  101.39    4.62
   2  -1  14  194.75    6.29
   1  -1  14  283.24   13.15
   0  -1  14   68.94    2.49
  -1  -1  14   60.99    3.94
  -2  -1  14    9.39    0.87
  -6  -1  14  301.05   12.50
  -7  -1  14   57.67    3.50
  -8  -1  14   69.52    2.42
 -11  -1  14  453.09   18.03
 -12  -1  14  102.87    6.29
 -13  -1  14   13.33    1.70
 -14  -1  14    9.79    0.98
 -15  -1  14  213.76    5.78
 -16  -1  14    4.19    0.83
 -17  -1  14    1.59    0.69
 -18  -1  14   24.64    1.66
 -19  -1  14   70.28    3.25
 -20  -1  14   26.27    3.11
 -21  -1  14   -0.94    0.79
 -22  -1  14   29.92    2.24
 -23  -1  14    3.83    0.83
 -24  -1  14   15.25    1.52
 -25  -1  14   -0.98    1.41
 -26  -1  14    4.19    2.42
 -27  -1  14    0.72    0.87
 -28  -1  14   -0.18    1.01
 -29  -1  14    9.76    0.90
 -30  -1  14    4.26    1.26
 -31  -1  14    1.84    1.41
 -32  -1  14    0.51    0.90
 -33  -1  14   -0.07    1.77
  25  -1  15    2.24    1.55
  24  -1  15    4.91    1.66
  23  -1  15   48.38    2.64
  22  -1  15   43.50    2.82
  21  -1  15    2.85    1.12
  20  -1  15   42.20    3.32
  19  -1  15  120.54    4.95
  18  -1  15   88.09    3.32
  17  -1  15    3.87    0.87
  16  -1  15    6.47    1.01
  15  -1  15  336.35   18.79
  14  -1  15   78.91    5.78
  13  -1  15   71.04    3.40
  12  -1  15  118.87    4.73
  11  -1  15  158.22    4.12
  10  -1  15   -0.14    0.61
   9  -1  15  127.44    5.31
   8  -1  15   41.52    2.10
   7  -1  15  754.36   30.89
   6  -1  15  213.86   10.01
   5  -1  15  346.14    9.94
   4  -1  15    6.18    1.23
  -6  -1  15  143.99    5.89
  -8  -1  15  264.38   11.96
  -9  -1  15   22.08    1.37
 -11  -1  15  172.13    8.24
 -12  -1  15   54.99    3.58
 -13  -1  15   49.57    3.43
 -14  -1  15  146.84    6.21
 -15  -1  15   32.74    1.91
 -16  -1  15   15.25    2.06
 -17  -1  15   11.27    0.90
 -18  -1  15   25.91    1.48
 -19  -1  15   23.92    2.60
 -20  -1  15    4.91    0.90
 -21  -1  15    1.23    0.72
 -22  -1  15   28.07    1.63
 -23  -1  15    2.38    1.12
 -24  -1  15    0.54    1.63
 -25  -1  15    0.22    1.19
 -26  -1  15   16.84    1.66
 -27  -1  15    0.22    0.79
 -28  -1  15    0.25    0.65
 -29  -1  15    4.62    0.83
 -30  -1  15    0.36    1.37
 -31  -1  15   -1.45    1.26
 -32  -1  15   -1.08    1.16
  24  -1  16   -1.08    1.55
  23  -1  16    3.00    2.38
  22  -1  16    0.83    0.65
  21  -1  16   11.06    1.01
  20  -1  16    4.95    1.52
  19  -1  16    7.33    0.87
  18  -1  16  105.18    7.19
  17  -1  16   15.79    1.05
  16  -1  16   97.77    3.43
  15  -1  16    2.17    0.94
  14  -1  16  195.73    7.30
  13  -1  16    6.25    0.83
  12  -1  16  201.25    7.44
  11  -1  16   40.79    1.59
  10  -1  16   41.19    1.99
   9  -1  16    3.22    0.72
   8  -1  16   50.19    3.76
   7  -1  16   90.00    3.72
   5  -1  16  176.61    9.76
   4  -1  16   18.17    1.48
   3  -1  16    4.48    0.98
   2  -1  16  314.24    8.53
   0  -1  16   35.05    2.38
  -6  -1  16   61.39    3.11
  -8  -1  16    0.43    0.43
  -9  -1  16   83.79    3.07
 -10  -1  16   65.40    3.58
 -11  -1  16  245.62   10.73
 -12  -1  16   72.23    4.48
 -13  -1  16   13.73    1.59
 -14  -1  16   38.48    2.13
 -15  -1  16  101.35    6.07
 -16  -1  16    1.84    0.61
 -17  -1  16    3.40    0.87
 -18  -1  16   19.33    1.48
 -19  -1  16    5.02    0.79
 -20  -1  16    0.61    0.72
 -21  -1  16    2.38    0.83
 -23  -1  16   23.02    1.84
 -24  -1  16    0.98    0.98
 -25  -1  16   20.34    1.12
 -26  -1  16    7.33    0.90
 -27  -1  16    6.61    1.26
 -28  -1  16    2.46    0.90
 -29  -1  16    0.65    0.94
 -30  -1  16    2.96    1.55
  22  -1  17    5.74    1.01
  21  -1  17    4.16    1.26
  20  -1  17   61.10    3.18
  19  -1  17   20.05    1.81
  18  -1  17    5.31    0.90
  17  -1  17   26.92    1.88
  16  -1  17   55.68    2.38
  15  -1  17  156.67    6.50
  14  -1  17    1.41    0.83
  13  -1  17   77.14    5.67
  12  -1  17   23.38    1.30
  11  -1  17    1.26    0.79
  10  -1  17   36.10    1.48
   9  -1  17  509.53   15.93
   8  -1  17    3.43    0.79
   7  -1  17  171.34    7.05
   6  -1  17  363.27   14.96
  -2  -1  17    0.98    0.65
  -9  -1  17   24.14    1.95
 -10  -1  17   60.99    1.88
 -11  -1  17    5.13    1.16
 -12  -1  17    6.54    0.72
 -15  -1  17    1.05    0.65
 -16  -1  17    0.29    1.12
 -17  -1  17    1.41    0.69
 -18  -1  17   44.26    2.64
 -19  -1  17    0.54    1.12
 -20  -1  17    6.03    1.41
 -21  -1  17   -0.58    0.98
 -22  -1  17    7.66    0.83
 -23  -1  17   -0.25    0.72
 -24  -1  17    5.09    0.87
 -25  -1  17    1.91    1.30
 -26  -1  17    6.65    0.87
 -27  -1  17    4.01    1.52
 -28  -1  17    1.19    2.53
 -29  -1  17    2.75    1.59
 -31  -1  17   -1.26    2.38
  20  -1  18    8.06    1.12
  19  -1  18   29.74    1.70
  18  -1  18   70.10    5.24
  17  -1  18   25.04    1.88
  16  -1  18   41.66    2.17
  15  -1  18    1.16    0.90
  14  -1  18   27.97    1.55
  13  -1  18   12.68    1.52
  12  -1  18  113.49    4.66
  11  -1  18   69.41    2.53
  10  -1  18   19.08    1.41
   9  -1  18   25.26    1.66
   8  -1  18   21.79    1.70
   7  -1  18   12.75    1.30
   6  -1  18    4.66    1.48
   4  -1  18    0.87    1.16
   3  -1  18    8.85    0.90
 -10  -1  18    0.94    0.65
 -12  -1  18    3.32    1.19
 -13  -1  18   21.68    2.20
 -15  -1  18   16.40    1.59
 -16  -1  18    0.47    1.12
 -17  -1  18    3.43    1.30
 -18  -1  18    1.23    0.72
 -19  -1  18   -0.76    0.76
 -20  -1  18    1.91    0.79
 -21  -1  18    5.71    1.26
 -22  -1  18   -0.43    1.34
 -23  -1  18   -0.61    1.05
 -24  -1  18    1.30    0.98
 -25  -1  18    5.02    0.94
 -26  -1  18    3.90    1.01
 -27  -1  18    3.14    1.23
 -29  -1  18   -1.84    1.30
  19  -1  19   19.48    1.88
  18  -1  19   11.42    1.26
  17  -1  19    1.16    1.01
  16  -1  19    1.91    1.48
  15  -1  19   45.27    4.30
  14  -1  19   14.13    1.23
  13  -1  19   78.66    6.18
  12  -1  19   18.43    1.63
  11  -1  19   15.54    1.23
  10  -1  19   23.81    1.59
   9  -1  19  152.04    6.07
   7  -1  19    2.60    0.76
   6  -1  19   14.63    1.77
   5  -1  19  144.93    8.96
   3  -1  19   48.34    1.95
 -10  -1  19    8.85    0.79
 -11  -1  19    5.09    0.90
 -13  -1  19    0.87    0.79
 -14  -1  19   69.19    4.70
 -16  -1  19    5.20    0.90
 -17  -1  19    6.54    1.41
 -18  -1  19    9.03    1.05
 -19  -1  19    2.38    0.76
 -20  -1  19   13.26    1.23
 -22  -1  19    4.52    1.37
 -23  -1  19    1.19    1.12
 -24  -1  19    9.86    2.06
 -25  -1  19    3.47    3.07
 -30  -1  19   -3.29    3.04
  18  -1  20   -0.11    0.87
  17  -1  20  102.98    3.69
  16  -1  20   52.46    2.13
  15  -1  20    7.15    1.23
  14  -1  20   18.86    1.88
  13  -1  20   14.81    1.37
  12  -1  20   28.69    2.10
  11  -1  20   16.91    2.20
  10  -1  20   12.90    1.95
   9  -1  20    0.18    0.65
   8  -1  20   -0.29    0.69
   6  -1  20   26.88    2.20
   5  -1  20    3.54    0.79
   4  -1  20   24.79    1.19
 -12  -1  20    8.42    1.05
 -13  -1  20    0.22    0.72
 -15  -1  20    7.30    1.63
 -16  -1  20   -0.43    1.34
 -17  -1  20    8.27    0.83
 -18  -1  20    1.91    1.66
 -19  -1  20   -0.47    1.59
 -20  -1  20    4.08    1.59
 -21  -1  20   10.15    1.37
 -22  -1  20    1.48    1.08
 -23  -1  20    3.11    1.81
  16  -1  21    7.88    1.26
  15  -1  21    7.41    1.37
  14  -1  21    4.88    1.59
  13  -1  21   36.42    2.06
  12  -1  21    0.18    1.23
  11  -1  21    2.24    1.81
   8  -1  21   12.25    1.55
   7  -1  21    2.78    1.34
   6  -1  21   37.40    3.40
 -14  -1  21   32.30    1.66
 -15  -1  21    0.87    0.69
 -16  -1  21    4.95    0.90
 -19  -1  21   -0.40    1.12
 -20  -1  21   16.69    1.19
 -21  -1  21    0.11    0.94
 -22  -1  21    1.26    0.87
 -24  -1  21    0.47    1.55
 -25  -1  21    0.65    1.23
 -26  -1  21    2.38    1.37
  13  -1  22    2.06    1.41
  12  -1  22   -0.65    2.06
  11  -1  22    5.85    1.01
   9  -1  22    3.22    1.63
   8  -1  22    0.07    0.94
   7  -1  22    0.29    1.23
   4  -1  22    4.95    1.08
 -16  -1  22    2.42    1.08
 -18  -1  22    2.93    1.37
 -20  -1  22   -2.93    2.17
 -22  -1  22   -1.12    1.81
 -24  -1  22    0.58    1.37
   9  -1  23   31.69    2.17
   8  -1  23    9.50    1.73
   7  -1  23   12.68    1.77
  11  -2 -26    1.01    1.81
   9  -2 -26    1.91    1.88
   7  -2 -26   -0.58    1.66
   3  -2 -26    0.29    1.66
  17  -2 -25   -0.94    1.23
  16  -2 -25    4.16    1.37
  15  -2 -25   -0.90    1.19
  11  -2 -25    4.23    1.48
   9  -2 -25    2.49    1.26
   8  -2 -25    4.95    1.77
   7  -2 -25   30.78    2.06
   6  -2 -25    2.96    1.19
   5  -2 -25   16.26    2.31
   4  -2 -25    3.07    1.30
   1  -2 -25    3.07    1.16
  14  -2 -24   -1.05    0.94
  13  -2 -24    0.36    1.59
  10  -2 -24   14.06    1.59
   8  -2 -24    5.89    0.90
   7  -2 -24   -1.55    1.45
   3  -2 -24    4.66    1.19
   1  -2 -24   12.57    1.23
  -4  -2 -24   15.72    1.48
  -5  -2 -24   -0.43    1.55
  -6  -2 -24    2.85    1.45
  -8  -2 -24   17.92    1.59
  20  -2 -23    7.01    1.84
  18  -2 -23   -0.65    1.91
  17  -2 -23    6.40    1.30
  16  -2 -23    4.12    0.79
  15  -2 -23    2.13    0.79
  14  -2 -23    0.47    1.12
  13  -2 -23    3.79    1.70
  12  -2 -23    1.77    0.87
  11  -2 -23    1.84    1.70
  10  -2 -23   -0.22    1.01
   8  -2 -23   30.71    2.49
   6  -2 -23    5.20    0.94
   5  -2 -23    1.26    1.48
   3  -2 -23   13.33    1.70
   0  -2 -23   31.18    3.50
  -1  -2 -23   27.97    2.46
  -3  -2 -23    4.23    1.23
  -4  -2 -23   -1.52    1.37
  -5  -2 -23    7.33    1.70
  -6  -2 -23   19.80    1.66
  -7  -2 -23   12.50    0.98
  -8  -2 -23   -0.36    1.23
  -9  -2 -23   -0.04    1.63
 -10  -2 -23   24.86    2.93
 -11  -2 -23   20.16    1.66
  23  -2 -22    1.45    1.34
  22  -2 -22   -0.25    1.19
  21  -2 -22    2.57    0.98
  20  -2 -22    3.22    1.08
  19  -2 -22   -0.58    1.23
  18  -2 -22    0.90    1.77
  17  -2 -22    2.10    0.90
  16  -2 -22    6.07    1.77
  15  -2 -22    7.08    1.34
  14  -2 -22    2.67    1.05
  13  -2 -22   -0.25    1.88
  12  -2 -22    0.65    0.76
  11  -2 -22    2.10    1.08
  10  -2 -22    0.79    1.05
   9  -2 -22   10.84    0.87
   8  -2 -22   29.59    2.02
   7  -2 -22   40.03    1.73
   6  -2 -22   -0.18    0.65
   4  -2 -22   10.88    1.23
   3  -2 -22    3.72    1.26
   2  -2 -22    0.87    0.83
   1  -2 -22    0.14    1.05
  -1  -2 -22    0.47    0.61
  -2  -2 -22   27.46    1.77
  -3  -2 -22    6.21    1.01
  -4  -2 -22    6.32    0.87
  -5  -2 -22    9.36    2.17
  -6  -2 -22    5.60    0.79
  -7  -2 -22   15.18    1.66
  -8  -2 -22   41.23    2.35
  -9  -2 -22   48.89    2.28
 -10  -2 -22    0.07    1.19
 -11  -2 -22   -0.25    1.26
 -12  -2 -22    5.93    1.08
 -13  -2 -22   17.52    1.12
  26  -2 -21   -0.40    1.48
  25  -2 -21    0.51    1.63
  24  -2 -21    2.38    2.35
  23  -2 -21    1.23    1.37
  22  -2 -21    0.79    1.66
  21  -2 -21    4.95    0.87
  20  -2 -21    1.95    0.83
  19  -2 -21    6.00    0.94
  18  -2 -21    9.57    1.08
  17  -2 -21   12.21    1.05
  16  -2 -21    2.75    0.90
  15  -2 -21    1.99    0.65
  14  -2 -21    2.64    0.90
  13  -2 -21   22.00    1.34
  12  -2 -21   20.41    1.55
  11  -2 -21    0.14    0.79
  10  -2 -21   50.91    2.31
   9  -2 -21   50.15    3.40
   8  -2 -21   31.22    1.52
   7  -2 -21    2.85    0.76
   6  -2 -21   55.50    3.87
   5  -2 -21   11.74    1.34
   4  -2 -21   38.63    2.35
   3  -2 -21   55.82    4.05
   2  -2 -21  381.41   15.86
   1  -2 -21   89.57    3.11
   0  -2 -21  118.48    3.69
  -1  -2 -21   56.04    2.57
  -2  -2 -21  173.90    5.78
  -3  -2 -21   -0.98    1.48
  -4  -2 -21   18.39    1.37
  -5  -2 -21    7.15    0.87
  -6  -2 -21  174.44    6.00
  -7  -2 -21   48.16    2.10
  -8  -2 -21    9.36    0.79
  -9  -2 -21    6.43    0.98
 -10  -2 -21   32.59    2.10
 -11  -2 -21    0.61    0.98
 -12  -2 -21   52.32    2.78
 -13  -2 -21   20.49    1.37
 -14  -2 -21   11.63    1.52
 -15  -2 -21    7.48    1.01
  27  -2 -20    2.20    1.19
  26  -2 -20    0.07    1.45
  25  -2 -20    1.45    2.35
  24  -2 -20    0.14    0.90
  23  -2 -20    5.09    1.01
  22  -2 -20    2.78    1.30
  21  -2 -20    1.19    0.72
  20  -2 -20    3.58    0.79
  19  -2 -20    1.30    0.87
  18  -2 -20    0.61    0.79
  17  -2 -20    8.35    1.52
  16  -2 -20    3.04    0.61
  15  -2 -20    3.69    1.12
  14  -2 -20   70.82    2.93
  13  -2 -20   -0.22    0.76
  12  -2 -20    1.19    0.79
  11  -2 -20   32.41    1.66
  10  -2 -20   10.19    1.30
   9  -2 -20    8.42    1.30
   8  -2 -20   10.26    1.08
   7  -2 -20   51.05    2.89
   6  -2 -20    7.95    1.26
   5  -2 -20   67.89    3.14
   4  -2 -20    0.36    0.94
   3  -2 -20    8.27    1.23
   1  -2 -20    1.52    0.58
   0  -2 -20   17.63    1.01
  -1  -2 -20    1.84    1.41
  -2  -2 -20   42.09    2.17
  -3  -2 -20    7.70    0.83
  -4  -2 -20    2.13    0.87
  -5  -2 -20    8.82    0.72
  -6  -2 -20   47.91    2.17
  -7  -2 -20   28.51    1.81
  -8  -2 -20   78.51    3.58
  -9  -2 -20  106.73    3.79
 -10  -2 -20    5.24    1.08
 -11  -2 -20   11.60    1.12
 -12  -2 -20   26.67    1.59
 -13  -2 -20    1.45    1.05
 -14  -2 -20   24.75    1.48
 -15  -2 -20    0.54    0.98
 -16  -2 -20    7.01    1.26
 -17  -2 -20   14.67    1.41
  29  -2 -19    0.07    1.16
  27  -2 -19    0.90    1.45
  26  -2 -19    3.79    1.66
  25  -2 -19    3.58    0.90
  24  -2 -19   -2.24    2.02
  23  -2 -19    6.40    1.37
  22  -2 -19   -0.04    0.76
  21  -2 -19    7.52    1.37
  20  -2 -19    0.33    1.30
  19  -2 -19    0.90    0.79
  18  -2 -19    1.63    0.65
  17  -2 -19   73.13    3.43
  16  -2 -19   30.03    1.66
  15  -2 -19    1.99    0.87
  14  -2 -19    4.81    0.83
  13  -2 -19   18.46    1.12
  12  -2 -19   36.35    2.49
  11  -2 -19    2.64    0.65
  10  -2 -19   61.82    2.31
   9  -2 -19   11.85    0.72
   8  -2 -19    5.46    0.76
   7  -2 -19   25.40    2.38
   6  -2 -19  202.74   10.44
   5  -2 -19   28.07    1.81
   4  -2 -19    1.45    0.79
   3  -2 -19   12.75    0.94
   2  -2 -19  171.70    5.67
   1  -2 -19    8.27    0.98
   0  -2 -19   16.22    1.01
  -1  -2 -19  124.37    5.71
  -3  -2 -19   46.50    2.35
  -4  -2 -19  233.59    7.30
  -5  -2 -19   24.35    1.52
  -6  -2 -19  184.20    6.07
  -7  -2 -19    4.55    0.76
  -8  -2 -19  171.52    4.81
  -9  -2 -19   76.82    3.29
 -10  -2 -19   34.47    2.46
 -11  -2 -19    2.64    1.05
 -12  -2 -19  178.17    4.55
 -13  -2 -19   48.16    2.89
 -14  -2 -19    2.06    0.98
 -15  -2 -19    9.76    1.19
 -16  -2 -19   99.22    3.43
 -17  -2 -19   33.35    1.95
 -18  -2 -19    5.78    1.08
 -19  -2 -19   18.14    1.63
  28  -2 -18    1.52    1.01
  27  -2 -18    9.07    1.48
  24  -2 -18    4.99    1.16
  23  -2 -18   17.45    1.41
  22  -2 -18    5.42    0.76
  21  -2 -18    0.65    1.19
  20  -2 -18    3.65    0.87
  19  -2 -18    2.46    0.72
  18  -2 -18    5.38    0.87
  17  -2 -18    0.18    1.05
  16  -2 -18    2.71    0.76
  15  -2 -18   26.56    1.66
  14  -2 -18   77.79    2.82
  13  -2 -18   18.90    0.94
  12  -2 -18    5.56    0.79
  11  -2 -18   97.12    3.76
  10  -2 -18    1.08    0.69
   9  -2 -18  136.61    4.88
   8  -2 -18   15.68    1.45
   7  -2 -18  168.84    5.49
   6  -2 -18    7.33    1.30
   5  -2 -18   50.48    1.99
   4  -2 -18  146.33    6.83
   3  -2 -18    5.93    1.19
   2  -2 -18   43.97    3.00
   1  -2 -18   17.27    1.52
   0  -2 -18   21.03    1.59
  -1  -2 -18  151.14    5.67
  -2  -2 -18   63.63    2.10
  -3  -2 -18   12.86    0.94
  -4  -2 -18   -0.58    0.61
  -5  -2 -18  232.87    7.37
  -6  -2 -18  102.72    4.34
  -7  -2 -18    3.94    0.72
  -8  -2 -18  132.39    4.05
 -10  -2 -18   72.59    4.99
 -11  -2 -18    1.45    0.94
 -12  -2 -18   20.41    1.77
 -13  -2 -18    4.91    1.73
 -14  -2 -18  196.23    5.06
 -15  -2 -18    2.53    0.98
 -16  -2 -18   30.24    1.91
 -17  -2 -18   27.35    1.48
 -18  -2 -18    2.10    1.05
 -19  -2 -18   20.41    1.66
 -20  -2 -18    8.74    1.48
 -21  -2 -18    6.07    0.94
  31  -2 -17    3.22    2.10
  30  -2 -17   10.15    3.58
  28  -2 -17    0.36    0.98
  26  -2 -17    2.75    1.12
  25  -2 -17    8.09    1.34
  24  -2 -17    1.26    1.37
  23  -2 -17    4.73    1.34
  22  -2 -17    4.91    1.01
  21  -2 -17   13.87    0.90
  20  -2 -17    2.13    1.30
  18  -2 -17   20.38    1.84
  17  -2 -17   87.33    6.25
  16  -2 -17    0.76    0.69
  15  -2 -17   90.55    3.18
  14  -2 -17    2.20    0.65
  13  -2 -17   15.86    1.34
  12  -2 -17   49.97    1.91
  11  -2 -17   44.23    2.10
  10  -2 -17    0.00    0.61
   9  -2 -17    8.09    0.98
   8  -2 -17   11.53    1.41
   7  -2 -17  119.63    4.12
   6  -2 -17  108.50    4.23
   5  -2 -17   16.37    0.98
   4  -2 -17    7.95    0.72
   3  -2 -17   35.66    1.48
   2  -2 -17    3.43    0.54
   1  -2 -17   42.38    2.28
   0  -2 -17  177.05    5.82
  -1  -2 -17   12.25    0.83
  -2  -2 -17   43.32    2.06
  -3  -2 -17   28.26    1.34
  -4  -2 -17  120.86    4.59
  -5  -2 -17    0.54    0.69
  -6  -2 -17   70.13    2.31
  -7  -2 -17  505.41   12.61
  -8  -2 -17  325.08   13.40
  -9  -2 -17   25.80    1.37
 -10  -2 -17    5.46    0.76
 -11  -2 -17   10.37    0.98
 -12  -2 -17  221.34    5.49
 -13  -2 -17   39.38    2.38
 -14  -2 -17   15.50    1.05
 -15  -2 -17    4.55    0.87
 -16  -2 -17  164.47    6.61
 -17  -2 -17   20.38    1.08
 -18  -2 -17   64.68    5.20
 -19  -2 -17   27.42    1.73
 -20  -2 -17   18.86    1.48
 -21  -2 -17    1.41    1.08
 -22  -2 -17   26.56    1.63
  28  -2 -16   -0.61    0.87
  27  -2 -16    2.06    1.91
  26  -2 -16    0.43    0.87
  25  -2 -16    0.29    0.98
  24  -2 -16    1.84    1.30
  23  -2 -16    8.71    0.94
  22  -2 -16    0.11    0.87
  21  -2 -16    5.56    1.63
  20  -2 -16    4.44    0.87
  19  -2 -16   15.79    1.52
  18  -2 -16   37.47    2.24
  17  -2 -16    9.03    1.12
  16  -2 -16   11.71    1.48
  15  -2 -16   90.62    3.36
  14  -2 -16   36.96    2.10
  13  -2 -16   51.81    2.17
  12  -2 -16    3.36    0.61
  11  -2 -16  325.84    8.27
  10  -2 -16   82.13    3.40
   9  -2 -16  109.26    3.83
   8  -2 -16  129.17    4.66
   7  -2 -16    0.11    0.54
   6  -2 -16   10.91    0.72
   5  -2 -16  137.63    4.99
   4  -2 -16  431.31   13.44
   3  -2 -16   34.61    2.20
   2  -2 -16  108.18    3.79
   1  -2 -16    8.82    0.69
   0  -2 -16    3.40    0.51
  -1  -2 -16  252.85   10.84
  -2  -2 -16  549.39   17.23
  -3  -2 -16   94.81    3.83
  -4  -2 -16   26.27    1.84
  -5  -2 -16   17.16    1.19
  -6  -2 -16    6.68    0.90
  -7  -2 -16  411.54   17.70
  -8  -2 -16  327.64    7.48
  -9  -2 -16  190.78    9.83
 -10  -2 -16  232.36    7.30
 -11  -2 -16    2.38    0.87
 -12  -2 -16   11.24    1.08
 -13  -2 -16   58.17    3.07
 -15  -2 -16   10.19    1.41
 -16  -2 -16   22.69    1.48
 -17  -2 -16   47.33    2.82
 -18  -2 -16    7.77    1.30
 -19  -2 -16   19.91    1.59
 -20  -2 -16   10.48    1.63
 -21  -2 -16   30.10    1.88
 -22  -2 -16   63.63    3.65
 -23  -2 -16   11.45    1.19
 -24  -2 -16    3.50    0.94
  31  -2 -15   -0.29    0.72
  30  -2 -15    3.14    1.19
  29  -2 -15    3.94    1.12
  28  -2 -15    0.11    0.72
  27  -2 -15    4.12    1.16
  26  -2 -15   19.22    1.63
  25  -2 -15   -0.40    0.94
  24  -2 -15    0.29    0.79
  23  -2 -15   29.45    1.48
  22  -2 -15   18.03    1.19
  21  -2 -15   12.25    1.19
  20  -2 -15    5.35    1.37
  19  -2 -15   67.71    2.42
  18  -2 -15    6.40    0.90
  17  -2 -15   24.57    1.34
  16  -2 -15   34.87    1.73
  15  -2 -15  112.37    3.72
  14  -2 -15    1.52    1.16
  13  -2 -15    0.40    0.98
  12  -2 -15  172.93    6.11
  11  -2 -15  225.21    5.64
  10  -2 -15   -0.11    0.76
   9  -2 -15  315.47   10.91
   8  -2 -15    9.29    0.98
   7  -2 -15  709.09   19.22
   6  -2 -15  362.91    8.13
   5  -2 -15  164.65    6.79
   4  -2 -15    0.22    0.47
   3  -2 -15  268.13   13.77
   2  -2 -15   44.95    1.30
   1  -2 -15  301.59   11.42
   0  -2 -15   86.90    3.58
  -1  -2 -15    4.08    0.72
  -2  -2 -15   17.27    0.94
  -3  -2 -15  374.40   12.54
  -4  -2 -15  428.27   11.13
  -5  -2 -15  321.83    7.23
  -6  -2 -15    7.91    0.79
  -7  -2 -15   65.22    2.28
  -8  -2 -15  172.78   10.48
  -9  -2 -15  215.78    5.96
 -10  -2 -15   18.25    2.46
 -11  -2 -15  351.06    8.71
 -12  -2 -15  174.77    6.00
 -13  -2 -15  185.90    5.17
 -14  -2 -15   36.57    3.58
 -15  -2 -15   36.38    2.89
 -16  -2 -15   58.57    4.01
 -17  -2 -15   19.73    1.66
 -18  -2 -15  149.62    6.18
 -19  -2 -15    7.26    0.83
 -20  -2 -15   45.42    4.62
 -21  -2 -15   17.05    1.52
 -22  -2 -15   23.27    1.73
 -23  -2 -15    8.89    1.16
 -24  -2 -15    8.27    1.55
 -25  -2 -15   16.40    1.52
  34  -2 -14    1.63    0.72
  33  -2 -14    0.22    1.19
  32  -2 -14    6.87    1.73
  31  -2 -14   -0.04    1.16
  30  -2 -14    3.11    1.41
  29  -2 -14   -0.33    0.69
  28  -2 -14    8.35    1.05
  27  -2 -14    1.23    0.90
  26  -2 -14    2.60    0.98
  24  -2 -14    0.04    1.08
  23  -2 -14    9.07    0.98
  22  -2 -14   78.01    3.40
  21  -2 -14    0.90    0.87
  20  -2 -14    2.02    0.76
  18  -2 -14    3.47    0.87
  17  -2 -14    6.79    0.72
  16  -2 -14    8.02    1.12
  15  -2 -14   58.46    2.38
  14  -2 -14    4.48    1.73
  13  -2 -14  425.06   13.01
  12  -2 -14   64.42    4.41
  11  -2 -14   50.87    2.85
  10  -2 -14   77.36    2.13
   9  -2 -14  358.54    7.70
   8  -2 -14  106.59    4.59
   7  -2 -14   21.39    1.23
   6  -2 -14   87.44    3.04
   5  -2 -14  203.35    6.11
   4  -2 -14  102.22    7.23
   3  -2 -14    2.31    0.54
   2  -2 -14  294.22    9.61
   1  -2 -14  190.23    9.21
   0  -2 -14   21.21    1.37
  -1  -2 -14    2.20    0.51
  -2  -2 -14   18.72    0.87
  -3  -2 -14  491.43   13.19
  -4  -2 -14  119.85    7.15
  -5  -2 -14    3.79    1.12
  -6  -2 -14  287.28    8.13
  -7  -2 -14  272.54   11.42
  -8  -2 -14  155.51    4.55
  -9  -2 -14   10.73    0.90
 -10  -2 -14  458.77   14.60
 -11  -2 -14    2.85    0.65
 -12  -2 -14  186.87    7.30
 -13  -2 -14   -0.22    0.83
 -14  -2 -14  237.93    7.88
 -15  -2 -14   94.67    5.78
 -16  -2 -14  147.17    4.30
 -17  -2 -14   64.53    3.00
 -18  -2 -14    9.25    1.01
 -19  -2 -14  128.92    8.31
 -20  -2 -14    7.55    0.94
 -21  -2 -14    8.38    1.37
 -22  -2 -14   78.37    4.37
 -23  -2 -14   41.15    2.10
 -24  -2 -14   20.60    1.81
 -25  -2 -14   -0.61    0.83
 -26  -2 -14   27.53    1.91
  34  -2 -13    0.72    1.66
  32  -2 -13   -4.41    1.41
  30  -2 -13    3.76    0.94
  29  -2 -13    9.39    1.19
  28  -2 -13    1.63    2.02
  27  -2 -13    0.07    0.98
  26  -2 -13   -0.22    0.83
  25  -2 -13   17.42    2.57
  24  -2 -13    3.97    0.94
  23  -2 -13   32.70    2.49
  22  -2 -13    5.06    0.76
  21  -2 -13  113.35    6.40
  20  -2 -13   83.97    3.65
  19  -2 -13    3.14    0.87
  18  -2 -13   33.49    2.10
  17  -2 -13   64.06    3.18
  16  -2 -13   24.71    1.34
  15  -2 -13  220.04   12.14
  14  -2 -13   98.03    4.37
  13  -2 -13   24.21    1.23
  12  -2 -13    3.00    0.72
  11  -2 -13   17.63    2.10
  10  -2 -13  108.32    2.89
   9  -2 -13  166.06    5.06
   8  -2 -13   13.04    0.76
   7  -2 -13   88.05    3.72
   6  -2 -13  312.25    7.23
   5  -2 -13  864.06   20.96
   4  -2 -13  172.17    5.31
   3  -2 -13  299.28    8.13
   2  -2 -13   70.35    2.71
   1  -2 -13 1346.60   30.71
   0  -2 -13  263.33    8.53
  -1  -2 -13  135.02    4.59
  -2  -2 -13    1.45    0.54
  -3  -2 -13 1092.56   31.22
  -4  -2 -13  814.81   20.34
  -5  -2 -13  155.95    4.88
  -6  -2 -13   12.00    1.55
  -7  -2 -13  379.93   16.98
  -8  -2 -13   62.00    2.46
  -9  -2 -13  236.59    7.05
 -10  -2 -13  169.75    5.42
 -11  -2 -13   22.00    1.66
 -12  -2 -13  247.72    9.07
 -13  -2 -13    4.84    0.69
 -14  -2 -13    4.23    0.72
 -15  -2 -13  172.39    6.18
 -16  -2 -13    6.18    0.76
 -17  -2 -13  146.59    4.91
 -18  -2 -13  397.96   18.21
 -19  -2 -13   31.29    1.55
 -20  -2 -13   29.66    2.10
 -21  -2 -13   31.33    1.52
 -22  -2 -13   50.87    2.53
 -23  -2 -13   78.66    3.65
 -24  -2 -13   25.40    1.77
 -25  -2 -13   -1.99    1.19
 -26  -2 -13   42.71    4.05
 -27  -2 -13   16.58    1.88
  35  -2 -12   -1.30    2.67
  34  -2 -12   -0.18    0.83
  33  -2 -12   -2.49    1.37
  32  -2 -12   19.29    2.60
  31  -2 -12    0.65    1.01
  30  -2 -12    0.79    0.69
  29  -2 -12    3.22    0.72
  28  -2 -12   14.06    1.45
  27  -2 -12    8.96    1.23
  26  -2 -12   -0.25    0.72
  25  -2 -12   22.29    1.26
  24  -2 -12    7.37    1.34
  23  -2 -12   62.18    3.14
  22  -2 -12   26.45    1.48
  21  -2 -12   80.39    3.18
  20  -2 -12  723.65   32.12
  19  -2 -12    5.82    1.12
  18  -2 -12   27.75    1.16
  17  -2 -12    5.31    1.08
  16  -2 -12   73.75    4.84
  15  -2 -12   39.89    2.02
  14  -2 -12   30.39    1.52
  13  -2 -12  384.34   11.82
  12  -2 -12  176.87    4.99
  11  -2 -12 1021.41   23.96
  10  -2 -12    0.51    0.54
   9  -2 -12  494.93   16.01
   8  -2 -12   13.48    0.79
   7  -2 -12  395.79    9.29
   6  -2 -12  298.23    9.29
   5  -2 -12  208.59    6.07
   4  -2 -12 1238.60   34.98
   3  -2 -12  185.18    6.11
   2  -2 -12   62.69    2.93
   1  -2 -12  973.68   25.65
   0  -2 -12 2674.59  109.05
  -1  -2 -12  355.36   14.60
  -2  -2 -12  109.66    3.47
  -3  -2 -12  123.61    3.50
  -4  -2 -12  904.09   21.75
  -5  -2 -12 1315.74   35.92
  -6  -2 -12  290.50   13.12
  -7  -2 -12   14.16    0.87
  -8  -2 -12  655.61   22.33
  -9  -2 -12   54.27    1.91
 -10  -2 -12  179.83    5.17
 -11  -2 -12   15.28    1.08
 -12  -2 -12 1250.81   36.20
 -13  -2 -12    3.07    1.63
 -14  -2 -12    8.53    0.94
 -15  -2 -12    1.45    0.90
 -16  -2 -12  365.80   10.70
 -17  -2 -12    7.33    1.12
 -18  -2 -12   29.48    1.45
 -20  -2 -12  317.13    8.71
 -21  -2 -12   54.78    2.17
 -22  -2 -12   34.72    3.72
 -23  -2 -12    0.87    0.72
 -24  -2 -12  112.01    4.30
 -25  -2 -12   -0.18    0.83
 -26  -2 -12    5.78    0.90
 -27  -2 -12   16.51    1.84
 -28  -2 -12   16.58    2.89
  35  -2 -11    1.19    1.41
  34  -2 -11    3.90    0.90
  33  -2 -11    5.31    0.79
  31  -2 -11    1.05    0.65
  30  -2 -11    1.30    0.79
  29  -2 -11    7.30    1.26
  28  -2 -11   12.47    1.30
  27  -2 -11   24.46    2.85
  26  -2 -11    7.77    0.98
  25  -2 -11    4.12    0.76
  24  -2 -11   30.89    1.66
  22  -2 -11    1.66    0.61
  20  -2 -11    3.25    0.79
  19  -2 -11  193.38    5.56
  18  -2 -11   96.40    3.40
  17  -2 -11   11.45    1.19
  16  -2 -11  169.13    4.95
  15  -2 -11  142.94    4.81
  14  -2 -11   18.86    1.05
  13  -2 -11  130.98    4.52
  12  -2 -11   13.15    0.79
  11  -2 -11   85.99    3.69
  10  -2 -11   51.09    2.24
   9  -2 -11   35.88    1.55
   8  -2 -11   62.76    3.04
   7  -2 -11   55.14    2.13
   6  -2 -11  289.89    9.79
   5  -2 -11   12.14    1.05
   4  -2 -11  224.42    7.33
   3  -2 -11  169.10    5.17
   2  -2 -11  448.11   24.79
   1  -2 -11   97.99    3.43
   0  -2 -11  969.49   22.44
  -1  -2 -11  843.10   26.23
  -2  -2 -11  618.90   13.01
  -3  -2 -11  141.17    7.15
  -4  -2 -11 1107.55   31.80
  -5  -2 -11  171.73    7.62
  -6  -2 -11  102.80    2.96
  -7  -2 -11   63.19    3.43
  -8  -2 -11   38.73    2.93
  -9  -2 -11 1098.77   32.63
 -10  -2 -11  367.68   11.13
 -11  -2 -11  213.83    9.43
 -12  -2 -11    1.95    1.01
 -13  -2 -11 1447.62   34.87
 -14  -2 -11   70.71    5.42
 -15  -2 -11    0.90    1.01
 -16  -2 -11  187.63    8.38
 -17  -2 -11  125.70    4.77
 -18  -2 -11  597.26   22.84
 -19  -2 -11   98.60    3.58
 -20  -2 -11    2.49    1.08
 -21  -2 -11    1.26    1.16
 -22  -2 -11   31.87    1.59
 -23  -2 -11   58.24    2.53
 -24  -2 -11   41.88    2.24
 -25  -2 -11    4.66    0.94
 -26  -2 -11   12.32    0.98
 -27  -2 -11   10.62    1.08
 -28  -2 -11   35.55    2.06
 -29  -2 -11   14.45    2.89
  35  -2 -10   -0.58    1.48
  34  -2 -10   -0.04    0.98
  33  -2 -10   -0.47    1.01
  32  -2 -10   12.00    1.88
  31  -2 -10   12.07    1.26
  30  -2 -10    7.26    0.87
  29  -2 -10   11.74    1.01
  28  -2 -10   16.55    1.34
  27  -2 -10   31.15    2.17
  26  -2 -10    1.34    1.26
  25  -2 -10   27.75    1.34
  24  -2 -10   27.50    2.67
  23  -2 -10   68.33    3.58
  22  -2 -10   55.61    2.78
  21  -2 -10    2.93    0.58
  20  -2 -10  117.68    3.79
  19  -2 -10   91.74    3.58
  18  -2 -10  157.72    4.81
  17  -2 -10   74.90    3.00
  16  -2 -10   51.81    2.96
  15  -2 -10  317.67    8.35
  14  -2 -10 1188.49   25.40
  13  -2 -10  275.04    7.73
  12  -2 -10  361.03   12.57
  11  -2 -10 1394.80   55.75
  10  -2 -10   84.62    2.78
   9  -2 -10    1.84    0.69
   8  -2 -10  158.76    6.11
   7  -2 -10  183.30   10.15
   6  -2 -10   71.94    3.29
   5  -2 -10  154.25    5.96
   4  -2 -10  923.97   22.00
   3  -2 -10  214.88    7.77
   2  -2 -10    9.68    0.83
   1  -2 -10  345.13    9.50
   0  -2 -10 2774.97   60.56
  -1  -2 -10  685.39   18.07
  -2  -2 -10  206.06    6.25
  -3  -2 -10   14.16    0.87
  -4  -2 -10  214.62    8.74
  -6  -2 -10   97.30    3.61
  -7  -2 -10  278.14   10.19
  -8  -2 -10 2696.74   89.82
  -9  -2 -10  508.92   14.85
 -10  -2 -10   13.30    1.66
 -11  -2 -10   26.27    1.55
 -12  -2 -10 1047.83   30.89
 -13  -2 -10    1.63    0.94
 -14  -2 -10  460.00   16.44
 -15  -2 -10   17.85    1.41
 -16  -2 -10   37.32    1.91
 -17  -2 -10   23.56    1.63
 -18  -2 -10   83.03    3.29
 -19  -2 -10    3.61    0.98
 -20  -2 -10  244.76    6.00
 -21  -2 -10   48.42    2.53
 -22  -2 -10   10.44    1.26
 -23  -2 -10    1.70    0.87
 -24  -2 -10   85.89    3.79
 -25  -2 -10    0.87    0.87
 -26  -2 -10   26.27    1.95
 -27  -2 -10   30.50    2.35
 -28  -2 -10   28.65    2.28
 -29  -2 -10    4.41    0.58
 -30  -2 -10    7.15    1.23
  35  -2  -9    0.04    0.76
  34  -2  -9    4.19    0.72
  33  -2  -9   -0.65    1.16
  32  -2  -9    8.82    1.01
  31  -2  -9    1.45    1.41
  30  -2  -9    0.29    0.65
  29  -2  -9    5.49    0.90
  28  -2  -9   13.98    1.16
  27  -2  -9   48.71    2.17
  26  -2  -9   39.02    1.52
  25  -2  -9    4.59    0.90
  24  -2  -9   80.14    4.30
  23  -2  -9   15.46    1.08
  22  -2  -9   12.18    1.05
  21  -2  -9   94.95    4.73
  20  -2  -9   91.12    2.71
  19  -2  -9  220.59    4.88
  18  -2  -9   12.28    1.01
  17  -2  -9  108.40    4.41
  16  -2  -9   78.95    2.82
  15  -2  -9    6.79    0.83
  14  -2  -9  100.01    6.07
  13  -2  -9 1515.30   34.04
  12  -2  -9  114.94    3.58
  11  -2  -9 1228.16   46.00
  10  -2  -9   66.55    2.71
   9  -2  -9 1048.76   31.22
   7  -2  -9  189.22    5.38
   6  -2  -9    2.24    0.51
   5  -2  -9 1704.05   39.93
   4  -2  -9   28.47    1.59
   3  -2  -9   15.14    0.76
   2  -2  -9  109.84    3.58
   1  -2  -9 1784.01   40.07
   0  -2  -9  186.30    8.09
  -1  -2  -9   13.48    0.65
  -2  -2  -9   30.35    2.71
  -3  -2  -9   12.83    0.79
  -4  -2  -9   27.82    2.20
  -5  -2  -9 1176.64   49.68
  -6  -2  -9 1718.04   77.61
  -7  -2  -9  119.99    4.23
  -8  -2  -9   63.74    3.47
  -9  -2  -9    3.54    1.05
 -11  -2  -9    4.88    0.69
 -12  -2  -9  148.14    8.71
 -13  -2  -9  275.07    9.43
 -14  -2  -9 1327.31   29.77
 -15  -2  -9  221.60    7.77
 -16  -2  -9   10.04    1.08
 -17  -2  -9   12.79    1.37
 -18  -2  -9  460.00   13.69
 -19  -2  -9   40.61    2.02
 -20  -2  -9   78.62    4.95
 -21  -2  -9    0.33    0.87
 -22  -2  -9   27.14    1.73
 -23  -2  -9    5.28    1.16
 -24  -2  -9    7.52    1.52
 -25  -2  -9   37.00    1.66
 -26  -2  -9   15.14    1.19
 -27  -2  -9    1.70    0.98
 -28  -2  -9   15.10    1.16
 -29  -2  -9   13.08    1.30
 -30  -2  -9   -0.25    0.69
 -31  -2  -9    6.54    1.41
  35  -2  -8    0.58    0.61
  34  -2  -8    0.54    0.94
  33  -2  -8    0.33    0.51
  32  -2  -8    7.01    2.02
  31  -2  -8    2.64    0.90
  30  -2  -8   12.18    1.26
  29  -2  -8    5.93    1.01
  28  -2  -8    0.76    0.72
  27  -2  -8   72.91    5.46
  26  -2  -8    3.04    1.59
  25  -2  -8    6.43    1.01
  24  -2  -8    8.64    0.98
  22  -2  -8  133.36    4.26
  21  -2  -8    3.54    0.76
  20  -2  -8    0.54    0.61
  19  -2  -8    2.82    0.61
  18  -2  -8   35.48    1.45
  17  -2  -8  159.88    6.94
  16  -2  -8    0.29    0.65
  15  -2  -8  479.90   16.19
  14  -2  -8  439.51   12.18
  13  -2  -8   37.29    1.95
  12  -2  -8 3021.64  111.72
  11  -2  -8 1712.76   45.24
  10  -2  -8   74.50    2.57
   9  -2  -8  752.01   16.11
   8  -2  -8  121.04    5.38
   7  -2  -8   75.52    3.97
   6  -2  -8   77.00    4.91
   5  -2  -8  167.04    6.76
   3  -2  -8  326.70    7.33
   2  -2  -8  230.88   10.70
   1  -2  -8   75.80    3.36
   0  -2  -8   11.53    0.69
  -1  -2  -8 1778.16   41.84
  -2  -2  -8    9.29    0.69
  -3  -2  -8   47.08    3.72
  -4  -2  -8  541.80   17.67
  -5  -2  -8    7.95    0.54
  -6  -2  -8  506.89   16.04
  -7  -2  -8    2.31    0.72
  -8  -2  -8  304.45    9.86
  -9  -2  -8  288.66   15.83
 -10  -2  -8  175.82    6.76
 -11  -2  -8   78.08    2.89
 -12  -2  -8    2.53    0.61
 -13  -2  -8  339.78   12.50
 -14  -2  -8 1074.38   42.49
 -15  -2  -8    2.89    1.30
 -16  -2  -8   24.35    1.52
 -17  -2  -8  307.66    9.54
 -18  -2  -8   91.34    3.65
 -19  -2  -8  218.20    9.32
 -20  -2  -8   50.73    3.36
 -21  -2  -8   50.87    2.17
 -22  -2  -8    4.19    0.76
 -23  -2  -8    1.23    0.98
 -24  -2  -8    1.88    0.72
 -25  -2  -8    2.06    0.72
 -26  -2  -8   39.02    3.07
 -27  -2  -8   41.80    2.20
 -28  -2  -8   10.19    1.19
 -29  -2  -8   53.66    2.71
 -30  -2  -8   11.06    1.19
 -31  -2  -8   -1.19    1.08
  35  -2  -7   -0.83    1.16
  34  -2  -7    0.40    0.65
  33  -2  -7    0.83    0.76
  32  -2  -7   14.16    0.98
  31  -2  -7    0.72    1.23
  30  -2  -7    0.51    0.83
  29  -2  -7    1.30    0.94
  28  -2  -7   15.14    1.37
  27  -2  -7   30.89    1.45
  26  -2  -7   -0.07    0.69
  25  -2  -7   38.95    2.17
  24  -2  -7  108.36    5.46
  23  -2  -7   72.37    2.13
  22  -2  -7    0.76    1.16
  21  -2  -7   59.11    1.99
  20  -2  -7  212.71    8.92
  19  -2  -7   51.42    2.06
  18  -2  -7    8.13    0.69
  16  -2  -7  386.36   10.59
  15  -2  -7  197.75    5.60
  14  -2  -7  212.42    6.14
  13  -2  -7 1028.53   22.94
  12  -2  -7  384.26   11.63
  11  -2  -7   34.87    2.10
  10  -2  -7   60.41    2.46
   9  -2  -7 2019.41   50.69
   8  -2  -7  522.61   20.16
   7  -2  -7   11.13    0.98
   6  -2  -7  874.10   20.99
   5  -2  -7 1002.41   41.95
   4  -2  -7    8.17    0.69
   3  -2  -7  426.18   16.58
   2  -2  -7 1259.41   29.66
   0  -2  -7  200.32    8.71
  -1  -2  -7 5173.08  125.31
  -3  -2  -7 2995.26   74.76
  -4  -2  -7 1439.96   59.40
  -5  -2  -7  738.25   30.75
  -6  -2  -7  451.29   12.79
  -7  -2  -7  453.31   14.16
  -8  -2  -7 1223.10   27.75
  -9  -2  -7 1547.82   41.66
 -10  -2  -7  792.48   34.04
 -11  -2  -7   97.85    3.83
 -12  -2  -7  219.47    8.82
 -13  -2  -7    2.96    0.83
 -14  -2  -7 1841.32   36.17
 -15  -2  -7  437.63   11.16
 -16  -2  -7  583.60   20.92
 -17  -2  -7    3.65    0.76
 -18  -2  -7  862.40   24.28
 -19  -2  -7  110.78    4.77
 -20  -2  -7  665.37   20.92
 -21  -2  -7  307.01   10.98
 -22  -2  -7  177.77    6.29
 -23  -2  -7   12.36    1.30
 -24  -2  -7  142.83    6.07
 -25  -2  -7   27.71    1.48
 -26  -2  -7   13.19    1.05
 -27  -2  -7    0.98    0.94
 -28  -2  -7   61.89    2.96
 -29  -2  -7   10.77    1.45
 -30  -2  -7    2.78    0.98
 -31  -2  -7    0.54    0.83
  35  -2  -6   -0.76    0.94
  34  -2  -6    5.09    0.90
  33  -2  -6   -0.94    1.59
  32  -2  -6    9.54    1.30
  31  -2  -6    5.89    0.98
  30  -2  -6    8.53    0.90
  29  -2  -6    1.05    0.83
  28  -2  -6    1.81    0.90
  27  -2  -6   22.04    1.08
  26  -2  -6    6.54    0.65
  25  -2  -6    5.24    1.30
  24  -2  -6   26.20    1.45
  23  -2  -6    2.02    1.05
  22  -2  -6   41.41    1.23
  21  -2  -6   13.77    0.79
  20  -2  -6  113.92    3.50
  19  -2  -6   31.40    2.78
  18  -2  -6   50.08    2.35
  17  -2  -6   81.48    3.61
  16  -2  -6  461.26   13.30
  15  -2  -6  664.39   16.98
  14  -2  -6    3.76    0.79
  13  -2  -6  436.40   13.01
  12  -2  -6    4.77    0.58
  11  -2  -6  482.04   15.83
  10  -2  -6  124.51    4.62
   9  -2  -6  822.65   16.95
   8  -2  -6  160.53    8.06
   7  -2  -6  853.33   23.56
   6  -2  -6    7.99    0.65
   5  -2  -6  279.01    9.00
   4  -2  -6   34.94    1.48
   3  -2  -6  216.86   11.63
   2  -2  -6  239.95    9.32
   1  -2  -6  481.31   11.06
   0  -2  -6  336.82   10.37
  -1  -2  -6 5249.03  176.25
  -2  -2  -6   54.23    2.24
  -3  -2  -6  475.17   25.44
  -4  -2  -6  405.73   12.10
  -5  -2  -6  988.97   25.11
  -6  -2  -6  822.40   26.05
  -7  -2  -6  925.59   29.23
  -8  -2  -6  392.07    9.00
  -9  -2  -6  216.65    7.80
 -10  -2  -6 1241.93   33.49
 -11  -2  -6  285.04    8.96
 -12  -2  -6  133.65    4.91
 -13  -2  -6  117.65    4.59
 -14  -2  -6   75.26    3.61
 -15  -2  -6  229.08    7.99
 -16  -2  -6  191.35    6.54
 -17  -2  -6  329.96    9.65
 -18  -2  -6  211.01    7.01
 -19  -2  -6  903.59   27.75
 -20  -2  -6   64.28    2.85
 -21  -2  -6  112.91    4.34
 -22  -2  -6  104.35    5.46
 -23  -2  -6   32.23    1.48
 -24  -2  -6   55.25    2.35
 -25  -2  -6    2.10    0.69
 -26  -2  -6  136.04    4.73
 -27  -2  -6    5.53    0.90
 -28  -2  -6   17.70    1.45
 -29  -2  -6   34.90    1.70
 -30  -2  -6   -0.43    0.79
 -31  -2  -6    4.23    0.98
 -32  -2  -6    0.47    0.90
 -33  -2  -6    3.04    1.19
  36  -2  -5    8.24    1.08
  34  -2  -5   -0.40    1.12
  33  -2  -5    0.76    1.05
  32  -2  -5    1.52    0.61
  31  -2  -5    3.36    1.45
  30  -2  -5   12.65    1.08
  29  -2  -5    1.45    0.76
  28  -2  -5   97.27    3.36
  27  -2  -5   10.19    0.98
  25  -2  -5    4.01    0.69
  24  -2  -5   65.58    3.22
  23  -2  -5    0.65    0.69
  22  -2  -5  108.32    7.95
  21  -2  -5   87.37    4.52
  20  -2  -5   52.90    1.77
  19  -2  -5   35.48    2.06
  18  -2  -5  258.96    6.50
  17  -2  -5  803.18   26.12
  16  -2  -5  125.92    3.72
  14  -2  -5  293.50    9.68
  12  -2  -5   50.44    4.66
  11  -2  -5 1446.83   39.13
  10  -2  -5  109.19    4.88
   9  -2  -5 3484.63   78.55
   8  -2  -5   13.77    0.76
   7  -2  -5   25.04    1.23
   6  -2  -5  233.81    6.18
   5  -2  -5  121.80    4.16
   4  -2  -5 2056.05   56.29
   2  -2  -5 2672.93   98.89
   1  -2  -5 1793.80   43.72
   0  -2  -5   65.25    2.64
  -1  -2  -5 1893.78   68.33
  -2  -2  -5 2181.75   58.93
  -3  -2  -5 2281.95   61.60
  -4  -2  -5  743.49   15.86
  -5  -2  -5 5834.62  200.82
  -6  -2  -5 2813.45   62.18
  -7  -2  -5    4.37    0.58
  -8  -2  -5 1070.77   22.29
  -9  -2  -5 7287.48  175.10
 -10  -2  -5  131.88    6.00
 -11  -2  -5  272.43    8.31
 -12  -2  -5    6.79    0.87
 -13  -2  -5  943.98   39.96
 -14  -2  -5    1.73    0.65
 -15  -2  -5  135.78    5.28
 -16  -2  -5  962.27   20.34
 -17  -2  -5  253.32   14.09
 -18  -2  -5    2.02    0.54
 -19  -2  -5   27.24    1.73
 -20  -2  -5  421.41   14.81
 -21  -2  -5   10.88    0.87
 -22  -2  -5   60.12    2.71
 -23  -2  -5   79.53    3.47
 -24  -2  -5 1011.84   20.92
 -25  -2  -5   27.75    1.88
 -26  -2  -5   28.07    1.55
 -27  -2  -5   13.33    1.16
 -28  -2  -5   39.82    4.08
 -29  -2  -5    5.78    0.94
 -30  -2  -5   36.02    2.28
 -31  -2  -5    8.60    0.98
 -32  -2  -5   15.10    1.34
 -33  -2  -5   -0.25    1.16
  35  -2  -4    0.72    0.83
  34  -2  -4   -0.07    0.58
  33  -2  -4    2.78    0.87
  32  -2  -4    3.90    0.58
  31  -2  -4    3.97    0.83
  30  -2  -4    1.45    0.54
  29  -2  -4   68.94    2.53
  28  -2  -4   38.16    3.32
  27  -2  -4   22.65    2.24
  26  -2  -4  103.48    3.65
  25  -2  -4    5.89    1.34
  24  -2  -4   47.33    2.24
  23  -2  -4    4.52    0.69
  22  -2  -4  150.60    7.91
  21  -2  -4   69.88    4.44
  19  -2  -4    2.24    0.47
  17  -2  -4  116.63    3.61
  16  -2  -4  229.69    9.11
  14  -2  -4  418.88   10.23
  13  -2  -4 1882.00   42.35
  12  -2  -4  113.92    3.14
  11  -2  -4   48.56    1.77
  10  -2  -4  734.63   19.94
   9  -2  -4 1929.73   43.03
   8  -2  -4  215.89   11.20
   7  -2  -4  231.10    6.94
   5  -2  -4 1841.21   76.17
   4  -2  -4  167.80    7.55
   3  -2  -4 2948.73   76.46
   2  -2  -4 4127.31   71.32
   0  -2  -4  466.43   21.10
  -1  -2  -4   29.01    1.19
  -2  -2  -4 1942.56   44.19
  -3  -2  -4 1648.99   43.72
  -5  -2  -4  261.20   12.39
  -6  -2  -4 5198.33  183.62
  -7  -2  -4 1479.64   35.08
  -8  -2  -4   16.55    0.94
  -9  -2  -4   57.20    2.02
 -10  -2  -4  442.65   16.01
 -11  -2  -4   93.98    3.69
 -12  -2  -4 1359.93   38.99
 -13  -2  -4  318.07    8.96
 -14  -2  -4 1634.46   47.41
 -15  -2  -4 1738.16   41.62
 -16  -2  -4   56.69    4.52
 -17  -2  -4   50.37    2.46
 -18  -2  -4  669.81   22.37
 -19  -2  -4  462.81   12.61
 -20  -2  -4   28.65    2.89
 -21  -2  -4    5.96    0.90
 -22  -2  -4  163.28    7.95
 -23  -2  -4   12.00    1.05
 -24  -2  -4   29.99    1.77
 -25  -2  -4  121.73    3.58
 -26  -2  -4    2.89    0.83
 -27  -2  -4   10.12    0.94
 -28  -2  -4   52.36    2.64
 -29  -2  -4   21.57    1.26
 -30  -2  -4   12.75    1.08
 -31  -2  -4    3.40    1.08
 -32  -2  -4   -0.54    0.90
 -33  -2  -4    2.38    0.83
 -34  -2  -4    4.95    1.66
  36  -2  -3    4.55    1.34
  35  -2  -3   -0.58    0.76
  34  -2  -3    6.58    0.76
  33  -2  -3    3.50    1.05
  32  -2  -3   16.44    1.41
  31  -2  -3   17.09    1.88
  30  -2  -3   26.20    2.10
  29  -2  -3    4.70    1.88
  28  -2  -3   11.92    1.52
  27  -2  -3   10.62    1.12
  26  -2  -3   16.91    1.01
  25  -2  -3   26.27    2.02
  24  -2  -3   21.97    1.77
  23  -2  -3   12.50    1.12
  22  -2  -3  210.97    5.17
  21  -2  -3   18.32    1.01
  20  -2  -3   29.81    2.24
  18  -2  -3  629.31   17.34
  17  -2  -3   98.57    4.23
  16  -2  -3  583.06   14.85
  15  -2  -3  175.85    4.73
  14  -2  -3   52.54    2.89
  13  -2  -3  111.18    5.20
  12  -2  -3 3117.06   78.12
  11  -2  -3  533.52   14.78
  10  -2  -3  395.28   11.89
   9  -2  -3   72.52    2.85
   8  -2  -3 3471.23   74.07
   5  -2  -3  364.72   20.23
   4  -2  -3   29.77    1.41
   2  -2  -3  277.64    7.12
   1  -2  -3  147.27    5.02
   0  -2  -3 1377.93   26.38
  -1  -2  -3 1703.04   65.76
  -2  -2  -3 2239.42   46.68
  -3  -2  -3 3096.65   79.17
  -4  -2  -3 1915.35   78.70
  -5  -2  -3  271.31   14.78
  -6  -2  -3  288.08    9.90
  -7  -2  -3 1635.04   46.90
  -8  -2  -3  182.43    5.96
  -9  -2  -3  196.49    6.00
 -10  -2  -3 1671.35   52.25
 -11  -2  -3 1654.81   32.27
 -12  -2  -3   46.25    2.71
 -13  -2  -3  698.94   18.10
 -14  -2  -3  191.28    6.40
 -15  -2  -3  825.07   22.73
 -17  -2  -3    3.40    0.87
 -18  -2  -3  120.28    6.36
 -19  -2  -3  723.11   32.12
 -20  -2  -3  268.03    8.45
 -21  -2  -3   18.61    1.12
 -22  -2  -3  502.85   15.54
 -23  -2  -3  123.72    4.48
 -24  -2  -3   76.06    3.18
 -25  -2  -3   23.38    1.37
 -26  -2  -3   93.11    3.83
 -27  -2  -3    8.56    0.83
 -28  -2  -3   16.98    1.34
 -29  -2  -3    0.54    0.72
 -30  -2  -3   73.20    2.42
 -31  -2  -3   12.86    1.70
 -32  -2  -3    1.08    0.69
  35  -2  -2    0.65    1.16
  34  -2  -2   10.12    1.19
  33  -2  -2    8.20    1.45
  32  -2  -2    1.08    1.05
  31  -2  -2    3.11    1.26
  30  -2  -2   10.62    1.34
  29  -2  -2  112.91    3.36
  28  -2  -2   17.78    1.19
  27  -2  -2    4.91    0.69
  26  -2  -2   87.33    3.07
  25  -2  -2   73.93    2.82
  24  -2  -2   42.06    1.52
  23  -2  -2    0.87    0.61
  22  -2  -2   30.13    1.45
  21  -2  -2   36.38    1.63
  20  -2  -2  348.35    8.06
  18  -2  -2  273.81    9.72
  17  -2  -2  444.21   10.44
  16  -2  -2  539.16   26.81
  15  -2  -2   18.10    1.12
  14  -2  -2  831.40   21.03
  13  -2  -2 2049.29   86.03
  12  -2  -2   31.76    2.17
  11  -2  -2  469.90   15.21
  10  -2  -2 2113.90   48.63
   9  -2  -2  662.98   29.23
   8  -2  -2   16.33    1.37
   7  -2  -2   43.39    2.13
   6  -2  -2 7631.20  276.70
   5  -2  -2 1373.01   37.87
   3  -2  -2 1285.83   24.03
   2  -2  -2 2840.18   60.16
   1  -2  -2 2121.45   70.60
   0  -2  -2 1295.73   33.89
  -1  -2  -2  262.75    6.00
  -4  -2  -2  258.13    6.87
  -5  -2  -2  669.52   20.09
  -7  -2  -2   22.22    1.12
  -8  -2  -2  372.74   10.73
  -9  -2  -2    4.19    0.51
 -10  -2  -2   14.49    0.94
 -12  -2  -2  203.13    5.96
 -13  -2  -2   39.20    3.54
 -14  -2  -2   14.53    1.55
 -15  -2  -2  617.75   16.51
 -16  -2  -2   16.08    1.16
 -17  -2  -2   40.25    1.70
 -18  -2  -2  466.03   11.92
 -19  -2  -2  617.86   23.09
 -20  -2  -2  349.40    9.94
 -21  -2  -2   23.56    1.16
 -22  -2  -2  283.89   11.74
 -23  -2  -2   49.65    2.10
 -24  -2  -2  161.08    4.55
 -25  -2  -2   92.90    4.59
 -26  -2  -2   79.53    2.93
 -27  -2  -2   34.87    1.95
 -28  -2  -2    0.14    0.51
 -29  -2  -2    3.25    0.72
 -30  -2  -2    3.50    1.12
 -31  -2  -2   44.88    2.24
 -32  -2  -2   -0.51    0.79
 -33  -2  -2    1.08    0.76
 -35  -2  -2    2.13    1.08
  35  -2  -1    4.84    1.45
  34  -2  -1    3.61    0.58
  33  -2  -1    1.12    0.65
  32  -2  -1    1.63    0.79
  31  -2  -1   17.56    2.06
  30  -2  -1   27.10    1.73
  29  -2  -1    1.52    0.61
  28  -2  -1    5.49    0.90
  27  -2  -1  133.04    4.70
  26  -2  -1  115.91    3.11
  25  -2  -1   -3.11    1.81
  24  -2  -1   17.56    1.23
  23  -2  -1    4.34    0.65
  22  -2  -1  236.84    7.59
  21  -2  -1   43.25    2.13
  20  -2  -1  245.48   13.66
  19  -2  -1    3.72    0.54
  18  -2  -1  878.87   19.94
  17  -2  -1   67.13    2.31
  16  -2  -1    2.31    0.61
  15  -2  -1   18.93    1.34
  14  -2  -1   13.98    1.23
  13  -2  -1   60.99    2.31
  12  -2  -1 1113.44   23.77
  11  -2  -1    7.52    0.58
   9  -2  -1  419.49   12.21
   8  -2  -1 9999.00  335.45
   7  -2  -1  634.87   14.27
   5  -2  -1   48.89    2.17
   4  -2  -1 3448.07  123.97
   3  -2  -1 1197.77   27.89
   2  -2  -1  671.80   13.15
   0  -2  -1 2387.49   58.46
  -1  -2  -1  260.15    7.08
  -2  -2  -1  455.33   10.44
  -3  -2  -1  330.14   10.08
  -4  -2  -1 4197.12  152.04
  -5  -2  -1    7.80    0.61
  -6  -2  -1  492.59   12.61
  -7  -2  -1  241.43    8.31
  -8  -2  -1    8.71    0.61
  -9  -2  -1 1346.60   32.70
 -10  -2  -1   15.07    1.01
 -11  -2  -1 1088.22   29.92
 -12  -2  -1  335.81   11.02
 -13  -2  -1 1070.88   24.64
 -14  -2  -1   50.44    2.31
 -15  -2  -1   25.91    1.16
 -16  -2  -1  242.59    9.54
 -17  -2  -1  575.83   14.78
 -18  -2  -1  175.35    5.28
 -19  -2  -1   54.45    2.49
 -20  -2  -1  817.99   19.01
 -21  -2  -1   65.07    3.22
 -22  -2  -1  430.48   15.86
 -23  -2  -1    3.18    0.76
 -24  -2  -1   69.92    2.17
 -25  -2  -1   30.60    2.06
 -26  -2  -1   76.13    4.05
 -27  -2  -1   19.62    1.73
 -28  -2  -1    5.31    0.90
 -29  -2  -1    6.61    1.01
 -30  -2  -1    0.25    0.65
 -31  -2  -1   11.92    1.08
 -32  -2  -1   33.78    2.60
 -33  -2  -1    2.20    0.69
 -34  -2  -1    0.90    1.05
 -35  -2  -1    1.12    1.41
  35  -2   0    1.01    0.72
  34  -2   0   16.04    1.59
  33  -2   0   34.25    1.63
  32  -2   0   15.54    1.55
  30  -2   0    1.12    0.83
  29  -2   0    6.14    0.65
  28  -2   0  188.93    4.70
  27  -2   0  140.63    4.70
  26  -2   0   22.69    2.93
  25  -2   0    4.30    0.87
  24  -2   0  201.98    7.70
  23  -2   0    4.77    1.05
  22  -2   0   39.89    1.55
  21  -2   0   10.26    1.01
  20  -2   0  105.58    3.76
  19  -2   0   45.02    2.42
  18  -2   0  315.79   10.12
  17  -2   0  354.53    7.95
  16  -2   0   37.76    3.65
  15  -2   0  194.64    5.42
  14  -2   0  153.02    4.66
  13  -2   0  122.38    5.20
  12  -2   0  951.10   30.78
  11  -2   0  152.44    4.81
  10  -2   0  941.89   23.56
   9  -2   0   30.57    1.41
   8  -2   0 3083.21   67.42
   7  -2   0 1483.21   37.50
   6  -2   0 1884.89   37.87
   5  -2   0  720.11   21.50
   3  -2   0   57.59    3.76
   2  -2   0 1595.62   33.06
   1  -2   0    5.74    0.47
   0  -2   0  666.09   14.99
  -1  -2   0    6.43    0.43
  -2  -2   0 1363.76   36.24
  -3  -2   0   48.38    1.73
  -4  -2   0 1318.27   33.64
  -6  -2   0 1956.98   53.51
  -7  -2   0 1374.17   30.13
  -8  -2   0 3323.59  126.03
  -9  -2   0   26.38    2.31
 -10  -2   0  976.25   24.10
 -11  -2   0  145.72    4.55
 -12  -2   0  871.32   22.18
 -13  -2   0  112.44    3.79
 -14  -2   0  150.27    5.17
 -15  -2   0  185.25    4.48
 -16  -2   0   44.23    1.81
 -17  -2   0  289.81    7.95
 -18  -2   0  351.56   13.30
 -19  -2   0   37.32    1.88
 -20  -2   0   96.15    4.70
 -21  -2   0    6.83    0.79
 -22  -2   0   35.59    2.49
 -23  -2   0    4.16    0.61
 -24  -2   0  188.61    6.32
 -25  -2   0    1.91    1.41
 -26  -2   0   20.52    1.59
 -27  -2   0  140.95    4.81
 -28  -2   0  177.08    4.59
 -29  -2   0    4.37    1.23
 -30  -2   0    1.84    0.87
 -31  -2   0    1.73    0.61
 -32  -2   0   11.92    0.98
 -33  -2   0   26.20    1.34
 -34  -2   0   10.84    1.37
 -35  -2   0   -2.38    2.57
  35  -2   1    5.06    2.10
  34  -2   1    4.77    1.26
  33  -2   1    2.24    0.87
  32  -2   1   44.66    3.11
  31  -2   1   12.47    1.05
  30  -2   1    3.14    0.90
  29  -2   1    9.97    1.01
  28  -2   1    8.74    0.98
  27  -2   1   16.01    1.73
  26  -2   1  101.28    4.91
  25  -2   1   34.22    1.66
  24  -2   1   66.81    2.60
  23  -2   1    3.97    0.98
  22  -2   1  434.96    9.25
  21  -2   1   72.81    2.78
  20  -2   1  925.16   28.44
  19  -2   1   60.30    3.04
  18  -2   1  208.52    9.18
  17  -2   1  545.41   21.75
  16  -2   1  246.24    6.58
  15  -2   1   28.33    1.77
  14  -2   1   51.81    2.96
  13  -2   1  960.57   21.43
  12  -2   1  344.99   13.59
  11  -2   1 1193.62   35.52
  10  -2   1   14.78    0.79
   9  -2   1 1407.81   37.40
   8  -2   1    8.78    0.65
   7  -2   1  262.72    9.72
   6  -2   1  559.79   17.96
   5  -2   1    8.67    0.65
   4  -2   1 4541.85  109.66
   3  -2   1  346.65    8.96
   2  -2   1  454.00    9.36
   1  -2   1  274.78   11.53
   0  -2   1 2460.33   84.58
  -1  -2   1  179.14    5.42
  -2  -2   1  579.81   13.12
  -3  -2   1 1175.77   21.46
  -4  -2   1 3362.04  119.96
  -5  -2   1   40.87    1.48
  -7  -2   1  599.65   28.76
  -9  -2   1  417.72   11.13
 -10  -2   1  258.34   15.46
 -11  -2   1    5.60    0.51
 -12  -2   1 1045.15   21.64
 -13  -2   1   53.69    4.48
 -14  -2   1   13.87    0.83
 -15  -2   1   18.07    0.94
 -16  -2   1    3.00    0.61
 -17  -2   1   52.61    4.26
 -18  -2   1  785.87   24.28
 -19  -2   1    3.43    0.76
 -20  -2   1  268.86    8.31
 -21  -2   1   40.76    1.77
 -22  -2   1  230.81    6.29
 -23  -2   1    6.36    1.37
 -24  -2   1   16.69    1.23
 -25  -2   1   -0.54    0.87
 -26  -2   1  112.26    3.58
 -27  -2   1  148.25    4.26
 -28  -2   1    5.38    0.79
 -30  -2   1   25.58    2.02
 -31  -2   1   14.42    1.34
 -32  -2   1    1.84    0.72
 -33  -2   1    1.91    0.51
 -34  -2   1    4.26    0.76
 -35  -2   1    5.93    0.76
  35  -2   2    3.11    1.26
  34  -2   2    4.84    0.83
  33  -2   2    0.47    1.08
  32  -2   2    0.76    0.90
  31  -2   2   52.10    1.95
  30  -2   2    6.68    0.83
  29  -2   2    4.34    1.84
  28  -2   2    0.54    0.83
  27  -2   2   40.43    1.66
  26  -2   2   83.18    3.90
  25  -2   2   98.97    3.11
  24  -2   2  191.43    5.53
  23  -2   2   47.80    2.53
  22  -2   2  282.30    9.61
  21  -2   2   26.45    2.28
  20  -2   2  364.72   13.37
  19  -2   2  742.55   20.13
  18  -2   2  478.57   12.21
  17  -2   2   44.77    1.99
  16  -2   2   17.02    1.30
  15  -2   2  602.28   20.27
  14  -2   2   15.93    1.26
  13  -2   2   36.28    2.10
  12  -2   2  191.46    5.74
  11  -2   2   54.88    2.57
  10  -2   2   15.43    0.94
   9  -2   2    4.48    0.72
   8  -2   2  383.25   14.06
   7  -2   2   23.74    1.16
   5  -2   2  688.96   17.02
   4  -2   2  273.70    9.07
   1  -2   2  241.76    7.59
   0  -2   2 1303.96   27.03
  -1  -2   2 1989.78   39.28
  -3  -2   2 1266.10   31.90
  -5  -2   2 1297.82   49.93
  -7  -2   2   45.31    3.54
  -8  -2   2   17.34    0.90
  -9  -2   2  608.28   29.59
 -10  -2   2 2126.40   81.91
 -11  -2   2  465.05   16.51
 -12  -2   2   28.51    1.48
 -13  -2   2 1909.10   42.45
 -14  -2   2  835.98   26.23
 -15  -2   2   18.93    1.08
 -16  -2   2  527.09   17.70
 -17  -2   2  453.85   12.36
 -18  -2   2  271.86   10.12
 -19  -2   2   96.65    4.12
 -20  -2   2  340.47    9.14
 -21  -2   2   36.93    1.73
 -22  -2   2   30.57    1.77
 -23  -2   2    0.87    1.30
 -24  -2   2   42.38    2.46
 -25  -2   2   73.71    3.72
 -26  -2   2   81.26    3.32
 -27  -2   2    5.53    1.63
 -28  -2   2   16.33    1.16
 -29  -2   2  117.39    3.36
 -30  -2   2    7.15    0.76
 -31  -2   2    1.52    0.76
 -32  -2   2    2.06    0.72
 -33  -2   2   13.37    0.94
 -34  -2   2    7.48    1.19
 -35  -2   2    1.05    0.54
 -36  -2   2    6.97    0.87
  34  -2   3    4.01    1.23
  33  -2   3    1.19    0.94
  32  -2   3    1.30    0.72
  31  -2   3   13.80    1.01
  30  -2   3   84.22    4.16
  29  -2   3    1.19    1.01
  28  -2   3   15.03    1.05
  27  -2   3   11.96    1.52
  26  -2   3   95.50    4.01
  25  -2   3   26.12    1.99
  24  -2   3   82.78    3.11
  23  -2   3  158.44    5.24
  22  -2   3  514.63   12.43
  21  -2   3   23.27    1.45
  20  -2   3  286.09    9.03
  19  -2   3  782.91   20.60
  18  -2   3  129.53    4.62
  17  -2   3    1.66    0.72
  16  -2   3 1133.93   33.42
  15  -2   3  839.42   23.52
  14  -2   3  217.59   11.20
  13  -2   3  699.62   20.27
  12  -2   3   51.27    2.89
  11  -2   3 1655.93   42.27
  10  -2   3 1943.54   74.43
   9  -2   3  212.06    7.70
   8  -2   3  175.49    6.68
   7  -2   3 1667.31   60.52
   6  -2   3  320.38    7.66
   5  -2   3  298.85   10.51
   4  -2   3 2383.08   89.75
   3  -2   3 3276.44  121.44
   1  -2   3 1860.11   64.42
   0  -2   3 1479.13   50.69
  -1  -2   3  142.61    4.05
  -4  -2   3   31.65    0.94
  -5  -2   3  353.77   11.35
  -7  -2   3 4985.34  159.02
  -8  -2   3 3504.65   64.06
  -9  -2   3   74.58    3.79
 -10  -2   3  387.51   18.46
 -11  -2   3  495.66   13.04
 -12  -2   3 2957.36  110.46
 -13  -2   3  115.55    4.12
 -14  -2   3   48.53    3.76
 -15  -2   3  173.51    4.99
 -16  -2   3  557.88   24.79
 -17  -2   3   91.85    6.40
 -18  -2   3  596.39   14.27
 -19  -2   3    7.33    0.72
 -20  -2   3   30.39    1.88
 -21  -2   3   23.31    1.23
 -22  -2   3  204.11    6.00
 -23  -2   3   16.30    1.05
 -24  -2   3   22.44    1.41
 -25  -2   3   32.27    1.77
 -26  -2   3   14.99    2.38
 -27  -2   3   10.66    1.05
 -28  -2   3   10.19    1.37
 -29  -2   3    5.17    1.88
 -30  -2   3   26.85    1.66
 -31  -2   3   19.37    1.23
 -32  -2   3   16.73    1.08
 -33  -2   3    4.37    0.98
 -34  -2   3    4.37    0.76
 -35  -2   3   -0.25    0.72
 -36  -2   3    3.76    0.87
  33  -2   4   -0.18    0.87
  32  -2   4    2.46    0.79
  31  -2   4    4.77    1.05
  30  -2   4   12.86    1.26
  29  -2   4   27.93    1.66
  28  -2   4   66.05    3.61
  27  -2   4   10.08    1.26
  26  -2   4    1.45    0.83
  25  -2   4  126.24    4.62
  24  -2   4   35.59    1.99
  23  -2   4   13.40    1.34
  22  -2   4  197.93    6.58
  21  -2   4    4.48    0.83
  20  -2   4   29.70    2.85
  18  -2   4  656.48   21.97
  17  -2   4   62.07    2.93
  16  -2   4   50.26    2.35
  15  -2   4 1796.01   43.47
  14  -2   4 1698.92   40.21
  13  -2   4  312.87    7.95
  12  -2   4 1537.67   36.64
  11  -2   4  104.96    7.84
  10  -2   4  447.89   13.59
   9  -2   4   69.37    4.81
   8  -2   4   18.25    1.01
   7  -2   4 1449.00   32.48
   5  -2   4  273.34   10.73
   3  -2   4 1746.26   46.65
   2  -2   4 1800.78   66.99
   1  -2   4   32.41    1.70
  -7  -2   4  236.74   11.82
  -8  -2   4  241.69    7.80
  -9  -2   4 1800.34   35.88
 -11  -2   4   46.39    1.52
 -12  -2   4  109.84    3.61
 -13  -2   4 1712.83   33.86
 -14  -2   4  419.42   13.40
 -15  -2   4  505.92   13.08
 -16  -2   4  221.96    6.90
 -18  -2   4   97.63    3.54
 -19  -2   4    1.73    0.90
 -20  -2   4  117.00    4.26
 -21  -2   4   55.57    1.91
 -22  -2   4  181.67    6.03
 -23  -2   4    4.88    1.23
 -25  -2   4    8.02    0.87
 -26  -2   4   79.13    3.76
 -27  -2   4   17.74    1.66
 -28  -2   4   36.85    1.95
 -29  -2   4   68.18    3.07
 -30  -2   4    0.90    0.65
 -31  -2   4    5.46    0.98
 -32  -2   4    3.32    0.98
 -33  -2   4    1.08    0.94
 -34  -2   4    0.76    0.65
 -35  -2   4    0.29    0.51
  33  -2   5    0.72    0.54
  32  -2   5    9.25    1.16
  31  -2   5    9.25    1.84
  30  -2   5   36.46    2.17
  29  -2   5    5.24    0.98
  28  -2   5   49.14    2.78
  27  -2   5    8.06    0.90
  26  -2   5   27.24    2.10
  25  -2   5   25.69    2.17
  24  -2   5 1053.82   28.44
  23  -2   5   82.02    2.71
  22  -2   5   69.45    3.47
  21  -2   5   13.33    1.08
  20  -2   5  441.89   10.88
  19  -2   5   25.69    1.08
  18  -2   5    2.46    0.65
  17  -2   5  258.96    7.66
  16  -2   5  904.38   21.28
  15  -2   5  124.40    7.26
  14  -2   5    1.26    0.51
  13  -2   5 1060.91   32.30
  12  -2   5    6.00    0.69
  11  -2   5  289.89   15.54
  10  -2   5  134.37    5.64
   8  -2   5  986.83   42.92
   7  -2   5    2.75    0.61
   6  -2   5 2946.48   75.48
   4  -2   5  812.57   24.10
   3  -2   5 2585.06   65.11
   1  -2   5 1820.72   66.84
  -4  -2   5 2162.06   73.82
  -5  -2   5  126.93    6.07
  -6  -2   5  229.65    6.47
  -7  -2   5   25.29    1.30
  -8  -2   5   11.78    0.72
  -9  -2   5 3698.64   95.89
 -10  -2   5  117.75    3.97
 -11  -2   5 1500.20   29.52
 -12  -2   5   50.44    2.82
 -14  -2   5  260.47    6.18
 -15  -2   5  847.22   21.57
 -16  -2   5  113.49    4.77
 -17  -2   5  776.40   17.42
 -18  -2   5  250.21    9.79
 -19  -2   5   30.78    2.13
 -20  -2   5   46.39    1.70
 -21  -2   5   91.81    3.65
 -22  -2   5  110.89    4.19
 -23  -2   5    0.00    0.72
 -24  -2   5   62.11    3.97
 -25  -2   5    5.31    0.94
 -26  -2   5    2.85    0.79
 -27  -2   5    9.21    1.23
 -28  -2   5   81.37    4.23
 -29  -2   5    0.51    1.99
 -30  -2   5   12.54    1.08
 -31  -2   5    2.93    1.26
 -32  -2   5    1.91    1.01
 -33  -2   5   -1.01    0.79
 -34  -2   5    0.25    0.79
 -35  -2   5   -0.36    0.72
  33  -2   6    4.66    1.30
  32  -2   6    2.53    0.83
  31  -2   6    4.66    0.83
  30  -2   6    0.43    0.76
  29  -2   6   36.02    2.13
  28  -2   6   23.05    1.52
  27  -2   6    4.16    0.94
  26  -2   6  107.60    5.06
  25  -2   6    0.69    0.98
  24  -2   6   54.31    2.57
  23  -2   6   34.87    1.77
  22  -2   6  108.72    7.15
  21  -2   6  122.13    3.97
  20  -2   6   67.35    2.49
  19  -2   6  945.36   32.52
  18  -2   6  223.08    7.33
  17  -2   6  323.45    9.18
  16  -2   6  176.65    5.31
  15  -2   6  189.22   13.04
  14  -2   6   74.65    3.54
  13  -2   6  109.84    4.91
  12  -2   6  137.19    3.58
  11  -2   6  304.12    8.85
  10  -2   6 1312.31   32.27
   9  -2   6  232.76    8.38
   8  -2   6  373.13   18.72
   7  -2   6 1051.84   30.21
   6  -2   6  825.72   17.49
   5  -2   6 1052.16   25.18
   4  -2   6  406.09   13.40
   3  -2   6  467.04   13.30
   2  -2   6   52.10    2.02
  -6  -2   6   10.55    0.65
  -7  -2   6  814.67   19.69
  -8  -2   6  160.64    4.30
  -9  -2   6  872.48   19.69
 -10  -2   6  123.90    4.01
 -11  -2   6  468.38   12.65
 -12  -2   6    4.88    0.65
 -13  -2   6  382.67   13.51
 -14  -2   6    4.12    0.65
 -16  -2   6  404.39   10.37
 -17  -2   6   75.99    2.49
 -18  -2   6   51.38    2.42
 -20  -2   6  112.01    5.60
 -21  -2   6   12.72    1.01
 -23  -2   6    3.11    0.72
 -24  -2   6   35.12    3.43
 -25  -2   6    4.81    0.72
 -26  -2   6    4.70    1.05
 -27  -2   6   18.10    1.16
 -28  -2   6    1.95    0.79
 -29  -2   6    0.51    1.12
 -30  -2   6    6.40    0.94
 -31  -2   6    2.10    0.79
 -33  -2   6   -0.65    0.61
 -34  -2   6    7.26    1.23
 -35  -2   6    0.69    0.72
  32  -2   7   14.89    1.26
  31  -2   7    1.55    0.98
  30  -2   7    2.67    0.90
  29  -2   7    8.56    1.19
  28  -2   7   54.63    3.07
  27  -2   7    1.26    0.90
  26  -2   7   16.95    2.10
  25  -2   7   26.63    1.91
  24  -2   7  127.15    4.01
  22  -2   7  170.40    4.81
  21  -2   7  330.14   13.69
  20  -2   7  555.96   17.45
  19  -2   7  120.97    4.62
  18  -2   7  847.98   17.85
  17  -2   7    2.46    0.94
  16  -2   7  512.93   27.86
  15  -2   7  426.61   21.17
  14  -2   7 1804.97   37.11
  13  -2   7    3.69    0.98
  12  -2   7  230.05    9.36
  11  -2   7   97.05    4.41
  10  -2   7  869.48   25.94
   9  -2   7 1618.42   37.07
   8  -2   7 1230.54   37.40
   7  -2   7  444.35   12.57
   6  -2   7  429.97   13.80
   5  -2   7  732.90   22.40
   4  -2   7 1472.27   59.26
   2  -2   7 1835.14   65.18
  -5  -2   7 1003.46   37.97
  -7  -2   7    9.29    0.76
  -8  -2   7  518.46   15.79
  -9  -2   7 1993.69   53.40
 -10  -2   7   57.31    2.02
 -11  -2   7   46.36    1.73
 -12  -2   7  390.44   17.96
 -13  -2   7 1072.65   27.35
 -14  -2   7  196.96   12.18
 -15  -2   7  204.58    6.03
 -16  -2   7  398.68   15.93
 -18  -2   7    7.59    0.79
 -19  -2   7   50.91    1.84
 -20  -2   7  236.59    8.35
 -21  -2   7   59.15    2.67
 -22  -2   7    1.77    1.23
 -23  -2   7   64.64    3.90
 -24  -2   7  122.31    4.73
 -25  -2   7   30.64    1.52
 -26  -2   7   -0.43    0.76
 -27  -2   7   26.16    1.52
 -28  -2   7   11.13    0.98
 -29  -2   7    2.13    0.98
 -30  -2   7    0.54    0.79
 -31  -2   7   -0.54    0.79
 -32  -2   7    9.21    1.34
 -33  -2   7   -1.55    0.87
 -34  -2   7    1.16    0.87
 -35  -2   7    2.31    1.73
 -36  -2   7    1.12    1.12
  31  -2   8    0.43    0.79
  30  -2   8   11.89    1.30
  29  -2   8   44.70    2.20
  28  -2   8    9.07    1.30
  27  -2   8   35.59    4.19
  26  -2   8   36.38    1.77
  25  -2   8    1.63    0.79
  24  -2   8    0.94    0.87
  23  -2   8    1.37    0.76
  22  -2   8    4.05    0.76
  21  -2   8   44.30    2.10
  20  -2   8   51.09    3.32
  19  -2   8  225.97    9.14
  18  -2   8   86.54    6.21
  17  -2   8  310.66   16.84
  16  -2   8   23.34    1.37
  15  -2   8    3.14    0.72
  14  -2   8  959.30   44.48
  13  -2   8  345.96   11.74
  12  -2   8    4.44    0.58
  11  -2   8   69.23    3.14
  10  -2   8  173.69    6.97
   9  -2   8  252.71    7.62
   8  -2   8  277.17    7.84
   7  -2   8    2.64    0.51
   6  -2   8  493.24   15.72
   5  -2   8    8.09    0.90
   4  -2   8  531.25   16.55
   3  -2   8   44.91    2.49
   2  -2   8    9.65    0.65
   1  -2   8 1754.64   64.39
  -6  -2   8   67.71    2.20
  -8  -2   8  110.64    4.81
  -9  -2   8  807.66   33.39
 -10  -2   8   74.54    2.10
 -11  -2   8 1504.57   41.55
 -12  -2   8 2705.99   71.65
 -14  -2   8  422.63   12.28
 -15  -2   8  424.01   16.08
 -16  -2   8    0.65    0.51
 -17  -2   8  161.22    5.02
 -18  -2   8   35.30    1.63
 -19  -2   8    2.20    1.37
 -20  -2   8   -1.45    1.34
 -21  -2   8    1.84    0.69
 -22  -2   8  118.62    4.23
 -23  -2   8   39.78    2.67
 -24  -2   8    3.69    2.38
 -25  -2   8    6.32    0.98
 -26  -2   8    1.01    0.61
 -27  -2   8   59.40    2.35
 -28  -2   8   -0.36    0.79
 -29  -2   8    6.29    0.65
 -31  -2   8    0.98    1.52
 -32  -2   8    5.85    0.87
 -33  -2   8   -0.54    0.94
 -34  -2   8    0.29    1.16
 -35  -2   8   -0.65    2.02
 -36  -2   8    0.98    1.12
  31  -2   9    6.50    1.70
  30  -2   9   -1.01    1.01
  29  -2   9    8.45    0.94
  28  -2   9   18.36    1.95
  27  -2   9    2.28    0.90
  26  -2   9   15.10    1.26
  25  -2   9   36.06    1.77
  24  -2   9    3.69    1.16
  23  -2   9    1.77    0.72
  22  -2   9   23.96    2.49
  21  -2   9    0.54    0.61
  20  -2   9   62.58    4.81
  19  -2   9   33.89    2.13
  18  -2   9  468.70   12.28
  17  -2   9   14.24    1.84
  16  -2   9   13.73    2.28
  15  -2   9  237.35   14.81
  14  -2   9 1263.39   32.52
  13  -2   9  265.17    9.57
  12  -2   9  125.09    4.16
  11  -2   9    3.94    0.79
  10  -2   9 1200.70   28.22
   9  -2   9    1.95    0.51
   8  -2   9   67.64    4.62
   7  -2   9  112.98    3.54
   6  -2   9 1591.18   34.47
   5  -2   9 1276.76   52.72
   4  -2   9   27.60    2.42
   3  -2   9   16.48    1.41
  -7  -2   9  185.03    8.35
  -8  -2   9  166.93    7.77
  -9  -2   9 1068.67   30.03
 -10  -2   9   58.61    2.96
 -11  -2   9 1155.10   28.29
 -12  -2   9  118.95    4.52
 -13  -2   9 1508.58   33.31
 -14  -2   9  102.72    3.25
 -15  -2   9    7.23    0.69
 -16  -2   9   88.45    4.37
 -17  -2   9  104.06    4.48
 -18  -2   9   13.01    0.87
 -19  -2   9  233.09    6.25
 -20  -2   9  106.84    5.56
 -21  -2   9   91.05    3.79
 -22  -2   9    8.85    0.98
 -23  -2   9   14.13    1.01
 -24  -2   9   83.61    4.88
 -25  -2   9    3.43    0.76
 -27  -2   9   45.78    2.24
 -28  -2   9   12.65    1.48
 -29  -2   9    7.08    0.94
 -30  -2   9    1.08    1.01
 -31  -2   9    1.41    0.83
 -32  -2   9    6.50    0.90
 -33  -2   9    0.33    0.69
 -34  -2   9    5.09    1.19
  30  -2  10    5.60    0.90
  29  -2  10    6.25    0.94
  28  -2  10   19.76    1.52
  27  -2  10   34.65    2.38
  26  -2  10   27.06    1.52
  25  -2  10    0.94    1.12
  24  -2  10   78.77    3.18
  23  -2  10    0.43    0.90
  22  -2  10    7.30    1.23
  21  -2  10   44.15    2.17
  20  -2  10  253.72   15.50
  19  -2  10    1.23    0.83
  18  -2  10   71.69    3.00
  17  -2  10   25.62    1.59
  16  -2  10   35.23    2.42
  15  -2  10   16.80    1.70
  14  -2  10  430.22   13.73
  13  -2  10    1.48    0.61
  12  -2  10  993.59   28.54
  11  -2  10   21.50    1.59
  10  -2  10   12.97    0.94
   9  -2  10  448.22   13.69
   8  -2  10 2470.95   50.91
   7  -2  10  248.84    7.30
   6  -2  10  103.30    4.01
   4  -2  10  170.61    5.96
   3  -2  10   14.16    0.72
   1  -2  10  649.07   23.09
  -6  -2  10   64.50    3.32
  -7  -2  10  156.74    5.67
 -10  -2  10   77.72    3.07
 -11  -2  10 1393.79   30.71
 -12  -2  10  354.56   17.13
 -13  -2  10  265.28    8.71
 -14  -2  10 1109.18   25.62
 -15  -2  10  298.67    7.30
 -16  -2  10   51.02    2.96
 -18  -2  10  161.80    5.31
 -19  -2  10   90.62    3.43
 -20  -2  10  108.32    5.28
 -23  -2  10   76.31    3.58
 -24  -2  10   24.14    1.52
 -25  -2  10   23.92    1.48
 -26  -2  10   -0.40    1.16
 -27  -2  10   32.45    2.46
 -28  -2  10   16.15    0.98
 -29  -2  10    7.55    1.08
 -30  -2  10    7.95    1.52
 -31  -2  10   12.18    1.52
 -32  -2  10    7.88    1.08
 -33  -2  10    0.43    0.79
  29  -2  11   14.78    1.34
  28  -2  11   38.41    2.46
  27  -2  11    6.25    1.12
  26  -2  11   17.45    1.73
  25  -2  11    3.22    0.98
  24  -2  11   37.22    1.84
  23  -2  11   48.42    4.34
  22  -2  11   24.03    1.30
  21  -2  11    2.67    1.05
  20  -2  11    0.51    0.90
  19  -2  11   82.60    4.48
  18  -2  11  508.45   25.83
  17  -2  11   95.93    8.38
  16  -2  11  163.14    9.18
  15  -2  11    3.04    0.79
  14  -2  11   64.06    3.04
  13  -2  11 1352.92   27.86
  12  -2  11    1.19    0.65
  11  -2  11  200.10    7.23
  10  -2  11  326.74    8.45
   9  -2  11 1105.96   49.50
   8  -2  11   35.45    1.88
   7  -2  11   55.35    2.17
   6  -2  11   84.98    3.14
   5  -2  11  160.50    8.13
   4  -2  11 1054.26   26.12
   3  -2  11  134.63    3.79
  -8  -2  11   57.27    2.06
 -11  -2  11   66.99    2.96
 -12  -2  11   10.70    0.90
 -13  -2  11  120.75    4.16
 -14  -2  11   13.59    1.19
 -15  -2  11  138.96    4.44
 -16  -2  11  148.32    4.12
 -17  -2  11    8.45    0.83
 -18  -2  11   89.35    5.74
 -19  -2  11  186.59    8.96
 -20  -2  11    4.55    1.01
 -21  -2  11   -1.19    0.79
 -22  -2  11    0.29    0.72
 -23  -2  11    4.73    1.01
 -25  -2  11    3.79    1.55
 -26  -2  11    6.94    1.41
 -27  -2  11   20.45    1.95
 -28  -2  11    7.30    0.98
 -29  -2  11    6.65    0.90
 -30  -2  11    0.18    0.83
 -31  -2  11    1.26    0.79
 -32  -2  11    0.94    1.30
 -33  -2  11    4.37    0.65
 -34  -2  11    3.22    1.08
 -35  -2  11    2.78    1.91
  28  -2  12   22.40    1.95
  27  -2  12   12.57    1.70
  26  -2  12    2.53    2.06
  25  -2  12   -0.22    0.76
  24  -2  12  121.58    5.02
  23  -2  12   -0.25    1.45
  22  -2  12   33.10    1.66
  21  -2  12   46.43    2.38
  20  -2  12  250.90   10.51
  19  -2  12  136.69    6.65
  18  -2  12   29.23    1.91
  17  -2  12    4.37    1.01
  16  -2  12  344.99   12.72
  15  -2  12    2.96    0.83
  14  -2  12    4.70    0.76
  13  -2  12    1.19    0.58
  12  -2  12 1143.72   27.60
  11  -2  12   12.86    0.83
  10  -2  12  167.69    6.18
   9  -2  12   54.81    4.62
   8  -2  12  612.29   15.43
   7  -2  12   13.15    1.16
   6  -2  12  245.88    8.67
   4  -2  12  779.04   32.92
   3  -2  12  104.78    2.85
   2  -2  12   96.80    3.22
  -7  -2  12  436.40   18.39
  -9  -2  12  494.50   19.58
 -10  -2  12    0.76    0.54
 -12  -2  12  172.35    6.79
 -13  -2  12  369.12   10.51
 -14  -2  12   29.09    1.23
 -15  -2  12   40.61    1.66
 -16  -2  12   73.38    3.58
 -17  -2  12    6.07    1.05
 -18  -2  12   20.67    1.99
 -19  -2  12    3.61    0.79
 -20  -2  12  838.26   38.12
 -21  -2  12   71.07    2.57
 -22  -2  12   23.12    1.41
 -23  -2  12   49.28    2.13
 -24  -2  12    6.61    1.16
 -25  -2  12   17.99    1.88
 -26  -2  12    0.25    0.79
 -27  -2  12    6.68    0.94
 -28  -2  12   10.84    1.23
 -29  -2  12    2.89    0.98
 -30  -2  12   -0.83    1.19
 -31  -2  12    0.61    0.87
 -32  -2  12   16.33    1.66
 -33  -2  12    2.24    1.12
 -34  -2  12    0.11    0.87
 -35  -2  12   -3.18    1.70
  27  -2  13   10.41    1.77
  26  -2  13   35.23    2.13
  25  -2  13    1.23    1.12
  24  -2  13   21.72    1.37
  23  -2  13   65.47    2.60
  22  -2  13   38.26    1.95
  21  -2  13   26.16    1.70
  20  -2  13   19.11    1.45
  19  -2  13   27.75    1.70
  18  -2  13  316.99   11.27
  17  -2  13  146.05    5.85
  16  -2  13    2.20    0.69
  15  -2  13  152.77    6.25
  14  -2  13    1.99    0.90
  13  -2  13    3.69    0.65
  12  -2  13  209.35    8.67
  11  -2  13   20.41    1.52
  10  -2  13  148.36    4.66
   9  -2  13  188.36   12.21
   8  -2  13   46.25    2.10
   7  -2  13  361.39   11.85
   6  -2  13   13.95    1.59
   5  -2  13  138.13    6.68
   4  -2  13  689.40   26.77
   3  -2  13 1033.81   38.99
  -9  -2  13  148.29    6.40
 -10  -2  13   97.38    3.97
 -11  -2  13   14.92    0.98
 -12  -2  13    4.19    0.72
 -13  -2  13   21.14    1.30
 -14  -2  13   82.85    3.25
 -15  -2  13  176.47    6.11
 -16  -2  13   24.21    2.20
 -17  -2  13   56.87    2.64
 -18  -2  13   29.88    1.37
 -19  -2  13    2.57    0.72
 -20  -2  13   86.90    3.22
 -21  -2  13   93.98    3.25
 -22  -2  13    6.87    1.37
 -24  -2  13    5.06    1.16
 -25  -2  13   13.44    1.01
 -26  -2  13   -0.22    0.72
 -27  -2  13    0.51    0.69
 -28  -2  13    0.22    0.87
 -29  -2  13    5.24    0.98
 -30  -2  13    5.17    1.12
 -31  -2  13    0.25    0.83
 -33  -2  13    4.08    1.37
  26  -2  14   22.40    3.22
  25  -2  14   -0.40    0.90
  24  -2  14   16.37    1.73
  23  -2  14   39.67    1.95
  22  -2  14   60.85    2.67
  21  -2  14    3.72    0.90
  20  -2  14    4.48    0.94
  19  -2  14   91.92    6.43
  18  -2  14    8.60    1.16
  17  -2  14   52.39    1.91
  16  -2  14  137.16    5.42
  15  -2  14   67.24    3.00
  14  -2  14  193.13    6.40
  13  -2  14   -0.25    0.87
  12  -2  14  147.09    5.64
  11  -2  14    1.77    0.61
  10  -2  14  405.58   12.75
   9  -2  14    4.95    1.45
   8  -2  14  119.81    5.78
   7  -2  14  212.13    7.70
   6  -2  14  219.83   10.26
   4  -2  14  106.55    3.72
   3  -2  14  368.76   10.55
  -9  -2  14  308.53   12.97
 -10  -2  14   64.35    3.90
 -12  -2  14   59.73    3.61
 -13  -2  14  351.17   13.19
 -14  -2  14    1.73    0.47
 -15  -2  14   44.77    2.42
 -16  -2  14   10.77    1.70
 -17  -2  14    8.17    0.94
 -18  -2  14    1.91    0.90
 -19  -2  14    1.48    0.58
 -20  -2  14    2.42    0.58
 -21  -2  14   -0.72    0.72
 -22  -2  14   72.48    3.54
 -23  -2  14   15.93    2.49
 -24  -2  14    0.76    0.87
 -25  -2  14   12.07    1.16
 -26  -2  14    2.49    0.79
 -27  -2  14    0.61    0.69
 -28  -2  14    5.02    1.08
 -29  -2  14    0.29    0.87
 -30  -2  14    1.30    1.37
 -31  -2  14   -0.29    1.05
 -33  -2  14   -0.25    1.52
  25  -2  15   11.74    1.30
  24  -2  15    3.94    1.66
  23  -2  15    5.96    1.63
  22  -2  15   16.15    1.77
  21  -2  15   14.20    1.66
  20  -2  15   36.57    2.06
  19  -2  15    5.46    0.87
  18  -2  15   96.47    3.43
  17  -2  15   19.08    1.26
  16  -2  15   59.58    4.62
  15  -2  15   34.18    2.31
  14  -2  15   28.11    1.81
  13  -2  15  148.25    6.61
  12  -2  15  140.23    4.12
  11  -2  15  289.99    9.11
  10  -2  15   11.82    0.94
   9  -2  15  157.17   10.80
   7  -2  15   54.67    3.04
   5  -2  15  251.80    6.14
   4  -2  15  382.02   19.40
 -10  -2  15    0.11    0.43
 -13  -2  15    1.26    0.79
 -14  -2  15   -0.36    0.79
 -15  -2  15   89.86    3.22
 -16  -2  15   33.71    1.91
 -17  -2  15   21.39    1.48
 -18  -2  15    4.37    1.16
 -19  -2  15   49.57    2.67
 -20  -2  15    7.52    0.94
 -21  -2  15   12.79    0.94
 -22  -2  15   14.16    1.30
 -23  -2  15   31.43    2.82
 -25  -2  15   -3.97    1.45
 -26  -2  15   14.71    0.90
 -27  -2  15    2.06    0.90
 -28  -2  15    1.52    0.94
 -29  -2  15    3.43    0.94
 -30  -2  15    2.20    1.23
 -31  -2  15   -1.66    1.77
 -32  -2  15    2.46    1.41
 -33  -2  15    1.08    1.08
  24  -2  16    2.42    1.59
  23  -2  16    9.25    1.52
  22  -2  16   60.59    3.76
  21  -2  16   23.38    1.84
  20  -2  16    6.29    1.12
  19  -2  16   17.52    1.73
  18  -2  16    8.24    0.87
  17  -2  16   43.00    2.57
  16  -2  16   24.79    1.52
  15  -2  16    9.14    1.01
  14  -2  16  100.95    7.33
  13  -2  16   44.37    1.91
  12  -2  16    9.50    1.55
  11  -2  16    0.25    0.87
  10  -2  16  221.56   13.37
   9  -2  16  152.15    6.76
   7  -2  16  312.97   17.63
   6  -2  16    5.42    1.37
   5  -2  16   10.91    1.19
   4  -2  16   16.01    1.05
   2  -2  16  480.34   19.40
 -11  -2  16  279.66   11.49
 -12  -2  16    1.01    0.83
 -14  -2  16   33.93    2.42
 -15  -2  16   67.42    4.05
 -18  -2  16   31.33    1.37
 -19  -2  16   13.69    0.87
 -20  -2  16    5.49    2.46
 -21  -2  16    3.00    1.23
 -22  -2  16    1.81    0.79
 -23  -2  16   11.24    1.08
 -24  -2  16    1.99    0.83
 -25  -2  16    1.77    1.55
 -26  -2  16    2.64    1.19
 -27  -2  16    0.58    0.87
 -28  -2  16    0.14    1.12
 -29  -2  16    0.33    0.98
 -30  -2  16    4.19    1.34
  22  -2  17   23.52    1.95
  21  -2  17    2.02    1.01
  20  -2  17   12.25    2.49
  19  -2  17   21.43    1.37
  18  -2  17   61.03    2.38
  17  -2  17   20.09    1.55
  16  -2  17  151.39    5.67
  15  -2  17    4.88    1.26
  14  -2  17   22.29    1.48
  13  -2  17   37.87    2.10
  12  -2  17  183.77    7.05
  11  -2  17    7.73    1.01
   9  -2  17   17.56    1.37
   7  -2  17  338.30   16.48
   6  -2  17   46.32    3.07
   4  -2  17   68.65    2.46
 -12  -2  17   35.66    1.99
 -13  -2  17   11.67    0.98
 -15  -2  17   73.46    3.22
 -16  -2  17   -1.05    0.98
 -17  -2  17   73.09    4.01
 -18  -2  17   12.90    0.83
 -19  -2  17   23.12    2.75
 -20  -2  17    3.25    2.31
 -21  -2  17    9.21    1.05
 -22  -2  17    2.89    0.65
 -23  -2  17    4.16    1.52
 -24  -2  17    0.87    1.59
 -25  -2  17    5.74    0.87
 -26  -2  17    3.43    0.87
 -27  -2  17    6.47    1.26
 -28  -2  17    3.79    0.98
  21  -2  18    3.07    1.55
  20  -2  18    4.70    1.08
  19  -2  18   11.60    1.26
  18  -2  18   -2.35    1.34
  17  -2  18   15.36    1.91
  16  -2  18   25.22    2.93
  15  -2  18    1.59    1.08
  14  -2  18  159.52    5.20
  13  -2  18    5.60    1.41
  11  -2  18    0.51    1.01
  10  -2  18   62.40    3.25
   9  -2  18  172.71    7.37
   7  -2  18    0.40    1.23
   6  -2  18   64.64    3.11
   3  -2  18    8.02    1.05
 -13  -2  18   12.65    1.26
 -14  -2  18   47.91    3.40
 -15  -2  18   23.09    1.55
 -17  -2  18    0.87    1.08
 -18  -2  18    4.88    0.87
 -20  -2  18    4.16    0.94
 -21  -2  18    2.06    0.65
 -22  -2  18    4.30    0.90
 -23  -2  18   22.11    3.72
 -24  -2  18    1.73    0.69
 -25  -2  18    1.05    0.79
 -26  -2  18    1.73    0.87
 -27  -2  18    6.36    1.45
 -28  -2  18    3.14    1.84
  19  -2  19   13.19    1.81
  18  -2  19    4.66    1.12
  17  -2  19   23.99    1.81
  16  -2  19   79.17    4.95
  15  -2  19    9.11    1.52
  14  -2  19   -0.04    1.66
  13  -2  19   42.09    2.10
  12  -2  19  128.95    5.71
  10  -2  19   29.38    1.41
   9  -2  19   52.43    4.12
   8  -2  19  116.02    3.94
 -15  -2  19    3.40    1.12
 -17  -2  19   57.27    2.57
 -18  -2  19    2.24    1.48
 -19  -2  19    2.96    0.94
 -20  -2  19   -0.65    1.12
 -21  -2  19   10.59    1.26
 -22  -2  19    0.47    0.98
 -23  -2  19   10.33    2.06
 -24  -2  19    0.00    0.76
 -26  -2  19   -0.07    2.49
 -27  -2  19   -3.65    2.71
  17  -2  20   10.48    2.13
  16  -2  20    3.04    1.16
  15  -2  20    0.14    1.16
  14  -2  20   20.45    2.38
  13  -2  20    1.30    0.98
  11  -2  20    5.96    1.95
   9  -2  20   75.08    4.12
   8  -2  20   56.62    4.12
   7  -2  20   21.57    2.42
   5  -2  20    6.36    0.98
 -16  -2  20    0.98    0.98
 -17  -2  20    5.82    0.98
 -21  -2  20    1.95    1.08
 -23  -2  20    2.46    1.12
  15  -2  21    6.79    1.52
  14  -2  21    5.64    1.34
  13  -2  21   14.49    2.67
  12  -2  21   31.04    2.17
  11  -2  21   -2.06    1.55
  10  -2  21   18.07    1.88
   9  -2  21    4.77    1.05
   8  -2  21    1.52    1.05
   6  -2  21   99.25    5.20
 -17  -2  21   11.35    1.63
 -18  -2  21    5.89    1.16
 -19  -2  21    5.38    1.16
 -20  -2  21    0.94    0.76
 -21  -2  21    3.22    0.87
 -23  -2  21    3.36    1.16
 -25  -2  21   -0.79    1.88
  10  -2  22   -0.33    1.16
 -19  -2  22    2.06    1.37
   9  -3 -26    1.23    1.08
   8  -3 -26    6.72    1.81
   7  -3 -26    5.42    1.59
   5  -3 -26    1.59    1.08
   4  -3 -26    9.68    1.12
  16  -3 -25    1.81    1.16
  14  -3 -25    0.76    1.52
  13  -3 -25    3.69    1.59
  10  -3 -25    5.28    0.87
   9  -3 -25    4.95    1.01
   8  -3 -25   15.10    1.37
   6  -3 -25   73.96    2.78
   5  -3 -25    1.91    0.83
   2  -3 -25   27.24    2.31
   1  -3 -25    7.26    1.26
   0  -3 -25    5.06    1.16
  -1  -3 -25    1.37    1.05
  -2  -3 -25    7.37    1.05
  17  -3 -24    1.23    0.98
  16  -3 -24    1.99    1.48
  15  -3 -24    0.65    1.05
  12  -3 -24    5.93    1.99
  11  -3 -24   10.15    1.05
  10  -3 -24   -0.54    1.88
   9  -3 -24    0.94    0.76
   8  -3 -24   14.09    2.42
   7  -3 -24    7.73    1.48
   6  -3 -24    0.43    0.65
   5  -3 -24    2.02    1.23
   4  -3 -24    1.19    2.02
   2  -3 -24    0.69    0.87
   1  -3 -24    5.31    0.83
   0  -3 -24   20.41    1.91
  -1  -3 -24    1.30    0.98
  -2  -3 -24    2.71    1.12
  -3  -3 -24   -3.18    2.06
  -4  -3 -24    7.84    1.01
  -5  -3 -24    7.15    1.73
  -6  -3 -24   27.28    2.17
  -7  -3 -24   18.79    1.91
  18  -3 -23    1.41    1.19
  17  -3 -23    1.19    0.94
  15  -3 -23    2.82    1.73
  14  -3 -23    4.26    1.26
  13  -3 -23    2.28    0.76
  12  -3 -23    1.66    1.12
  11  -3 -23    1.30    0.76
  10  -3 -23   40.43    1.59
   9  -3 -23    4.84    0.76
   8  -3 -23    0.22    0.79
   7  -3 -23   15.21    1.41
   6  -3 -23    3.43    1.77
   5  -3 -23   -0.54    1.08
   4  -3 -23   66.12    2.82
   3  -3 -23   -0.07    0.79
   2  -3 -23   23.92    1.59
   1  -3 -23    4.55    1.73
   0  -3 -23  101.10    4.41
  -1  -3 -23    0.36    0.79
  -2  -3 -23   27.93    1.95
  -3  -3 -23    0.18    1.08
  -5  -3 -23    1.26    0.94
  -6  -3 -23    9.07    1.19
  -7  -3 -23    2.24    1.23
  -8  -3 -23   83.39    4.66
  -9  -3 -23   -0.18    1.05
 -10  -3 -23    0.90    1.16
  22  -3 -22    1.34    1.30
  21  -3 -22   -0.25    1.08
  20  -3 -22   -1.08    1.19
  19  -3 -22    5.74    1.01
  18  -3 -22    0.07    0.87
  17  -3 -22    5.24    0.98
  16  -3 -22    6.87    1.23
  15  -3 -22    0.22    0.76
  14  -3 -22    6.76    1.16
  13  -3 -22    3.00    0.94
  12  -3 -22   23.63    1.34
  11  -3 -22    1.01    0.79
  10  -3 -22    7.52    0.76
   9  -3 -22   21.86    1.19
   8  -3 -22   14.02    0.94
   7  -3 -22    4.01    1.19
   6  -3 -22    0.25    1.16
   5  -3 -22   24.50    2.35
   4  -3 -22    1.88    1.34
   3  -3 -22    4.66    1.73
   2  -3 -22   -0.04    0.83
   1  -3 -22   18.64    1.30
   0  -3 -22   30.17    1.95
  -1  -3 -22    1.88    0.87
  -2  -3 -22    0.07    0.98
  -3  -3 -22   20.16    1.16
  -4  -3 -22    0.87    1.01
  -5  -3 -22    1.99    0.98
  -6  -3 -22   38.63    2.17
  -7  -3 -22   12.79    1.37
  -8  -3 -22    5.85    0.76
  -9  -3 -22   26.12    1.45
 -10  -3 -22   31.54    1.66
 -11  -3 -22   23.63    1.48
 -12  -3 -22    8.06    1.26
 -13  -3 -22   13.15    1.48
  25  -3 -21    1.08    1.34
  24  -3 -21    0.00    1.37
  23  -3 -21    5.09    1.19
  22  -3 -21    3.00    1.37
  21  -3 -21    1.01    1.16
  20  -3 -21   -0.47    1.05
  19  -3 -21    4.52    0.94
  18  -3 -21    2.60    1.08
  17  -3 -21    1.23    0.94
  16  -3 -21    4.41    0.87
  15  -3 -21    6.47    0.69
  14  -3 -21    3.18    0.83
  13  -3 -21    1.48    0.76
  12  -3 -21    2.28    1.12
  11  -3 -21    5.38    0.61
  10  -3 -21   11.24    1.05
   9  -3 -21    9.25    1.01
   8  -3 -21    6.29    0.94
   7  -3 -21   16.87    2.71
   6  -3 -21    2.96    1.08
   5  -3 -21    9.61    1.26
   4  -3 -21   93.29    3.90
   3  -3 -21    0.58    1.08
   2  -3 -21    6.14    1.12
   1  -3 -21  169.82    6.61
   0  -3 -21   26.85    1.88
  -1  -3 -21    3.58    0.87
  -2  -3 -21   22.80    1.26
  -3  -3 -21    3.58    0.79
  -4  -3 -21   69.12    3.47
  -5  -3 -21   26.48    1.30
  -6  -3 -21   10.91    1.30
  -7  -3 -21   17.13    1.52
  -8  -3 -21  126.39    3.79
  -9  -3 -21    3.11    0.87
 -10  -3 -21   25.65    1.45
 -11  -3 -21   23.38    1.23
 -12  -3 -21    2.02    2.06
 -13  -3 -21    4.01    1.08
 -14  -3 -21   56.26    3.32
 -15  -3 -21    6.21    1.12
  26  -3 -20    2.13    1.52
  25  -3 -20   -1.12    0.94
  24  -3 -20    2.38    1.16
  23  -3 -20    1.84    0.94
  22  -3 -20   -1.08    1.08
  21  -3 -20   19.22    1.52
  20  -3 -20   -1.01    1.95
  19  -3 -20    3.87    0.94
  18  -3 -20   -0.18    1.12
  17  -3 -20   31.29    1.84
  16  -3 -20   -0.87    0.90
  15  -3 -20   10.15    1.26
  14  -3 -20    1.37    0.90
  13  -3 -20   42.35    1.77
  12  -3 -20    4.73    0.87
  11  -3 -20    5.13    1.26
  10  -3 -20   71.69    2.46
   9  -3 -20   63.56    2.89
   8  -3 -20   12.83    0.83
   7  -3 -20   19.33    0.90
   6  -3 -20    1.19    0.69
   5  -3 -20   -1.01    1.66
   4  -3 -20   46.43    2.53
   3  -3 -20   -0.04    0.65
   2  -3 -20  105.36    4.34
   1  -3 -20   28.07    1.55
   0  -3 -20    4.01    0.79
  -1  -3 -20    7.23    0.90
  -2  -3 -20   59.87    2.24
  -3  -3 -20   12.07    1.19
  -4  -3 -20   76.02    2.67
  -5  -3 -20    6.43    0.87
  -6  -3 -20   36.28    1.77
  -7  -3 -20    3.04    0.90
  -8  -3 -20   91.78    2.78
  -9  -3 -20   35.70    1.63
 -10  -3 -20   16.77    1.12
 -11  -3 -20   31.04    1.88
 -12  -3 -20   38.84    2.10
 -13  -3 -20   25.87    1.37
 -14  -3 -20    1.63    1.63
 -15  -3 -20   16.08    2.13
 -16  -3 -20   27.82    2.71
 -17  -3 -20   22.00    2.53
  27  -3 -19    3.79    2.64
  26  -3 -19    3.94    1.52
  25  -3 -19    2.24    0.98
  24  -3 -19   -0.22    0.83
  23  -3 -19    3.29    2.10
  22  -3 -19   17.38    1.52
  21  -3 -19   -0.51    1.26
  20  -3 -19   -0.22    0.79
  19  -3 -19    9.50    1.45
  18  -3 -19    2.78    1.19
  17  -3 -19    1.08    1.16
  16  -3 -19    3.40    0.87
  15  -3 -19   71.51    2.38
  14  -3 -19   49.25    2.02
  13  -3 -19   48.20    1.81
  12  -3 -19   -0.33    1.16
  11  -3 -19   74.00    4.37
  10  -3 -19    2.17    1.05
   9  -3 -19   14.20    1.30
   8  -3 -19   18.82    1.23
   7  -3 -19   14.53    1.19
   6  -3 -19    1.01    0.87
   5  -3 -19   33.86    1.37
   4  -3 -19   42.02    2.06
   3  -3 -19   56.04    2.13
   2  -3 -19   46.86    2.20
   1  -3 -19   22.26    1.41
   0  -3 -19  198.98    7.26
  -1  -3 -19    5.82    0.83
  -2  -3 -19   36.20    1.73
  -3  -3 -19   14.24    1.05
  -4  -3 -19   26.20    1.16
  -5  -3 -19    1.08    0.69
  -6  -3 -19  118.62    4.08
  -7  -3 -19   -0.51    0.83
  -8  -3 -19   43.00    1.48
  -9  -3 -19    4.19    0.90
 -10  -3 -19  153.74    5.31
 -11  -3 -19   40.36    4.08
 -12  -3 -19    3.94    0.79
 -13  -3 -19    0.58    1.08
 -14  -3 -19   90.58    3.36
 -15  -3 -19   37.11    1.70
 -16  -3 -19   12.57    1.73
 -17  -3 -19   33.67    3.43
 -18  -3 -19   39.89    1.88
 -19  -3 -19   12.94    1.41
  29  -3 -18    4.19    1.26
  27  -3 -18    5.42    1.19
  26  -3 -18    0.00    0.87
  25  -3 -18    6.61    1.55
  24  -3 -18    6.76    0.94
  23  -3 -18   -1.01    0.87
  22  -3 -18    3.76    1.63
  21  -3 -18    9.11    1.12
  20  -3 -18   16.44    1.63
  19  -3 -18   11.92    1.34
  18  -3 -18    0.76    0.87
  17  -3 -18  104.06    3.07
  16  -3 -18    5.89    1.23
  15  -3 -18   55.86    3.11
  14  -3 -18    4.59    1.16
  13  -3 -18   14.34    1.05
  12  -3 -18    6.87    0.69
  11  -3 -18   54.45    2.49
  10  -3 -18   -1.88    0.79
   9  -3 -18   57.52    2.13
   8  -3 -18  157.97    4.66
   7  -3 -18   89.25    2.93
   6  -3 -18   18.97    1.12
   5  -3 -18    7.99    0.90
   4  -3 -18  201.15    6.97
   3  -3 -18    1.84    0.69
   2  -3 -18  108.47    4.23
   1  -3 -18    5.96    0.69
   0  -3 -18   11.53    0.98
  -1  -3 -18    2.06    0.94
  -2  -3 -18  210.97    7.55
  -3  -3 -18   34.80    2.02
  -4  -3 -18  416.78   10.48
  -5  -3 -18  116.85    3.90
  -6  -3 -18   27.64    1.66
  -7  -3 -18    4.88    0.83
  -8  -3 -18  449.73   12.47
  -9  -3 -18   36.17    1.88
 -10  -3 -18    1.81    0.98
 -11  -3 -18  169.17    6.43
 -12  -3 -18   97.19    2.78
 -13  -3 -18    1.70    0.87
 -14  -3 -18   10.26    1.48
 -15  -3 -18   21.64    1.37
 -16  -3 -18   10.51    1.41
 -17  -3 -18   17.70    1.41
 -18  -3 -18    3.22    0.87
 -20  -3 -18   35.99    2.13
  29  -3 -17    0.00    1.05
  28  -3 -17   -1.41    1.23
  27  -3 -17    0.69    1.66
  26  -3 -17   -0.87    0.79
  25  -3 -17    3.87    1.48
  24  -3 -17    5.24    1.37
  23  -3 -17   32.59    1.59
  22  -3 -17    1.19    0.94
  21  -3 -17    4.44    0.90
  20  -3 -17    0.29    0.72
  19  -3 -17   45.60    1.73
  18  -3 -17   18.10    2.49
  17  -3 -17   -4.19    1.88
  16  -3 -17    6.68    0.94
  15  -3 -17  126.93    4.91
  14  -3 -17    1.91    1.30
  13  -3 -17  173.72    5.74
  12  -3 -17   18.54    1.01
  11  -3 -17  184.63    4.34
  10  -3 -17   98.75    3.32
   9  -3 -17  169.68    9.07
   8  -3 -17   41.12    1.77
   7  -3 -17   74.76    2.85
   6  -3 -17    5.02    0.79
   5  -3 -17  503.90   12.21
   4  -3 -17    0.90    0.61
   3  -3 -17   43.50    1.73
   2  -3 -17   98.64    4.16
   1  -3 -17   96.11    3.04
   0  -3 -17  103.84    5.56
  -1  -3 -17    1.30    0.83
  -2  -3 -17  128.63    3.87
  -3  -3 -17  130.22    3.97
  -4  -3 -17    1.23    0.76
  -5  -3 -17   58.46    2.10
  -6  -3 -17  453.96   11.42
  -7  -3 -17   14.38    1.08
  -8  -3 -17  729.11   21.61
  -9  -3 -17   45.89    2.13
 -10  -3 -17  637.33   20.13
 -11  -3 -17    7.55    1.19
 -12  -3 -17    6.21    1.01
 -13  -3 -17    6.76    1.34
 -14  -3 -17  213.86   10.66
 -16  -3 -17   19.87    1.66
 -17  -3 -17    4.88    0.98
 -18  -3 -17  108.50    4.77
 -19  -3 -17    2.96    0.76
 -20  -3 -17   16.84    1.41
 -21  -3 -17   46.65    2.93
 -22  -3 -17    9.03    1.37
  31  -3 -16    0.54    1.23
  30  -3 -16   -3.90    2.96
  28  -3 -16    0.79    2.46
  27  -3 -16   -0.54    1.63
  26  -3 -16    9.25    1.05
  25  -3 -16    1.70    1.05
  24  -3 -16   30.93    1.77
  23  -3 -16    2.49    1.12
  22  -3 -16    0.25    0.83
  21  -3 -16    9.68    0.94
  20  -3 -16   -0.11    0.83
  19  -3 -16   37.25    3.43
  18  -3 -16    0.65    1.05
  17  -3 -16   37.90    1.63
  16  -3 -16    2.75    0.79
  14  -3 -16    0.51    0.79
  13  -3 -16    6.29    1.16
  12  -3 -16   18.57    1.26
  11  -3 -16  225.39    7.48
  10  -3 -16    7.23    0.98
   9  -3 -16  122.96    3.43
   8  -3 -16   77.00    2.24
   7  -3 -16   18.97    0.83
   6  -3 -16   43.72    1.91
   5  -3 -16    3.54    0.72
   4  -3 -16  108.58    3.32
   3  -3 -16  179.76    7.66
   2  -3 -16    6.21    0.76
   1  -3 -16  311.82    9.68
   0  -3 -16  143.80    4.48
  -1  -3 -16  606.04   16.91
  -2  -3 -16   -0.29    0.61
  -3  -3 -16   42.31    1.63
  -4  -3 -16  245.73    5.96
  -5  -3 -16    6.61    0.69
  -6  -3 -16  153.81    5.67
  -7  -3 -16    1.34    0.79
  -8  -3 -16  309.11   10.12
  -9  -3 -16  105.43    3.54
 -10  -3 -16   28.83    1.16
 -11  -3 -16   12.61    1.37
 -12  -3 -16  260.91    8.45
 -13  -3 -16   28.00    2.24
 -14  -3 -16    9.50    1.01
 -15  -3 -16    4.70    1.12
 -16  -3 -16  140.99    5.46
 -17  -3 -16    6.68    0.98
 -18  -3 -16   20.13    1.52
 -19  -3 -16    0.87    1.95
 -20  -3 -16   50.40    2.20
 -21  -3 -16   16.55    1.88
 -22  -3 -16   22.58    1.95
 -23  -3 -16    7.19    1.95
  32  -3 -15    5.02    1.23
  31  -3 -15    1.30    0.83
  30  -3 -15   -0.69    0.79
  29  -3 -15   -1.05    0.94
  28  -3 -15   11.67    2.49
  27  -3 -15   11.27    1.23
  26  -3 -15   10.84    1.16
  25  -3 -15   -2.20    1.41
  24  -3 -15    1.66    0.98
  23  -3 -15    7.95    1.23
  22  -3 -15    5.06    0.83
  21  -3 -15   38.23    1.95
  20  -3 -15    9.11    1.34
  19  -3 -15   46.75    2.20
  18  -3 -15   17.67    1.16
  17  -3 -15  113.35    6.58
  16  -3 -15    2.02    0.83
  15  -3 -15   43.07    1.91
  14  -3 -15   68.72    2.60
  13  -3 -15   79.31    2.67
  12  -3 -15    1.55    0.87
  11  -3 -15   15.25    1.16
  10  -3 -15   17.49    1.55
   9  -3 -15  458.15   11.49
   8  -3 -15  162.77    4.99
   7  -3 -15    1.59    0.65
   6  -3 -15   97.70    3.50
   5  -3 -15  180.73    4.48
   4  -3 -15  189.08    4.70
   3  -3 -15  256.03    6.07
   2  -3 -15  346.51   11.96
   1  -3 -15  414.51   16.01
   0  -3 -15    4.05    1.37
  -1  -3 -15  128.88    3.94
  -2  -3 -15  740.42   18.36
  -3  -3 -15    6.90    0.76
  -4  -3 -15   43.11    2.02
  -5  -3 -15  222.54    8.71
  -6  -3 -15   12.21    0.90
  -7  -3 -15   14.49    1.41
  -8  -3 -15  152.98    5.67
  -9  -3 -15   47.22    2.71
 -10  -3 -15  582.45   17.52
 -11  -3 -15   18.82    1.45
 -12  -3 -15   28.54    1.45
 -13  -3 -15   14.67    2.49
 -14  -3 -15  353.41   17.52
 -15  -3 -15    4.16    1.23
 -16  -3 -15   76.20    3.65
 -17  -3 -15   14.49    1.16
 -18  -3 -15  197.71    7.52
 -19  -3 -15   20.96    1.26
 -21  -3 -15   13.48    1.30
 -22  -3 -15    2.93    1.08
 -23  -3 -15   -0.87    0.79
 -24  -3 -15    8.85    2.35
  32  -3 -14   -0.61    0.83
  31  -3 -14    1.81    1.26
  30  -3 -14    0.40    1.37
  29  -3 -14    0.07    0.72
  28  -3 -14    0.76    0.69
  27  -3 -14    9.00    1.16
  26  -3 -14    3.79    1.05
  25  -3 -14    3.61    0.51
  24  -3 -14    0.36    2.42
  23  -3 -14   20.85    1.12
  22  -3 -14    0.94    0.79
  21  -3 -14  116.53    4.26
  20  -3 -14    8.67    0.76
  19  -3 -14   48.06    1.81
  18  -3 -14    7.01    1.26
  17  -3 -14   65.72    3.36
  16  -3 -14    0.25    0.69
  15  -3 -14   72.30    2.35
  14  -3 -14    9.18    2.10
  13  -3 -14   14.78    1.48
  12  -3 -14    8.96    0.69
  11  -3 -14   40.18    1.59
  10  -3 -14  276.45    7.01
   9  -3 -14   46.47    2.10
   8  -3 -14   23.05    1.23
   7  -3 -14  125.92    5.06
   6  -3 -14    2.64    0.65
   5  -3 -14   95.21    2.57
   4  -3 -14  197.79    5.31
   3  -3 -14  292.34    8.06
   2  -3 -14  225.28    5.06
   1  -3 -14  100.45    2.89
   0  -3 -14   55.61    2.46
  -1  -3 -14    3.76    0.87
  -2  -3 -14  418.48   14.56
  -3  -3 -14  367.93   11.56
  -4  -3 -14   94.34    5.38
  -5  -3 -14    0.36    0.83
  -6  -3 -14  985.46   27.57
  -7  -3 -14  212.24    6.21
  -8  -3 -14   26.45    2.85
  -9  -3 -14   60.85    3.04
 -10  -3 -14  117.90    6.54
 -11  -3 -14  459.02   10.23
 -12  -3 -14    2.96    1.19
 -13  -3 -14   69.23    3.65
 -14  -3 -14    1.59    1.59
 -15  -3 -14  111.36    6.36
 -16  -3 -14  147.42    8.56
 -17  -3 -14   15.86    1.52
 -18  -3 -14  246.56    7.99
 -19  -3 -14   11.45    1.30
 -20  -3 -14   27.60    2.85
 -21  -3 -14    3.90    1.41
 -22  -3 -14  196.30    6.47
 -23  -3 -14   13.37    1.37
 -24  -3 -14    9.32    2.10
 -25  -3 -14    0.58    0.83
 -26  -3 -14   11.27    1.30
  34  -3 -13   -0.25    1.70
  33  -3 -13    5.38    1.77
  32  -3 -13    4.12    2.17
  31  -3 -13    0.29    1.23
  30  -3 -13   -0.94    0.87
  29  -3 -13    0.90    1.08
  28  -3 -13   13.91    1.05
  27  -3 -13    0.58    1.01
  26  -3 -13    1.16    0.72
  25  -3 -13    2.96    0.72
  24  -3 -13   -0.58    0.87
  23  -3 -13    0.87    1.16
  22  -3 -13   80.39    3.72
  21  -3 -13   21.14    2.85
  20  -3 -13  116.56    4.12
  19  -3 -13   32.81    2.57
  18  -3 -13    1.05    0.72
  17  -3 -13   67.42    2.28
  16  -3 -13    4.12    1.08
  15  -3 -13   10.01    1.12
  14  -3 -13   14.13    0.94
  13  -3 -13  474.92   14.31
  12  -3 -13    7.80    0.87
  11  -3 -13  111.36    4.66
  10  -3 -13   90.33    3.07
   9  -3 -13 1068.64   29.23
   8  -3 -13    1.45    0.72
   7  -3 -13  427.19   10.51
   6  -3 -13  168.81    6.47
   5  -3 -13   84.98    4.84
   4  -3 -13  282.59    8.06
   3  -3 -13 1021.23   22.58
   2  -3 -13   35.08    2.38
   0  -3 -13    0.83    0.61
  -1  -3 -13  270.01   13.84
  -2  -3 -13 1213.35   51.20
  -3  -3 -13   27.97    1.73
  -4  -3 -13   15.10    0.98
  -5  -3 -13  416.20   10.66
  -6  -3 -13  956.56   23.99
  -7  -3 -13   29.23    2.31
  -8  -3 -13  799.20   23.59
  -9  -3 -13   33.42    1.41
 -10  -3 -13  124.94    5.42
 -11  -3 -13  252.35   12.86
 -12  -3 -13    5.13    0.98
 -13  -3 -13  281.32    9.07
 -14  -3 -13    2.28    0.83
 -15  -3 -13   12.65    1.41
 -16  -3 -13  431.16   11.71
 -17  -3 -13   15.93    1.45
 -18  -3 -13   16.22    2.13
 -19  -3 -13   17.67    1.45
 -20  -3 -13  359.87   13.51
 -21  -3 -13    5.64    0.83
 -22  -3 -13    2.82    1.05
 -23  -3 -13   15.36    2.82
 -24  -3 -13   76.92    3.18
 -25  -3 -13   27.86    1.70
 -26  -3 -13    0.43    0.94
 -27  -3 -13    9.25    0.90
  32  -3 -12    0.22    0.98
  31  -3 -12    0.47    1.23
  30  -3 -12    3.79    1.52
  29  -3 -12    0.11    0.94
  28  -3 -12    0.36    1.05
  27  -3 -12    2.31    1.30
  26  -3 -12    0.72    0.87
  25  -3 -12    4.05    1.26
  24  -3 -12    0.65    0.61
  22  -3 -12    0.94    0.76
  21  -3 -12    1.23    0.61
  20  -3 -12    9.47    0.87
  18  -3 -12  122.52    3.94
  17  -3 -12   25.36    1.55
  16  -3 -12  111.76    4.66
  15  -3 -12  197.17    5.96
  14  -3 -12   49.83    2.96
  13  -3 -12   -1.08    0.94
  12  -3 -12    3.22    1.08
  11  -3 -12    4.19    0.79
  10  -3 -12   51.09    5.02
   9  -3 -12   36.53    1.48
   8  -3 -12    1.81    0.61
   7  -3 -12  470.98   11.67
   6  -3 -12   21.82    1.05
   5  -3 -12   76.56    3.18
   4  -3 -12  170.51   10.08
   3  -3 -12   32.99    1.41
   2  -3 -12    0.83    1.26
   1  -3 -12 3200.13   60.23
   0  -3 -12  911.46   27.82
  -1  -3 -12  102.76    7.80
  -2  -3 -12  191.32    6.14
  -3  -3 -12   41.15    2.06
  -4  -3 -12  658.07   22.44
  -5  -3 -12   89.28    3.50
  -6  -3 -12  258.31    7.59
  -7  -3 -12    0.61    0.79
  -8  -3 -12    9.97    1.08
  -9  -3 -12   81.08    3.87
 -10  -3 -12   66.01    2.89
 -11  -3 -12  296.43   11.16
 -12  -3 -12    3.11    0.98
 -13  -3 -12   22.51    1.26
 -14  -3 -12   69.95    2.85
 -15  -3 -12   36.35    2.60
 -16  -3 -12   12.68    1.16
 -17  -3 -12    3.72    0.94
 -18  -3 -12  227.16    7.01
 -19  -3 -12   16.22    1.41
 -20  -3 -12   11.92    1.41
 -21  -3 -12   -0.07    1.01
 -22  -3 -12   50.04    4.16
 -24  -3 -12   43.50    2.42
 -25  -3 -12   16.22    1.34
 -26  -3 -12   15.75    1.45
 -27  -3 -12    6.50    1.01
 -28  -3 -12   -1.63    0.76
  35  -3 -11   -0.47    1.23
  34  -3 -11   -0.07    0.72
  33  -3 -11   -0.51    1.16
  31  -3 -11    2.78    1.19
  29  -3 -11    2.46    0.87
  28  -3 -11   26.30    1.88
  27  -3 -11   -0.72    1.12
  26  -3 -11   21.97    0.90
  25  -3 -11   43.86    1.81
  24  -3 -11   12.07    1.05
  23  -3 -11    0.36    1.30
  22  -3 -11    8.38    1.91
  21  -3 -11   96.65    3.97
  20  -3 -11    0.61    0.76
  19  -3 -11   59.22    1.99
  18  -3 -11  248.70    6.25
  17  -3 -11  136.98    8.38
  16  -3 -11   14.49    0.98
  15  -3 -11   38.70    1.59
  14  -3 -11   80.00    2.85
  13  -3 -11  393.40   19.84
  12  -3 -11    2.28    1.01
  11  -3 -11  367.79   12.36
  10  -3 -11  341.09   10.26
   9  -3 -11  717.07   18.64
   8  -3 -11   21.25    1.08
   7  -3 -11 1415.36   27.46
   6  -3 -11  693.12   21.39
   5  -3 -11  451.03   16.58
   4  -3 -11   22.98    1.30
   3  -3 -11  781.97   16.08
   2  -3 -11   10.30    1.81
   1  -3 -11  140.12    5.71
   0  -3 -11 1506.16   33.06
  -1  -3 -11 1647.65   46.36
  -2  -3 -11  414.25   11.20
  -3  -3 -11   64.53    2.60
  -4  -3 -11  123.72    3.94
  -6  -3 -11 1250.09   33.93
  -7  -3 -11    1.01    0.72
  -8  -3 -11  814.99   34.14
  -9  -3 -11   44.55    2.17
 -10  -3 -11  440.81   13.19
 -11  -3 -11   24.79    1.73
 -12  -3 -11 3019.80   67.02
 -14  -3 -11  149.44    6.25
 -15  -3 -11    2.10    1.23
 -16  -3 -11  481.57   16.66
 -17  -3 -11   31.47    2.13
 -18  -3 -11    7.91    1.48
 -19  -3 -11   16.15    1.99
 -20  -3 -11  353.70    9.07
 -21  -3 -11   45.35    2.38
 -22  -3 -11   42.53    1.95
 -23  -3 -11   85.85    3.00
 -24  -3 -11  125.74    5.60
 -25  -3 -11   22.84    1.41
 -26  -3 -11   12.32    0.87
 -27  -3 -11   26.85    1.63
 -28  -3 -11    1.08    0.76
 -29  -3 -11    5.49    2.60
  35  -3 -10    1.77    1.08
  34  -3 -10   -1.41    0.65
  33  -3 -10    1.30    1.01
  32  -3 -10    1.08    0.98
  31  -3 -10   -0.14    0.98
  30  -3 -10    8.31    1.81
  29  -3 -10    0.58    0.98
  28  -3 -10    0.98    1.12
  27  -3 -10   26.30    1.37
  26  -3 -10    8.35    1.41
  25  -3 -10    2.71    0.79
  24  -3 -10   11.82    1.52
  23  -3 -10  100.70    3.61
  22  -3 -10    9.79    1.12
  21  -3 -10   19.94    1.23
  20  -3 -10   10.59    0.90
  19  -3 -10  132.71    3.54
  18  -3 -10    3.14    1.12
  17  -3 -10    2.24    1.08
  16  -3 -10   10.04    1.01
  15  -3 -10    6.58    0.83
  14  -3 -10   68.33    3.22
  13  -3 -10  213.43    6.25
  12  -3 -10   12.65    2.06
  11  -3 -10  209.06    5.06
  10  -3 -10   30.17    1.91
   9  -3 -10  202.77    8.17
   8  -3 -10  270.59    8.60
   7  -3 -10 1202.07   44.70
   6  -3 -10  110.67    4.52
   5  -3 -10  661.00   19.80
   4  -3 -10  898.28   21.68
   3  -3 -10  486.52   17.60
   2  -3 -10   34.87    2.46
   1  -3 -10  392.83   12.57
   0  -3 -10  821.71   19.87
  -1  -3 -10   -0.43    0.72
  -2  -3 -10 1437.44   34.72
  -3  -3 -10    5.38    1.05
  -4  -3 -10  302.42   13.80
  -5  -3 -10    3.32    0.79
  -6  -3 -10  761.23   18.75
  -8  -3 -10  391.09   11.06
  -9  -3 -10 1954.12   71.69
 -10  -3 -10   24.71    2.42
 -11  -3 -10   76.13    3.18
 -12  -3 -10  373.03    9.97
 -13  -3 -10   15.10    1.05
 -14  -3 -10   17.34    1.23
 -15  -3 -10  139.61    5.38
 -16  -3 -10    1.59    0.87
 -17  -3 -10  546.86   15.18
 -18  -3 -10  723.47   35.16
 -19  -3 -10    1.01    0.72
 -20  -3 -10   56.37    4.55
 -21  -3 -10  187.16    8.17
 -22  -3 -10   29.48    2.49
 -23  -3 -10    0.65    1.19
 -24  -3 -10    3.00    0.83
 -25  -3 -10   39.35    2.10
 -26  -3 -10    0.76    0.83
 -27  -3 -10    1.59    0.61
 -28  -3 -10    3.00    0.98
 -29  -3 -10   24.24    1.55
 -30  -3 -10    4.84    1.30
  35  -3  -9   -1.16    1.99
  34  -3  -9   -0.07    0.72
  33  -3  -9    1.52    1.08
  32  -3  -9    1.91    1.05
  31  -3  -9    0.79    0.69
  30  -3  -9   15.03    1.16
  29  -3  -9    1.16    0.76
  28  -3  -9   18.46    1.26
  27  -3  -9    2.10    0.69
  26  -3  -9   41.80    1.88
  25  -3  -9   20.23    1.84
  24  -3  -9    0.14    0.87
  23  -3  -9   -0.18    1.01
  22  -3  -9  128.41    4.48
  21  -3  -9  176.03    5.67
  20  -3  -9    3.83    0.90
  19  -3  -9  132.10    4.12
  18  -3  -9    4.23    1.16
  17  -3  -9  363.99   16.51
  16  -3  -9   26.23    1.41
  15  -3  -9  193.52    8.64
  14  -3  -9    5.42    0.65
  13  -3  -9  591.05   18.43
  12  -3  -9  605.14   17.81
  11  -3  -9 1728.73   37.97
  10  -3  -9   41.01    1.73
   9  -3  -9   45.74    2.78
   8  -3  -9    0.40    1.01
   7  -3  -9  791.83   20.13
   6  -3  -9  448.79   13.37
   5  -3  -9  155.15    6.03
   4  -3  -9  256.18   15.36
   3  -3  -9   86.32    3.69
   2  -3  -9  791.11   18.07
   1  -3  -9   24.50    1.26
   0  -3  -9 2099.52   54.45
  -1  -3  -9  383.50   14.09
  -2  -3  -9  295.63   11.82
  -3  -3  -9   50.87    2.42
  -4  -3  -9 2361.29   94.74
  -5  -3  -9  287.25    8.17
  -6  -3  -9   68.61    3.43
  -7  -3  -9  558.92   15.18
  -8  -3  -9  935.42   31.54
  -9  -3  -9   12.90    1.26
 -10  -3  -9   24.61    1.41
 -11  -3  -9   51.63    4.26
 -12  -3  -9 1671.61   36.24
 -13  -3  -9   17.45    2.20
 -14  -3  -9  717.25   23.99
 -15  -3  -9  213.47    7.66
 -16  -3  -9 1264.54   56.58
 -17  -3  -9   12.54    1.01
 -18  -3  -9  507.18   18.46
 -19  -3  -9  206.78    5.56
 -20  -3  -9  735.43   21.64
 -21  -3  -9  133.11    6.58
 -22  -3  -9   54.20    2.24
 -23  -3  -9   74.76    2.78
 -24  -3  -9   62.47    2.67
 -25  -3  -9   -0.29    0.76
 -26  -3  -9   54.05    2.31
 -27  -3  -9   57.27    2.49
 -28  -3  -9    2.89    0.94
 -29  -3  -9   -0.83    0.83
 -30  -3  -9   14.34    2.17
  34  -3  -8    0.33    0.76
  33  -3  -8    2.64    1.01
  32  -3  -8   15.83    1.37
  31  -3  -8    3.14    1.48
  30  -3  -8   15.79    1.37
  29  -3  -8    0.65    0.72
  28  -3  -8   31.15    1.63
  27  -3  -8   14.92    1.59
  26  -3  -8   38.91    1.66
  25  -3  -8   -0.58    0.98
  24  -3  -8   75.66    2.28
  23  -3  -8   48.99    2.35
  22  -3  -8    6.11    0.72
  21  -3  -8   78.01    2.57
  20  -3  -8  121.98    3.43
  19  -3  -8    3.11    0.69
  18  -3  -8  170.94    6.76
  17  -3  -8  203.46    5.42
  16  -3  -8    3.47    0.76
  15  -3  -8   25.26    1.26
  14  -3  -8  268.21    7.66
  13  -3  -8   80.79    3.50
  12  -3  -8  253.21    7.73
  11  -3  -8   42.56    3.69
  10  -3  -8  412.84   14.27
   9  -3  -8   57.99    2.10
   8  -3  -8 1802.77   50.77
   7  -3  -8   62.11    2.28
   6  -3  -8   29.84    2.02
   5  -3  -8 1202.07   22.44
   4  -3  -8  585.84   19.29
   3  -3  -8  342.31   11.31
   2  -3  -8  583.17   16.91
   1  -3  -8  758.05   23.31
   0  -3  -8  212.67    6.61
  -1  -3  -8  521.13   16.73
  -2  -3  -8  560.08   15.65
  -4  -3  -8   12.75    1.08
  -5  -3  -8 1258.87   51.85
  -7  -3  -8  281.29   14.74
  -8  -3  -8   10.33    0.79
  -9  -3  -8    9.21    0.69
 -10  -3  -8  858.57   23.85
 -11  -3  -8  387.55   10.88
 -12  -3  -8   26.95    1.99
 -13  -3  -8   85.81    4.34
 -14  -3  -8  874.25   22.91
 -15  -3  -8    1.26    0.69
 -16  -3  -8    3.54    0.72
 -17  -3  -8  197.10    7.08
 -18  -3  -8 1112.65   36.49
 -19  -3  -8    2.20    0.72
 -20  -3  -8  422.45   13.37
 -21  -3  -8   39.35    2.42
 -22  -3  -8   42.31    1.77
 -23  -3  -8   42.20    1.77
 -24  -3  -8   63.12    2.06
 -25  -3  -8    9.94    1.16
 -26  -3  -8   61.97    2.60
 -27  -3  -8   60.99    2.96
 -28  -3  -8    4.73    0.90
 -29  -3  -8   -0.94    0.87
 -30  -3  -8    9.61    1.34
 -31  -3  -8    1.41    1.63
  35  -3  -7    0.58    0.76
  34  -3  -7    7.15    0.83
  33  -3  -7    0.40    0.72
  32  -3  -7    3.25    0.65
  31  -3  -7   -1.45    1.16
  30  -3  -7   23.12    1.34
  28  -3  -7    1.05    1.08
  27  -3  -7   23.12    1.84
  26  -3  -7   30.60    3.29
  24  -3  -7    4.16    0.58
  23  -3  -7    5.60    0.90
  22  -3  -7  243.20    6.29
  21  -3  -7   23.02    1.41
  20  -3  -7  211.55    8.89
  19  -3  -7  224.92   11.53
  18  -3  -7  101.53    3.94
  17  -3  -7   65.58    3.14
  16  -3  -7  572.18   17.52
  15  -3  -7  853.62   21.61
  14  -3  -7   10.23    0.76
  13  -3  -7   73.56    3.47
  12  -3  -7  241.22    7.62
  11  -3  -7  941.56   26.30
  10  -3  -7   28.54    1.01
   9  -3  -7    7.99    1.01
   8  -3  -7  643.11   14.31
   7  -3  -7  336.17    7.66
   6  -3  -7  169.78    5.28
   5  -3  -7 2361.00   69.95
   4  -3  -7   73.20    2.93
   3  -3  -7  212.67   14.74
   2  -3  -7  756.93   30.10
   1  -3  -7 1168.65   48.89
   0  -3  -7   84.26    2.82
  -1  -3  -7  188.39    7.55
  -2  -3  -7  645.14   21.28
  -3  -3  -7  986.44   28.91
  -4  -3  -7 2024.07   72.63
  -5  -3  -7    3.43    0.69
  -6  -3  -7    5.96    0.72
  -7  -3  -7   87.91    3.36
  -8  -3  -7  937.33   22.62
  -9  -3  -7   25.40    1.37
 -10  -3  -7  243.35   10.51
 -11  -3  -7   29.38    1.99
 -12  -3  -7 1329.69   56.55
 -13  -3  -7  308.60    9.07
 -14  -3  -7  738.07   23.67
 -15  -3  -7  860.19   18.32
 -16  -3  -7   14.60    1.37
 -17  -3  -7    6.11    0.72
 -18  -3  -7  270.84    7.15
 -19  -3  -7   31.58    3.04
 -20  -3  -7  195.51    5.67
 -21  -3  -7   55.03    2.96
 -22  -3  -7  675.45   20.78
 -23  -3  -7    4.84    1.01
 -24  -3  -7   11.92    1.16
 -25  -3  -7   51.52    2.67
 -26  -3  -7   39.96    2.71
 -27  -3  -7   39.38    1.73
 -28  -3  -7    2.06    0.72
 -29  -3  -7    9.97    0.87
 -30  -3  -7   17.60    1.52
 -31  -3  -7    0.47    0.94
 -32  -3  -7    7.01    1.12
  36  -3  -6    2.71    1.08
  35  -3  -6    0.65    0.65
  34  -3  -6    0.43    0.69
  33  -3  -6    0.18    0.72
  32  -3  -6   12.21    0.83
  31  -3  -6   10.33    1.16
  30  -3  -6   13.12    1.12
  28  -3  -6   60.88    2.42
  27  -3  -6    6.97    0.79
  26  -3  -6    1.16    0.61
  25  -3  -6   41.59    1.73
  24  -3  -6  101.46    3.69
  23  -3  -6    6.40    0.94
  22  -3  -6   36.06    1.41
  21  -3  -6    0.76    0.58
  20  -3  -6   91.05    3.83
  19  -3  -6  189.66    5.67
  18  -3  -6   24.64    1.05
  16  -3  -6  105.43    3.69
  15  -3  -6    7.77    0.72
  14  -3  -6  268.82   10.33
  13  -3  -6  484.57   13.33
  12  -3  -6  251.37   12.03
  11  -3  -6 1118.75   36.06
  10  -3  -6    2.60    0.72
   9  -3  -6  921.62   22.76
   8  -3  -6  536.05   17.45
   7  -3  -6  425.60   11.82
   6  -3  -6   70.17    3.79
   5  -3  -6  379.93   12.75
   4  -3  -6 1431.84   33.64
   3  -3  -6 8406.45  201.65
   2  -3  -6 1051.84   42.42
   1  -3  -6  110.92    3.97
   0  -3  -6  186.84    8.96
  -1  -3  -6 3403.41   76.67
  -2  -3  -6   32.92    1.77
  -3  -3  -6   35.16    1.52
  -4  -3  -6  768.85   23.88
  -5  -3  -6 2699.05   69.52
  -6  -3  -6  128.12    4.05
  -7  -3  -6 1904.91   41.95
  -8  -3  -6   11.71    1.12
  -9  -3  -6  559.03   12.83
 -10  -3  -6  178.49    5.31
 -11  -3  -6  159.56    7.23
 -12  -3  -6  254.95    9.47
 -13  -3  -6  210.43    7.01
 -14  -3  -6  428.34   13.22
 -15  -3  -6   34.33    2.93
 -16  -3  -6  669.20   16.95
 -17  -3  -6  231.50    8.17
 -18  -3  -6   11.82    0.83
 -19  -3  -6   76.67    2.85
 -20  -3  -6  845.02   25.36
 -21  -3  -6   13.04    1.16
 -22  -3  -6    0.79    0.72
 -23  -3  -6    0.14    0.76
 -24  -3  -6  100.92    3.65
 -25  -3  -6   62.65    3.14
 -26  -3  -6    0.36    0.54
 -27  -3  -6   46.36    2.71
 -28  -3  -6   87.66    2.93
 -29  -3  -6   18.72    1.30
 -30  -3  -6   -0.72    0.87
 -31  -3  -6    0.40    0.87
 -32  -3  -6   41.80    3.69
  36  -3  -5    0.43    1.23
  35  -3  -5    1.12    0.83
  34  -3  -5    1.73    0.79
  33  -3  -5   -0.14    0.83
  32  -3  -5   12.97    1.16
  31  -3  -5    6.50    1.30
  30  -3  -5   41.23    2.02
  29  -3  -5    1.77    0.65
  28  -3  -5   83.10    2.64
  27  -3  -5   -0.72    0.72
  26  -3  -5   40.58    1.73
  25  -3  -5    1.77    1.34
  24  -3  -5    5.42    0.79
  23  -3  -5   83.65    2.85
  22  -3  -5   43.21    2.46
  21  -3  -5   69.92    3.76
  20  -3  -5  223.84    6.07
  19  -3  -5  346.32    8.89
  18  -3  -5   43.94    2.24
  17  -3  -5   53.62    1.91
  15  -3  -5  397.20   12.39
  14  -3  -5    2.46    0.72
  13  -3  -5  891.81   23.67
  12  -3  -5   46.18    2.31
  11  -3  -5  300.69   14.78
  10  -3  -5    2.20    0.65
   9  -3  -5 3200.64   88.56
   8  -3  -5  124.40    5.74
   7  -3  -5  390.19   10.37
   6  -3  -5    6.94    1.26
   5  -3  -5 1991.55   55.10
   4  -3  -5  749.05   16.80
   3  -3  -5  504.80   16.19
   2  -3  -5 1096.28   25.04
   1  -3  -5 4399.10  113.49
   0  -3  -5   11.49    1.01
  -2  -3  -5  119.52    4.34
  -3  -3  -5 4887.96  173.87
  -4  -3  -5  182.39    7.59
  -5  -3  -5  211.99    5.74
  -6  -3  -5   76.64    3.90
  -7  -3  -5  816.58   19.94
  -8  -3  -5 4109.10   88.88
  -9  -3  -5  698.18   24.97
 -10  -3  -5   62.62    3.11
 -11  -3  -5   44.01    2.02
 -12  -3  -5  476.94   13.62
 -13  -3  -5   56.62    4.95
 -14  -3  -5 1104.16   34.18
 -15  -3  -5  590.32   15.93
 -16  -3  -5    7.62    0.83
 -17  -3  -5  104.24    7.15
 -18  -3  -5  706.41   16.44
 -19  -3  -5    0.83    0.61
 -20  -3  -5  106.23    3.04
 -22  -3  -5   21.35    1.37
 -23  -3  -5   84.77    5.09
 -24  -3  -5   54.52    2.71
 -25  -3  -5   -0.69    1.55
 -26  -3  -5    6.32    2.53
 -27  -3  -5    3.79    0.94
 -28  -3  -5   53.76    2.89
 -29  -3  -5   27.24    1.63
 -30  -3  -5   20.81    1.73
 -31  -3  -5    0.33    0.65
 -32  -3  -5    7.41    1.01
 -33  -3  -5    0.54    1.08
  36  -3  -4    1.77    1.08
  34  -3  -4   -3.11    1.81
  33  -3  -4    7.55    1.19
  32  -3  -4    2.89    1.19
  31  -3  -4    2.35    0.76
  30  -3  -4   21.46    1.45
  29  -3  -4    1.01    0.79
  28  -3  -4   30.50    2.57
  27  -3  -4   23.92    1.48
  26  -3  -4   14.16    0.83
  25  -3  -4  117.68    3.40
  24  -3  -4   14.06    0.94
  23  -3  -4  131.27    3.72
  22  -3  -4  304.88   10.33
  21  -3  -4   43.58    1.84
  20  -3  -4    0.76    0.61
  19  -3  -4  409.81   11.31
  18  -3  -4  359.62    9.14
  17  -3  -4  627.14   13.44
  16  -3  -4  396.29   14.78
  15  -3  -4   42.02    2.17
  14  -3  -4 2381.92   88.38
  13  -3  -4  167.51    5.60
  12  -3  -4  122.99    3.94
  11  -3  -4 1340.53   39.38
  10  -3  -4 3824.64  101.35
   9  -3  -4  884.80   24.97
   8  -3  -4 1723.49   73.64
   7  -3  -4 4862.89  102.33
   6  -3  -4  160.06    5.20
   5  -3  -4  164.83    6.11
   4  -3  -4  694.71   26.81
   2  -3  -4 1946.82   43.58
   1  -3  -4  186.37    6.25
   0  -3  -4 2359.63   45.20
  -1  -3  -4  197.57    5.78
  -2  -3  -4 3602.06  132.17
  -3  -3  -4 2486.42   48.42
  -4  -3  -4  730.12   18.82
  -5  -3  -4 6362.40  147.20
  -6  -3  -4 1745.10   39.46
  -8  -3  -4  943.98   28.44
  -9  -3  -4 2505.93   85.13
 -10  -3  -4   50.33    2.85
 -11  -3  -4  639.86   18.10
 -12  -3  -4  289.60   10.98
 -13  -3  -4 2692.73   62.72
 -14  -3  -4   19.15    1.16
 -15  -3  -4  119.52    4.16
 -16  -3  -4  758.12   24.21
 -17  -3  -4   26.30    1.63
 -18  -3  -4   64.03    2.57
 -19  -3  -4  126.82    3.04
 -20  -3  -4   14.74    1.30
 -21  -3  -4    2.60    0.83
 -22  -3  -4  316.66   10.01
 -23  -3  -4   32.37    1.77
 -24  -3  -4   74.36    2.46
 -25  -3  -4   29.88    1.95
 -26  -3  -4   16.37    1.12
 -27  -3  -4    3.83    0.87
 -28  -3  -4   30.68    2.10
 -29  -3  -4    3.14    0.94
 -30  -3  -4   18.10    1.12
 -31  -3  -4    1.26    0.90
 -32  -3  -4    4.34    1.01
 -33  -3  -4    0.47    0.83
  34  -3  -3    6.25    1.01
  33  -3  -3    3.32    1.55
  32  -3  -3    5.13    1.19
  31  -3  -3   10.55    1.37
  30  -3  -3   62.26    2.78
  29  -3  -3    2.20    0.54
  28  -3  -3   49.43    2.31
  27  -3  -3   -0.25    0.76
  26  -3  -3   17.09    1.26
  25  -3  -3    2.24    0.58
  24  -3  -3  130.73    3.58
  23  -3  -3    1.99    0.76
  22  -3  -3    0.29    0.72
  21  -3  -3    1.34    0.90
  20  -3  -3  126.10    3.72
  19  -3  -3  177.55    7.41
  18  -3  -3  104.17    3.69
  17  -3  -3   95.97    6.47
  16  -3  -3  305.57   10.08
  15  -3  -3 1271.27   28.91
  14  -3  -3  129.10    4.34
  13  -3  -3  667.75   21.61
  12  -3  -3  339.71    8.56
  10  -3  -3   51.05    2.13
   9  -3  -3 7118.20  261.78
   8  -3  -3   21.50    1.41
   7  -3  -3  102.40    3.47
   6  -3  -3 1772.92   40.58
   5  -3  -3 3712.52   80.97
   4  -3  -3 3736.62   76.78
   3  -3  -3 5051.78  167.58
   2  -3  -3  437.63   11.67
   1  -3  -3  885.45   18.79
   0  -3  -3   62.04    2.28
  -1  -3  -3 2789.96  107.85
  -2  -3  -3    8.67    1.34
  -3  -3  -3  157.25    5.85
  -4  -3  -3  703.02   20.23
  -5  -3  -3  877.72   20.78
  -6  -3  -3 1957.05   50.26
  -7  -3  -3  857.70   18.68
  -8  -3  -3  219.00   11.89
  -9  -3  -3   32.45    1.59
 -10  -3  -3  822.72   17.34
 -11  -3  -3 1155.75   44.88
 -12  -3  -3   46.68    2.24
 -13  -3  -3  345.64   13.66
 -14  -3  -3 1209.52   28.98
 -15  -3  -3  150.45    8.13
 -16  -3  -3   75.55    3.47
 -17  -3  -3    7.95    1.70
 -18  -3  -3  560.91   13.59
 -19  -3  -3   27.93    1.77
 -20  -3  -3  179.90    4.99
 -21  -3  -3   49.54    2.28
 -22  -3  -3  455.59   14.89
 -23  -3  -3   51.42    2.42
 -24  -3  -3   84.12    2.93
 -25  -3  -3    0.40    0.51
 -26  -3  -3   82.60    3.50
 -27  -3  -3   82.89    3.65
 -28  -3  -3    0.47    0.69
 -29  -3  -3   42.64    2.13
 -30  -3  -3    0.47    0.76
 -31  -3  -3   10.15    1.01
 -32  -3  -3   14.16    1.91
 -33  -3  -3    0.58    0.90
 -34  -3  -3    0.79    1.41
  35  -3  -2    1.84    0.98
  34  -3  -2    4.52    1.19
  33  -3  -2    1.26    0.65
  32  -3  -2   18.50    1.99
  31  -3  -2   13.22    1.08
  29  -3  -2   -0.69    0.87
  28  -3  -2    2.67    0.72
  27  -3  -2    0.65    0.72
  26  -3  -2   97.45    4.59
  25  -3  -2   20.52    1.30
  24  -3  -2   50.19    2.24
  23  -3  -2   13.55    1.26
  22  -3  -2  102.47    3.94
  21  -3  -2  341.27    9.61
  20  -3  -2   24.57    1.99
  19  -3  -2   99.72    7.05
  18  -3  -2  256.79    8.56
  17  -3  -2  137.92    4.34
  16  -3  -2   47.91    2.02
  15  -3  -2  530.60   21.17
  14  -3  -2 1098.99   22.04
  13  -3  -2  206.57    7.80
  12  -3  -2  256.61    7.26
  11  -3  -2 1046.67   26.77
  10  -3  -2 1820.83   34.47
   9  -3  -2   73.60    2.35
   8  -3  -2 1279.07   26.41
   7  -3  -2 5996.45  152.77
   6  -3  -2 1892.26   40.97
   5  -3  -2    8.96    0.61
   4  -3  -2  192.15    7.48
   3  -3  -2 1096.28   30.28
   2  -3  -2 2139.01   56.11
   1  -3  -2   64.39    4.44
   0  -3  -2  504.04   13.77
  -1  -3  -2  440.01   10.26
  -2  -3  -2 1517.61   42.49
  -3  -3  -2   26.48    1.26
  -4  -3  -2 2130.70   58.53
  -5  -3  -2    7.99    0.76
  -6  -3  -2   94.34    6.07
  -7  -3  -2   33.28    1.26
  -8  -3  -2  144.67    5.17
  -9  -3  -2    8.56    0.58
 -10  -3  -2  599.36   20.92
 -11  -3  -2 1011.15   33.39
 -12  -3  -2 1036.66   27.35
 -13  -3  -2  173.14    6.29
 -14  -3  -2   75.84    3.61
 -15  -3  -2 1466.56   42.71
 -16  -3  -2  273.81   11.74
 -17  -3  -2   24.75    1.81
 -18  -3  -2  106.44    4.16
 -19  -3  -2  112.08    5.35
 -20  -3  -2    1.55    0.79
 -21  -3  -2   42.56    1.81
 -22  -3  -2   40.47    1.95
 -23  -3  -2   30.24    1.30
 -24  -3  -2   11.92    1.34
 -25  -3  -2   42.60    2.31
 -26  -3  -2   21.61    1.37
 -27  -3  -2    0.83    1.01
 -28  -3  -2   18.25    1.73
 -29  -3  -2    0.04    0.72
 -30  -3  -2   38.30    2.35
 -31  -3  -2    1.63    0.72
 -32  -3  -2    0.22    0.83
 -33  -3  -2   -1.01    0.69
  35  -3  -1    3.47    0.69
  34  -3  -1   14.99    1.01
  33  -3  -1    0.33    0.87
  32  -3  -1   15.86    1.63
  31  -3  -1    1.05    0.72
  30  -3  -1   48.02    2.78
  29  -3  -1    0.87    0.72
  28  -3  -1  122.27    6.83
  27  -3  -1    8.06    0.94
  26  -3  -1   23.16    1.37
  25  -3  -1   11.09    1.81
  24  -3  -1   89.07    2.71
  23  -3  -1    2.49    1.01
  22  -3  -1   55.82    1.88
  21  -3  -1   25.65    1.30
  20  -3  -1  237.75    6.76
  19  -3  -1  170.18    6.90
  18  -3  -1   10.80    1.08
  17  -3  -1  210.36    7.77
  16  -3  -1 1720.20   41.01
  15  -3  -1  428.92   11.85
  14  -3  -1  599.93   15.25
  13  -3  -1  561.31   14.49
  12  -3  -1   33.89    1.66
  11  -3  -1  682.24   31.72
  10  -3  -1   73.09    3.29
   9  -3  -1 4481.98  173.29
   8  -3  -1   23.59    1.41
   7  -3  -1  943.12   42.45
   6  -3  -1 1964.06   36.96
   5  -3  -1 2751.34   68.54
   4  -3  -1  713.06   17.20
   3  -3  -1 2532.99   65.40
   2  -3  -1   61.60    2.20
   0  -3  -1 1540.45   39.35
  -1  -3  -1 1187.98   22.98
  -2  -3  -1  821.89   19.19
  -3  -3  -1 1691.62   37.40
  -4  -3  -1   52.93    2.20
  -5  -3  -1  464.55   15.68
  -6  -3  -1 1312.96   31.04
  -7  -3  -1  184.20    9.21
  -8  -3  -1  310.92    9.97
  -9  -3  -1  838.95   21.61
 -10  -3  -1  732.03   23.05
 -11  -3  -1  310.34   11.71
 -12  -3  -1 1084.90   24.28
 -13  -3  -1 1502.73   42.74
 -14  -3  -1   63.74    2.38
 -16  -3  -1  408.76   11.35
 -17  -3  -1   99.04    3.00
 -18  -3  -1  303.69   10.15
 -19  -3  -1   16.48    1.12
 -20  -3  -1  407.06    9.97
 -21  -3  -1   15.79    0.98
 -22  -3  -1  246.24    9.32
 -23  -3  -1   31.36    1.23
 -24  -3  -1   79.71    4.08
 -25  -3  -1    0.79    0.87
 -26  -3  -1   41.19    1.66
 -27  -3  -1   21.75    1.23
 -28  -3  -1  225.35    7.41
 -30  -3  -1    6.90    0.83
 -31  -3  -1   22.76    2.10
 -32  -3  -1   14.85    1.12
 -33  -3  -1    0.04    0.90
 -34  -3  -1   -2.28    1.45
 -35  -3  -1   -0.79    0.87
  35  -3   0    0.65    1.05
  34  -3   0    2.60    0.69
  33  -3   0    4.55    0.90
  32  -3   0   23.16    1.52
  31  -3   0    2.85    1.01
  30  -3   0    4.91    1.34
  29  -3   0    2.17    0.79
  28  -3   0    2.06    2.02
  27  -3   0   21.32    1.45
  26  -3   0  171.92    5.93
  25  -3   0    5.49    0.69
  24  -3   0    5.74    2.24
  23  -3   0    1.59    0.61
  22  -3   0    9.39    0.83
  21  -3   0   40.43    2.10
  20  -3   0   32.23    1.37
  19  -3   0   26.70    1.30
  18  -3   0   71.32    2.67
  17  -3   0    7.77    1.08
  16  -3   0    7.66    0.69
  15  -3   0    2.78    0.69
  14  -3   0  463.93   12.43
  12  -3   0  180.55    7.05
  11  -3   0  836.67   21.50
  10  -3   0  383.54    9.54
   9  -3   0 2322.85   44.23
   8  -3   0    4.44    0.58
   7  -3   0  949.55   25.36
   6  -3   0  324.97    9.47
   5  -3   0 1025.86   28.51
   4  -3   0  458.69   12.32
   3  -3   0  275.22    8.56
   2  -3   0 2496.61   68.14
   1  -3   0 1448.93   31.72
  -1  -3   0 1445.78   27.93
  -2  -3   0 2091.78   45.06
  -3  -3   0  263.22    8.56
  -4  -3   0  443.34   13.08
  -5  -3   0  924.83   27.42
  -6  -3   0  304.92   11.02
  -7  -3   0  880.10   22.11
  -8  -3   0    4.62    0.47
  -9  -3   0 2299.33   61.71
 -10  -3   0  361.14   16.77
 -12  -3   0  180.05    7.05
 -13  -3   0   21.86    1.88
 -14  -3   0  425.96   11.85
 -15  -3   0    1.81    0.79
 -16  -3   0    6.32    1.01
 -17  -3   0    8.38    0.87
 -18  -3   0   78.88    3.00
 -19  -3   0   24.79    1.23
 -20  -3   0   25.44    2.28
 -21  -3   0   30.78    1.37
 -22  -3   0    7.23    1.08
 -23  -3   0   -1.12    0.54
 -24  -3   0    7.77    2.31
 -25  -3   0    4.77    1.26
 -26  -3   0  157.50    4.26
 -27  -3   0   15.50    1.45
 -28  -3   0    1.16    0.79
 -29  -3   0    0.22    0.76
 -30  -3   0    4.12    0.79
 -31  -3   0    2.53    0.65
 -32  -3   0   18.86    1.73
 -33  -3   0    4.95    0.90
 -34  -3   0    2.38    0.94
 -35  -3   0    3.65    1.01
  35  -3   1    1.88    1.26
  34  -3   1    0.04    0.65
  33  -3   1    0.83    2.17
  32  -3   1   13.30    1.23
  31  -3   1   20.56    1.08
  30  -3   1    6.76    1.26
  29  -3   1   27.79    1.59
  28  -3   1  228.53    6.32
  27  -3   1   25.62    1.41
  26  -3   1   47.87    2.20
  25  -3   1   -0.76    0.69
  24  -3   1   87.84    3.47
  23  -3   1   33.60    1.63
  22  -3   1  246.46    6.54
  21  -3   1   21.03    1.59
  20  -3   1  421.26   11.85
  19  -3   1   20.20    1.23
  18  -3   1  330.25    8.96
  17  -3   1  110.20    3.40
  16  -3   1  460.79   15.25
  15  -3   1   52.75    2.24
  14  -3   1   67.02    2.85
  13  -3   1 1630.05   32.55
  12  -3   1 1290.16   40.03
  11  -3   1  312.00   10.12
  10  -3   1  852.64   20.63
   9  -3   1  933.79   23.16
   8  -3   1  318.65    8.49
   7  -3   1  186.40    5.64
   6  -3   1 1349.71   27.57
   5  -3   1  522.83   21.43
   4  -3   1   72.23    3.04
   3  -3   1 1850.13   48.81
   2  -3   1  798.37   24.86
   1  -3   1 1299.30   23.92
   0  -3   1 1711.86   30.24
  -2  -3   1   67.46    1.81
  -3  -3   1 2455.63   62.91
  -4  -3   1  656.55   15.21
  -5  -3   1 2461.20   53.08
  -6  -3   1 1995.89   51.24
  -7  -3   1  837.36   24.71
  -9  -3   1 4198.71   89.86
 -10  -3   1   75.19    3.47
 -11  -3   1  726.03   23.45
 -12  -3   1   32.05    1.19
 -13  -3   1  501.01   23.88
 -14  -3   1  568.43   13.44
 -15  -3   1  434.05   16.33
 -16  -3   1 1637.21   38.01
 -17  -3   1  202.01    6.40
 -18  -3   1   11.16    1.01
 -19  -3   1  158.55    9.72
 -20  -3   1  222.64    6.72
 -21  -3   1   22.80    1.73
 -22  -3   1   54.92    2.38
 -23  -3   1    1.34    0.69
 -24  -3   1   86.61    3.40
 -25  -3   1   10.26    1.41
 -26  -3   1   24.86    1.70
 -27  -3   1    7.59    1.91
 -28  -3   1  123.93    6.00
 -29  -3   1   -0.54    0.72
 -31  -3   1    3.47    0.76
 -32  -3   1   10.08    1.05
 -33  -3   1    1.45    1.16
 -34  -3   1   13.40    1.08
 -35  -3   1    3.61    1.12
  34  -3   2   -1.73    2.06
  33  -3   2    0.83    0.87
  32  -3   2    0.61    0.58
  31  -3   2    1.34    1.30
  30  -3   2   38.70    1.77
  29  -3   2    1.84    1.08
  28  -3   2   23.85    1.55
  27  -3   2    0.00    0.61
  26  -3   2   25.22    1.52
  25  -3   2   40.58    2.64
  24  -3   2   10.19    0.94
  23  -3   2   33.89    1.66
  22  -3   2   47.80    2.75
  21  -3   2   56.76    3.07
  20  -3   2    5.28    1.05
  19  -3   2  146.55    5.31
  18  -3   2  123.32    5.60
  17  -3   2   31.58    1.34
  16  -3   2  286.71   10.48
  15  -3   2 1496.22   45.49
  14  -3   2   92.43    5.17
  13  -3   2  162.27    7.30
  12  -3   2 1123.34   29.16
  11  -3   2 1127.46   27.79
  10  -3   2  689.51   24.32
   9  -3   2   12.43    1.01
   8  -3   2  155.66    5.82
   7  -3   2   43.36    1.63
   6  -3   2  121.44    6.83
   5  -3   2    7.62    0.54
   4  -3   2 2382.03   52.39
   2  -3   2 1745.32   47.95
   1  -3   2  471.49   11.27
   0  -3   2  501.29   13.40
  -1  -3   2   53.94    1.63
  -2  -3   2 2183.70   37.29
  -3  -3   2 1032.36   39.06
  -5  -3   2    8.38    0.43
  -6  -3   2 1662.03   61.97
  -8  -3   2 1271.55   36.42
  -9  -3   2   73.67    3.32
 -10  -3   2 1941.51   37.54
 -11  -3   2 1048.30   43.07
 -12  -3   2  240.89    8.02
 -13  -3   2  215.09    7.12
 -14  -3   2 1254.72   32.01
 -15  -3   2  529.95   14.49
 -16  -3   2   40.32    2.24
 -17  -3   2  138.02    4.48
 -18  -3   2  251.08   13.51
 -19  -3   2   92.86    3.50
 -20  -3   2   27.86    1.45
 -21  -3   2  349.50   18.32
 -22  -3   2  107.89    4.08
 -23  -3   2   13.73    1.48
 -24  -3   2   50.69    1.88
 -25  -3   2   23.49    1.63
 -26  -3   2  102.90    3.65
 -27  -3   2    0.25    0.69
 -28  -3   2    3.29    0.47
 -29  -3   2    0.83    1.05
 -30  -3   2   20.67    1.23
 -31  -3   2   13.30    0.90
 -32  -3   2   18.97    1.73
 -33  -3   2   -0.11    0.98
 -34  -3   2    4.62    1.37
 -35  -3   2   -0.07    1.08
  34  -3   3   -1.19    1.66
  33  -3   3    0.90    0.72
  32  -3   3   10.73    0.94
  31  -3   3   10.98    1.45
  30  -3   3   -1.01    1.66
  29  -3   3   38.88    2.10
  28  -3   3    0.72    0.69
  27  -3   3   95.17    2.93
  26  -3   3   88.09    5.53
  25  -3   3    0.58    0.69
  24  -3   3   82.31    3.04
  23  -3   3   55.39    3.65
  22  -3   3  548.84   14.16
  21  -3   3   60.99    2.89
  20  -3   3  210.97    7.88
  19  -3   3   32.37    1.70
  18  -3   3  648.93   23.27
  17  -3   3    9.50    0.83
  16  -3   3   78.70    3.07
  15  -3   3  145.36    5.67
  14  -3   3 1293.70   29.92
  13  -3   3  373.42   11.56
  12  -3   3   52.50    2.53
  11  -3   3 1204.17   57.41
  10  -3   3  858.28   27.06
   9  -3   3   33.21    1.91
   8  -3   3  231.57   11.13
   7  -3   3 1019.06   25.69
   6  -3   3 2213.69   49.79
   5  -3   3  956.95   30.71
   4  -3   3  805.63   17.67
   3  -3   3  173.98    4.95
   2  -3   3    7.91    0.61
   1  -3   3 2655.70   55.07
   0  -3   3   69.16    2.71
  -1  -3   3  907.71   32.45
  -2  -3   3  408.87    9.39
  -6  -3   3 1917.85   35.81
  -8  -3   3   17.52    0.98
 -10  -3   3   51.78    1.77
 -11  -3   3   33.31    1.91
 -12  -3   3  337.33   10.12
 -13  -3   3  675.05   16.33
 -14  -3   3  126.61    4.16
 -15  -3   3 1308.26   38.84
 -16  -3   3  326.85   10.23
 -17  -3   3   80.83    5.71
 -18  -3   3   96.54    6.43
 -19  -3   3  182.61    5.85
 -20  -3   3  134.95    6.18
 -21  -3   3    1.45    0.54
 -22  -3   3   -0.04    0.58
 -23  -3   3    0.61    0.65
 -24  -3   3  124.26    4.26
 -25  -3   3    3.83    1.16
 -27  -3   3    0.79    0.79
 -28  -3   3   47.91    2.67
 -29  -3   3    3.11    0.65
 -30  -3   3   47.66    2.57
 -31  -3   3    8.27    1.34
 -32  -3   3    4.23    1.77
 -33  -3   3    3.00    1.45
 -34  -3   3    7.08    0.98
 -35  -3   3    1.45    0.79
 -36  -3   3    0.18    1.37
  33  -3   4   -3.11    1.81
  32  -3   4    3.69    0.87
  31  -3   4   -0.25    0.94
  30  -3   4   14.99    1.77
  29  -3   4    6.43    0.90
  28  -3   4   33.21    2.82
  27  -3   4    1.88    1.52
  26  -3   4   18.72    1.41
  25  -3   4   30.60    1.70
  24  -3   4   74.18    3.32
  23  -3   4   40.32    2.71
  22  -3   4  371.18   11.20
  21  -3   4    1.77    0.76
  20  -3   4   11.13    1.23
  19  -3   4  151.03    6.90
  18  -3   4   68.25    2.96
  17  -3   4   25.29    1.45
  16  -3   4  896.54   24.82
  15  -3   4  125.96    9.36
  14  -3   4   17.78    1.41
  13  -3   4 2474.86   59.98
  12  -3   4  323.24   12.00
  11  -3   4  611.71   17.99
  10  -3   4   57.99    3.50
   9  -3   4 3076.05   90.37
   8  -3   4 1107.12   27.57
   7  -3   4  399.69   10.08
   6  -3   4 1998.71   59.15
   4  -3   4  800.36   18.10
   3  -3   4 2469.87   85.20
   2  -3   4 3845.30   96.83
  -1  -3   4  187.89    5.17
  -5  -3   4  163.68    8.74
  -6  -3   4  153.96    3.90
  -7  -3   4 4568.70   92.17
  -8  -3   4 1891.25   53.11
  -9  -3   4  881.87   20.63
 -10  -3   4 3563.15   97.48
 -11  -3   4 1363.15   27.03
 -12  -3   4  118.66    3.29
 -14  -3   4 2301.82   66.01
 -15  -3   4   37.65    1.77
 -16  -3   4  351.06   11.09
 -17  -3   4  603.62   15.28
 -18  -3   4  343.33   10.26
 -20  -3   4    0.76    0.61
 -21  -3   4   43.11    1.91
 -22  -3   4  249.20   10.15
 -23  -3   4  108.40    8.24
 -24  -3   4   14.20    2.06
 -25  -3   4  121.44    4.16
 -26  -3   4   13.80    1.08
 -27  -3   4   26.20    1.70
 -28  -3   4   27.71    2.35
 -29  -3   4    1.63    0.76
 -30  -3   4   17.05    1.05
 -31  -3   4    2.53    0.98
 -32  -3   4    3.61    0.72
 -33  -3   4    6.07    0.90
 -34  -3   4   -0.25    0.69
 -35  -3   4   -0.43    0.83
 -36  -3   4    2.78    1.16
  33  -3   5    1.23    1.05
  32  -3   5    7.55    0.65
  31  -3   5    0.22    0.61
  29  -3   5   30.03    1.91
  28  -3   5   53.69    1.91
  27  -3   5    1.63    0.79
  26  -3   5    4.37    1.19
  25  -3   5    0.07    0.69
  24  -3   5   52.50    2.31
  23  -3   5   99.69    3.43
  22  -3   5   23.88    1.45
  21  -3   5   14.13    0.94
  20  -3   5  104.82    3.58
  19  -3   5    1.88    0.76
  18  -3   5  642.10   22.76
  17  -3   5  106.44    3.94
  16  -3   5    9.76    1.12
  15  -3   5  650.41   18.82
  14  -3   5 1049.52   31.58
  13  -3   5   69.92    5.13
  12  -3   5  453.53   18.39
  11  -3   5   45.82    2.89
  10  -3   5   75.15    3.11
   9  -3   5  741.68   24.39
   8  -3   5 4413.91  120.68
   7  -3   5  866.70   25.51
   6  -3   5   88.45    4.70
   5  -3   5  219.65    7.05
   4  -3   5  176.87    6.50
   3  -3   5 4852.26  165.66
  -3  -3   5  485.65   18.93
  -6  -3   5    7.44    0.47
  -7  -3   5  384.08    8.56
  -8  -3   5  121.29    4.05
  -9  -3   5 3536.23   93.29
 -10  -3   5    1.73    0.54
 -11  -3   5  336.32    9.50
 -13  -3   5  913.67   20.34
 -14  -3   5    4.26    0.98
 -15  -3   5  404.82   18.54
 -16  -3   5  627.68   15.39
 -17  -3   5   44.77    2.57
 -19  -3   5  289.92   12.43
 -20  -3   5  229.51    7.70
 -21  -3   5   74.18    3.90
 -23  -3   5   94.02    6.03
 -24  -3   5    3.65    1.05
 -26  -3   5   39.89    3.87
 -27  -3   5    0.79    0.61
 -28  -3   5   68.90    3.11
 -29  -3   5    0.18    0.69
 -30  -3   5   35.81    1.95
 -31  -3   5    4.37    0.98
 -32  -3   5   11.02    1.12
 -35  -3   5    0.14    1.08
  32  -3   6   34.00    1.88
  31  -3   6    1.08    1.19
  30  -3   6    3.36    0.69
  29  -3   6   21.72    1.34
  28  -3   6   83.14    3.14
  27  -3   6   50.33    2.82
  26  -3   6    2.82    1.48
  25  -3   6   66.19    3.79
  24  -3   6   95.28    3.32
  23  -3   6   -1.05    1.26
  22  -3   6    1.30    0.94
  21  -3   6    9.07    1.08
  20  -3   6  847.91   24.79
  19  -3   6   80.86    3.29
  18  -3   6   13.98    0.94
  17  -3   6  255.02   10.80
  16  -3   6  672.34   18.25
  15  -3   6   37.14    3.76
  14  -3   6  438.64   18.17
  13  -3   6  220.62    8.64
  12  -3   6  270.81    9.18
  11  -3   6  164.00    5.13
  10  -3   6  179.72    5.53
   9  -3   6  575.73   13.77
   8  -3   6   13.19    1.01
   7  -3   6 1809.88   50.58
   6  -3   6  133.18    5.89
   5  -3   6 2601.03   69.95
   4  -3   6  765.06   33.42
   3  -3   6   35.12    2.75
   2  -3   6   26.92    1.73
  -5  -3   6  314.20   12.65
  -6  -3   6   79.17    4.70
  -7  -3   6  414.54   14.02
  -8  -3   6  499.60   23.85
  -9  -3   6  960.96   21.64
 -10  -3   6    3.22    0.54
 -11  -3   6 1168.87   23.85
 -12  -3   6  236.66    6.65
 -13  -3   6  553.90   19.04
 -14  -3   6  256.39    6.58
 -15  -3   6    8.71    0.76
 -16  -3   6  102.00    3.32
 -17  -3   6  241.18    9.54
 -18  -3   6   21.72    1.63
 -19  -3   6  172.06    4.16
 -20  -3   6  110.46    6.87
 -21  -3   6   -0.04    0.79
 -22  -3   6   32.55    1.23
 -23  -3   6    5.89    1.05
 -24  -3   6   92.61    6.21
 -25  -3   6   38.73    3.90
 -26  -3   6    1.19    0.79
 -27  -3   6    4.88    0.94
 -28  -3   6   48.49    3.14
 -29  -3   6    0.07    0.87
 -30  -3   6    9.54    1.01
 -31  -3   6    7.95    1.16
 -32  -3   6   12.83    1.41
 -33  -3   6    1.23    0.79
 -35  -3   6    0.79    0.58
  32  -3   7    7.41    0.79
  31  -3   7   -0.54    0.87
  30  -3   7   15.75    1.63
  29  -3   7    7.70    0.94
  28  -3   7    2.82    0.98
  27  -3   7   38.55    2.46
  26  -3   7   35.34    4.44
  25  -3   7   42.31    2.60
  24  -3   7   11.74    1.08
  23  -3   7    3.50    0.83
  22  -3   7  619.59   21.57
  21  -3   7   47.69    2.49
  20  -3   7  192.11    8.82
  19  -3   7   32.63    1.73
  18  -3   7  305.57   10.37
  17  -3   7    7.12    0.94
  16  -3   7   12.43    1.30
  15  -3   7  860.01   23.74
  14  -3   7  678.30   33.89
  13  -3   7  339.57   10.59
  12  -3   7 1232.82   41.15
  11  -3   7   37.22    2.35
  10  -3   7  259.64    7.05
   9  -3   7   33.53    1.73
   8  -3   7  971.19   30.39
   7  -3   7   81.41    3.50
   6  -3   7    4.95    0.47
   5  -3   7    3.04    0.72
   3  -3   7 1036.48   41.88
   2  -3   7  588.37   16.84
  -6  -3   7  160.90    5.35
  -7  -3   7  274.24   10.04
  -8  -3   7  544.62   13.95
  -9  -3   7    7.59    1.05
 -10  -3   7   24.61    1.23
 -11  -3   7  863.05   25.47
 -12  -3   7  238.43    7.26
 -13  -3   7   68.87    4.88
 -14  -3   7    8.24    0.90
 -15  -3   7  745.33   19.55
 -16  -3   7  531.07   13.55
 -17  -3   7   61.24    2.57
 -18  -3   7  113.20    5.06
 -19  -3   7  234.42   10.41
 -20  -3   7  189.84    5.67
 -21  -3   7   22.84    1.66
 -22  -3   7  236.41   11.45
 -23  -3   7    2.53    0.87
 -24  -3   7    2.28    0.90
 -25  -3   7   29.01    1.55
 -26  -3   7   32.05    2.67
 -27  -3   7   18.43    1.34
 -28  -3   7   -0.07    0.98
 -29  -3   7    2.75    0.90
 -30  -3   7   25.22    1.63
 -31  -3   7    0.25    0.98
 -32  -3   7    3.43    0.65
 -33  -3   7    0.61    0.87
 -34  -3   7    5.89    1.01
 -35  -3   7   -0.04    0.98
  31  -3   8    0.87    0.83
  30  -3   8    9.29    1.23
  29  -3   8   -0.25    0.69
  28  -3   8    2.49    2.38
  27  -3   8   69.34    3.07
  26  -3   8   54.74    1.95
  25  -3   8    9.36    1.01
  24  -3   8   62.87    3.72
  23  -3   8   38.44    2.64
  22  -3   8   38.23    2.53
  21  -3   8   36.10    2.57
  20  -3   8  414.47   13.55
  19  -3   8    1.01    0.83
  18  -3   8 1089.27   31.58
  17  -3   8  203.68    5.82
  16  -3   8    0.40    1.45
  15  -3   8    0.79    0.65
  14  -3   8  811.85   25.55
  13  -3   8   84.26    2.71
  12  -3   8   29.09    2.17
  11  -3   8  394.92   15.14
  10  -3   8  968.99   23.81
   9  -3   8    8.71    0.79
   8  -3   8   11.49    0.72
   7  -3   8  248.73    7.01
   6  -3   8  219.43   12.39
   5  -3   8 1244.06   27.03
   3  -3   8  644.16   26.30
   2  -3   8  477.16   18.57
  -7  -3   8   60.85    2.57
  -9  -3   8   56.22    3.83
 -10  -3   8  385.42    8.42
 -11  -3   8   43.07    2.57
 -12  -3   8  232.29    5.89
 -13  -3   8   58.79    2.93
 -14  -3   8  244.54    6.68
 -15  -3   8   24.57    1.23
 -16  -3   8    5.49    0.83
 -17  -3   8  183.22    6.11
 -18  -3   8  166.71    7.01
 -20  -3   8  106.05    3.43
 -22  -3   8    9.65    1.37
 -23  -3   8   43.39    2.67
 -24  -3   8   68.83    3.22
 -25  -3   8    0.58    0.98
 -26  -3   8   32.19    1.52
 -27  -3   8   11.53    0.83
 -28  -3   8   25.83    3.43
 -29  -3   8   -0.69    0.72
 -30  -3   8   11.85    1.81
 -31  -3   8    0.76    0.76
 -32  -3   8    9.97    1.23
 -33  -3   8   -1.08    0.94
 -34  -3   8   -0.04    0.98
  30  -3   9   11.49    2.13
  29  -3   9    0.33    0.61
  28  -3   9    2.89    1.30
  27  -3   9   61.46    2.93
  26  -3   9   50.01    4.66
  25  -3   9    0.40    0.69
  24  -3   9   57.67    2.35
  23  -3   9   57.88    4.91
  22  -3   9   47.08    1.84
  21  -3   9  118.80    4.73
  20  -3   9  608.57   18.54
  19  -3   9  213.29    6.90
  18  -3   9  514.01   17.02
  17  -3   9   11.92    1.48
  16  -3   9 1206.99   36.71
  15  -3   9  175.64    6.14
  14  -3   9  687.95   32.74
  13  -3   9   16.84    1.88
  12  -3   9 1655.96   44.95
  11  -3   9   42.96    1.70
  10  -3   9   22.58    1.48
   9  -3   9   12.07    0.87
   8  -3   9  769.14   18.61
   7  -3   9  554.44   17.96
   6  -3   9   66.16    2.57
   5  -3   9  247.40   13.33
   4  -3   9 2220.70   71.79
   3  -3   9   41.95    2.64
  -7  -3   9  820.63   20.02
  -8  -3   9    0.54    0.33
  -9  -3   9   39.42    1.84
 -10  -3   9   32.95    1.77
 -11  -3   9 1711.89   37.87
 -12  -3   9  629.96   16.91
 -13  -3   9  496.81   20.74
 -14  -3   9    4.77    0.61
 -15  -3   9  189.37    6.97
 -16  -3   9   24.82    1.48
 -17  -3   9  306.83    9.50
 -18  -3   9    3.87    0.72
 -19  -3   9  116.38    3.58
 -21  -3   9  151.75    4.26
 -22  -3   9  140.70    7.95
 -23  -3   9    2.02    0.76
 -24  -3   9    2.10    2.17
 -25  -3   9   13.95    1.45
 -26  -3   9   37.69    3.61
 -27  -3   9   -0.43    0.65
 -28  -3   9   15.39    1.55
 -29  -3   9    0.47    1.23
 -30  -3   9   14.31    1.37
 -31  -3   9   -0.14    0.76
 -32  -3   9    2.93    0.76
 -33  -3   9    0.11    1.05
 -34  -3   9    0.22    1.08
  30  -3  10    2.89    1.34
  29  -3  10   17.56    1.52
  28  -3  10    1.99    0.87
  27  -3  10    1.73    1.01
  26  -3  10    0.18    0.94
  25  -3  10   39.13    2.64
  24  -3  10    3.69    0.87
  23  -3  10    2.13    1.01
  22  -3  10   19.29    1.45
  21  -3  10  173.87    7.05
  20  -3  10   46.18    1.95
  19  -3  10    0.11    0.72
  18  -3  10  705.87   23.12
  17  -3  10  530.27   14.49
  16  -3  10    1.59    0.76
  15  -3  10  128.23    5.13
  14  -3  10   15.39    1.70
  13  -3  10   15.25    1.16
  12  -3  10  362.48    9.03
  11  -3  10   71.65    3.61
  10  -3  10   24.10    1.37
   9  -3  10 1917.92   41.77
   8  -3  10  366.70   10.12
   4  -3  10  260.26    7.99
   3  -3  10    4.44    0.79
  -8  -3  10  249.78    7.41
 -10  -3  10   28.04    2.13
 -11  -3  10  190.20   10.84
 -12  -3  10   10.19    0.94
 -13  -3  10  211.12    7.08
 -14  -3  10   60.27    2.35
 -15  -3  10    3.54    0.98
 -16  -3  10    8.78    1.16
 -17  -3  10   -0.04    0.54
 -18  -3  10    0.18    0.72
 -19  -3  10  131.56    5.31
 -20  -3  10   11.82    0.94
 -21  -3  10   17.92    1.05
 -22  -3  10    9.65    0.79
 -24  -3  10    9.90    0.90
 -25  -3  10    0.87    0.79
 -26  -3  10    8.17    0.94
 -28  -3  10    1.23    1.01
 -29  -3  10    3.04    1.08
 -30  -3  10    5.96    1.23
 -31  -3  10    1.91    1.37
 -32  -3  10    0.58    0.72
 -33  -3  10    0.83    0.87
 -34  -3  10   -1.05    0.90
  29  -3  11   11.13    1.70
  28  -3  11    4.30    0.83
  27  -3  11   22.22    1.59
  26  -3  11   12.03    1.16
  25  -3  11   17.74    1.81
  24  -3  11  116.96    4.19
  23  -3  11   61.93    4.48
  22  -3  11   35.66    1.70
  21  -3  11   31.76    2.17
  20  -3  11  285.66   15.54
  19  -3  11   16.11    1.19
  18  -3  11    9.79    1.12
  17  -3  11   25.55    1.48
  16  -3  11  431.45   14.85
  15  -3  11    0.65    0.98
  14  -3  11  133.29    5.31
  13  -3  11    1.48    0.54
  12  -3  11 2789.74   72.95
  11  -3  11   23.23    1.48
  10  -3  11  413.28   13.95
   9  -3  11   37.14    2.67
   8  -3  11  741.43   26.30
   7  -3  11    0.87    0.54
   5  -3  11  268.39    8.24
   4  -3  11  112.33    3.65
  -9  -3  11  675.96   26.27
 -10  -3  11  278.07   11.35
 -12  -3  11    0.18    0.65
 -13  -3  11  426.97   20.27
 -14  -3  11   71.22    2.82
 -15  -3  11   35.66    1.88
 -16  -3  11   13.84    1.48
 -17  -3  11  127.69    4.99
 -18  -3  11  224.23    7.33
 -19  -3  11   55.61    2.42
 -20  -3  11    0.61    0.94
 -21  -3  11   88.16    3.40
 -22  -3  11   13.37    1.30
 -23  -3  11    0.47    0.69
 -24  -3  11   13.30    1.45
 -25  -3  11   30.78    1.59
 -26  -3  11   19.66    1.70
 -27  -3  11    2.13    1.12
 -28  -3  11   17.92    1.66
 -29  -3  11    1.91    1.19
 -30  -3  11    7.80    2.17
 -31  -3  11   -1.48    0.83
 -32  -3  11    3.14    1.01
 -33  -3  11   -2.57    1.26
 -34  -3  11    0.47    1.12
  27  -3  12    5.49    1.19
  26  -3  12   20.23    1.81
  25  -3  12   18.46    1.48
  24  -3  12   36.75    3.72
  23  -3  12   47.48    2.85
  22  -3  12   34.65    1.59
  21  -3  12    2.93    1.01
  20  -3  12    4.41    1.84
  19  -3  12   16.62    1.37
  18  -3  12  149.88    8.78
  17  -3  12    3.58    0.90
  16  -3  12   10.80    1.01
  15  -3  12   34.61    1.55
  14  -3  12   67.06    2.42
  13  -3  12   20.56    1.34
  12  -3  12    5.60    0.72
  11  -3  12  222.68    8.53
  10  -3  12   56.44    4.37
   9  -3  12   70.60    2.89
   8  -3  12    6.87    0.83
   6  -3  12  250.00   12.28
   5  -3  12   75.26    4.52
   4  -3  12  509.57   16.26
   3  -3  12   32.63    1.95
 -10  -3  12   47.44    2.46
 -11  -3  12    1.45    0.76
 -12  -3  12    0.83    0.54
 -13  -3  12    0.43    0.69
 -14  -3  12   37.97    2.13
 -15  -3  12  157.10    4.73
 -16  -3  12   94.88    2.93
 -17  -3  12   19.62    1.34
 -18  -3  12  103.45    3.22
 -19  -3  12  151.14    5.35
 -20  -3  12    8.78    1.12
 -21  -3  12    0.83    0.79
 -22  -3  12    0.00    1.19
 -23  -3  12   32.34    1.95
 -24  -3  12    1.26    2.20
 -25  -3  12    3.14    1.01
 -27  -3  12    1.12    0.94
 -28  -3  12    1.26    0.76
 -29  -3  12   -0.69    1.01
 -30  -3  12    4.08    1.19
 -31  -3  12    1.08    0.76
 -32  -3  12    0.11    1.19
  27  -3  13   12.32    1.26
  26  -3  13    0.51    0.94
  25  -3  13   16.37    0.98
  24  -3  13   70.49    3.97
  23  -3  13    9.14    1.16
  22  -3  13    4.16    1.63
  21  -3  13    5.31    1.12
  20  -3  13  212.27    5.20
  19  -3  13    9.68    1.01
  18  -3  13   13.66    0.87
  17  -3  13   14.71    1.05
  16  -3  13  320.35    8.96
  15  -3  13    8.02    1.08
  14  -3  13    2.64    0.65
  13  -3  13  244.40    8.96
  12  -3  13    2.82    0.72
  11  -3  13  204.18    6.94
  10  -3  13  101.49    4.19
   9  -3  13   25.47    1.34
   8  -3  13  601.60   14.16
   7  -3  13   26.45    2.67
   5  -3  13  315.14   12.03
   4  -3  13    9.11    0.79
 -11  -3  13   89.97    4.66
 -13  -3  13  460.68   19.01
 -14  -3  13   14.06    2.02
 -15  -3  13    7.08    1.16
 -16  -3  13    1.37    1.12
 -17  -3  13   66.84    4.70
 -18  -3  13    0.79    0.69
 -19  -3  13   26.81    1.34
 -20  -3  13   99.18    3.58
 -21  -3  13   17.02    1.12
 -22  -3  13   61.42    2.06
 -23  -3  13   -0.04    0.72
 -24  -3  13   -0.29    1.23
 -25  -3  13    2.78    0.76
 -26  -3  13   -0.11    1.30
 -27  -3  13    0.87    0.98
 -28  -3  13   13.15    1.19
 -29  -3  13    0.36    1.08
 -30  -3  13    0.22    0.90
 -31  -3  13    0.00    0.72
 -32  -3  13    7.80    1.41
  26  -3  14   13.44    1.37
  25  -3  14    0.90    0.94
  24  -3  14    5.42    2.02
  23  -3  14   13.30    3.18
  22  -3  14  145.79    5.28
  21  -3  14    1.37    0.83
  20  -3  14   21.53    1.91
  19  -3  14   13.98    1.26
  18  -3  14  157.28    8.06
  17  -3  14    9.07    0.79
  16  -3  14  108.11    3.72
  15  -3  14   88.52    2.53
  14  -3  14    1.91    1.05
  13  -3  14   54.81    2.89
  12  -3  14    2.85    0.65
  11  -3  14  436.29   23.41
  10  -3  14   92.39    3.69
   9  -3  14   34.65    3.32
   8  -3  14   17.27    1.34
   7  -3  14  158.00    7.26
 -11  -3  14   30.68    1.66
 -14  -3  14    6.29    1.01
 -15  -3  14   57.74    4.08
 -16  -3  14    0.65    0.61
 -17  -3  14   46.21    2.31
 -18  -3  14    6.58    1.12
 -19  -3  14   48.09    2.71
 -20  -3  14    4.95    0.83
 -21  -3  14   97.99    3.07
 -22  -3  14   -3.25    2.20
 -23  -3  14   12.36    1.19
 -25  -3  14    1.73    0.94
 -26  -3  14    2.42    1.26
 -27  -3  14    5.17    1.30
 -28  -3  14    0.79    0.76
 -29  -3  14    1.26    1.19
 -30  -3  14    1.08    1.19
  24  -3  15   10.70    1.05
  23  -3  15    1.23    1.99
  22  -3  15   -0.83    1.55
  21  -3  15    8.78    1.34
  20  -3  15  168.88    4.84
  19  -3  15   12.65    1.05
  18  -3  15  121.51    8.38
  17  -3  15    7.41    1.05
  16  -3  15   62.98    5.35
  15  -3  15    4.91    1.05
  14  -3  15  325.58   10.66
  13  -3  15    7.62    0.87
  12  -3  15   25.44    1.77
  11  -3  15   13.30    2.20
  10  -3  15  410.53   22.44
   9  -3  15   34.36    1.99
   7  -3  15    8.31    1.16
   6  -3  15    8.82    0.79
   5  -3  15  130.98    6.03
 -12  -3  15    0.69    0.65
 -13  -3  15   60.34    2.38
 -14  -3  15   45.31    2.96
 -15  -3  15   33.67    1.91
 -17  -3  15   82.99    3.87
 -18  -3  15   15.39    1.52
 -19  -3  15   38.41    1.91
 -20  -3  15   10.51    0.69
 -21  -3  15   34.98    2.24
 -22  -3  15    2.93    0.72
 -23  -3  15    6.94    1.26
 -24  -3  15    0.33    0.72
 -25  -3  15   -1.23    1.19
 -26  -3  15    8.38    0.83
 -27  -3  15    7.15    2.96
 -28  -3  15    6.29    1.08
 -29  -3  15   -3.65    2.38
 -30  -3  15    2.38    2.17
  23  -3  16    4.26    0.98
  22  -3  16   18.25    1.59
  21  -3  16   12.18    1.19
  20  -3  16   41.01    1.88
  19  -3  16   -0.04    0.94
  18  -3  16   14.42    1.48
  17  -3  16    5.42    0.94
  16  -3  16   90.15    3.90
  15  -3  16    1.70    1.52
  14  -3  16    6.68    0.94
  13  -3  16   21.46    1.26
  12  -3  16  203.68   11.20
  11  -3  16   13.77    2.24
  10  -3  16   21.17    1.48
   9  -3  16   71.22    4.19
   7  -3  16   -0.36    1.05
   6  -3  16   89.10    4.44
   5  -3  16    2.57    0.58
 -14  -3  16   -0.65    1.16
 -15  -3  16   25.51    1.48
 -18  -3  16    1.19    1.37
 -19  -3  16   31.07    2.31
 -20  -3  16   -0.18    0.61
 -21  -3  16    8.53    0.90
 -22  -3  16    0.43    2.60
 -23  -3  16    1.45    0.72
 -24  -3  16   25.55    2.78
 -25  -3  16   -1.48    0.76
 -26  -3  16   11.24    2.71
 -27  -3  16   -0.79    0.72
 -28  -3  16    0.29    1.37
  22  -3  17    5.60    1.05
  21  -3  17   36.60    1.99
  20  -3  17    9.72    1.16
  19  -3  17    2.28    1.26
  18  -3  17   70.57    2.67
  17  -3  17    4.91    0.76
  16  -3  17   18.17    1.12
  15  -3  17   28.47    1.45
  14  -3  17  155.98    5.49
  13  -3  17    1.95    0.79
  12  -3  17    5.93    1.16
  11  -3  17    6.50    0.79
  10  -3  17  403.99   19.55
   9  -3  17   27.24    2.60
   8  -3  17  484.38   15.46
   7  -3  17    7.62    0.61
   6  -3  17  314.60   13.91
 -14  -3  17   -0.04    0.47
 -18  -3  17   11.35    1.16
 -19  -3  17   29.77    1.73
 -20  -3  17    0.11    0.65
 -21  -3  17    4.99    0.76
 -22  -3  17   -4.84    2.46
 -23  -3  17   22.62    1.08
 -24  -3  17    1.63    0.61
 -25  -3  17    4.48    1.26
 -26  -3  17   -0.61    0.90
 -27  -3  17    2.02    1.05
 -28  -3  17   -2.10    2.38
 -29  -3  17   -6.97    3.22
  20  -3  18   24.64    2.35
  19  -3  18   32.59    2.06
  18  -3  18   -0.90    2.35
  17  -3  18   11.20    1.41
  16  -3  18    5.82    1.34
  15  -3  18   11.74    2.20
  14  -3  18    7.48    1.12
  13  -3  18   -0.79    0.69
  12  -3  18   80.03    4.23
  11  -3  18  122.56    4.84
  10  -3  18    2.64    1.41
   7  -3  18    2.82    1.12
 -16  -3  18    3.54    0.79
 -21  -3  18    9.21    2.46
 -23  -3  18    0.36    0.98
 -24  -3  18    5.82    0.79
 -25  -3  18    2.93    1.41
 -26  -3  18   -0.51    0.83
 -27  -3  18    3.76    1.37
 -30  -3  18   -1.16    2.64
  19  -3  19   11.85    1.59
  18  -3  19   22.84    2.02
  17  -3  19   16.19    1.81
  16  -3  19    7.48    1.48
  15  -3  19   22.37    1.48
  13  -3  19    0.33    0.98
   9  -3  19    1.05    1.19
 -15  -3  19   42.64    2.38
 -17  -3  19    0.07    0.72
 -21  -3  19    1.37    1.23
 -22  -3  19   11.89    0.98
 -23  -3  19    2.02    1.08
 -25  -3  19    4.73    2.78
 -26  -3  19    1.70    1.16
  16  -3  20    9.97    1.99
  15  -3  20    6.68    1.81
  14  -3  20    0.65    1.16
  12  -3  20   18.97    2.78
  11  -3  20   17.56    1.84
  10  -3  20    8.02    1.55
 -16  -3  20    1.59    1.01
 -18  -3  20    1.63    1.37
 -20  -3  20   -0.90    1.19
 -23  -3  20   -0.58    1.05
 -24  -3  20    1.16    1.05
  12  -3  21   -0.25    1.73
  11  -3  21   13.19    1.41
   9  -3  21    1.88    0.83
 -20  -3  21   -0.25    1.05
 -21  -3  21   -0.58    1.63
 -23  -3  21    3.47    1.84
  13  -4 -25    1.37    1.19
  12  -4 -25   -1.45    1.45
  11  -4 -25    1.95    1.55
  10  -4 -25    2.71    1.37
   9  -4 -25    1.48    0.98
   8  -4 -25    3.14    1.26
   7  -4 -25    8.06    1.63
   6  -4 -25    1.23    1.23
   4  -4 -25   -0.29    0.98
   3  -4 -25   13.87    1.37
   1  -4 -25    2.17    2.10
   0  -4 -25   -0.04    1.01
  -1  -4 -25   13.91    1.81
  -2  -4 -25   -2.60    1.91
  18  -4 -24    0.94    1.59
  16  -4 -24    4.05    1.84
  14  -4 -24    4.12    1.30
  13  -4 -24    0.29    0.72
  12  -4 -24   -0.58    0.90
  11  -4 -24   12.00    1.45
  10  -4 -24    2.42    0.87
   9  -4 -24    0.54    0.94
   8  -4 -24    5.35    0.83
   7  -4 -24   10.95    1.08
   6  -4 -24   10.66    2.06
   5  -4 -24    4.55    0.98
   4  -4 -24   28.18    1.88
   3  -4 -24    2.10    1.05
   2  -4 -24    3.14    1.08
   1  -4 -24    1.19    1.48
   0  -4 -24    5.89    1.19
  -1  -4 -24    1.88    1.12
  -2  -4 -24    0.83    0.90
  -3  -4 -24    4.62    1.26
  -4  -4 -24   34.51    1.99
  -5  -4 -24   -0.18    1.12
  -6  -4 -24   -1.45    1.12
  20  -4 -23   -0.90    0.94
  19  -4 -23   -0.94    1.41
  18  -4 -23    4.37    1.16
  17  -4 -23    0.83    1.63
  16  -4 -23    1.45    1.66
  15  -4 -23    2.71    1.05
  14  -4 -23    1.73    0.76
  13  -4 -23    5.13    1.34
  12  -4 -23    0.29    0.65
  11  -4 -23   12.10    1.23
  10  -4 -23    6.32    0.94
   9  -4 -23    2.60    0.76
   8  -4 -23   -1.05    1.45
   7  -4 -23    2.06    0.58
   6  -4 -23    1.45    0.61
   5  -4 -23   21.14    1.34
   4  -4 -23    0.25    1.08
   3  -4 -23   27.39    1.77
   2  -4 -23    0.00    0.83
   1  -4 -23    0.69    1.19
   0  -4 -23    0.76    0.72
  -1  -4 -23   14.24    1.41
  -2  -4 -23    4.66    1.08
  -3  -4 -23    1.77    1.23
  -4  -4 -23    1.55    0.94
  -5  -4 -23   16.30    2.75
  -6  -4 -23   18.14    1.37
  -7  -4 -23    0.76    0.98
  -8  -4 -23    0.04    1.05
  -9  -4 -23    6.61    0.90
  22  -4 -22    1.70    1.66
  21  -4 -22    1.23    2.28
  20  -4 -22   -1.01    1.23
  19  -4 -22    1.48    1.05
  18  -4 -22    3.00    1.01
  17  -4 -22    3.94    3.14
  16  -4 -22    2.78    0.90
  15  -4 -22   19.55    1.12
  14  -4 -22    3.79    1.30
  13  -4 -22    2.57    0.72
  12  -4 -22    5.60    0.83
  11  -4 -22   15.25    1.16
  10  -4 -22   40.47    1.63
   9  -4 -22    0.11    0.72
   8  -4 -22    4.91    0.72
   7  -4 -22    6.14    1.01
   6  -4 -22   10.84    0.98
   5  -4 -22   60.70    3.07
   4  -4 -22   11.45    1.16
   3  -4 -22    1.16    0.69
   2  -4 -22   12.72    1.08
   1  -4 -22    8.35    1.30
   0  -4 -22   15.90    1.30
  -1  -4 -22    5.17    0.94
  -2  -4 -22    9.03    1.19
  -3  -4 -22    1.37    0.90
  -4  -4 -22  133.36    4.01
  -5  -4 -22    5.09    1.01
  -6  -4 -22    0.61    1.08
  -7  -4 -22   -0.25    1.19
  -8  -4 -22  138.67    4.16
  -9  -4 -22   31.40    1.52
 -10  -4 -22   53.94    1.95
 -11  -4 -22   17.02    1.41
 -12  -4 -22    5.85    1.19
  23  -4 -21    1.45    0.94
  22  -4 -21    4.91    1.34
  21  -4 -21    1.81    0.94
  20  -4 -21   -0.14    0.94
  19  -4 -21    0.69    0.87
  18  -4 -21    1.77    1.05
  17  -4 -21    0.36    0.69
  16  -4 -21    3.14    0.83
  15  -4 -21    3.69    1.45
  14  -4 -21   20.05    1.26
  13  -4 -21    0.65    1.01
  12  -4 -21   -1.52    1.08
  11  -4 -21    1.45    0.76
  10  -4 -21   14.53    0.83
   9  -4 -21    3.00    0.69
   8  -4 -21    0.40    0.76
   7  -4 -21    9.57    0.83
   6  -4 -21    1.55    1.05
   5  -4 -21    7.44    0.94
   4  -4 -21    8.78    1.08
   3  -4 -21   23.34    1.45
   2  -4 -21    4.19    0.90
   1  -4 -21    0.11    0.79
   0  -4 -21    6.14    1.16
  -1  -4 -21    1.66    0.79
  -2  -4 -21    1.99    1.12
  -3  -4 -21    2.28    0.87
  -4  -4 -21    0.79    0.79
  -5  -4 -21    2.20    1.01
  -6  -4 -21   20.38    1.26
  -7  -4 -21   26.70    1.55
  -8  -4 -21    2.10    0.98
  -9  -4 -21    8.13    1.16
 -10  -4 -21   55.90    2.35
 -11  -4 -21   34.04    1.66
 -12  -4 -21   10.59    1.23
 -13  -4 -21   15.21    1.26
 -14  -4 -21    4.66    1.19
  26  -4 -20    0.58    1.59
  25  -4 -20    0.98    1.84
  24  -4 -20   -0.58    1.45
  23  -4 -20    5.82    1.26
  22  -4 -20    2.17    1.84
  21  -4 -20    9.47    1.26
  20  -4 -20    0.83    1.45
  19  -4 -20   19.58    1.99
  18  -4 -20    5.60    1.66
  17  -4 -20    5.13    0.98
  16  -4 -20    2.71    0.83
  15  -4 -20   19.37    1.34
  14  -4 -20   29.19    2.57
  13  -4 -20    2.96    0.90
  12  -4 -20   34.11    2.57
  11  -4 -20   59.58    1.70
  10  -4 -20   11.74    1.26
   9  -4 -20    0.83    1.26
   8  -4 -20   22.26    1.84
   7  -4 -20    8.31    0.87
   6  -4 -20   14.34    0.98
   5  -4 -20   49.72    2.49
   4  -4 -20  157.43    4.91
   3  -4 -20  128.63    3.58
   2  -4 -20   14.45    1.12
   1  -4 -20    0.18    0.58
   0  -4 -20    7.37    1.05
  -1  -4 -20    0.40    1.37
  -2  -4 -20   37.79    1.48
  -3  -4 -20   -0.14    0.79
  -4  -4 -20  258.09    7.05
  -5  -4 -20   -1.30    0.72
  -6  -4 -20   38.08    2.35
  -7  -4 -20   13.80    1.37
  -8  -4 -20  155.08    4.44
  -9  -4 -20   12.47    1.16
 -10  -4 -20  100.63    4.30
 -11  -4 -20   51.09    2.85
 -12  -4 -20    2.10    0.72
 -13  -4 -20    9.76    1.37
 -14  -4 -20   29.84    2.17
 -15  -4 -20   43.54    2.75
 -16  -4 -20    7.30    2.28
  26  -4 -19    3.97    1.77
  25  -4 -19    2.10    2.31
  24  -4 -19    5.13    2.10
  23  -4 -19    5.09    1.05
  22  -4 -19    2.13    0.98
  21  -4 -19   26.95    2.20
  20  -4 -19    4.66    1.01
  19  -4 -19    4.12    1.05
  18  -4 -19    4.84    0.98
  17  -4 -19    6.18    1.08
  16  -4 -19   10.66    0.94
  15  -4 -19   -1.01    1.08
  14  -4 -19    8.64    1.16
  13  -4 -19   55.46    2.49
  12  -4 -19   47.91    2.31
  11  -4 -19   -1.84    1.01
  10  -4 -19    1.84    0.98
   9  -4 -19   57.34    2.20
   8  -4 -19  126.28    3.25
   7  -4 -19    2.49    0.83
   6  -4 -19   28.83    1.70
   5  -4 -19   82.67    2.75
   4  -4 -19   93.76    3.97
   3  -4 -19    6.40    0.90
   2  -4 -19   16.11    1.37
   1  -4 -19  397.05   10.37
   0  -4 -19   74.87    2.75
  -1  -4 -19  259.43    8.42
  -2  -4 -19   11.38    0.94
  -3  -4 -19   70.78    2.42
  -4  -4 -19   45.74    2.17
  -5  -4 -19   46.75    2.10
  -6  -4 -19   17.20    1.73
  -7  -4 -19   77.36    3.40
  -8  -4 -19    0.22    0.61
  -9  -4 -19    3.22    1.05
 -11  -4 -19  238.87    7.05
 -12  -4 -19   14.42    2.38
 -13  -4 -19   18.79    1.30
 -14  -4 -19   34.36    2.85
 -15  -4 -19   76.38    2.96
 -16  -4 -19   18.54    1.59
 -17  -4 -19   18.10    1.55
 -18  -4 -19   17.67    1.66
  28  -4 -18    0.22    1.19
  27  -4 -18    5.13    1.26
  26  -4 -18    0.40    1.08
  25  -4 -18    0.14    1.01
  24  -4 -18   10.88    2.06
  22  -4 -18   17.45    1.88
  21  -4 -18   12.83    2.35
  20  -4 -18    5.64    1.16
  19  -4 -18   57.63    4.23
  18  -4 -18    4.88    0.98
  17  -4 -18    0.94    0.83
  16  -4 -18    0.29    1.01
  15  -4 -18   26.20    1.30
  14  -4 -18   11.06    1.23
  13  -4 -18  115.41    3.54
  12  -4 -18    7.80    2.17
  11  -4 -18   90.73    2.46
  10  -4 -18    1.16    0.72
   9  -4 -18    0.22    0.69
   8  -4 -18   35.55    1.84
   7  -4 -18    0.11    0.72
   6  -4 -18   13.44    1.05
   4  -4 -18   80.79    4.23
   3  -4 -18   10.59    0.98
   2  -4 -18   77.39    2.89
   1  -4 -18  122.34    5.02
   0  -4 -18   63.92    2.10
  -1  -4 -18   83.28    3.14
  -2  -4 -18   10.91    1.37
  -3  -4 -18  178.31    8.17
  -4  -4 -18  221.42   10.30
  -5  -4 -18   25.36    1.30
  -6  -4 -18  355.61    9.25
  -7  -4 -18    7.77    0.90
  -8  -4 -18   74.07    3.25
  -9  -4 -18    0.04    1.08
 -10  -4 -18  237.35    6.50
 -11  -4 -18   12.86    1.19
 -12  -4 -18    3.00    0.83
 -13  -4 -18   25.51    1.88
 -14  -4 -18  105.83    3.14
 -15  -4 -18   13.04    1.23
 -16  -4 -18   23.59    2.17
 -17  -4 -18   37.58    2.82
 -19  -4 -18    1.55    1.26
 -20  -4 -18    0.33    1.12
  30  -4 -17    0.22    1.73
  29  -4 -17   -2.60    2.02
  28  -4 -17    1.63    1.08
  27  -4 -17    0.61    1.19
  25  -4 -17    2.31    1.19
  24  -4 -17   34.33    1.84
  23  -4 -17   17.05    2.17
  22  -4 -17    0.18    1.12
  21  -4 -17   -1.41    1.52
  20  -4 -17    9.07    1.12
  19  -4 -17    2.06    1.16
  18  -4 -17    9.32    1.05
  17  -4 -17   26.59    1.91
  16  -4 -17   52.64    3.69
  15  -4 -17   28.29    1.26
  14  -4 -17    3.58    0.79
  13  -4 -17   26.27    3.18
  12  -4 -17  109.12    2.78
  11  -4 -17   12.00    1.01
  10  -4 -17    2.49    0.94
   9  -4 -17  133.87    6.83
   8  -4 -17   62.18    2.53
   7  -4 -17   37.97    1.99
   6  -4 -17   11.31    0.79
   5  -4 -17   50.11    1.84
   4  -4 -17  222.50    7.59
   3  -4 -17   12.79    1.19
   2  -4 -17   30.82    1.48
   1  -4 -17  122.74    5.28
   0  -4 -17  134.84    6.54
  -1  -4 -17    3.69    1.12
  -3  -4 -17  221.56    8.60
  -4  -4 -17  314.67    9.65
  -5  -4 -17  441.75   10.73
  -6  -4 -17    1.34    1.41
  -7  -4 -17  467.94   14.60
  -8  -4 -17   56.19    2.24
  -9  -4 -17  147.49    5.49
 -10  -4 -17   -0.43    1.34
 -11  -4 -17  205.84    6.03
 -12  -4 -17  145.90    4.81
 -13  -4 -17   41.66    1.37
 -14  -4 -17    2.57    0.72
 -15  -4 -17    3.36    1.26
 -16  -4 -17    8.89    0.90
 -17  -4 -17  104.67    8.49
 -18  -4 -17    4.66    0.83
 -19  -4 -17   20.99    1.45
 -20  -4 -17   41.30    4.05
 -21  -4 -17   38.63    2.42
  30  -4 -16   -0.54    1.26
  29  -4 -16    0.83    1.12
  28  -4 -16    3.58    0.94
  27  -4 -16    8.67    2.64
  26  -4 -16    4.01    1.48
  25  -4 -16    1.37    0.87
  24  -4 -16    3.40    1.05
  23  -4 -16   -1.16    1.08
  22  -4 -16    0.72    0.72
  21  -4 -16   23.41    1.55
  20  -4 -16   -0.33    1.12
  19  -4 -16    6.00    0.83
  18  -4 -16   60.38    3.43
  16  -4 -16    4.55    1.30
  15  -4 -16   10.26    1.84
  14  -4 -16   20.09    1.19
  13  -4 -16  145.03    4.37
  12  -4 -16   52.28    3.32
  11  -4 -16    0.61    2.02
  10  -4 -16   10.44    1.84
   9  -4 -16  217.91    7.01
   7  -4 -16    2.75    1.30
   6  -4 -16   10.91    0.83
   5  -4 -16   97.48    4.12
   4  -4 -16   45.09    3.83
   3  -4 -16  181.56    5.20
   2  -4 -16   17.60    1.12
   1  -4 -16  249.67    9.11
   0  -4 -16  517.99   13.01
  -1  -4 -16  824.53   32.59
  -3  -4 -16    0.98    1.05
  -4  -4 -16    3.04    0.76
  -5  -4 -16  102.40    4.77
  -6  -4 -16  747.03   16.15
  -7  -4 -16    3.79    0.79
  -8  -4 -16    2.31    0.69
  -9  -4 -16    6.72    0.90
 -10  -4 -16  436.98   11.53
 -11  -4 -16   70.10    4.99
 -12  -4 -16    0.98    0.61
 -13  -4 -16    0.29    0.87
 -14  -4 -16  246.78   11.82
 -15  -4 -16   16.11    2.24
 -16  -4 -16    0.87    1.34
 -17  -4 -16    6.58    2.10
 -18  -4 -16  234.10    8.64
 -19  -4 -16    4.62    0.79
 -20  -4 -16   70.60    3.72
 -21  -4 -16   26.34    2.82
 -22  -4 -16    7.12    0.90
 -23  -4 -16    2.75    1.41
  29  -4 -15    1.73    1.01
  28  -4 -15    3.04    0.94
  27  -4 -15    5.89    1.05
  26  -4 -15    2.31    1.30
  25  -4 -15    0.69    0.76
  24  -4 -15    5.24    0.94
  23  -4 -15   14.06    1.12
  22  -4 -15   15.39    1.30
  21  -4 -15    0.04    0.87
  20  -4 -15   37.07    2.13
  19  -4 -15    0.98    0.83
  18  -4 -15    2.42    1.84
  17  -4 -15    1.77    1.05
  16  -4 -15   13.40    1.26
  15  -4 -15    2.46    2.10
  14  -4 -15  129.64    4.66
  13  -4 -15   51.81    1.59
  12  -4 -15   67.75    4.16
  11  -4 -15   40.36    1.55
  10  -4 -15    2.96    0.79
   9  -4 -15    3.50    0.69
   8  -4 -15   15.43    0.94
   6  -4 -15   40.90    2.02
   5  -4 -15   12.10    0.90
   4  -4 -15    5.31    0.87
   3  -4 -15    3.40    1.01
   2  -4 -15   93.44    6.32
   1  -4 -15    1.59    0.83
   0  -4 -15    0.76    0.79
  -1  -4 -15  265.53    7.48
  -2  -4 -15  779.29   30.64
  -3  -4 -15    2.49    1.01
  -4  -4 -15   69.88    2.64
  -6  -4 -15    3.32    1.16
  -7  -4 -15   19.33    1.59
  -8  -4 -15   -0.76    0.76
  -9  -4 -15 1062.93   44.04
 -10  -4 -15   77.83    2.64
 -11  -4 -15    3.65    0.83
 -12  -4 -15   15.97    2.31
 -13  -4 -15   30.50    1.59
 -14  -4 -15    8.02    1.01
 -15  -4 -15   29.30    1.23
 -16  -4 -15    7.12    0.90
 -17  -4 -15  188.03    6.36
 -18  -4 -15   38.59    3.25
 -19  -4 -15   27.42    1.91
 -20  -4 -15    1.73    0.79
 -21  -4 -15   23.02    1.45
 -22  -4 -15    1.30    0.90
 -23  -4 -15    6.79    1.23
 -24  -4 -15    8.13    1.99
  32  -4 -14    6.21    1.88
  30  -4 -14    0.61    0.65
  29  -4 -14    1.48    0.58
  28  -4 -14   13.37    1.48
  27  -4 -14    2.24    2.67
  26  -4 -14    0.07    0.76
  25  -4 -14    7.84    0.87
  24  -4 -14   14.06    1.73
  23  -4 -14   26.27    2.02
  22  -4 -14   12.25    1.55
  21  -4 -14   22.73    1.70
  20  -4 -14    6.61    0.98
  19  -4 -14    1.48    0.83
  18  -4 -14   31.76    2.35
  17  -4 -14  135.31    4.44
  16  -4 -14  150.71    3.76
  15  -4 -14   38.34    2.17
  14  -4 -14   54.23    1.99
  13  -4 -14   29.30    1.55
  12  -4 -14    1.16    0.79
  11  -4 -14   10.91    0.83
  10  -4 -14   57.52    2.17
   9  -4 -14  190.70    6.76
   8  -4 -14    0.00    0.83
   7  -4 -14   10.51    1.19
   6  -4 -14   75.37    3.43
   5  -4 -14  140.55    4.30
   4  -4 -14   50.98    2.02
   3  -4 -14 1267.07   34.43
   2  -4 -14   26.95    1.91
   1  -4 -14  240.13    6.90
   0  -4 -14   81.59    5.56
  -1  -4 -14  541.15   11.74
  -2  -4 -14  723.22   22.65
  -3  -4 -14  231.42    6.54
  -4  -4 -14   19.91    1.01
  -5  -4 -14   10.37    0.83
  -6  -4 -14  428.71    9.72
  -7  -4 -14  137.30    5.13
  -9  -4 -14   57.77    2.49
 -10  -4 -14  114.68    7.15
 -11  -4 -14   11.09    0.87
 -13  -4 -14   44.19    2.10
 -14  -4 -14  302.39    8.53
 -15  -4 -14   29.70    1.63
 -16  -4 -14  156.42    6.25
 -17  -4 -14    5.74    1.05
 -18  -4 -14   84.22    3.54
 -19  -4 -14  113.78    7.44
 -20  -4 -14  249.85    8.82
 -21  -4 -14  100.37    3.94
 -22  -4 -14    2.71    0.72
 -23  -4 -14   11.45    2.24
 -24  -4 -14   80.72    4.52
 -25  -4 -14   33.17    1.73
  33  -4 -13    0.51    0.69
  30  -4 -13    0.40    0.90
  29  -4 -13    7.91    3.40
  28  -4 -13    0.43    0.83
  27  -4 -13    2.53    0.90
  26  -4 -13    0.36    0.94
  25  -4 -13    2.67    0.76
  24  -4 -13    3.04    0.90
  23  -4 -13    5.49    1.99
  22  -4 -13   17.31    1.48
  20  -4 -13   43.29    2.17
  19  -4 -13   56.33    2.42
  18  -4 -13    8.67    0.87
  17  -4 -13    3.25    1.05
  16  -4 -13   15.28    1.26
  15  -4 -13    8.89    1.01
  14  -4 -13  133.80    3.29
  13  -4 -13   16.91    1.08
  12  -4 -13    8.02    0.98
  11  -4 -13    7.01    1.08
  10  -4 -13  376.53   12.10
   8  -4 -13   50.62    2.20
   7  -4 -13    4.37    1.45
   6  -4 -13   54.78    2.13
   5  -4 -13   11.35    2.02
   4  -4 -13   12.18    1.23
   3  -4 -13   37.11    1.77
   2  -4 -13  278.36    9.21
   0  -4 -13   11.60    0.94
  -1  -4 -13   30.53    1.95
  -2  -4 -13  576.05   24.21
  -3  -4 -13    2.67    0.65
  -4  -4 -13  226.76    7.01
  -5  -4 -13  374.25   17.67
  -6  -4 -13    3.61    1.59
  -8  -4 -13  155.29   10.15
  -9  -4 -13  355.54    8.96
 -10  -4 -13    1.01    0.83
 -11  -4 -13   22.00    1.34
 -12  -4 -13  151.43    5.89
 -13  -4 -13   53.48    2.31
 -14  -4 -13  115.37    5.35
 -15  -4 -13  161.08    6.72
 -16  -4 -13    2.24    0.69
 -17  -4 -13   75.66    3.40
 -18  -4 -13   12.32    1.19
 -19  -4 -13   87.48    4.73
 -20  -4 -13   31.58    2.06
 -21  -4 -13    0.07    0.98
 -22  -4 -13    5.35    1.01
 -23  -4 -13    3.00    1.30
 -24  -4 -13    9.03    1.41
 -25  -4 -13   12.50    1.19
 -26  -4 -13    4.05    0.83
  34  -4 -12    0.76    1.05
  33  -4 -12    1.55    0.79
  32  -4 -12    3.50    0.94
  31  -4 -12    0.14    1.19
  30  -4 -12    3.18    0.90
  29  -4 -12   -0.25    1.05
  28  -4 -12   35.59    1.84
  27  -4 -12    0.25    0.72
  26  -4 -12    7.37    1.12
  25  -4 -12   16.44    1.34
  24  -4 -12    9.18    1.01
  23  -4 -12   32.30    1.37
  22  -4 -12   60.38    2.24
  21  -4 -12   59.62    2.24
  20  -4 -12    6.07    0.83
  19  -4 -12    9.47    1.45
  18  -4 -12  103.30    2.82
  17  -4 -12  356.73    9.21
  16  -4 -12    6.32    0.87
  15  -4 -12   11.74    0.79
  14  -4 -12   41.23    1.52
  13  -4 -12   81.44    3.25
  12  -4 -12   -0.54    0.90
  11  -4 -12   23.81    1.19
  10  -4 -12   70.24    2.49
   9  -4 -12  285.44   13.80
   8  -4 -12   61.60    2.10
   7  -4 -12  114.07    3.65
   6  -4 -12  139.79    5.20
   5  -4 -12  357.24   15.18
   4  -4 -12   72.30    3.18
   3  -4 -12  559.32   17.16
   2  -4 -12  393.84   11.09
   1  -4 -12  138.31    5.42
   0  -4 -12   57.85    2.35
  -1  -4 -12  442.36    9.79
  -2  -4 -12  681.01   29.19
  -3  -4 -12   33.10    3.00
  -4  -4 -12  178.20    6.40
  -5  -4 -12   34.61    1.88
  -6  -4 -12    6.07    0.90
  -7  -4 -12  141.10    8.96
  -8  -4 -12 1246.37   24.28
  -9  -4 -12   12.54    1.08
 -10  -4 -12  381.70   10.73
 -11  -4 -12   70.60    4.48
 -12  -4 -12   60.20    2.64
 -13  -4 -12  204.51    6.72
 -14  -4 -12   43.29    2.53
 -15  -4 -12   70.78    5.78
 -16  -4 -12   57.38    2.75
 -17  -4 -12    0.33    0.94
 -18  -4 -12   55.79    2.89
 -19  -4 -12   24.64    1.52
 -20  -4 -12  391.89   10.41
 -21  -4 -12  136.72    4.84
 -22  -4 -12   60.56    3.00
 -23  -4 -12   23.09    1.52
 -24  -4 -12   42.17    1.63
 -25  -4 -12   24.28    1.45
 -26  -4 -12   50.84    2.53
 -27  -4 -12    2.46    1.55
  33  -4 -11    1.88    1.48
  32  -4 -11   -0.11    0.76
  31  -4 -11    1.95    1.19
  30  -4 -11    1.05    1.23
  29  -4 -11    1.70    1.26
  28  -4 -11    7.30    1.59
  27  -4 -11    0.43    0.87
  26  -4 -11   -0.04    0.79
  25  -4 -11   17.70    0.90
  24  -4 -11    0.11    0.65
  23  -4 -11    4.34    0.98
  22  -4 -11   16.69    1.16
  21  -4 -11   16.84    2.17
  20  -4 -11   -1.23    1.26
  19  -4 -11    4.44    0.87
  18  -4 -11  200.46    5.24
  16  -4 -11   25.08    1.26
  15  -4 -11    8.06    1.08
  14  -4 -11  205.59    6.00
  13  -4 -11   30.03    1.30
  12  -4 -11    0.94    0.76
  11  -4 -11    6.07    0.69
  10  -4 -11  896.22   20.27
   9  -4 -11  111.32    3.61
   8  -4 -11  214.84    5.71
   7  -4 -11 1128.00   23.67
   6  -4 -11  204.11    9.07
   5  -4 -11  139.79    5.31
   4  -4 -11   73.49    3.36
   3  -4 -11    9.83    0.98
   2  -4 -11 1373.66   30.93
   1  -4 -11    5.09    0.72
   0  -4 -11   50.77    2.13
  -1  -4 -11  180.88    5.67
  -2  -4 -11  349.00    8.96
  -3  -4 -11    3.83    0.72
  -4  -4 -11   13.87    0.98
  -5  -4 -11  689.22   18.10
  -6  -4 -11  287.47   17.60
  -7  -4 -11   37.25    1.88
  -8  -4 -11   55.82    3.50
  -9  -4 -11  431.96   14.16
 -10  -4 -11  128.70    4.12
 -11  -4 -11 1020.80   23.49
 -12  -4 -11   76.82    3.76
 -13  -4 -11  904.71   37.11
 -14  -4 -11   32.88    1.70
 -15  -4 -11   12.68    1.12
 -16  -4 -11   27.42    1.26
 -17  -4 -11    0.18    0.83
 -18  -4 -11   23.23    1.30
 -19  -4 -11   18.32    1.59
 -20  -4 -11   64.10    2.93
 -21  -4 -11    0.87    1.16
 -22  -4 -11    1.48    0.94
 -23  -4 -11    8.31    1.19
 -24  -4 -11   15.61    1.26
 -25  -4 -11    1.99    0.79
 -26  -4 -11   20.63    1.34
 -27  -4 -11    2.60    1.01
 -28  -4 -11    2.64    0.87
  34  -4 -10    0.58    1.63
  33  -4 -10    6.29    0.90
  32  -4 -10    1.91    0.65
  31  -4 -10    0.79    0.79
  30  -4 -10    1.16    1.08
  29  -4 -10    1.45    0.90
  27  -4 -10    5.28    0.76
  26  -4 -10   67.42    2.46
  25  -4 -10   29.77    2.13
  24  -4 -10    2.10    0.87
  23  -4 -10    8.49    0.76
  22  -4 -10   45.71    1.63
  21  -4 -10   84.08    2.38
  20  -4 -10  121.95    5.67
  19  -4 -10    9.79    0.98
  18  -4 -10   68.18    2.13
  17  -4 -10   76.64    2.60
  16  -4 -10   -0.90    0.69
  15  -4 -10  136.83    4.70
  14  -4 -10   58.57    2.28
  13  -4 -10  311.96    7.12
  12  -4 -10    7.23    1.23
  11  -4 -10  200.82    4.77
  10  -4 -10   31.69    1.30
   9  -4 -10  387.73    9.36
   8  -4 -10   78.55    7.84
   7  -4 -10 2172.68   47.95
   6  -4 -10   25.76    1.81
   5  -4 -10  147.56    5.17
   4  -4 -10 1100.33   23.88
   3  -4 -10 1532.03   40.65
   2  -4 -10   46.43    3.97
   1  -4 -10 1233.65   32.55
   0  -4 -10  254.37    6.72
  -1  -4 -10  887.87   21.90
  -2  -4 -10  554.88   22.22
  -3  -4 -10   68.33    3.18
  -4  -4 -10 1207.89   29.01
  -5  -4 -10    1.08    0.69
  -6  -4 -10  301.74   10.12
  -7  -4 -10   90.00    4.01
  -8  -4 -10  480.23   20.88
  -9  -4 -10  553.47   27.21
 -10  -4 -10   43.97    2.71
 -11  -4 -10  199.09    6.61
 -12  -4 -10  403.45   11.85
 -13  -4 -10  315.72    7.91
 -14  -4 -10  552.57   14.13
 -15  -4 -10  258.31    6.83
 -16  -4 -10  415.08   13.01
 -17  -4 -10  287.90    8.31
 -18  -4 -10  328.51   11.45
 -19  -4 -10    2.13    0.79
 -20  -4 -10  154.54    7.77
 -21  -4 -10   90.58    3.72
 -22  -4 -10   68.43    2.53
 -23  -4 -10  111.83    5.60
 -24  -4 -10   18.39    1.45
 -25  -4 -10    1.12    0.94
 -26  -4 -10   56.19    2.13
 -27  -4 -10   25.11    1.63
 -28  -4 -10    0.94    0.79
 -29  -4 -10    1.34    1.99
  34  -4  -9    0.29    0.65
  33  -4  -9    5.13    0.76
  32  -4  -9   -0.33    1.23
  30  -4  -9    9.21    1.26
  29  -4  -9   48.24    4.26
  28  -4  -9    1.19    0.79
  27  -4  -9   13.66    1.81
  26  -4  -9   25.94    1.84
  25  -4  -9   10.08    1.23
  24  -4  -9    6.54    1.41
  23  -4  -9    4.26    1.16
  22  -4  -9   74.03    3.18
  21  -4  -9    0.29    0.69
  20  -4  -9    5.71    0.83
  19  -4  -9    2.64    0.76
  18  -4  -9  267.45    7.66
  17  -4  -9  263.69   12.61
  16  -4  -9    0.36    0.83
  15  -4  -9  110.85    3.54
  14  -4  -9  336.21   13.26
  13  -4  -9   24.75    1.52
  12  -4  -9   99.83    3.47
  11  -4  -9    2.49    0.72
  10  -4  -9 1068.85   31.11
   9  -4  -9  222.54    6.79
   8  -4  -9  237.10    6.07
   7  -4  -9  587.79   19.15
   6  -4  -9  706.38   18.61
   5  -4  -9  481.57   19.37
   4  -4  -9  234.93    6.03
   3  -4  -9  596.28   18.10
   2  -4  -9 1813.86   38.91
   0  -4  -9  143.44    5.38
  -1  -4  -9  807.76   19.55
  -2  -4  -9   40.25    2.02
  -3  -4  -9  645.68   19.94
  -4  -4  -9  340.51    9.94
  -5  -4  -9  112.33    5.78
  -6  -4  -9   85.09    4.81
  -7  -4  -9    7.41    1.19
  -8  -4  -9   58.39    2.20
  -9  -4  -9 1631.97   37.40
 -10  -4  -9  150.96    5.64
 -11  -4  -9  921.91   31.33
 -12  -4  -9   84.30    4.99
 -13  -4  -9  324.79   10.04
 -14  -4  -9  337.83   11.31
 -15  -4  -9  208.73   12.10
 -16  -4  -9    7.95    0.87
 -17  -4  -9  182.14    5.20
 -18  -4  -9  536.78   17.60
 -19  -4  -9  674.73   28.80
 -20  -4  -9   13.84    1.52
 -21  -4  -9  192.69    5.24
 -22  -4  -9   54.41    2.85
 -23  -4  -9  125.96    4.01
 -24  -4  -9    4.44    0.98
 -25  -4  -9   -2.82    1.63
 -26  -4  -9   21.75    2.02
 -27  -4  -9   15.93    1.77
 -28  -4  -9   17.42    2.42
 -29  -4  -9    1.95    0.72
 -30  -4  -9    6.83    1.63
  34  -4  -8    9.00    1.19
  33  -4  -8   -0.98    1.19
  32  -4  -8   10.23    0.98
  31  -4  -8   -0.07    0.98
  30  -4  -8   33.96    1.55
  29  -4  -8    6.79    1.05
  28  -4  -8   28.91    1.63
  27  -4  -8   -0.79    1.52
  26  -4  -8  132.13    3.36
  25  -4  -8   84.48    3.90
  24  -4  -8    4.52    0.58
  23  -4  -8    0.47    0.79
  22  -4  -8   51.60    2.57
  21  -4  -8  300.65   14.20
  20  -4  -8   91.92    2.71
  19  -4  -8  400.85   10.41
  18  -4  -8   44.51    2.02
  17  -4  -8   33.17    1.81
  16  -4  -8   15.79    0.94
  15  -4  -8  464.80   10.44
  14  -4  -8    2.46    0.87
  13  -4  -8   43.32    1.48
  12  -4  -8   83.14    3.58
  11  -4  -8  311.31   10.19
  10  -4  -8  133.44    4.66
   9  -4  -8   -0.25    0.54
   8  -4  -8    2.31    0.76
   7  -4  -8 2090.70   47.98
   6  -4  -8  958.90   19.98
   4  -4  -8   35.73    1.41
   3  -4  -8 1808.47   47.12
   2  -4  -8  189.55    7.23
   1  -4  -8 1502.69   27.82
   0  -4  -8 1557.14   37.87
  -1  -4  -8 1593.34   34.65
  -2  -4  -8    5.02    0.61
  -3  -4  -8  978.63   29.34
  -4  -4  -8   32.59    1.70
  -5  -4  -8 1073.77   25.98
  -6  -4  -8  426.28   14.67
  -7  -4  -8  325.15    9.00
  -8  -4  -8 1164.31   35.84
  -9  -4  -8 1261.44   36.93
 -10  -4  -8  223.40    5.38
 -11  -4  -8  157.75    7.12
 -12  -4  -8 2096.88   64.42
 -13  -4  -8    1.16    0.83
 -14  -4  -8  579.56   19.91
 -15  -4  -8  202.05    8.24
 -16  -4  -8  252.56    8.38
 -17  -4  -8  163.21    5.64
 -18  -4  -8 1672.08   65.58
 -19  -4  -8  257.98    9.18
 -20  -4  -8   44.48    3.87
 -21  -4  -8  178.35    5.42
 -22  -4  -8  259.46   12.97
 -23  -4  -8  123.28    4.16
 -24  -4  -8    1.45    0.65
 -25  -4  -8   19.04    1.70
 -26  -4  -8   26.12    1.48
 -27  -4  -8   10.04    1.26
 -28  -4  -8    2.60    1.05
 -29  -4  -8   -0.33    0.87
 -30  -4  -8    8.09    0.83
 -31  -4  -8   10.26    0.98
  35  -4  -7    1.45    0.90
  34  -4  -7    0.43    0.79
  33  -4  -7   14.49    1.05
  32  -4  -7    2.17    0.98
  31  -4  -7    1.84    1.08
  30  -4  -7    1.08    0.83
  29  -4  -7   84.73    3.61
  28  -4  -7   40.07    2.78
  27  -4  -7   23.09    1.55
  26  -4  -7   10.88    0.76
  25  -4  -7   51.02    2.71
  24  -4  -7   26.56    1.19
  23  -4  -7    0.90    1.05
  22  -4  -7   94.23    3.04
  21  -4  -7   43.47    1.34
  20  -4  -7   79.31    3.00
  19  -4  -7   11.06    0.79
  18  -4  -7   17.74    1.05
  17  -4  -7   27.60    1.73
  16  -4  -7  231.24    5.64
  15  -4  -7   19.98    1.19
  14  -4  -7   17.45    1.37
  13  -4  -7  701.43   20.96
  12  -4  -7   39.35    1.77
  11  -4  -7  251.59    6.18
  10  -4  -7   44.88    3.43
   9  -4  -7 1523.75   64.89
   8  -4  -7  856.58   36.17
   7  -4  -7  188.68    7.23
   6  -4  -7  226.37    6.29
   4  -4  -7 2383.19   67.82
   3  -4  -7   53.48    2.06
   2  -4  -7  202.27    5.74
   1  -4  -7  157.14    6.29
   0  -4  -7  948.25   22.87
  -1  -4  -7  210.65    5.28
  -3  -4  -7 3988.57  106.88
  -4  -4  -7   71.94    3.43
  -5  -4  -7  541.80   16.58
  -6  -4  -7 1251.57   24.82
  -7  -4  -7 2412.53   62.83
  -8  -4  -7  481.67   12.50
  -9  -4  -7    1.81    0.36
 -10  -4  -7   69.05    4.34
 -11  -4  -7  819.47   23.99
 -12  -4  -7  620.46   15.25
 -13  -4  -7  412.84   13.15
 -14  -4  -7   10.08    1.01
 -15  -4  -7 1162.11   30.17
 -16  -4  -7  233.77   12.21
 -17  -4  -7   17.20    1.08
 -18  -4  -7  107.02    6.47
 -19  -4  -7    4.23    1.05
 -20  -4  -7    2.46    0.69
 -21  -4  -7   42.13    2.20
 -22  -4  -7    0.83    0.72
 -23  -4  -7  472.03   13.44
 -24  -4  -7  111.90    4.84
 -25  -4  -7   29.99    2.67
 -26  -4  -7    3.47    0.83
 -27  -4  -7   92.28    3.65
 -28  -4  -7    3.97    1.23
 -29  -4  -7   11.53    0.87
 -30  -4  -7   17.99    1.91
 -31  -4  -7    5.09    1.08
  34  -4  -6    5.64    0.61
  33  -4  -6    2.02    0.90
  32  -4  -6    2.02    1.05
  31  -4  -6   -0.07    1.63
  30  -4  -6   49.14    2.06
  29  -4  -6    4.30    0.98
  28  -4  -6   10.84    1.34
  27  -4  -6   12.83    1.19
  26  -4  -6  222.21    6.50
  25  -4  -6   33.06    1.37
  23  -4  -6   67.49    2.17
  22  -4  -6   46.79    1.66
  21  -4  -6   60.77    2.89
  20  -4  -6   12.79    0.87
  19  -4  -6  871.54   20.09
  18  -4  -6   34.54    1.77
  17  -4  -6    0.90    0.69
  16  -4  -6  118.69    4.55
  15  -4  -6  814.49   20.88
  14  -4  -6   16.73    1.63
  13  -4  -6  784.86   20.16
  12  -4  -6  743.78   19.37
  10  -4  -6  199.95    6.43
   9  -4  -6 1947.98   51.27
   8  -4  -6  174.12    4.88
   7  -4  -6 1106.21   30.17
   6  -4  -6  525.72   15.97
   5  -4  -6 3342.02  106.81
   4  -4  -6  262.14    7.15
   3  -4  -6   94.88    3.65
   2  -4  -6  369.05   18.68
   1  -4  -6  298.27    8.71
   0  -4  -6 2598.21   68.80
  -1  -4  -6   23.23    1.73
  -2  -4  -6 1200.12   50.80
  -3  -4  -6  569.29   17.42
  -4  -4  -6 1096.75   27.10
  -5  -4  -6 1222.88   36.46
  -6  -4  -6  165.34    6.29
  -7  -4  -6  814.02   28.29
  -8  -4  -6  193.59    6.87
  -9  -4  -6  304.84    9.86
 -10  -4  -6  502.67   13.40
 -11  -4  -6  865.18   34.80
 -12  -4  -6  618.65   17.38
 -13  -4  -6  417.79   20.45
 -14  -4  -6 2131.71   59.47
 -15  -4  -6  142.76    5.49
 -16  -4  -6  795.95   33.89
 -17  -4  -6  225.17    7.99
 -18  -4  -6  898.49   25.36
 -19  -4  -6  336.71    9.97
 -20  -4  -6   58.28    2.75
 -21  -4  -6    1.05    0.83
 -22  -4  -6   50.22    1.99
 -23  -4  -6    1.37    0.90
 -24  -4  -6    1.01    0.94
 -25  -4  -6   36.49    1.84
 -26  -4  -6   72.05    2.49
 -27  -4  -6    1.26    0.76
 -28  -4  -6    3.07    0.83
 -29  -4  -6    1.26    0.98
 -30  -4  -6   23.70    1.63
 -31  -4  -6    8.24    1.37
 -32  -4  -6    1.34    1.19
  35  -4  -5    1.95    1.12
  34  -4  -5    0.69    0.65
  33  -4  -5    2.71    0.76
  32  -4  -5    4.73    0.72
  31  -4  -5   25.76    2.02
  30  -4  -5    1.30    0.72
  29  -4  -5    1.16    0.69
  28  -4  -5   44.41    2.02
  27  -4  -5   62.65    2.35
  26  -4  -5    6.43    0.87
  25  -4  -5    4.34    1.05
  24  -4  -5   14.49    0.87
  23  -4  -5  173.79    5.85
  22  -4  -5    3.69    0.61
  21  -4  -5   12.25    0.98
  20  -4  -5  242.08    5.42
  19  -4  -5  517.59   12.54
  18  -4  -5   34.51    1.41
  17  -4  -5   20.31    1.70
  16  -4  -5  566.62   14.92
  15  -4  -5  308.71   10.33
  14  -4  -5  187.63    5.35
  13  -4  -5    3.04    1.05
  12  -4  -5  122.34    7.99
  11  -4  -5 1826.90   34.11
  10  -4  -5  626.46   14.13
   9  -4  -5    8.17    0.65
   8  -4  -5 1768.30   67.49
   7  -4  -5  999.52   29.84
   6  -4  -5  179.25    5.09
   5  -4  -5  850.15   22.87
   3  -4  -5 4385.29  116.16
   2  -4  -5  940.30   18.36
   1  -4  -5   94.20    4.34
   0  -4  -5  137.01    5.02
  -1  -4  -5   29.81    1.34
  -2  -4  -5  618.54   13.98
  -3  -4  -5  417.72   14.63
  -4  -4  -5 1172.88   30.57
  -5  -4  -5  777.67   20.16
  -6  -4  -5 2330.62   64.89
  -7  -4  -5   21.53    1.91
  -8  -4  -5   62.07    2.42
  -9  -4  -5 1045.01   31.90
 -10  -4  -5  170.36    5.06
 -11  -4  -5  714.11   26.30
 -12  -4  -5  561.20   14.99
 -13  -4  -5  932.64   24.61
 -14  -4  -5  277.20    8.89
 -15  -4  -5   23.70    1.63
 -16  -4  -5  596.94   14.31
 -17  -4  -5 1084.54   33.31
 -18  -4  -5   -0.36    0.72
 -19  -4  -5   47.73    3.29
 -20  -4  -5   50.77    2.20
 -21  -4  -5   23.09    1.70
 -22  -4  -5   55.46    2.49
 -23  -4  -5    4.84    1.23
 -24  -4  -5    5.09    2.06
 -26  -4  -5   11.78    1.12
 -27  -4  -5    3.40    0.51
 -28  -4  -5    3.76    2.24
 -29  -4  -5   56.91    2.71
 -30  -4  -5    8.20    1.12
 -31  -4  -5    1.41    0.87
 -33  -4  -5   12.03    1.19
  35  -4  -4    4.95    0.98
  34  -4  -4   15.39    1.66
  33  -4  -4    3.54    2.02
  32  -4  -4   -3.14    1.23
  31  -4  -4    3.47    0.98
  30  -4  -4   37.79    3.29
  29  -4  -4    0.25    0.69
  28  -4  -4   14.96    1.26
  27  -4  -4   13.40    1.84
  25  -4  -4    7.12    1.08
  24  -4  -4   19.55    1.63
  23  -4  -4   10.70    0.98
  22  -4  -4   59.36    2.75
  21  -4  -4   31.90    1.81
  20  -4  -4   37.87    1.63
  19  -4  -4  180.84    7.08
  18  -4  -4    6.72    1.26
  17  -4  -4   67.75    2.24
  16  -4  -4  250.25    6.83
  15  -4  -4   15.28    0.90
  14  -4  -4    1.81    0.65
  13  -4  -4   92.03    3.36
  12  -4  -4   60.30    2.10
  11  -4  -4 3616.84  140.16
  10  -4  -4   47.69    1.95
   9  -4  -4 2111.37   39.38
   8  -4  -4   26.48    1.63
   7  -4  -4  414.90   20.96
   6  -4  -4  230.09    5.78
   5  -4  -4 5522.29  214.19
   4  -4  -4   50.19    3.00
   3  -4  -4  199.88    5.38
   2  -4  -4  125.20    3.36
   1  -4  -4 2441.43   45.82
   0  -4  -4   97.09    3.58
  -1  -4  -4    1.08    0.43
  -2  -4  -4 2068.19   44.51
  -3  -4  -4  973.43   39.89
  -4  -4  -4  159.96    6.54
  -5  -4  -4   38.12    3.36
  -6  -4  -4 1286.37   28.44
  -7  -4  -4  853.87   25.22
  -8  -4  -4 2310.17   51.42
  -9  -4  -4  120.68    6.79
 -10  -4  -4 2068.55   45.67
 -11  -4  -4  235.83    9.25
 -12  -4  -4  953.88   25.76
 -13  -4  -4  560.19   16.77
 -14  -4  -4 2393.70   67.31
 -15  -4  -4   27.50    1.30
 -16  -4  -4  319.01   12.43
 -17  -4  -4  602.79   29.27
 -18  -4  -4  276.30    7.55
 -19  -4  -4    0.18    0.98
 -20  -4  -4  185.10    7.01
 -21  -4  -4   57.16    2.89
 -22  -4  -4   96.40    5.02
 -23  -4  -4   35.52    1.77
 -24  -4  -4    0.65    0.61
 -25  -4  -4   16.40    2.89
 -26  -4  -4   12.32    1.08
 -27  -4  -4   30.46    1.52
 -28  -4  -4   17.81    1.34
 -29  -4  -4   -0.72    0.61
 -30  -4  -4   49.86    2.42
 -31  -4  -4    0.04    1.37
 -32  -4  -4   21.75    1.19
 -33  -4  -4    4.88    1.08
  35  -4  -3    0.94    0.72
  34  -4  -3    1.23    0.87
  33  -4  -3   -1.05    0.61
  32  -4  -3   -0.43    0.94
  31  -4  -3   24.10    1.66
  30  -4  -3   27.24    1.26
  29  -4  -3    7.62    1.08
  28  -4  -3    5.20    1.05
  27  -4  -3   49.57    2.60
  26  -4  -3   -0.07    0.90
  25  -4  -3   24.24    2.02
  24  -4  -3   10.44    1.01
  23  -4  -3   28.04    1.52
  22  -4  -3    1.63    0.83
  21  -4  -3  182.79    7.15
  20  -4  -3   59.62    2.64
  19  -4  -3  127.00    3.36
  18  -4  -3   17.23    1.26
  17  -4  -3   80.86    2.57
  16  -4  -3  209.67    9.03
  15  -4  -3  217.23    7.52
  14  -4  -3    5.09    0.54
  13  -4  -3  129.53    5.60
  12  -4  -3  707.32   17.27
  11  -4  -3 1542.54   31.11
   9  -4  -3   59.33    1.95
   8  -4  -3   81.77    3.87
   5  -4  -3 4504.13  128.45
   4  -4  -3 3294.72   88.45
   3  -4  -3 1343.02   30.53
   2  -4  -3 1155.35   32.45
   1  -4  -3   85.99    2.85
  -1  -4  -3  438.17   11.20
  -2  -4  -3  472.10   13.30
  -3  -4  -3 1987.29   41.62
  -4  -4  -3  976.97   21.90
  -5  -4  -3  822.29   34.14
  -6  -4  -3  200.46    8.67
  -7  -4  -3    1.84    0.65
  -8  -4  -3  480.23   16.48
  -9  -4  -3  175.17    4.55
 -10  -4  -3 1537.02   60.23
 -11  -4  -3   44.59    1.63
 -12  -4  -3   27.89    2.67
 -13  -4  -3 1279.47   30.75
 -14  -4  -3  240.93    7.01
 -15  -4  -3  444.96   16.30
 -16  -4  -3    1.45    0.54
 -17  -4  -3  671.91   19.84
 -18  -4  -3   75.70    2.93
 -19  -4  -3   44.08    2.93
 -21  -4  -3  128.23    5.09
 -22  -4  -3  105.90    3.87
 -23  -4  -3   58.50    3.43
 -24  -4  -3    8.35    1.12
 -25  -4  -3  171.34    7.48
 -26  -4  -3    1.63    1.23
 -27  -4  -3   57.49    2.57
 -28  -4  -3    6.58    1.12
 -29  -4  -3    5.67    0.83
 -30  -4  -3    6.90    0.76
 -31  -4  -3    5.38    2.20
 -32  -4  -3   -0.25    0.98
 -33  -4  -3    5.24    1.84
  35  -4  -2    0.18    0.76
  34  -4  -2    7.59    1.12
  33  -4  -2   20.23    1.52
  32  -4  -2   14.78    1.16
  31  -4  -2   42.42    2.17
  30  -4  -2   41.41    1.77
  29  -4  -2    8.24    1.23
  28  -4  -2   73.13    2.67
  27  -4  -2   28.62    1.77
  26  -4  -2   26.67    1.34
  25  -4  -2   12.86    0.87
  24  -4  -2   33.17    1.52
  23  -4  -2   74.29    2.53
  22  -4  -2  112.62    3.14
  21  -4  -2   12.25    1.91
  20  -4  -2  157.72    5.46
  19  -4  -2    2.78    0.72
  18  -4  -2    0.25    0.65
  17  -4  -2   26.16    1.30
  16  -4  -2  237.78    8.78
  15  -4  -2    1.23    0.54
  14  -4  -2  268.06   13.26
  13  -4  -2   10.91    0.94
  12  -4  -2 2127.16   77.03
  11  -4  -2  462.34   11.06
  10  -4  -2  650.81   17.67
   9  -4  -2  362.55   12.75
   8  -4  -2   16.22    0.87
   7  -4  -2 2271.50   51.13
   6  -4  -2  854.70   24.53
   5  -4  -2   55.35    2.60
   4  -4  -2  744.82   18.46
   2  -4  -2 1415.40   41.19
   0  -4  -2 2125.50   55.57
  -1  -4  -2  300.83    7.01
  -2  -4  -2    2.46    0.33
  -3  -4  -2 1506.56   32.34
  -4  -4  -2  358.65   11.06
  -5  -4  -2 2381.56   62.91
  -6  -4  -2  561.63   15.14
  -7  -4  -2 1103.18   32.99
  -8  -4  -2  359.04   20.41
  -9  -4  -2  342.02    8.27
 -10  -4  -2  301.52    8.92
 -11  -4  -2   52.25    2.13
 -12  -4  -2   81.73    5.13
 -13  -4  -2 1116.84   39.78
 -14  -4  -2 2483.78   50.26
 -15  -4  -2    2.02    0.65
 -16  -4  -2   98.82    3.83
 -17  -4  -2   10.12    0.83
 -18  -4  -2  121.04    4.52
 -19  -4  -2   17.56    2.57
 -20  -4  -2  213.07    7.26
 -21  -4  -2   90.69    5.93
 -22  -4  -2   83.39    2.93
 -23  -4  -2    0.83    0.65
 -24  -4  -2  169.03    5.53
 -25  -4  -2  134.27    5.13
 -26  -4  -2    2.35    0.76
 -27  -4  -2   12.36    1.26
 -28  -4  -2   66.66    2.78
 -29  -4  -2    0.11    0.76
 -30  -4  -2    8.82    0.94
 -31  -4  -2    7.37    1.30
 -32  -4  -2   20.52    1.26
 -33  -4  -2    1.95    0.98
 -34  -4  -2   -0.04    1.19
  35  -4  -1    5.09    1.63
  34  -4  -1    0.79    0.65
  33  -4  -1    2.28    2.02
  32  -4  -1    2.75    1.12
  31  -4  -1    7.05    1.41
  30  -4  -1    8.82    0.69
  29  -4  -1   14.60    1.19
  28  -4  -1    0.54    0.69
  27  -4  -1   33.89    1.37
  26  -4  -1    5.13    0.65
  25  -4  -1   18.25    1.37
  24  -4  -1    9.36    0.83
  23  -4  -1   33.60    1.59
  22  -4  -1   11.42    0.87
  21  -4  -1    0.72    0.94
  20  -4  -1   77.36    2.53
  19  -4  -1   20.85    1.88
  18  -4  -1   15.86    1.05
  17  -4  -1   17.31    0.94
  16  -4  -1   38.91    2.17
  15  -4  -1  318.61   10.08
  14  -4  -1   78.48    2.67
  12  -4  -1   58.68    1.99
  11  -4  -1   86.43    3.11
  10  -4  -1  241.29    7.37
   9  -4  -1   72.44    2.67
   8  -4  -1  205.55    6.76
   7  -4  -1   68.18    3.11
   6  -4  -1 1299.12   33.02
   5  -4  -1   56.73    4.05
   4  -4  -1 1034.31   45.16
   0  -4  -1 2491.95   52.64
  -1  -4  -1 1599.99   30.17
  -2  -4  -1 1441.70   26.99
  -3  -4  -1  443.74   13.51
  -4  -4  -1   16.33    0.76
  -5  -4  -1   37.43    1.19
  -6  -4  -1  399.55    9.90
  -7  -4  -1  644.63   33.64
  -8  -4  -1   68.25    2.20
  -9  -4  -1  597.91   17.23
 -10  -4  -1  165.52    6.68
 -11  -4  -1   53.26    2.82
 -12  -4  -1  344.16    9.79
 -13  -4  -1   20.45    1.34
 -14  -4  -1   62.44    3.11
 -15  -4  -1  198.98    5.96
 -16  -4  -1  148.83    6.29
 -17  -4  -1  227.92    9.65
 -18  -4  -1   87.15    2.89
 -19  -4  -1   96.58    3.47
 -20  -4  -1    1.41    1.08
 -21  -4  -1   68.29    3.79
 -22  -4  -1   -0.33    0.69
 -23  -4  -1    2.89    0.79
 -24  -4  -1    2.96    1.01
 -25  -4  -1   34.83    1.84
 -26  -4  -1    3.79    0.72
 -27  -4  -1   16.08    1.45
 -28  -4  -1    2.28    0.79
 -29  -4  -1   38.55    1.73
 -30  -4  -1   16.04    1.81
 -31  -4  -1    7.99    1.23
 -32  -4  -1    3.14    1.55
 -33  -4  -1    1.73    0.79
 -34  -4  -1   -3.00    2.10
  35  -4   0   -0.33    1.01
  34  -4   0    4.23    0.76
  33  -4   0    9.47    1.01
  32  -4   0   12.43    0.90
  31  -4   0    4.55    0.83
  30  -4   0   12.50    1.01
  29  -4   0    5.24    1.19
  28  -4   0  156.45    5.38
  27  -4   0   72.30    2.46
  26  -4   0   30.06    1.77
  25  -4   0   31.94    1.88
  24  -4   0   74.50    3.07
  23  -4   0    1.26    1.91
  22  -4   0  444.46   11.31
  21  -4   0    9.90    1.08
  20  -4   0   53.87    2.31
  19  -4   0   60.41    2.38
  18  -4   0   10.01    0.79
  17  -4   0    2.53    0.72
  16  -4   0  163.24    4.01
  15  -4   0  189.73    6.36
  14  -4   0   59.15    2.38
  13  -4   0  641.74   18.39
  12  -4   0 1282.83   29.66
  11  -4   0   19.84    1.37
  10  -4   0  486.34   11.82
   9  -4   0 3637.15   71.54
   8  -4   0  825.58   21.35
   7  -4   0  417.43   11.13
   6  -4   0   54.88    4.73
   5  -4   0  163.64    8.56
   4  -4   0 1232.78   25.94
   3  -4   0 1259.34   26.99
   2  -4   0  177.84    4.77
   1  -4   0  107.49    3.36
   0  -4   0  393.95   11.82
  -1  -4   0   98.03    3.69
  -2  -4   0  181.64    5.85
  -3  -4   0 1280.19   31.94
  -4  -4   0 1144.37   30.06
  -5  -4   0  156.63    5.38
  -6  -4   0   81.55    6.03
  -7  -4   0  405.36   10.01
  -8  -4   0  619.84   28.04
  -9  -4   0 3470.83   74.97
 -10  -4   0  395.54   19.26
 -11  -4   0   15.90    1.26
 -12  -4   0 1236.36   30.50
 -13  -4   0  556.54   19.37
 -14  -4   0   48.63    2.57
 -15  -4   0  188.17    5.60
 -16  -4   0  159.12    6.11
 -17  -4   0    0.43    0.65
 -18  -4   0   10.88    1.41
 -19  -4   0   52.68    1.91
 -20  -4   0   63.38    5.02
 -21  -4   0    8.74    1.08
 -22  -4   0  402.87   10.01
 -23  -4   0    0.87    0.94
 -24  -4   0   72.26    2.17
 -25  -4   0   30.89    1.63
 -26  -4   0   28.87    2.42
 -27  -4   0   65.76    2.93
 -28  -4   0  163.42    6.21
 -29  -4   0    4.12    1.77
 -30  -4   0   12.03    0.83
 -31  -4   0    5.78    1.19
 -32  -4   0   11.78    0.98
 -33  -4   0    4.77    1.37
 -34  -4   0    2.93    0.94
  34  -4   1   -1.41    1.30
  33  -4   1    5.53    1.91
  32  -4   1    1.55    0.87
  31  -4   1    9.36    1.12
  30  -4   1   12.97    1.34
  29  -4   1   44.88    3.07
  28  -4   1    2.06    0.87
  27  -4   1   18.54    1.52
  26  -4   1    1.77    0.83
  25  -4   1   38.44    2.06
  24  -4   1    0.11    1.08
  23  -4   1    5.49    0.76
  22  -4   1    0.94    0.69
  21  -4   1   82.45    2.89
  20  -4   1    1.26    0.72
  18  -4   1  101.17    3.97
  17  -4   1  259.21    8.64
  16  -4   1  188.03    6.21
  15  -4   1  234.97    8.31
  14  -4   1   75.66    3.72
  13  -4   1   32.45    2.02
  12  -4   1  351.31   10.62
  11  -4   1   47.44    2.31
  10  -4   1  185.00    8.09
   9  -4   1  697.02   18.97
   8  -4   1   77.72    3.83
   7  -4   1  780.96   16.91
   6  -4   1  463.86   24.97
   5  -4   1   48.96    2.31
   4  -4   1   16.30    0.94
   3  -4   1  410.86   19.87
   2  -4   1 1443.72   31.04
   1  -4   1 1771.84   71.94
   0  -4   1 2536.82   66.09
  -1  -4   1  272.36    7.08
  -2  -4   1   54.23    2.42
  -3  -4   1  419.42   16.01
  -5  -4   1   69.55    3.50
  -6  -4   1 1351.77   26.74
  -7  -4   1   54.49    3.83
  -8  -4   1  178.35    5.09
  -9  -4   1   84.77    3.65
 -10  -4   1  253.28   10.15
 -11  -4   1   92.03    3.25
 -12  -4   1   58.28    3.18
 -13  -4   1   45.27    2.06
 -14  -4   1   82.27    3.29
 -15  -4   1  286.06    9.39
 -16  -4   1   34.22    1.99
 -17  -4   1   17.34    1.26
 -18  -4   1   15.14    1.52
 -19  -4   1   17.16    1.37
 -20  -4   1   64.17    3.69
 -21  -4   1   -0.69    1.05
 -22  -4   1    7.66    1.81
 -23  -4   1   34.90    2.13
 -24  -4   1    6.90    0.72
 -25  -4   1   15.93    1.16
 -26  -4   1    4.84    0.65
 -27  -4   1   34.36    2.67
 -28  -4   1    1.05    0.69
 -29  -4   1   12.57    1.12
 -30  -4   1    8.27    0.65
 -31  -4   1    3.65    1.23
 -32  -4   1   -1.30    0.79
 -33  -4   1    5.09    0.79
 -34  -4   1    1.30    0.98
 -35  -4   1    6.76    0.83
  33  -4   2    1.16    1.45
  32  -4   2   25.62    1.23
  31  -4   2    4.30    0.61
  30  -4   2    6.94    0.94
  29  -4   2   -0.54    1.63
  28  -4   2   81.95    3.79
  27  -4   2   15.10    2.17
  26  -4   2    2.35    0.61
  25  -4   2  148.72    4.62
  24  -4   2  211.88    8.92
  23  -4   2   -0.29    0.79
  22  -4   2  110.35    3.83
  21  -4   2   75.84    3.61
  20  -4   2  229.44    9.83
  19  -4   2   20.85    1.08
  18  -4   2  152.08    4.66
  17  -4   2    9.72    0.87
  16  -4   2  130.40    6.65
  15  -4   2    0.47    0.79
  14  -4   2 2674.27   60.41
  13  -4   2 1349.56   40.43
  12  -4   2   83.50    3.40
  11  -4   2   56.29    2.64
  10  -4   2  327.79   12.43
   9  -4   2  374.69   11.49
   8  -4   2  444.42   11.38
   7  -4   2 1123.59   33.42
   6  -4   2  680.04   17.99
   5  -4   2 2520.27   68.18
   4  -4   2  369.20    8.42
   3  -4   2 1543.23   40.36
   2  -4   2    1.23    0.72
   1  -4   2  305.60    9.36
   0  -4   2 2193.97   55.25
  -1  -4   2 1762.59   45.92
  -2  -4   2 1404.16   35.59
  -3  -4   2 1495.93   38.81
  -4  -4   2  803.14   20.67
  -5  -4   2   66.95    2.64
  -6  -4   2  750.39   18.10
  -7  -4   2 2256.58   55.07
  -8  -4   2   13.37    0.90
  -9  -4   2  329.74    8.38
 -10  -4   2  665.04   28.80
 -11  -4   2  450.42   23.49
 -12  -4   2 2137.64   48.34
 -13  -4   2    5.89    1.08
 -14  -4   2  253.72    9.21
 -15  -4   2    0.83    0.47
 -16  -4   2  225.10    7.52
 -17  -4   2   29.74    1.84
 -18  -4   2    0.72    0.51
 -20  -4   2  159.88    6.87
 -21  -4   2   13.66    1.37
 -23  -4   2   64.64    3.04
 -24  -4   2   31.11    1.66
 -26  -4   2   26.27    1.37
 -27  -4   2   30.68    1.91
 -28  -4   2   70.02    2.53
 -29  -4   2    8.78    1.05
 -30  -4   2   39.82    1.77
 -31  -4   2   33.21    1.84
 -32  -4   2   10.66    1.16
 -33  -4   2   13.73    1.19
 -34  -4   2    3.90    0.90
 -35  -4   2    1.08    0.83
  33  -4   3    5.60    1.08
  32  -4   3   -0.61    0.61
  31  -4   3    5.13    0.94
  30  -4   3    7.12    1.12
  29  -4   3    4.30    0.83
  28  -4   3   10.70    1.05
  27  -4   3   65.83    3.32
  26  -4   3    2.78    1.01
  25  -4   3  181.06    6.58
  24  -4   3    6.03    0.94
  23  -4   3   63.92    3.61
  22  -4   3  140.77    8.60
  21  -4   3  157.79    5.31
  20  -4   3   89.25    3.87
  19  -4   3   59.87    2.93
  18  -4   3   83.90    3.47
  17  -4   3  774.74   22.94
  16  -4   3    1.91    0.94
  15  -4   3  493.42   17.63
  14  -4   3  267.95   10.98
  13  -4   3 1462.73   35.37
  12  -4   3   30.24    1.99
  11  -4   3   49.72    2.10
  10  -4   3 1645.81   72.34
   9  -4   3  214.15    9.21
   8  -4   3  555.53   14.74
   7  -4   3    1.55    0.51
   6  -4   3  222.28    6.83
   5  -4   3  863.84   21.53
   4  -4   3 1033.12   26.05
   3  -4   3 2062.77   38.26
   2  -4   3  544.36   13.26
   1  -4   3  448.72   10.66
   0  -4   3 1249.73   26.38
  -1  -4   3   82.38    2.49
  -2  -4   3 1121.86   20.49
  -3  -4   3 1370.99   50.15
  -4  -4   3 3143.91   80.10
  -6  -4   3  739.58   20.78
  -7  -4   3  186.26    4.95
  -8  -4   3   97.63    4.41
  -9  -4   3   59.69    2.24
 -10  -4   3  199.45    9.29
 -11  -4   3 1513.06   47.33
 -12  -4   3  599.07   27.06
 -13  -4   3  104.49    3.47
 -14  -4   3    5.42    0.79
 -15  -4   3  230.05   10.12
 -16  -4   3  207.47    9.25
 -17  -4   3   81.48    2.64
 -18  -4   3   17.02    1.05
 -19  -4   3  123.03    5.46
 -20  -4   3   62.40    2.49
 -21  -4   3  215.74    5.64
 -22  -4   3    1.48    0.69
 -23  -4   3   27.03    1.34
 -24  -4   3   12.68    1.12
 -25  -4   3   18.64    1.16
 -26  -4   3    0.43    0.76
 -27  -4   3   49.03    3.83
 -28  -4   3    2.85    0.72
 -29  -4   3    9.32    1.23
 -30  -4   3   24.21    1.26
 -31  -4   3   22.58    1.34
 -32  -4   3   -0.07    0.79
 -33  -4   3   -0.58    0.72
 -35  -4   3    2.28    0.87
  33  -4   4    6.87    0.83
  32  -4   4   29.16    3.18
  31  -4   4    0.11    0.51
  30  -4   4   40.94    1.91
  29  -4   4    0.79    0.61
  28  -4   4   20.34    1.45
  27  -4   4   33.93    1.91
  26  -4   4   12.68    1.45
  24  -4   4   -0.87    1.52
  23  -4   4   38.84    2.28
  22  -4   4  110.49    3.36
  21  -4   4   71.76    2.42
  20  -4   4  182.03    8.78
  19  -4   4    1.55    1.05
  18  -4   4  266.40   10.30
  17  -4   4  660.31   19.94
  16  -4   4  361.10   10.66
  15  -4   4   33.10    1.77
  14  -4   4 2719.18   79.06
  13  -4   4  613.27   23.38
  12  -4   4 1026.98   35.55
  11  -4   4  279.88    8.49
  10  -4   4 2490.83   70.35
   9  -4   4  146.12    6.76
   8  -4   4 2618.15   74.61
   7  -4   4  813.69   26.05
   6  -4   4 1319.43   41.55
   5  -4   4   39.53    1.88
   4  -4   4  187.56    6.18
   3  -4   4 1097.04   32.01
   2  -4   4 2325.85   49.21
   1  -4   4    1.70    0.58
   0  -4   4  102.11    4.30
  -1  -4   4 2525.69  100.01
  -2  -4   4  129.35    5.06
  -4  -4   4   49.18    2.35
  -6  -4   4  231.21    8.09
  -7  -4   4  375.77   11.78
  -8  -4   4   22.69    1.45
  -9  -4   4 2068.91   39.60
 -10  -4   4   49.28    2.53
 -11  -4   4 4112.50  147.27
 -12  -4   4   57.27    3.87
 -13  -4   4   91.63    2.71
 -14  -4   4    1.84    0.72
 -15  -4   4   15.79    1.26
 -16  -4   4  261.09    9.90
 -17  -4   4   76.09    3.32
 -18  -4   4    5.71    1.05
 -19  -4   4  149.33    5.56
 -20  -4   4   37.11    1.88
 -21  -4   4   34.72    1.37
 -22  -4   4   61.50    3.87
 -23  -4   4   12.00    1.01
 -24  -4   4   19.22    1.52
 -25  -4   4    6.68    0.76
 -26  -4   4    0.90    0.61
 -28  -4   4   12.18    1.34
 -29  -4   4   -1.26    0.79
 -30  -4   4   29.95    1.59
 -31  -4   4    2.82    0.83
 -33  -4   4    3.04    1.05
 -34  -4   4    9.94    0.90
 -35  -4   4    2.93    0.83
  33  -4   5    9.43    1.52
  32  -4   5   14.74    1.52
  31  -4   5    3.07    1.01
  30  -4   5    7.41    1.19
  29  -4   5   63.19    2.42
  28  -4   5    7.99    0.83
  27  -4   5    2.75    0.83
  26  -4   5   15.36    2.57
  25  -4   5   21.93    1.45
  24  -4   5    9.18    0.98
  23  -4   5    2.24    0.94
  22  -4   5   62.04    5.67
  21  -4   5   21.75    2.17
  20  -4   5   56.40    4.88
  19  -4   5   56.33    2.57
  18  -4   5    2.31    0.65
  17  -4   5 1194.67   47.19
  16  -4   5  624.97   34.76
  15  -4   5   21.28    1.55
  13  -4   5 1031.02   22.84
  12  -4   5  630.86   22.22
  11  -4   5  752.23   34.11
  10  -4   5  187.85    6.72
   9  -4   5 1229.14   36.67
   8  -4   5   83.21    5.74
   7  -4   5   26.23    1.34
   6  -4   5 2545.60   59.15
   5  -4   5  797.36   24.68
   4  -4   5 1319.86   37.25
   3  -4   5  446.63   12.75
   2  -4   5  680.98   29.77
   1  -4   5   30.28    2.31
  -1  -4   5   86.64    3.11
  -5  -4   5  864.24   33.02
  -6  -4   5  149.19    4.91
  -7  -4   5  984.34   20.09
  -9  -4   5   10.44    1.01
 -10  -4   5  674.73   15.86
 -11  -4   5 1840.20   42.56
 -13  -4   5    2.20    0.51
 -14  -4   5  194.57    4.99
 -16  -4   5  594.01   22.47
 -17  -4   5   19.66    0.98
 -18  -4   5   32.34    1.55
 -19  -4   5  494.36   12.47
 -20  -4   5  244.54    5.93
 -21  -4   5   15.10    1.16
 -22  -4   5    4.19    0.76
 -23  -4   5  179.18    6.58
 -24  -4   5   16.11    1.16
 -25  -4   5    1.77    1.30
 -26  -4   5    6.58    1.37
 -27  -4   5   58.93    1.99
 -28  -4   5   40.36    1.55
 -29  -4   5    3.04    0.83
 -30  -4   5   -0.04    0.79
 -32  -4   5    3.11    1.12
 -33  -4   5    2.31    0.94
 -34  -4   5    0.36    1.16
 -35  -4   5    1.84    1.01
  32  -4   6    2.82    1.59
  31  -4   6    9.25    1.08
  30  -4   6   20.31    1.84
  29  -4   6   -0.90    1.26
  28  -4   6    1.12    1.37
  27  -4   6    2.75    1.34
  26  -4   6   71.61    3.76
  25  -4   6   37.79    1.73
  24  -4   6   -0.72    1.05
  23  -4   6   -1.45    0.90
  22  -4   6   53.48    2.78
  21  -4   6   -1.48    0.98
  20  -4   6   53.62    2.28
  19  -4   6  381.23   10.84
  18  -4   6  976.03   22.40
  17  -4   6  260.33    8.27
  16  -4   6  868.11   18.93
  15  -4   6  155.80    6.68
  14  -4   6 1970.60   60.09
  13  -4   6  420.94   13.15
  12  -4   6  706.09   34.80
  11  -4   6  968.19   44.12
  10  -4   6  633.03   19.76
   9  -4   6  311.17   12.50
   8  -4   6  211.77    6.61
   7  -4   6  859.51   25.87
   6  -4   6  188.68    5.85
   5  -4   6 1253.92   36.57
   4  -4   6 1129.74   32.16
   3  -4   6  610.02   13.80
   2  -4   6 1192.46   32.52
   1  -4   6   20.16    0.98
   0  -4   6 2795.45   54.16
  -1  -4   6  295.16   13.77
  -3  -4   6  105.83    4.70
  -4  -4   6  235.69    9.18
  -6  -4   6  469.46   14.13
  -7  -4   6 1107.95   42.92
  -9  -4   6 1870.48   49.75
 -10  -4   6  204.15    8.13
 -13  -4   6  773.22   16.19
 -14  -4   6   11.31    1.16
 -15  -4   6  803.43   26.41
 -16  -4   6  126.97    4.66
 -17  -4   6    0.51    0.58
 -18  -4   6   35.84    2.17
 -19  -4   6  879.70   26.70
 -20  -4   6   14.78    0.98
 -21  -4   6   55.90    2.31
 -22  -4   6   46.79    1.88
 -23  -4   6   77.11    4.66
 -24  -4   6   52.21    3.22
 -25  -4   6   33.75    1.63
 -26  -4   6  224.56    6.54
 -27  -4   6    6.90    2.20
 -28  -4   6    9.83    0.94
 -29  -4   6    5.93    1.16
 -30  -4   6   44.41    1.70
 -31  -4   6   -1.77    1.23
 -32  -4   6   -0.22    1.01
 -33  -4   6    1.23    0.69
 -34  -4   6    2.71    0.90
 -35  -4   6    0.61    1.34
  31  -4   7    6.18    2.24
  30  -4   7   20.52    1.41
  29  -4   7    8.89    1.26
  28  -4   7    2.46    1.08
  27  -4   7   84.01    3.22
  26  -4   7    3.32    0.83
  25  -4   7   24.50    1.63
  24  -4   7   98.53    5.60
  23  -4   7  407.39   21.25
  22  -4   7    1.48    0.79
  21  -4   7   36.89    1.95
  20  -4   7    1.73    0.72
  19  -4   7    2.78    0.61
  18  -4   7  126.86    5.93
  17  -4   7   18.10    1.16
  16  -4   7  210.76    8.53
  15  -4   7 1359.79   40.90
  14  -4   7    6.94    1.41
  13  -4   7  440.59   13.91
  12  -4   7  701.68   33.02
  11  -4   7  844.08   31.22
  10  -4   7   79.56    4.16
   9  -4   7    1.41    0.54
   8  -4   7  497.68   17.02
   6  -4   7 1317.95   38.77
   5  -4   7  555.60   25.80
   4  -4   7   74.03    4.59
   2  -4   7  156.20    7.73
  -5  -4   7    2.53    0.51
  -8  -4   7  823.92   22.87
 -10  -4   7   40.32    1.55
 -11  -4   7  241.61    7.05
 -12  -4   7   29.59    2.06
 -14  -4   7    8.92    1.73
 -15  -4   7   19.66    1.41
 -16  -4   7  217.12    8.45
 -17  -4   7   27.10    1.73
 -19  -4   7   13.08    1.59
 -22  -4   7   76.31    3.25
 -23  -4   7    1.19    0.65
 -24  -4   7   21.86    1.26
 -25  -4   7   48.56    2.96
 -27  -4   7   18.90    1.19
 -28  -4   7   27.97    1.48
 -29  -4   7   60.56    2.53
 -30  -4   7    1.26    0.83
 -31  -4   7   -0.61    0.76
 -32  -4   7   -1.19    1.16
 -33  -4   7   11.82    1.88
 -34  -4   7    0.00    1.70
 -35  -4   7    2.96    0.72
  31  -4   8   12.79    2.02
  30  -4   8    5.56    0.94
  29  -4   8    2.31    0.76
  28  -4   8    3.69    0.94
  27  -4   8    8.56    1.30
  26  -4   8   21.93    1.55
  25  -4   8   14.81    1.41
  24  -4   8   -0.72    1.95
  23  -4   8  109.15    3.79
  22  -4   8  262.46    7.70
  21  -4   8  159.16    6.76
  20  -4   8   47.44    2.10
  19  -4   8  275.65    8.35
  18  -4   8 1829.76   51.34
  17  -4   8  155.73    6.54
  16  -4   8  245.52    7.88
  15  -4   8  205.63    5.38
  14  -4   8  603.94   15.90
  13  -4   8    3.00    0.61
  12  -4   8 1975.48   45.78
  11  -4   8  150.78   11.45
  10  -4   8  222.25    7.77
   9  -4   8 1196.91   34.90
   8  -4   8 1296.05   38.95
   7  -4   8  302.82   10.91
   6  -4   8  415.12   14.02
   5  -4   8 1048.95   30.93
   3  -4   8 1013.17   40.50
  -6  -4   8  804.04   29.16
  -7  -4   8 1971.36   69.37
  -9  -4   8    2.38    0.54
 -10  -4   8  113.53    3.94
 -11  -4   8  312.90   14.45
 -12  -4   8   74.11    3.36
 -13  -4   8   34.65    2.17
 -14  -4   8    1.59    0.54
 -15  -4   8  448.90   10.55
 -16  -4   8   17.74    1.63
 -17  -4   8   28.65    2.24
 -18  -4   8   37.58    1.66
 -19  -4   8  373.46   13.59
 -20  -4   8   73.60    5.42
 -21  -4   8  268.71   13.44
 -22  -4   8   44.30    2.17
 -23  -4   8    1.12    0.72
 -24  -4   8    1.41    1.08
 -25  -4   8   70.93    4.66
 -26  -4   8  123.03    4.30
 -28  -4   8   27.21    1.55
 -29  -4   8    8.71    0.94
 -30  -4   8   26.01    1.45
 -31  -4   8    1.91    0.87
 -32  -4   8   11.56    1.16
 -33  -4   8    0.90    0.87
 -34  -4   8    4.55    0.90
 -35  -4   8   -0.43    1.34
  30  -4   9    4.95    0.83
  29  -4   9    0.14    0.79
  28  -4   9   19.01    1.37
  27  -4   9   20.20    2.82
  26  -4   9   20.81    1.34
  25  -4   9    0.18    1.01
  24  -4   9    2.06    1.45
  23  -4   9  103.73    6.97
  22  -4   9   49.97    2.42
  21  -4   9  171.73    6.36
  20  -4   9   12.36    1.16
  19  -4   9  659.05   16.87
  18  -4   9  507.65   13.08
  17  -4   9  152.95    6.29
  16  -4   9    7.59    1.19
  15  -4   9  217.30    6.90
  14  -4   9  293.64   16.91
  13  -4   9  310.41    9.39
  12  -4   9   89.28    3.32
  11  -4   9  894.23   25.04
  10  -4   9  140.63    5.02
   9  -4   9 1460.96   42.24
   8  -4   9   56.94    3.04
   7  -4   9    9.14    0.76
   6  -4   9   80.47    3.14
   5  -4   9  103.45    5.53
   3  -4   9  627.32   28.04
  -8  -4   9  205.41    6.32
 -10  -4   9  845.60   37.50
 -11  -4   9    0.47    1.05
 -12  -4   9   93.11    6.14
 -13  -4   9   21.21    1.48
 -14  -4   9  287.86   13.95
 -15  -4   9   88.92    5.24
 -16  -4   9    1.16    0.47
 -17  -4   9  258.27   12.36
 -18  -4   9  260.66    9.32
 -19  -4   9    0.72    0.79
 -20  -4   9    5.20    0.54
 -21  -4   9    2.28    0.94
 -22  -4   9   63.95    3.18
 -23  -4   9   -0.47    1.08
 -24  -4   9    5.60    0.98
 -25  -4   9   11.24    1.41
 -26  -4   9   22.76    1.84
 -27  -4   9   11.02    1.12
 -28  -4   9    1.23    0.65
 -29  -4   9   40.54    1.84
 -30  -4   9    3.72    1.26
 -31  -4   9   -1.05    1.34
 -32  -4   9   -0.22    0.83
 -34  -4   9    1.12    0.76
  29  -4  10    3.14    1.08
  28  -4  10    2.96    0.94
  27  -4  10   23.12    1.45
  26  -4  10   49.54    3.18
  25  -4  10    0.00    1.23
  24  -4  10   19.15    1.63
  23  -4  10   86.72    3.94
  22  -4  10   63.23    2.75
  21  -4  10   64.39    4.84
  20  -4  10  159.16    6.87
  19  -4  10    2.06    0.79
  18  -4  10  280.89   13.59
  17  -4  10  274.93   11.42
  16  -4  10  360.45   12.57
  15  -4  10  237.89    9.54
  14  -4  10  521.20   14.31
  13  -4  10  261.85    8.06
  12  -4  10  382.09   10.12
  11  -4  10  204.18    6.47
  10  -4  10   41.59    2.24
   9  -4  10  511.70   12.83
   8  -4  10  444.13   24.50
   7  -4  10   84.15    6.68
   4  -4  10  993.41   35.23
  -9  -4  10  365.04   10.51
 -10  -4  10   30.24    2.35
 -11  -4  10  184.81   10.01
 -12  -4  10    5.38    1.30
 -13  -4  10  256.93    8.64
 -14  -4  10   55.86    2.71
 -15  -4  10  108.61    6.00
 -16  -4  10   -1.05    0.58
 -17  -4  10   77.14    4.44
 -18  -4  10   61.21    2.10
 -19  -4  10   10.59    0.83
 -20  -4  10  117.54    4.34
 -21  -4  10   93.22    3.07
 -22  -4  10   41.33    1.48
 -23  -4  10    8.31    0.94
 -24  -4  10    2.93    0.69
 -25  -4  10   22.18    1.48
 -27  -4  10    3.87    0.98
 -28  -4  10   20.60    1.16
 -29  -4  10    0.72    0.76
 -30  -4  10    1.66    0.87
 -31  -4  10    1.52    0.87
 -32  -4  10    3.47    0.87
 -33  -4  10    3.14    1.05
  27  -4  11    7.30    1.41
  26  -4  11   17.85    1.34
  25  -4  11    2.49    2.46
  24  -4  11   10.66    0.98
  23  -4  11    7.05    1.73
  22  -4  11    2.17    0.83
  21  -4  11    2.38    1.41
  20  -4  11   48.53    1.81
  19  -4  11   13.77    1.41
  18  -4  11   20.20    1.26
  17  -4  11    0.22    0.79
  16  -4  11   28.94    1.99
  15  -4  11    7.73    1.05
  14  -4  11   28.00    1.66
  13  -4  11  759.10   19.15
  12  -4  11   49.39    5.06
  11  -4  11  924.62   20.56
  10  -4  11  102.69    4.62
   9  -4  11  355.32   12.50
   8  -4  11   40.40    1.84
   5  -4  11  575.33   25.51
  -9  -4  11  102.61    3.76
 -10  -4  11  882.45   33.71
 -11  -4  11    7.01    0.90
 -12  -4  11   -0.11    0.43
 -13  -4  11   23.27    1.70
 -14  -4  11  149.91    8.45
 -15  -4  11    4.55    1.08
 -16  -4  11   21.03    1.23
 -17  -4  11   23.41    1.66
 -18  -4  11  173.25    4.81
 -19  -4  11    3.79    0.65
 -20  -4  11    2.46    0.69
 -21  -4  11   14.02    1.01
 -22  -4  11   12.21    0.90
 -23  -4  11    2.93    0.69
 -25  -4  11   15.03    1.16
 -26  -4  11    0.43    0.79
 -27  -4  11   -0.18    1.12
 -28  -4  11    8.02    1.08
 -29  -4  11    2.06    1.34
 -30  -4  11    1.70    1.12
 -31  -4  11    0.00    1.08
 -32  -4  11    0.72    0.90
 -33  -4  11    0.72    0.79
 -34  -4  11    0.54    1.01
  27  -4  12    4.59    1.34
  26  -4  12   30.93    2.02
  25  -4  12   26.67    1.99
  24  -4  12   31.18    2.28
  23  -4  12   19.48    1.70
  22  -4  12   42.31    2.35
  21  -4  12   91.81    3.47
  20  -4  12  246.82    8.89
  19  -4  12   17.23    1.05
  18  -4  12   47.30    1.88
  17  -4  12    3.58    1.05
  16  -4  12   57.41    2.10
  15  -4  12   52.39    2.06
  14  -4  12   33.60    1.59
  13  -4  12  157.25    5.96
  12  -4  12   50.19    2.20
  11  -4  12   52.86    2.49
  10  -4  12  321.72   10.55
   9  -4  12    6.65    1.30
   8  -4  12 1008.48   50.19
   4  -4  12  159.85   10.15
 -11  -4  12   19.37    1.23
 -13  -4  12   56.76    4.55
 -14  -4  12   32.74    2.28
 -15  -4  12    9.94    0.76
 -16  -4  12    3.14    0.65
 -17  -4  12  253.43   12.18
 -18  -4  12  101.53    3.00
 -19  -4  12    7.52    0.76
 -20  -4  12    6.21    0.79
 -21  -4  12   53.19    2.42
 -22  -4  12   55.25    2.85
 -23  -4  12   22.91    1.16
 -24  -4  12    6.25    1.05
 -25  -4  12   16.08    1.30
 -26  -4  12    3.76    0.94
 -27  -4  12    1.37    1.19
 -28  -4  12   26.81    1.34
 -30  -4  12    0.94    0.83
 -31  -4  12    1.95    2.17
 -32  -4  12    0.90    0.83
 -33  -4  12    3.43    1.55
  26  -4  13    5.89    0.94
  24  -4  13    8.27    0.94
  23  -4  13    1.84    1.81
  22  -4  13    4.73    0.98
  21  -4  13   -0.83    1.08
  20  -4  13   21.32    1.19
  19  -4  13   60.30    3.14
  18  -4  13   10.62    1.16
  17  -4  13   58.53    2.49
  16  -4  13    2.17    0.65
  15  -4  13  147.17    4.70
  14  -4  13   89.50    2.89
  13  -4  13   48.67    1.70
  12  -4  13  104.89    4.41
  11  -4  13   15.39    1.01
  10  -4  13    1.19    1.41
   9  -4  13  276.05   10.62
   7  -4  13   30.82    2.85
   6  -4  13    0.72    0.51
 -10  -4  13  310.59   12.03
 -12  -4  13    6.87    0.94
 -13  -4  13   14.20    1.19
 -15  -4  13   12.32    1.63
 -16  -4  13   13.22    0.98
 -17  -4  13    2.42    0.61
 -18  -4  13    7.84    2.06
 -19  -4  13   43.76    2.71
 -20  -4  13   40.79    1.52
 -21  -4  13   20.09    1.08
 -22  -4  13   16.37    1.01
 -23  -4  13    1.41    1.01
 -24  -4  13    5.28    1.84
 -25  -4  13    2.93    0.94
 -27  -4  13    1.08    1.26
 -28  -4  13    0.58    0.76
 -30  -4  13   -0.29    0.94
  25  -4  14   31.18    1.81
  24  -4  14   46.72    4.66
  23  -4  14   14.60    1.26
  22  -4  14    0.29    1.52
  21  -4  14   66.01    2.75
  20  -4  14  168.09    6.94
  18  -4  14   69.81    3.43
  17  -4  14    1.81    0.83
  16  -4  14  111.83    3.40
  15  -4  14   27.14    3.14
  14  -4  14  211.66    8.20
  13  -4  14   37.83    2.24
  12  -4  14   98.46    4.55
  11  -4  14    5.96    0.98
   8  -4  14   56.19    5.02
   7  -4  14   89.72    3.58
 -12  -4  14    1.99    0.72
 -13  -4  14   20.88    1.52
 -14  -4  14   41.80    2.78
 -15  -4  14   26.45    1.88
 -16  -4  14  113.82    4.16
 -17  -4  14  105.65    4.37
 -18  -4  14   27.35    1.37
 -19  -4  14    0.94    0.61
 -20  -4  14    4.16    0.79
 -21  -4  14   21.68    2.64
 -22  -4  14    9.43    1.23
 -23  -4  14   13.91    1.23
 -24  -4  14    7.99    0.87
 -25  -4  14    1.95    0.79
 -26  -4  14   -0.22    1.05
 -27  -4  14    0.22    0.69
 -28  -4  14    8.85    1.19
 -30  -4  14    3.22    1.34
 -31  -4  14    1.26    1.37
 -32  -4  14   -1.12    1.99
  24  -4  15    4.66    1.19
  23  -4  15    3.65    1.91
  22  -4  15    0.25    0.87
  21  -4  15   20.20    1.34
  20  -4  15   -0.58    1.05
  19  -4  15   18.36    1.55
  18  -4  15   25.44    2.10
  17  -4  15  120.43    4.08
  16  -4  15    1.77    1.84
  15  -4  15   22.29    1.30
  14  -4  15    5.56    0.87
  13  -4  15   20.60    1.63
  12  -4  15    9.72    1.48
  11  -4  15    0.69    1.34
   8  -4  15    0.22    0.72
   7  -4  15   14.89    1.45
 -14  -4  15   93.40    5.49
 -15  -4  15    1.48    0.79
 -18  -4  15   -3.58    1.63
 -19  -4  15    0.04    0.83
 -20  -4  15   23.59    3.07
 -21  -4  15    2.64    1.99
 -22  -4  15   11.35    2.75
 -23  -4  15   11.35    1.48
 -24  -4  15    9.90    2.85
 -25  -4  15   -0.11    0.87
 -26  -4  15    1.45    0.87
 -27  -4  15    6.68    0.94
 -28  -4  15    3.40    0.72
 -29  -4  15    3.87    0.79
  23  -4  16    1.05    1.26
  22  -4  16    6.11    1.01
  21  -4  16   23.41    1.45
  20  -4  16   52.93    3.11
  19  -4  16    4.88    0.87
  18  -4  16  152.77    4.91
  17  -4  16    4.55    1.19
  16  -4  16    4.88    0.69
  15  -4  16   12.90    1.45
  14  -4  16  150.09    6.68
  13  -4  16    1.45    1.26
  12  -4  16    0.07    0.58
  10  -4  16  252.67   10.70
   9  -4  16    3.94    1.48
   8  -4  16    0.69    0.47
 -13  -4  16   98.28    3.40
 -14  -4  16   11.82    1.26
 -15  -4  16    6.83    1.48
 -16  -4  16    3.97    1.08
 -18  -4  16   51.67    3.14
 -20  -4  16    1.59    1.16
 -21  -4  16   20.52    2.20
 -22  -4  16    0.29    0.79
 -23  -4  16    0.51    0.69
 -24  -4  16    3.58    0.79
 -25  -4  16    1.37    1.12
 -26  -4  16    3.04    1.41
 -27  -4  16    3.25    1.01
 -28  -4  16    1.23    1.01
 -29  -4  16    0.04    1.23
  21  -4  17   23.96    1.45
  20  -4  17   19.04    1.84
  19  -4  17   15.65    2.49
  18  -4  17    4.77    1.08
  17  -4  17   80.18    3.36
  16  -4  17    7.77    1.84
  14  -4  17    1.66    0.94
  13  -4  17   24.79    2.38
  10  -4  17    0.94    0.72
   9  -4  17   94.41    4.52
   7  -4  17  280.31   12.65
 -17  -4  17   19.73    1.55
 -18  -4  17    4.99    1.19
 -20  -4  17    4.66    0.87
 -21  -4  17   -1.16    1.95
 -22  -4  17    1.55    1.05
 -23  -4  17   14.92    2.71
 -24  -4  17   37.07    3.61
 -25  -4  17   -0.14    1.37
 -26  -4  17    0.90    1.34
 -27  -4  17    0.65    0.79
 -28  -4  17    0.58    0.76
  20  -4  18    1.12    1.16
  19  -4  18    2.06    1.70
  18  -4  18   31.87    3.04
  17  -4  18   19.98    1.41
  16  -4  18   11.38    1.63
  15  -4  18    9.54    1.59
  14  -4  18   64.60    3.65
  13  -4  18   19.94    1.59
  12  -4  18    2.96    0.76
  11  -4  18   10.84    1.16
  10  -4  18  131.66    5.78
 -17  -4  18    2.57    1.12
 -19  -4  18   29.66    2.42
 -22  -4  18   11.13    2.20
 -23  -4  18    8.09    1.95
 -24  -4  18    2.96    2.10
 -25  -4  18    0.61    2.06
 -26  -4  18    1.41    1.01
 -27  -4  18    2.71    1.16
  18  -4  19   11.13    1.45
  17  -4  19    6.72    0.90
  16  -4  19    9.68    1.05
  15  -4  19   45.67    4.66
  14  -4  19   20.96    1.63
  13  -4  19   10.91    1.59
  12  -4  19    6.76    1.55
   9  -4  19    1.91    1.16
 -20  -4  19    3.11    1.01
 -21  -4  19   17.52    1.91
 -24  -4  19    5.71    2.02
 -25  -4  19    6.43    1.26
 -26  -4  19    0.72    2.57
 -27  -4  19    8.20    2.82
  16  -4  20    2.42    1.19
  12  -4  20    0.61    1.41
 -21  -4  20    4.48    1.66
 -22  -4  20    0.07    1.30
 -24  -4  20    3.18    1.55
  14  -4  21    2.78    1.23
  13  -4  21    0.07    1.63
  13  -5 -25    0.36    1.34
  12  -5 -25    0.36    2.02
  11  -5 -25    1.23    0.90
  10  -5 -25    0.58    1.05
   9  -5 -25    2.38    0.87
   8  -5 -25    8.71    1.99
   7  -5 -25    4.62    0.83
   6  -5 -25    1.01    0.87
   4  -5 -25    1.08    0.94
   2  -5 -25    0.90    0.79
   1  -5 -25    0.29    0.98
  17  -5 -24    0.00    1.26
  16  -5 -24    1.12    1.08
  15  -5 -24    0.14    1.37
  14  -5 -24    1.81    1.34
  13  -5 -24    9.18    1.52
  12  -5 -24    4.12    0.98
  11  -5 -24   -0.83    1.16
  10  -5 -24    5.35    0.90
   9  -5 -24   -0.33    0.90
   8  -5 -24    4.66    1.77
   7  -5 -24    6.72    1.08
   6  -5 -24    3.43    1.01
   5  -5 -24    3.00    2.10
   4  -5 -24   16.84    1.48
   3  -5 -24   16.37    1.26
   2  -5 -24    0.14    1.12
   1  -5 -24   -0.54    1.34
   0  -5 -24    1.63    1.01
  -1  -5 -24    0.79    1.19
  -2  -5 -24   -0.25    0.83
  -3  -5 -24    2.24    1.41
  -4  -5 -24    1.16    1.55
  20  -5 -23   -2.17    1.52
  19  -5 -23   -1.81    1.16
  18  -5 -23    3.18    2.13
  17  -5 -23    0.11    1.30
  16  -5 -23    1.05    0.90
  15  -5 -23   -0.94    0.90
  14  -5 -23   -0.29    1.95
  13  -5 -23   -0.47    0.79
  12  -5 -23    1.70    0.98
  11  -5 -23    1.37    0.79
  10  -5 -23    1.48    1.01
   9  -5 -23    1.73    1.05
   8  -5 -23   17.92    1.16
   7  -5 -23   -0.65    1.59
   6  -5 -23    4.73    0.83
   5  -5 -23    3.25    1.63
   4  -5 -23   -1.19    0.87
   3  -5 -23   -1.01    0.98
   2  -5 -23    0.43    0.90
   1  -5 -23    2.35    0.94
   0  -5 -23    2.06    0.98
  -1  -5 -23    8.49    1.66
  -2  -5 -23    4.59    1.16
  -3  -5 -23    4.19    1.66
  -4  -5 -23    8.96    1.05
  -5  -5 -23   -1.66    1.59
  -6  -5 -23    2.24    1.30
  -7  -5 -23    1.37    1.41
  -8  -5 -23    2.28    1.16
  20  -5 -22   -0.69    1.26
  19  -5 -22    0.69    2.28
  18  -5 -22    9.76    1.19
  17  -5 -22    2.96    0.98
  16  -5 -22    2.31    1.12
  15  -5 -22    7.41    1.63
  14  -5 -22   24.89    1.77
  13  -5 -22    3.40    0.98
  12  -5 -22    3.11    0.72
  11  -5 -22   21.93    1.66
  10  -5 -22    6.32    0.83
   9  -5 -22    4.88    1.16
   8  -5 -22    1.30    1.01
   7  -5 -22   25.04    1.45
   6  -5 -22    7.19    0.79
   5  -5 -22    0.94    0.87
   4  -5 -22    0.11    0.76
   3  -5 -22   40.97    1.77
   2  -5 -22   42.92    2.20
   1  -5 -22   14.34    1.12
   0  -5 -22   17.85    1.77
  -1  -5 -22   21.75    1.70
  -2  -5 -22   -1.55    0.79
  -3  -5 -22   25.69    1.77
  -4  -5 -22    9.36    1.01
  -5  -5 -22   74.76    2.49
  -6  -5 -22    7.77    0.98
  -7  -5 -22   60.59    2.85
  -8  -5 -22   20.34    2.02
  -9  -5 -22   21.53    2.17
 -10  -5 -22    0.18    1.41
 -11  -5 -22   32.48    2.20
  22  -5 -21   -0.22    0.90
  21  -5 -21    4.91    1.23
  20  -5 -21    7.44    0.98
  19  -5 -21   -0.40    1.01
  18  -5 -21    0.79    0.83
  17  -5 -21    0.36    0.90
  16  -5 -21    5.74    1.01
  15  -5 -21    0.58    0.98
  14  -5 -21    3.72    0.79
  13  -5 -21    1.99    0.90
  12  -5 -21    2.35    1.26
  11  -5 -21    0.51    0.79
  10  -5 -21    0.22    1.26
   9  -5 -21    0.43    0.76
   8  -5 -21    9.94    0.98
   7  -5 -21    1.95    0.90
   6  -5 -21    4.55    0.90
   5  -5 -21   29.63    1.52
   4  -5 -21   17.70    1.91
   3  -5 -21   15.03    1.16
   2  -5 -21   -1.05    1.08
   1  -5 -21   18.72    1.41
   0  -5 -21   87.76    3.87
  -1  -5 -21    1.91    1.05
  -2  -5 -21   12.32    1.08
  -3  -5 -21    2.06    0.65
  -4  -5 -21   70.64    5.82
  -5  -5 -21   -1.05    0.98
  -6  -5 -21    1.73    1.26
  -7  -5 -21    1.48    0.90
  -8  -5 -21   21.25    1.70
 -10  -5 -21    0.65    1.05
 -11  -5 -21   18.21    2.57
 -12  -5 -21    7.77    1.55
 -13  -5 -21    0.98    1.26
  25  -5 -20    1.23    1.73
  24  -5 -20    0.18    1.05
  23  -5 -20    0.18    1.01
  22  -5 -20   11.06    1.45
  21  -5 -20    1.45    1.12
  20  -5 -20    1.95    0.98
  19  -5 -20    0.61    1.05
  18  -5 -20   39.02    1.84
  17  -5 -20    2.67    0.76
  16  -5 -20   17.02    1.08
  15  -5 -20   39.75    1.91
  14  -5 -20   16.55    1.16
  13  -5 -20   -0.76    0.69
  11  -5 -20   34.58    1.34
  10  -5 -20   26.23    2.89
   9  -5 -20   38.08    1.55
   8  -5 -20   21.82    1.73
   7  -5 -20    4.62    1.99
   6  -5 -20   15.65    1.08
   5  -5 -20   52.90    2.35
   4  -5 -20   21.61    1.30
   2  -5 -20   60.81    2.93
   1  -5 -20   48.13    2.35
   0  -5 -20   66.23    2.75
  -1  -5 -20   51.42    2.06
  -2  -5 -20    2.67    0.83
  -3  -5 -20  110.20    3.54
  -4  -5 -20    4.81    1.16
  -5  -5 -20   65.83    3.79
  -6  -5 -20   16.87    1.48
  -7  -5 -20  375.95   12.10
  -8  -5 -20    0.69    1.30
  -9  -5 -20    2.35    0.90
 -10  -5 -20   47.26    3.11
 -11  -5 -20  130.40    3.94
 -12  -5 -20    0.11    0.94
 -13  -5 -20    2.78    0.98
 -14  -5 -20    0.14    1.01
 -15  -5 -20   46.39    2.35
  28  -5 -19    0.54    1.59
  26  -5 -19    1.30    0.87
  25  -5 -19    1.30    1.12
  24  -5 -19   -3.32    1.99
  23  -5 -19    2.85    1.59
  22  -5 -19   -1.08    1.08
  21  -5 -19    1.05    0.90
  20  -5 -19    1.01    0.83
  19  -5 -19   15.21    1.70
  18  -5 -19    0.14    1.08
  17  -5 -19    0.14    1.73
  16  -5 -19    1.30    0.87
  15  -5 -19    4.05    0.94
  14  -5 -19   -0.69    1.12
  13  -5 -19    0.54    0.65
  12  -5 -19    3.76    0.94
  11  -5 -19   12.43    1.05
  10  -5 -19    3.58    0.98
   9  -5 -19    1.01    0.65
   8  -5 -19    8.27    1.16
   7  -5 -19    3.72    1.55
   6  -5 -19   12.07    0.90
   5  -5 -19   14.16    0.90
   4  -5 -19   70.96    3.94
   3  -5 -19   34.54    2.31
   2  -5 -19   21.72    1.34
   1  -5 -19    5.28    0.87
   0  -5 -19   32.63    1.55
  -2  -5 -19   26.23    1.63
  -3  -5 -19    4.84    0.98
  -4  -5 -19   94.52    5.24
  -5  -5 -19    2.46    0.79
  -6  -5 -19   93.80    3.94
  -7  -5 -19   -0.43    1.05
  -8  -5 -19   47.48    2.35
  -9  -5 -19    3.54    1.01
 -10  -5 -19   14.34    1.70
 -11  -5 -19   -0.90    1.91
 -12  -5 -19   19.11    2.96
 -13  -5 -19   13.59    1.41
 -14  -5 -19   44.26    4.19
 -15  -5 -19   -0.25    1.23
 -16  -5 -19    8.20    1.34
 -17  -5 -19    0.18    1.52
  28  -5 -18   -1.12    1.55
  27  -5 -18   -0.69    1.19
  26  -5 -18    3.50    1.05
  25  -5 -18   -0.94    0.94
  24  -5 -18   12.47    1.52
  23  -5 -18   15.93    1.48
  22  -5 -18   13.37    1.48
  20  -5 -18   12.90    1.30
  18  -5 -18   21.72    1.37
  17  -5 -18    0.61    0.90
  16  -5 -18   64.50    3.14
  15  -5 -18    4.77    1.19
  14  -5 -18    0.51    0.76
  13  -5 -18    9.25    0.94
  12  -5 -18   70.42    4.59
  11  -5 -18    0.22    0.87
  10  -5 -18    0.33    0.65
   9  -5 -18  117.32    3.22
   8  -5 -18   22.80    1.52
   7  -5 -18   26.56    2.31
   6  -5 -18    1.45    1.01
   5  -5 -18  137.59    3.61
   4  -5 -18  337.54    7.77
   3  -5 -18   69.19    1.99
   2  -5 -18    4.59    1.23
   1  -5 -18  295.45   10.55
   0  -5 -18   74.29    5.31
  -1  -5 -18   13.69    1.84
  -2  -5 -18  228.10    6.03
  -3  -5 -18  361.97   16.19
  -4  -5 -18    1.99    1.59
  -5  -5 -18   92.50    3.00
  -6  -5 -18   -1.23    1.26
  -7  -5 -18  360.81    7.88
  -8  -5 -18    2.17    1.01
  -9  -5 -18   85.99    4.66
 -10  -5 -18   35.73    1.66
 -11  -5 -18  205.12    6.00
 -12  -5 -18   12.28    1.08
 -13  -5 -18  100.70    3.40
 -14  -5 -18   59.80    2.89
 -15  -5 -18  121.87    5.09
 -16  -5 -18   58.24    2.96
 -17  -5 -18  185.21   10.88
 -19  -5 -18   20.09    1.45
  27  -5 -17    2.82    0.87
  26  -5 -17    2.96    1.01
  25  -5 -17    0.65    0.87
  24  -5 -17    0.43    0.83
  23  -5 -17    0.61    0.87
  22  -5 -17    2.31    1.16
  21  -5 -17   10.48    1.66
  20  -5 -17   -0.22    0.79
  19  -5 -17   32.23    1.66
  18  -5 -17   -0.72    0.76
  17  -5 -17    9.14    1.01
  16  -5 -17   14.74    1.48
  15  -5 -17    5.06    1.08
  14  -5 -17    7.80    1.19
  13  -5 -17   66.37    2.31
  12  -5 -17    0.36    0.90
  11  -5 -17    9.72    1.55
  10  -5 -17    9.32    2.06
   9  -5 -17  134.12    3.36
   8  -5 -17  191.54    6.87
   7  -5 -17    1.88    1.01
   4  -5 -17   -2.42    1.66
   3  -5 -17   22.04    2.06
   2  -5 -17   11.45    1.05
   1  -5 -17    3.79    1.08
   0  -5 -17   69.95    3.76
  -1  -5 -17   93.69    4.52
  -2  -5 -17   34.94    1.59
  -3  -5 -17   90.69    4.05
  -4  -5 -17    0.94    1.23
  -5  -5 -17    9.32    0.65
  -6  -5 -17    1.77    0.83
  -7  -5 -17   32.66    1.81
  -8  -5 -17    0.00    0.87
  -9  -5 -17    7.84    0.98
 -10  -5 -17  132.68    7.41
 -11  -5 -17   -0.54    1.19
 -12  -5 -17    6.18    1.19
 -13  -5 -17    4.77    1.52
 -14  -5 -17  161.55    5.06
 -15  -5 -17   70.31    2.85
 -16  -5 -17   26.59    2.02
 -17  -5 -17    1.08    0.98
 -18  -5 -17   25.91    1.41
 -19  -5 -17    3.11    1.19
 -20  -5 -17   15.86    1.19
  30  -5 -16    0.79    1.30
  29  -5 -16    0.33    1.16
  27  -5 -16    4.05    0.83
  26  -5 -16    1.19    1.95
  25  -5 -16    2.67    0.87
  24  -5 -16    7.52    0.98
  23  -5 -16   16.55    1.12
  22  -5 -16    3.11    1.01
  21  -5 -16   13.98    1.08
  20  -5 -16   29.01    1.41
  19  -5 -16    1.77    1.12
  18  -5 -16    1.30    0.61
  17  -5 -16    4.01    0.90
  16  -5 -16   67.42    2.31
  14  -5 -16   51.67    1.77
  13  -5 -16    1.66    0.87
  12  -5 -16  104.89    4.37
  11  -5 -16   83.39    2.35
  10  -5 -16  176.79    6.79
   9  -5 -16    0.47    0.79
   8  -5 -16    2.75    0.87
   7  -5 -16   30.28    2.67
   6  -5 -16   20.88    1.91
   5  -5 -16   17.02    1.45
   4  -5 -16  163.14    6.07
   3  -5 -16    1.48    0.83
   2  -5 -16  313.55    8.78
   1  -5 -16  357.42   11.74
   0  -5 -16    7.62    0.72
  -1  -5 -16    4.01    0.72
  -2  -5 -16  215.49    6.14
  -3  -5 -16  364.86    8.31
  -4  -5 -16    8.35    1.30
  -5  -5 -16  342.42   18.82
  -6  -5 -16  130.80    3.47
  -7  -5 -16  197.32    6.00
  -8  -5 -16   34.36    1.81
  -9  -5 -16  510.54   16.69
 -10  -5 -16    0.33    0.83
 -11  -5 -16   40.36    1.95
 -13  -5 -16  173.43    6.68
 -14  -5 -16   15.72    0.98
 -15  -5 -16   37.79    2.02
 -16  -5 -16    1.05    0.65
 -17  -5 -16  246.31    9.36
 -18  -5 -16   19.48    1.19
 -19  -5 -16    3.07    1.59
 -20  -5 -16   20.27    1.34
 -21  -5 -16  100.74    3.29
 -22  -5 -16   23.16    1.95
  30  -5 -15    0.43    1.12
  29  -5 -15    2.24    0.69
  28  -5 -15    1.41    0.90
  27  -5 -15   -0.14    0.69
  26  -5 -15    2.02    1.91
  25  -5 -15   11.56    1.12
  24  -5 -15    1.70    0.90
  23  -5 -15    0.69    0.83
  22  -5 -15    5.13    0.79
  21  -5 -15   30.50    1.41
  20  -5 -15   14.96    1.12
  19  -5 -15    6.87    1.12
  18  -5 -15    1.41    0.79
  17  -5 -15    9.14    1.19
  16  -5 -15   47.77    2.71
  15  -5 -15   -1.59    1.12
  14  -5 -15    6.90    0.79
  13  -5 -15  108.65    3.54
  12  -5 -15   16.15    1.37
  11  -5 -15   55.43    1.99
  10  -5 -15   24.79    2.46
   9  -5 -15  174.73    6.76
   8  -5 -15    8.45    1.01
   7  -5 -15  110.24    3.58
   6  -5 -15    6.61    0.90
   5  -5 -15  218.02    7.05
   4  -5 -15   14.06    1.88
   3  -5 -15    1.84    1.34
   2  -5 -15    6.21    1.30
   1  -5 -15  239.74    7.84
   0  -5 -15  159.41    5.38
  -1  -5 -15  469.06   14.20
  -2  -5 -15   73.17    2.53
  -3  -5 -15  100.09    2.96
  -4  -5 -15  348.13    9.61
  -5  -5 -15   41.91    2.24
  -6  -5 -15  342.75   12.94
  -7  -5 -15   38.73    2.06
  -8  -5 -15  236.27    6.97
  -9  -5 -15    1.34    0.72
 -10  -5 -15    1.73    1.45
 -11  -5 -15   46.36    2.24
 -12  -5 -15   18.50    1.05
 -13  -5 -15    2.78    1.23
 -14  -5 -15   10.59    0.79
 -15  -5 -15   36.71    3.11
 -16  -5 -15   79.96    5.24
 -17  -5 -15    0.51    0.76
 -18  -5 -15   33.96    2.10
 -19  -5 -15    0.07    0.83
 -20  -5 -15   28.33    1.77
 -21  -5 -15    0.87    0.90
 -23  -5 -15    3.54    1.45
  31  -5 -14    2.93    0.72
  30  -5 -14    2.78    1.16
  29  -5 -14    8.17    2.49
  28  -5 -14    4.44    0.87
  27  -5 -14    7.84    2.35
  26  -5 -14    0.58    0.87
  25  -5 -14   22.47    2.85
  24  -5 -14   23.74    1.88
  23  -5 -14    4.81    1.77
  22  -5 -14    6.58    1.55
  21  -5 -14   54.70    2.17
  20  -5 -14   50.44    2.78
  19  -5 -14    8.89    0.83
  18  -5 -14  116.38    6.72
  17  -5 -14    2.89    1.16
  16  -5 -14   27.06    1.26
  15  -5 -14  257.04    7.33
  14  -5 -14   72.26    2.31
  13  -5 -14   26.52    1.41
  12  -5 -14   40.50    1.99
  11  -5 -14  142.72    3.83
  10  -5 -14  304.23   14.24
   9  -5 -14    1.88    0.79
   8  -5 -14  151.93    5.60
   7  -5 -14   42.38    2.17
   6  -5 -14  240.42    8.82
   5  -5 -14    0.61    0.98
   4  -5 -14   95.24    5.20
   3  -5 -14    5.64    0.83
   2  -5 -14  407.89   17.05
   1  -5 -14   22.94    1.59
   0  -5 -14  241.00    5.78
  -1  -5 -14    3.47    0.58
  -2  -5 -14  311.13    9.36
  -3  -5 -14  715.59   34.14
  -4  -5 -14  314.20    9.76
  -5  -5 -14  225.61   12.43
  -6  -5 -14   24.93    1.12
  -7  -5 -14  122.78    3.69
  -8  -5 -14    2.31    0.90
  -9  -5 -14  423.86   12.54
 -10  -5 -14   15.21    1.16
 -11  -5 -14  106.66    4.77
 -12  -5 -14    2.38    0.58
 -13  -5 -14  459.13   15.93
 -14  -5 -14   57.63    2.28
 -15  -5 -14   76.27    2.49
 -16  -5 -14   62.33    2.82
 -17  -5 -14  331.62    9.00
 -18  -5 -14    6.72    0.94
 -19  -5 -14   27.24    2.02
 -20  -5 -14    4.81    1.12
 -21  -5 -14   60.05    2.31
 -22  -5 -14   90.11    6.50
 -23  -5 -14   40.11    2.60
 -24  -5 -14   54.05    3.69
 -25  -5 -14    3.32    1.30
  32  -5 -13    0.87    1.01
  31  -5 -13    1.52    1.41
  30  -5 -13    1.08    0.90
  29  -5 -13    0.25    0.69
  28  -5 -13   -0.83    1.23
  27  -5 -13   -1.45    0.90
  25  -5 -13   10.59    1.05
  24  -5 -13    4.16    0.87
  23  -5 -13   24.97    1.99
  22  -5 -13    1.16    1.08
  21  -5 -13   11.27    1.05
  20  -5 -13   -0.07    0.87
  19  -5 -13   14.20    1.19
  18  -5 -13    2.96    0.87
  17  -5 -13    7.62    0.90
  16  -5 -13   27.46    1.55
  15  -5 -13    4.77    0.76
  14  -5 -13   -0.04    0.72
  13  -5 -13    8.20    0.83
  12  -5 -13   17.45    1.91
  11  -5 -13   -0.14    0.72
  10  -5 -13  134.52    6.36
   9  -5 -13  116.13    6.50
   8  -5 -13    0.43    0.58
   7  -5 -13    6.40    1.70
   6  -5 -13  326.70   15.83
   5  -5 -13  175.24    4.34
   4  -5 -13    0.51    0.87
   2  -5 -13  178.96    5.38
   1  -5 -13   21.28    1.63
   0  -5 -13   38.44    3.14
  -1  -5 -13  122.74    5.56
  -3  -5 -13    9.86    0.79
  -4  -5 -13    4.81    1.05
  -5  -5 -13  263.37    7.70
  -6  -5 -13  243.53    8.35
  -7  -5 -13   57.59    3.07
  -8  -5 -13   77.76    2.82
  -9  -5 -13  180.44    5.17
 -10  -5 -13    0.87    1.01
 -11  -5 -13    6.36    1.08
 -12  -5 -13    1.01    0.65
 -13  -5 -13   18.68    1.34
 -14  -5 -13   18.36    1.41
 -15  -5 -13   37.83    2.38
 -16  -5 -13    0.94    0.98
 -17  -5 -13    4.73    0.76
 -18  -5 -13   45.13    2.20
 -19  -5 -13    1.63    0.79
 -20  -5 -13    8.56    1.23
 -21  -5 -13   41.66    2.85
 -22  -5 -13    2.42    1.63
 -23  -5 -13    2.67    1.01
 -24  -5 -13   19.33    1.30
 -25  -5 -13    0.83    0.98
 -26  -5 -13    0.51    2.20
  32  -5 -12   -0.29    0.94
  30  -5 -12    3.47    1.12
  29  -5 -12   29.74    1.52
  28  -5 -12    8.31    0.87
  27  -5 -12    5.09    0.72
  26  -5 -12   -0.18    0.87
  25  -5 -12   30.24    1.59
  24  -5 -12   46.90    2.24
  23  -5 -12    5.71    1.01
  22  -5 -12   36.85    1.77
  21  -5 -12   44.73    1.84
  20  -5 -12   70.85    2.71
  19  -5 -12   21.90    1.34
  18  -5 -12  257.48   13.30
  17  -5 -12    6.58    1.01
  16  -5 -12  149.26    5.53
  15  -5 -12    4.55    0.83
  14  -5 -12  260.26    8.31
  13  -5 -12   53.37    2.89
  12  -5 -12   27.17    2.20
  11  -5 -12   74.65    2.82
  10  -5 -12  346.22   10.84
   9  -5 -12   98.42    3.25
   8  -5 -12    4.44    1.81
   7  -5 -12    6.29    1.30
   6  -5 -12  238.43    5.20
   5  -5 -12   18.79    1.30
   4  -5 -12   78.62    2.93
   3  -5 -12   65.80    2.46
   2  -5 -12  902.79   25.44
   1  -5 -12  314.20   13.77
   0  -5 -12  207.14    5.78
  -1  -5 -12  295.20    9.76
  -2  -5 -12  288.22    9.90
  -3  -5 -12   48.89    2.78
  -4  -5 -12  189.08    7.15
  -5  -5 -12  544.07   17.99
  -7  -5 -12  276.63   13.37
  -8  -5 -12  103.05    4.08
  -9  -5 -12  452.99   10.73
 -10  -5 -12  217.73   11.16
 -11  -5 -12    7.19    1.45
 -12  -5 -12   36.89    1.55
 -13  -5 -12  498.22   13.40
 -14  -5 -12   73.09    3.69
 -15  -5 -12  221.52    7.23
 -16  -5 -12   24.06    2.24
 -17  -5 -12   76.31    4.52
 -18  -5 -12   10.41    1.19
 -19  -5 -12  255.81    7.41
 -20  -5 -12   43.86    1.95
 -21  -5 -12   39.67    1.88
 -22  -5 -12   -0.36    1.70
 -23  -5 -12   93.83    5.85
 -24  -5 -12   46.54    2.60
 -25  -5 -12    0.72    1.23
 -26  -5 -12    1.41    0.90
 -27  -5 -12   23.23    2.31
  32  -5 -11    1.91    1.37
  31  -5 -11   -0.14    0.87
  30  -5 -11   -0.58    0.83
  29  -5 -11    0.14    0.69
  28  -5 -11    4.12    0.87
  27  -5 -11    2.78    0.76
  26  -5 -11    5.06    1.01
  25  -5 -11   14.24    0.98
  24  -5 -11    2.64    0.72
  23  -5 -11   15.79    2.78
  22  -5 -11    9.97    1.41
  21  -5 -11    1.88    0.61
  20  -5 -11   24.93    1.73
  19  -5 -11   61.14    3.29
  18  -5 -11    2.82    0.72
  17  -5 -11   13.12    0.87
  16  -5 -11    4.99    0.76
  15  -5 -11   36.71    2.46
  14  -5 -11  111.21    4.12
  13  -5 -11    1.45    1.01
  12  -5 -11   18.14    1.26
  11  -5 -11    3.54    1.23
  10  -5 -11  210.22    5.82
   9  -5 -11  131.48    4.59
   8  -5 -11  271.82    9.36
   7  -5 -11  220.19    7.05
   6  -5 -11   33.06    1.91
   5  -5 -11  181.74    6.18
   4  -5 -11    2.28    0.72
   3  -5 -11   13.44    0.94
   2  -5 -11  182.54    6.87
   1  -5 -11    0.98    0.58
   0  -5 -11   25.22    1.84
  -1  -5 -11   87.84    3.79
  -2  -5 -11  967.94   20.31
  -3  -5 -11  124.33    5.28
  -4  -5 -11   22.11    1.12
  -5  -5 -11    3.32    1.05
  -6  -5 -11  451.29   12.97
  -7  -5 -11    3.25    0.58
  -8  -5 -11  337.94    9.86
  -9  -5 -11   21.75    1.81
 -10  -5 -11  370.82   11.56
 -11  -5 -11    9.72    1.52
 -12  -5 -11    0.83    0.69
 -13  -5 -11    2.75    0.65
 -14  -5 -11  350.55   13.12
 -15  -5 -11  110.85    4.12
 -16  -5 -11  182.68    5.60
 -17  -5 -11    1.88    0.65
 -18  -5 -11  105.69    3.79
 -19  -5 -11   11.24    1.19
 -20  -5 -11   30.21    1.45
 -21  -5 -11   41.19    2.64
 -22  -5 -11   32.45    2.13
 -23  -5 -11    2.28    0.90
 -24  -5 -11    3.36    1.26
 -25  -5 -11    8.13    1.08
 -26  -5 -11   11.89    1.37
 -27  -5 -11    1.70    0.90
 -28  -5 -11    7.73    1.66
  33  -5 -10    2.64    0.72
  32  -5 -10    0.33    0.90
  31  -5 -10   -0.51    1.52
  29  -5 -10   12.21    1.05
  28  -5 -10   15.93    0.87
  27  -5 -10   -0.25    0.90
  26  -5 -10    5.96    0.90
  25  -5 -10  134.16    4.19
  24  -5 -10   11.38    1.12
  23  -5 -10   16.84    1.34
  22  -5 -10   79.42    4.44
  21  -5 -10   15.75    2.10
  20  -5 -10   17.20    1.19
  19  -5 -10   35.88    1.59
  18  -5 -10  101.82    3.25
  17  -5 -10    0.51    0.58
  16  -5 -10   69.52    2.64
  15  -5 -10    1.73    0.76
  13  -5 -10  217.23    5.71
  12  -5 -10    3.04    0.94
  11  -5 -10   12.32    0.79
  10  -5 -10 1205.83   23.67
   9  -5 -10  366.63    9.94
   8  -5 -10  149.48    4.48
   7  -5 -10   54.13    2.02
   6  -5 -10 1589.88   41.12
   5  -5 -10    2.71    0.61
   4  -5 -10 1783.80   49.79
   3  -5 -10   26.05    1.59
   2  -5 -10   12.36    0.98
   1  -5 -10  168.41    6.43
   0  -5 -10 1177.90   34.58
  -1  -5 -10 2420.80   56.04
  -2  -5 -10  724.52   27.24
  -3  -5 -10   83.03    3.40
  -4  -5 -10  412.92   18.07
  -5  -5 -10 1020.18   22.98
  -6  -5 -10   59.87    2.64
  -7  -5 -10    9.76    1.12
  -8  -5 -10    8.31    1.23
  -9  -5 -10 1153.94   35.63
 -10  -5 -10   50.98    4.84
 -11  -5 -10  879.05   21.79
 -12  -5 -10  735.32   25.65
 -13  -5 -10   62.80    3.32
 -14  -5 -10   24.24    3.32
 -15  -5 -10  716.86   23.77
 -16  -5 -10   50.69    2.10
 -17  -5 -10    1.99    0.72
 -18  -5 -10   12.21    1.05
 -19  -5 -10  315.65   10.51
 -20  -5 -10  100.37    6.32
 -21  -5 -10   15.75    1.63
 -22  -5 -10   35.70    1.81
 -23  -5 -10  122.34    5.46
 -24  -5 -10   23.16    1.59
 -25  -5 -10   10.33    1.01
 -26  -5 -10   33.89    2.06
 -27  -5 -10   13.77    1.66
 -28  -5 -10    1.95    0.72
 -29  -5 -10    0.54    1.34
  33  -5  -9    0.87    0.65
  32  -5  -9    2.82    0.65
  31  -5  -9    0.11    0.65
  30  -5  -9    0.51    0.61
  29  -5  -9    2.71    0.94
  28  -5  -9   -0.14    0.83
  27  -5  -9    4.37    0.65
  26  -5  -9   21.14    1.55
  25  -5  -9   18.61    1.34
  24  -5  -9    8.67    0.90
  23  -5  -9    0.83    0.72
  22  -5  -9   19.44    1.30
  21  -5  -9   16.84    1.01
  20  -5  -9   34.87    1.70
  19  -5  -9   98.53    3.87
  17  -5  -9    0.36    0.69
  16  -5  -9    0.33    0.47
  15  -5  -9  302.86   11.56
  14  -5  -9    3.90    0.76
  13  -5  -9  133.22    3.72
  12  -5  -9   87.91    3.90
  11  -5  -9  142.90    5.38
  10  -5  -9   27.28    1.66
   9  -5  -9  310.52    9.32
   8  -5  -9   16.80    1.12
   7  -5  -9  242.48    7.88
   6  -5  -9 1342.26   25.58
   5  -5  -9   22.37    1.34
   4  -5  -9   83.36    3.43
   2  -5  -9    2.53    0.90
   1  -5  -9    5.82    1.12
   0  -5  -9  148.14    5.49
  -1  -5  -9  141.53    4.23
  -2  -5  -9  342.75    9.32
  -3  -5  -9   88.67    3.32
  -4  -5  -9   94.27    3.40
  -5  -5  -9    1.45    0.61
  -6  -5  -9   76.46    3.79
  -7  -5  -9   13.01    1.08
  -8  -5  -9  848.05   38.34
  -9  -5  -9  248.33    9.03
 -10  -5  -9    1.63    0.98
 -11  -5  -9   26.09    1.26
 -12  -5  -9  431.31   13.55
 -13  -5  -9   97.38    3.72
 -14  -5  -9  128.23    5.71
 -15  -5  -9   25.33    1.45
 -16  -5  -9  172.24    5.96
 -17  -5  -9    1.05    0.72
 -18  -5  -9    1.45    0.76
 -19  -5  -9   47.51    1.95
 -20  -5  -9   57.38    2.67
 -21  -5  -9   -0.07    0.83
 -22  -5  -9    1.63    0.76
 -23  -5  -9   33.13    1.66
 -24  -5  -9   52.54    3.25
 -25  -5  -9    6.32    0.87
 -26  -5  -9   20.02    1.23
 -27  -5  -9    1.41    1.16
 -28  -5  -9    4.77    1.12
 -29  -5  -9    0.11    1.73
  34  -5  -8    1.34    1.34
  33  -5  -8   15.65    1.30
  32  -5  -8    1.26    0.79
  31  -5  -8    1.52    0.76
  30  -5  -8    0.22    0.94
  29  -5  -8   91.45    4.84
  28  -5  -8   23.27    1.37
  27  -5  -8   10.98    1.01
  26  -5  -8   11.42    1.23
  25  -5  -8   65.25    2.35
  24  -5  -8    3.87    0.72
  23  -5  -8   15.36    1.05
  22  -5  -8  195.37    7.19
  21  -5  -8   18.10    1.41
  20  -5  -8   90.80    4.01
  19  -5  -8  100.92    6.47
  17  -5  -8  304.70    9.14
  16  -5  -8  199.20    4.95
  15  -5  -8  103.77    4.44
  14  -5  -8   15.43    1.12
  13  -5  -8    5.35    0.79
  12  -5  -8    3.50    0.79
  11  -5  -8   23.92    1.37
  10  -5  -8 1342.59   40.94
   9  -5  -8   78.37    2.64
   8  -5  -8 2409.28   48.89
   7  -5  -8  319.80   11.71
   6  -5  -8  535.98   17.56
   5  -5  -8 1004.90   26.34
   4  -5  -8 4080.52  107.46
   3  -5  -8  225.07    5.93
   2  -5  -8  489.98    9.90
   1  -5  -8 1077.67   20.70
   0  -5  -8 3124.83   80.54
  -1  -5  -8  691.89   19.66
  -2  -5  -8   13.40    1.05
  -3  -5  -8 1070.73   25.44
  -4  -5  -8  999.63   30.28
  -5  -5  -8    6.18    0.69
  -6  -5  -8  152.15    5.46
  -7  -5  -8  305.89    8.56
  -8  -5  -8  119.81    3.90
 -10  -5  -8  161.94    4.77
 -11  -5  -8 1627.49   39.60
 -12  -5  -8  225.72    8.53
 -13  -5  -8  266.91   10.55
 -14  -5  -8   21.39    1.19
 -15  -5  -8  717.22   23.05
 -16  -5  -8   28.54    2.06
 -17  -5  -8   95.39    4.23
 -18  -5  -8    2.60    0.72
 -20  -5  -8   79.96    3.47
 -21  -5  -8   33.86    3.72
 -22  -5  -8   27.39    1.88
 -23  -5  -8  224.99    6.54
 -24  -5  -8    4.95    0.90
 -25  -5  -8    1.48    0.94
 -26  -5  -8   56.94    4.01
 -27  -5  -8  100.30    8.27
 -28  -5  -8    3.18    0.98
 -29  -5  -8    0.33    0.83
 -30  -5  -8    8.20    1.12
  35  -5  -7    1.08    1.34
  34  -5  -7    1.81    1.08
  33  -5  -7    2.02    1.70
  32  -5  -7    1.23    0.79
  31  -5  -7    7.48    0.87
  30  -5  -7    9.36    0.90
  29  -5  -7    0.22    0.72
  28  -5  -7    5.02    0.72
  26  -5  -7   25.83    1.26
  25  -5  -7   17.38    1.99
  24  -5  -7    0.87    1.34
  23  -5  -7   11.71    0.87
  21  -5  -7   62.76    3.32
  20  -5  -7    5.78    1.08
  19  -5  -7  137.45    4.73
  18  -5  -7   74.76    2.67
  17  -5  -7   42.24    2.02
  16  -5  -7   14.63    1.30
  15  -5  -7  999.30   20.70
  14  -5  -7    2.28    0.83
  13  -5  -7  249.85   13.48
  12  -5  -7    4.26    0.69
  11  -5  -7  957.13   30.78
  10  -5  -7  930.76   22.87
   9  -5  -7  148.25    5.42
   8  -5  -7  182.36    5.35
   7  -5  -7  271.31    9.07
   6  -5  -7  106.77    4.34
   5  -5  -7   35.05    1.59
   4  -5  -7  197.03    8.38
   3  -5  -7    4.01    1.37
   2  -5  -7  416.46    9.54
   1  -5  -7 1265.70   49.10
   0  -5  -7 2457.30   65.54
  -1  -5  -7 1049.05   26.52
  -2  -5  -7 1163.38   52.43
  -3  -5  -7  355.39    8.96
  -4  -5  -7   65.00    4.30
  -5  -5  -7  328.87   13.44
  -6  -5  -7   39.20    1.88
  -7  -5  -7   54.05    2.57
  -8  -5  -7  121.29    6.00
  -9  -5  -7  473.76   12.72
 -10  -5  -7  743.16   17.92
 -11  -5  -7    1.73    0.61
 -12  -5  -7  269.29    7.23
 -13  -5  -7    0.87    0.61
 -14  -5  -7  453.02   12.54
 -15  -5  -7   35.41    1.73
 -16  -5  -7   14.92    1.34
 -17  -5  -7  161.44    8.20
 -18  -5  -7  514.99   16.87
 -19  -5  -7  129.21    4.73
 -20  -5  -7  144.31    6.65
 -21  -5  -7   46.39    2.42
 -22  -5  -7   33.10    2.78
 -23  -5  -7  131.41    5.31
 -24  -5  -7    0.11    0.76
 -25  -5  -7    7.23    0.98
 -26  -5  -7   29.84    1.84
 -27  -5  -7    0.65    1.26
 -28  -5  -7    2.57    1.30
 -29  -5  -7    2.31    1.45
 -30  -5  -7    9.36    1.05
 -31  -5  -7    3.76    1.41
  35  -5  -6    2.75    1.19
  33  -5  -6   20.31    1.66
  32  -5  -6    0.61    0.98
  31  -5  -6   12.68    1.48
  30  -5  -6    0.65    0.72
  29  -5  -6   47.62    2.82
  28  -5  -6    2.93    0.65
  27  -5  -6  225.03    5.74
  25  -5  -6   32.37    1.45
  24  -5  -6    4.95    1.05
  22  -5  -6   35.66    1.41
  21  -5  -6   24.28    0.98
  20  -5  -6  249.27    7.77
  19  -5  -6  150.60    4.41
  18  -5  -6  143.41    4.05
  17  -5  -6  275.25    6.97
  16  -5  -6  713.79   21.93
  14  -5  -6   95.17    3.43
  13  -5  -6  856.15   25.69
  12  -5  -6 1274.12   37.72
  11  -5  -6    5.64    1.01
  10  -5  -6 1704.23   42.82
   9  -5  -6   53.62    1.77
   8  -5  -6 4220.28  134.81
   7  -5  -6    1.23    0.51
   6  -5  -6   73.78    2.71
   4  -5  -6 1458.28   34.25
   3  -5  -6  144.06    6.14
   2  -5  -6  745.04   16.22
   1  -5  -6  472.50   16.73
   0  -5  -6 2211.60   46.68
  -1  -5  -6    6.11    0.54
  -2  -5  -6   83.72    2.71
  -3  -5  -6 5332.96  107.35
  -4  -5  -6 2259.33   50.87
  -5  -5  -6   49.72    2.53
  -6  -5  -6    2.24    0.43
  -7  -5  -6 1022.50   28.94
  -8  -5  -6  183.69    5.74
  -9  -5  -6  178.35    9.29
 -10  -5  -6  298.49    7.33
 -11  -5  -6  533.78   17.92
 -12  -5  -6   45.13    2.02
 -13  -5  -6   25.83    1.70
 -14  -5  -6  152.80    7.01
 -15  -5  -6 1542.72   61.17
 -16  -5  -6    4.59    0.83
 -17  -5  -6  629.09   14.20
 -18  -5  -6    2.38    0.61
 -19  -5  -6  464.08   16.37
 -20  -5  -6  103.92    5.89
 -21  -5  -6   26.95    2.42
 -22  -5  -6    3.69    0.76
 -23  -5  -6  285.77   10.15
 -24  -5  -6   24.86    1.30
 -25  -5  -6  134.41    5.89
 -26  -5  -6    3.11    0.94
 -27  -5  -6  124.26    8.13
 -28  -5  -6    0.58    0.65
 -29  -5  -6   24.89    1.81
 -30  -5  -6   16.84    1.41
 -31  -5  -6    6.83    1.59
  35  -5  -5   -1.05    1.08
  34  -5  -5    5.35    0.90
  33  -5  -5    1.81    1.19
  32  -5  -5    3.90    1.01
  31  -5  -5    3.65    1.05
  29  -5  -5    3.32    0.72
  28  -5  -5    0.04    0.79
  27  -5  -5    1.77    1.41
  26  -5  -5   19.91    1.73
  25  -5  -5    0.25    1.12
  24  -5  -5   14.20    0.90
  23  -5  -5    7.84    0.79
  22  -5  -5   21.64    1.73
  21  -5  -5   15.79    0.98
  20  -5  -5   42.56    3.14
  19  -5  -5  118.80    3.47
  18  -5  -5   21.17    1.66
  17  -5  -5   60.85    2.31
  16  -5  -5   74.25    2.42
  15  -5  -5    5.24    0.65
  14  -5  -5    5.53    0.76
  13  -5  -5   88.60    5.82
  12  -5  -5   97.01    4.44
  11  -5  -5    8.82    0.87
  10  -5  -5  167.87    6.14
   9  -5  -5  488.07   13.48
   8  -5  -5   36.28    1.99
   7  -5  -5    1.16    0.54
   6  -5  -5  353.41   19.73
   5  -5  -5 1069.32   31.51
   4  -5  -5    2.82    0.61
   3  -5  -5   41.99    1.70
   2  -5  -5  211.73    7.52
   1  -5  -5 2667.69   58.50
   0  -5  -5  692.72   19.94
  -1  -5  -5  117.86    6.47
  -2  -5  -5  292.78    8.35
  -3  -5  -5  120.25    7.48
  -4  -5  -5    2.24    0.40
  -5  -5  -5  361.57    8.42
  -6  -5  -5   75.52    2.46
  -7  -5  -5  153.67    4.77
  -9  -5  -5    1.66    0.69
 -10  -5  -5   35.01    1.59
 -11  -5  -5    3.61    0.58
 -12  -5  -5   70.49    3.54
 -13  -5  -5    8.24    0.65
 -14  -5  -5  122.16    8.27
 -15  -5  -5    7.66    0.65
 -16  -5  -5   20.34    1.12
 -17  -5  -5    1.88    0.83
 -18  -5  -5  135.46    4.81
 -19  -5  -5   79.82    3.47
 -20  -5  -5   52.17    2.06
 -21  -5  -5  128.99    5.17
 -22  -5  -5    2.85    0.69
 -23  -5  -5    9.43    2.02
 -24  -5  -5   29.84    1.59
 -25  -5  -5    7.01    0.83
 -26  -5  -5   13.04    1.12
 -27  -5  -5   -0.51    0.65
 -28  -5  -5   14.27    1.70
 -29  -5  -5   -0.07    0.72
 -30  -5  -5    1.59    0.72
 -31  -5  -5    4.44    0.90
 -32  -5  -5    2.64    0.94
  34  -5  -4    7.91    1.08
  33  -5  -4    8.20    1.05
  32  -5  -4    0.58    0.61
  31  -5  -4   46.36    2.67
  30  -5  -4    2.10    0.65
  29  -5  -4    1.19    0.61
  28  -5  -4    0.18    0.76
  27  -5  -4   83.90    3.79
  26  -5  -4    0.51    0.76
  25  -5  -4   21.03    1.19
  24  -5  -4   73.17    4.55
  23  -5  -4  140.48    4.12
  22  -5  -4    8.92    1.30
  21  -5  -4  108.32    4.55
  20  -5  -4  300.22   10.04
  19  -5  -4  522.03   11.82
  18  -5  -4   14.53    1.08
  17  -5  -4    1.34    1.01
  16  -5  -4  158.84    5.42
  15  -5  -4  374.00   15.79
  14  -5  -4  112.05    3.61
  13  -5  -4  123.68    3.47
  12  -5  -4 1434.00   39.24
  11  -5  -4   29.56    1.45
  10  -5  -4  137.48    3.97
   9  -5  -4  697.82   15.65
   8  -5  -4 6189.07  219.83
   6  -5  -4  761.52   20.96
   5  -5  -4   49.93    2.06
   4  -5  -4 3130.18   85.24
   3  -5  -4    0.47    0.47
   2  -5  -4 1674.35   35.26
   1  -5  -4  760.14   23.56
   0  -5  -4  382.31   10.62
  -1  -5  -4  266.29    7.48
  -2  -5  -4 2169.90   41.80
  -3  -5  -4 1569.03   55.50
  -4  -5  -4  922.16   42.13
  -5  -5  -4  292.70   10.80
  -6  -5  -4 1260.90   35.12
  -7  -5  -4  273.88   10.15
  -8  -5  -4 1447.48   33.21
  -9  -5  -4  920.42   19.80
 -10  -5  -4 1593.89   33.46
 -11  -5  -4 2065.59   54.31
 -12  -5  -4   60.59    5.60
 -13  -5  -4  331.84   16.01
 -14  -5  -4  426.28   10.95
 -15  -5  -4  202.34    6.29
 -16  -5  -4  125.99    4.88
 -17  -5  -4  950.78   41.59
 -18  -5  -4  203.53    5.89
 -19  -5  -4   10.95    1.41
 -20  -5  -4    1.73    0.51
 -21  -5  -4  193.34    8.56
 -22  -5  -4   20.96    1.23
 -23  -5  -4   31.76    1.84
 -24  -5  -4   23.74    2.28
 -25  -5  -4   52.82    2.31
 -26  -5  -4   47.48    1.84
 -27  -5  -4   10.04    1.52
 -28  -5  -4    4.05    0.83
 -29  -5  -4   84.01    3.18
 -30  -5  -4    4.77    0.83
 -31  -5  -4    0.11    1.23
 -32  -5  -4    6.76    1.59
  34  -5  -3    6.11    0.83
  33  -5  -3    1.23    0.79
  31  -5  -3    7.77    1.01
  30  -5  -3   -1.23    1.55
  29  -5  -3    0.72    0.69
  28  -5  -3   36.49    1.73
  27  -5  -3    1.19    1.23
  26  -5  -3   15.72    1.37
  25  -5  -3    3.83    0.76
  24  -5  -3   10.33    1.34
  23  -5  -3   48.24    2.06
  22  -5  -3   22.62    2.35
  21  -5  -3    0.33    0.79
  20  -5  -3    5.74    1.12
  19  -5  -3    5.89    1.12
  18  -5  -3   28.65    1.55
  17  -5  -3  307.23    7.44
  16  -5  -3  237.17    6.87
  15  -5  -3  366.34    8.56
  14  -5  -3    4.30    0.58
  13  -5  -3  261.16   11.02
  12  -5  -3    2.20    0.58
  11  -5  -3  106.08    6.36
  10  -5  -3  306.94    8.89
   9  -5  -3  134.74    5.17
   8  -5  -3  141.78    6.21
   6  -5  -3   13.62    1.41
   5  -5  -3  609.58   17.49
   4  -5  -3  146.01    4.05
   3  -5  -3 1017.44   20.05
   2  -5  -3  237.46    5.74
   1  -5  -3 1232.75   47.62
   0  -5  -3  979.43   19.73
  -1  -5  -3  305.46    9.61
  -2  -5  -3  329.27    7.95
  -3  -5  -3   11.85    0.79
  -4  -5  -3 1220.82   25.80
  -5  -5  -3  276.73    8.24
  -6  -5  -3  265.89    7.59
  -7  -5  -3  449.12   10.30
  -8  -5  -3 1514.90   42.92
  -9  -5  -3 2087.05   48.67
 -10  -5  -3    4.95    0.87
 -11  -5  -3   92.24    3.47
 -12  -5  -3   23.16    1.73
 -13  -5  -3  991.35   27.32
 -14  -5  -3   99.58    3.04
 -15  -5  -3  282.23    8.53
 -16  -5  -3   29.59    1.41
 -17  -5  -3  162.38    7.30
 -18  -5  -3    0.87    0.65
 -19  -5  -3   34.04    1.26
 -20  -5  -3   81.66    3.54
 -21  -5  -3   66.37    3.25
 -22  -5  -3  102.25    2.53
 -23  -5  -3   15.14    2.10
 -24  -5  -3    7.80    1.41
 -25  -5  -3   26.92    1.84
 -26  -5  -3   29.19    2.49
 -27  -5  -3    0.33    0.72
 -28  -5  -3   21.75    1.66
 -29  -5  -3   21.57    1.08
 -30  -5  -3    5.06    0.90
 -31  -5  -3    2.82    1.12
 -32  -5  -3    3.11    0.69
 -33  -5  -3    2.49    0.90
  34  -5  -2    0.07    0.83
  33  -5  -2    1.45    0.65
  32  -5  -2   11.06    1.08
  31  -5  -2   52.97    2.02
  30  -5  -2    5.02    1.73
  29  -5  -2   24.46    1.55
  28  -5  -2    2.46    0.87
  27  -5  -2   11.38    1.12
  26  -5  -2   27.57    2.49
  25  -5  -2  192.22    5.64
  24  -5  -2   24.97    1.30
  23  -5  -2    4.44    0.69
  22  -5  -2   -0.04    0.79
  21  -5  -2   13.84    2.06
  20  -5  -2   79.27    2.49
  19  -5  -2   35.12    1.41
  18  -5  -2  177.66    7.80
  17  -5  -2  251.04    6.36
  16  -5  -2  326.99    8.31
  15  -5  -2   21.25    1.81
  14  -5  -2   43.47    1.66
  13  -5  -2 1058.88   28.07
  12  -5  -2  898.49   22.47
  11  -5  -2  113.35    6.03
  10  -5  -2  171.52    7.88
   9  -5  -2 1209.41   31.58
   8  -5  -2 1080.60   28.40
   6  -5  -2  314.64    8.17
   5  -5  -2  686.14   20.60
   4  -5  -2   46.39    1.70
   3  -5  -2  747.39   17.49
   2  -5  -2 1430.35   26.67
   1  -5  -2   98.28    6.90
   0  -5  -2  705.87   31.54
  -1  -5  -2  431.20   12.90
  -2  -5  -2 2315.73   47.12
  -3  -5  -2    1.12    0.51
  -4  -5  -2  116.34    3.69
  -5  -5  -2  173.18    6.21
  -7  -5  -2   33.21    1.66
  -8  -5  -2  229.65    6.76
  -9  -5  -2  830.31   21.97
 -10  -5  -2 1991.45   52.07
 -11  -5  -2  194.17    5.24
 -12  -5  -2   94.02    3.97
 -13  -5  -2 2113.03   59.04
 -14  -5  -2  355.97    9.43
 -15  -5  -2  351.92   13.19
 -16  -5  -2   75.99    3.29
 -17  -5  -2 1138.30   34.61
 -18  -5  -2   62.83    3.36
 -19  -5  -2   39.96    1.66
 -21  -5  -2  134.16    4.73
 -22  -5  -2   -0.47    0.72
 -23  -5  -2  112.66    3.65
 -24  -5  -2   23.96    1.48
 -25  -5  -2   60.92    2.38
 -26  -5  -2   72.59    3.58
 -27  -5  -2   14.45    1.19
 -28  -5  -2    8.71    1.08
 -29  -5  -2   53.04    2.49
 -30  -5  -2    9.57    1.12
 -31  -5  -2   18.17    1.05
 -33  -5  -2   11.82    1.16
  33  -5  -1    1.99    1.37
  32  -5  -1    4.70    0.79
  31  -5  -1    6.11    0.79
  29  -5  -1    9.32    1.08
  28  -5  -1    3.97    0.87
  27  -5  -1    0.69    1.12
  26  -5  -1   11.74    1.34
  25  -5  -1    1.41    0.58
  24  -5  -1   29.56    2.20
  23  -5  -1   37.87    2.93
  22  -5  -1  135.31    4.52
  21  -5  -1   16.91    1.37
  20  -5  -1    4.34    0.54
  19  -5  -1   94.99    3.14
  18  -5  -1   65.87    3.61
  17  -5  -1   53.33    2.67
  16  -5  -1    2.60    0.69
  15  -5  -1  464.95   15.25
  14  -5  -1  521.35   12.14
  13  -5  -1   71.76    2.75
  12  -5  -1 1114.38   26.74
  11  -5  -1    1.48    0.58
  10  -5  -1    8.92    0.72
   9  -5  -1   13.77    0.79
   8  -5  -1  145.94    5.96
   7  -5  -1   16.37    0.83
   6  -5  -1  766.65   30.89
   5  -5  -1 1859.28   36.24
   4  -5  -1  421.59   15.46
   3  -5  -1   40.65    1.34
   2  -5  -1   10.55    0.61
   1  -5  -1   14.85    0.94
   0  -5  -1    1.05    0.43
  -1  -5  -1 4278.23   82.34
  -2  -5  -1    5.93    0.43
  -4  -5  -1 1253.45   25.11
  -5  -5  -1  162.92    4.16
  -6  -5  -1 1385.44   26.67
  -7  -5  -1  327.97   11.38
  -8  -5  -1    8.42    1.45
  -9  -5  -1  367.24   11.27
 -10  -5  -1  100.48    4.66
 -11  -5  -1  697.56   18.17
 -12  -5  -1   39.28    2.24
 -13  -5  -1   98.46    3.72
 -14  -5  -1  133.62    4.37
 -15  -5  -1   11.89    0.83
 -16  -5  -1  144.35    6.65
 -17  -5  -1  326.52   12.36
 -18  -5  -1   16.01    1.41
 -19  -5  -1   11.67    2.24
 -20  -5  -1    9.47    1.08
 -21  -5  -1  136.25    4.81
 -22  -5  -1   74.47    2.75
 -23  -5  -1    2.93    0.87
 -24  -5  -1   74.07    3.61
 -25  -5  -1    4.30    0.76
 -26  -5  -1    5.74    1.77
 -27  -5  -1   45.38    1.84
 -28  -5  -1    2.06    0.79
 -29  -5  -1    2.17    1.08
 -30  -5  -1   -0.18    0.69
 -31  -5  -1    0.69    0.61
 -32  -5  -1    0.76    0.69
 -33  -5  -1    2.13    0.87
 -34  -5  -1    4.37    0.90
  34  -5   0   -0.90    0.94
  33  -5   0    1.19    0.61
  32  -5   0    1.12    0.76
  31  -5   0   45.27    3.29
  30  -5   0    7.77    0.76
  29  -5   0   24.43    1.55
  28  -5   0    0.61    0.83
  27  -5   0   21.79    2.38
  26  -5   0   19.69    1.34
  25  -5   0   98.57    3.61
  24  -5   0   14.49    1.01
  23  -5   0    1.16    0.69
  22  -5   0    0.61    0.94
  21  -5   0  320.45    9.68
  20  -5   0    1.26    0.72
  19  -5   0  378.81   11.63
  18  -5   0   26.12    1.37
  17  -5   0  347.59   10.30
  16  -5   0  210.65    5.38
  15  -5   0   11.35    0.98
  14  -5   0   34.58    2.17
  13  -5   0  192.98    6.36
  12  -5   0  838.66   37.87
  11  -5   0   32.84    1.41
  10  -5   0  209.78    5.89
   9  -5   0  186.12    7.01
   8  -5   0   67.75    2.42
   7  -5   0   82.16    3.43
   6  -5   0 1134.07   28.29
   5  -5   0  165.92    5.13
   3  -5   0   58.79    2.53
   1  -5   0  795.12   21.50
   0  -5   0   -0.04    0.36
  -1  -5   0  677.26   34.87
  -2  -5   0   57.45    2.38
  -3  -5   0   57.23    2.10
  -4  -5   0  728.78   28.11
  -5  -5   0  171.55    4.77
  -6  -5   0 1072.68   44.66
  -7  -5   0   71.87    3.72
  -8  -5   0   59.26    3.94
  -9  -5   0  160.61    7.88
 -10  -5   0  210.79    6.58
 -11  -5   0   33.96    1.84
 -12  -5   0  849.24   18.10
 -13  -5   0  170.07   11.02
 -16  -5   0  204.54    8.09
 -17  -5   0  286.63    6.90
 -18  -5   0   24.46    1.34
 -19  -5   0  347.63    9.72
 -20  -5   0    0.47    0.79
 -21  -5   0  296.32    6.68
 -22  -5   0    0.14    0.65
 -23  -5   0    1.26    0.79
 -24  -5   0   16.37    1.41
 -25  -5   0   90.11    3.43
 -26  -5   0   17.63    1.12
 -27  -5   0   28.04    3.76
 -28  -5   0    2.78    0.98
 -29  -5   0   22.76    1.08
 -30  -5   0    8.85    1.23
 -32  -5   0    2.93    0.58
 -33  -5   0    0.51    0.54
 -34  -5   0   -0.47    0.94
  33  -5   1    0.58    0.83
  32  -5   1   -0.51    0.69
  31  -5   1   -0.69    1.12
  30  -5   1    1.95    1.12
  29  -5   1    1.66    0.98
  28  -5   1    2.38    0.69
  27  -5   1   52.72    2.64
  26  -5   1    5.78    1.55
  25  -5   1    2.85    0.90
  24  -5   1   84.12    2.64
  23  -5   1    4.91    0.76
  22  -5   1   93.44    3.11
  21  -5   1  158.47    6.79
  20  -5   1    9.65    0.98
  19  -5   1   14.81    1.16
  18  -5   1   16.22    1.41
  17  -5   1  349.76   12.43
  16  -5   1  166.68    5.67
  15  -5   1   17.13    1.01
  14  -5   1  152.95    4.81
  13  -5   1  118.58    9.72
  12  -5   1   46.54    2.35
  11  -5   1  779.18   20.27
  10  -5   1  116.13    4.62
   9  -5   1  391.34   12.65
   8  -5   1    7.19    0.65
   7  -5   1  347.12   11.20
   6  -5   1 1558.04   44.73
   5  -5   1  160.68    6.40
   4  -5   1 1321.52   39.38
   3  -5   1 1074.85   23.81
   2  -5   1    7.12    0.65
   1  -5   1 4513.06  107.53
   0  -5   1   -0.51    0.54
  -1  -5   1   11.78    1.01
  -2  -5   1    9.54    0.61
  -4  -5   1  436.47   13.95
  -5  -5   1 1941.48   53.51
  -6  -5   1  752.56   15.10
  -7  -5   1   16.55    0.76
  -8  -5   1  140.70    4.16
  -9  -5   1   13.77    0.98
 -10  -5   1    4.01    0.51
 -11  -5   1   -0.40    0.69
 -12  -5   1 1013.36   23.77
 -14  -5   1  515.02   12.75
 -15  -5   1  458.37   11.27
 -16  -5   1    3.94    0.79
 -17  -5   1   53.66    2.24
 -18  -5   1   64.13    3.61
 -19  -5   1   88.31    6.79
 -20  -5   1    3.29    0.79
 -21  -5   1   17.96    1.26
 -22  -5   1  124.15    4.05
 -23  -5   1   31.54    2.02
 -24  -5   1   24.57    1.48
 -25  -5   1   -0.07    1.08
 -26  -5   1    8.02    0.83
 -27  -5   1    0.65    0.79
 -28  -5   1    3.69    1.08
 -29  -5   1    9.18    0.94
 -30  -5   1    1.73    0.98
 -31  -5   1    6.58    1.12
 -32  -5   1    4.62    0.69
 -33  -5   1    0.18    0.76
 -34  -5   1    1.23    0.83
  33  -5   2   15.72    1.77
  32  -5   2    2.82    1.26
  31  -5   2   19.33    1.16
  30  -5   2   10.30    1.23
  29  -5   2   54.09    4.26
  28  -5   2    7.26    0.98
  27  -5   2   18.50    1.77
  26  -5   2   88.67    3.72
  25  -5   2   64.10    2.96
  24  -5   2   31.87    2.46
  23  -5   2  119.42    5.82
  22  -5   2    1.77    0.76
  21  -5   2  197.68   12.83
  20  -5   2    2.28    0.61
  19  -5   2   48.31    2.53
  18  -5   2   87.11    3.79
  17  -5   2 1267.00   28.40
  16  -5   2   92.39    5.74
  15  -5   2  358.86   10.37
  14  -5   2  360.24   13.66
  13  -5   2 2111.66   66.74
  12  -5   2  112.73    5.71
  11  -5   2  228.82    9.25
  10  -5   2 2424.96   76.67
   9  -5   2  815.53   25.29
   8  -5   2  226.73    6.87
   7  -5   2   49.32    2.46
   6  -5   2 2203.65   48.27
   5  -5   2  191.68   11.06
   4  -5   2  143.26    5.78
   2  -5   2 2387.02   46.03
   1  -5   2  495.73   13.37
   0  -5   2  702.80   22.29
  -1  -5   2  108.76    3.76
  -2  -5   2 1461.28   32.19
  -3  -5   2  824.64   23.92
  -4  -5   2   45.71    2.13
  -5  -5   2  657.35   14.92
  -6  -5   2  298.31    8.78
  -7  -5   2 1699.03   38.26
  -8  -5   2 1093.46   22.04
  -9  -5   2 1177.39   25.08
 -10  -5   2  166.57    6.90
 -11  -5   2   94.95    4.30
 -12  -5   2  866.19   26.23
 -14  -5   2   42.60    2.53
 -15  -5   2   19.91    1.08
 -16  -5   2  324.21    8.67
 -17  -5   2  247.61   10.95
 -18  -5   2  170.83    5.64
 -19  -5   2   33.71    2.02
 -20  -5   2   74.68    2.53
 -21  -5   2   12.79    1.08
 -22  -5   2    0.54    0.72
 -23  -5   2    4.44    1.52
 -24  -5   2   25.62    2.02
 -25  -5   2  181.38    7.30
 -26  -5   2   20.52    1.37
 -27  -5   2   11.38    1.48
 -28  -5   2    1.88    1.08
 -29  -5   2   16.40    2.89
 -30  -5   2    6.18    0.87
 -31  -5   2   47.66    3.04
 -32  -5   2   11.02    0.94
 -33  -5   2   -0.43    0.76
 -34  -5   2    0.87    0.83
  33  -5   3    0.87    0.90
  32  -5   3    5.13    0.98
  31  -5   3    5.02    0.90
  30  -5   3    4.77    0.87
  29  -5   3   23.20    1.52
  28  -5   3   21.90    1.55
  27  -5   3    0.07    0.65
  26  -5   3   24.71    2.24
  25  -5   3   40.54    2.46
  24  -5   3    8.92    1.19
  23  -5   3   26.81    1.95
  22  -5   3  136.47    6.87
  21  -5   3   74.25    3.07
  20  -5   3  107.17    3.54
  19  -5   3   48.09    2.53
  18  -5   3    3.43    0.54
  17  -5   3  155.69    5.85
  16  -5   3   34.65    1.55
  15  -5   3  343.29   21.39
  14  -5   3  109.15    4.34
  13  -5   3 1166.34   30.71
  12  -5   3   23.59    1.41
  11  -5   3  102.29    3.07
  10  -5   3    3.47    0.58
   8  -5   3 1701.34   40.90
   7  -5   3  508.23   22.44
   6  -5   3  307.95    7.52
   5  -5   3  301.56    9.94
   4  -5   3 1335.22   26.63
   3  -5   3   15.43    0.79
   2  -5   3  361.28    9.68
   1  -5   3  318.79    9.65
   0  -5   3 1037.35   22.15
  -1  -5   3 1261.36   26.34
  -2  -5   3  246.38    7.08
  -3  -5   3 1019.75   23.49
  -4  -5   3  139.98    3.18
  -5  -5   3  548.55   22.26
  -6  -5   3   13.91    0.98
  -8  -5   3  148.97    6.61
  -9  -5   3  117.86    3.87
 -10  -5   3  354.42   11.53
 -11  -5   3  102.61    3.83
 -12  -5   3    1.84    0.43
 -14  -5   3    3.00    0.61
 -15  -5   3  347.84    9.14
 -16  -5   3  226.94    8.96
 -17  -5   3  295.45    9.72
 -18  -5   3   26.38    1.55
 -19  -5   3    6.40    0.98
 -20  -5   3   10.59    1.99
 -21  -5   3    0.43    0.65
 -23  -5   3   55.28    3.43
 -26  -5   3   14.31    1.01
 -27  -5   3    2.46    1.59
 -28  -5   3   34.33    2.28
 -29  -5   3    1.23    0.83
 -30  -5   3   -0.36    0.90
 -31  -5   3    3.94    0.72
 -33  -5   3    1.81    1.01
 -34  -5   3    3.11    0.98
 -35  -5   3    0.65    1.05
  32  -5   4    6.79    0.87
  31  -5   4    1.01    0.79
  30  -5   4    5.89    0.87
  29  -5   4   98.46    5.85
  28  -5   4    3.97    1.95
  27  -5   4    7.55    0.98
  26  -5   4   44.80    3.54
  25  -5   4   58.06    4.01
  24  -5   4   26.63    1.95
  23  -5   4   34.04    1.48
  22  -5   4   24.64    1.48
  21  -5   4  212.78    7.95
  20  -5   4    2.93    0.76
  19  -5   4   15.50    1.34
  18  -5   4  286.45    8.82
  17  -5   4 1172.37   30.35
  16  -5   4  139.11    8.24
  15  -5   4  231.71    6.90
  14  -5   4  525.32   18.10
  13  -5   4  389.68   11.24
  12  -5   4   70.75    3.32
  11  -5   4 2325.56   82.53
  10  -5   4 1714.50   50.58
   9  -5   4 1058.92   35.81
   8  -5   4 1736.57   39.78
   7  -5   4  291.91   10.30
   6  -5   4 1274.01   55.61
   5  -5   4  316.95    8.31
   4  -5   4  951.14   21.21
   3  -5   4 1719.84   47.87
   2  -5   4 2326.61   58.75
   1  -5   4  271.39   10.12
   0  -5   4  420.97   18.14
  -1  -5   4  745.40   15.83
  -2  -5   4 1743.15   58.24
  -3  -5   4    0.69    0.29
  -4  -5   4 3210.65   54.88
  -5  -5   4   44.77    2.13
  -6  -5   4  791.58   17.16
  -7  -5   4  983.69   20.81
  -9  -5   4  689.97   14.34
 -10  -5   4  148.14    4.62
 -11  -5   4   30.46    1.77
 -12  -5   4 1387.75   39.20
 -14  -5   4  122.38    5.53
 -15  -5   4  386.68   14.60
 -16  -5   4  138.10    4.77
 -17  -5   4    2.64    1.01
 -18  -5   4   17.92    1.01
 -19  -5   4  510.25   27.86
 -20  -5   4  289.45    7.80
 -21  -5   4  119.99    6.18
 -22  -5   4    8.24    0.94
 -23  -5   4  137.77    3.76
 -24  -5   4   67.82    3.14
 -25  -5   4   23.81    1.34
 -26  -5   4   -1.01    0.83
 -27  -5   4   59.29    3.54
 -28  -5   4    1.26    0.83
 -29  -5   4   -0.69    0.98
 -30  -5   4    0.40    0.72
 -31  -5   4   49.83    4.37
 -32  -5   4   -1.16    1.23
 -33  -5   4    9.43    1.08
 -34  -5   4    4.99    0.76
  32  -5   5   -0.54    1.16
  31  -5   5    5.64    1.30
  30  -5   5    3.22    1.45
  28  -5   5   12.86    1.05
  27  -5   5    0.54    0.76
  26  -5   5   14.49    1.19
  25  -5   5    7.15    1.16
  24  -5   5   28.65    3.50
  23  -5   5    7.80    0.79
  22  -5   5    2.57    0.69
  21  -5   5  169.13    5.85
  20  -5   5   55.03    2.28
  19  -5   5   87.26    6.54
  18  -5   5  160.50    7.37
  17  -5   5    1.91    0.61
  16  -5   5   27.03    1.99
  15  -5   5    7.41    0.94
  14  -5   5  124.66    5.56
  13  -5   5    7.48    0.94
  12  -5   5   81.19    3.43
  11  -5   5    2.67    0.54
  10  -5   5   38.34    1.84
   9  -5   5   -0.69    0.69
   8  -5   5    4.41    0.90
   7  -5   5  171.81    5.85
   6  -5   5   79.38    3.61
   5  -5   5  355.29   12.32
   4  -5   5    0.76    0.36
   3  -5   5  143.52    7.48
   2  -5   5  299.46   10.33
   1  -5   5  137.27    7.05
   0  -5   5  745.73   27.97
  -1  -5   5 2660.43   69.08
  -2  -5   5  225.43   11.02
  -3  -5   5   45.82    3.40
  -4  -5   5    2.28    0.36
  -6  -5   5  329.34   15.75
  -7  -5   5    0.83    0.51
  -8  -5   5   34.65    1.23
  -9  -5   5  441.71    9.50
 -10  -5   5  161.04    6.50
 -11  -5   5    8.31    0.72
 -12  -5   5   93.91    4.30
 -13  -5   5   75.88    3.61
 -16  -5   5   78.48    3.18
 -17  -5   5   61.60    3.83
 -18  -5   5   19.73    2.28
 -19  -5   5  111.43    6.29
 -20  -5   5   38.88    2.13
 -21  -5   5   16.11    1.19
 -22  -5   5   21.25    1.52
 -23  -5   5    5.56    0.58
 -24  -5   5   15.14    1.81
 -25  -5   5   -0.61    0.90
 -26  -5   5   19.33    1.55
 -27  -5   5    1.52    0.65
 -28  -5   5    0.51    1.16
 -29  -5   5    0.22    0.94
 -30  -5   5    7.66    1.01
 -31  -5   5    3.61    1.01
 -32  -5   5    4.77    0.83
 -34  -5   5    5.78    0.87
 -35  -5   5   -0.36    0.69
  31  -5   6    9.00    1.08
  30  -5   6   17.09    0.98
  29  -5   6   33.02    2.93
  28  -5   6   -0.36    0.90
  27  -5   6  113.49    6.90
  26  -5   6    1.52    0.72
  25  -5   6  113.60    3.79
  24  -5   6   21.82    1.95
  23  -5   6  311.13    8.20
  22  -5   6    1.26    0.83
  21  -5   6   30.21    2.17
  20  -5   6  136.15    8.13
  19  -5   6  439.69   17.45
  18  -5   6    2.24    0.69
  17  -5   6  686.43   24.14
  16  -5   6    3.18    1.41
  15  -5   6 1681.58   42.74
  14  -5   6  186.26    6.43
  13  -5   6   24.21    1.77
  12  -5   6   44.12    3.47
  11  -5   6  584.54   21.06
  10  -5   6  338.56    9.54
   9  -5   6  197.57    7.26
   8  -5   6  189.76    8.06
   7  -5   6 1066.72   26.27
   6  -5   6    3.47    0.58
   5  -5   6   44.55    1.63
   4  -5   6 2403.17   63.77
   3  -5   6 5790.25  201.07
   2  -5   6  103.45    5.02
   1  -5   6    8.64    0.94
  -2  -5   6  707.14   30.68
  -4  -5   6 1538.10   40.00
  -5  -5   6  931.95   25.69
  -6  -5   6   63.48    2.06
  -7  -5   6    1.88    0.47
  -9  -5   6   44.26    2.13
 -10  -5   6 1693.32   66.27
 -11  -5   6    6.83    0.65
 -12  -5   6 1268.05   40.18
 -13  -5   6  856.94   29.52
 -14  -5   6   89.72    3.14
 -16  -5   6  626.64   19.98
 -17  -5   6  224.38   13.19
 -18  -5   6  137.92    4.34
 -19  -5   6  165.74    7.59
 -20  -5   6  237.78   10.33
 -21  -5   6   24.86    1.48
 -22  -5   6   40.58    1.63
 -23  -5   6  171.08    5.35
 -24  -5   6    5.02    1.08
 -25  -5   6   29.09    1.59
 -26  -5   6    4.77    1.26
 -27  -5   6  205.08    6.36
 -28  -5   6    3.87    1.66
 -29  -5   6   35.84    1.45
 -30  -5   6   -0.33    0.76
 -31  -5   6   12.21    1.55
 -33  -5   6   16.33    1.81
 -34  -5   6    0.43    0.90
 -35  -5   6    2.10    1.30
  31  -5   7    2.49    1.05
  30  -5   7    4.37    1.01
  29  -5   7    0.87    0.87
  28  -5   7    0.65    0.98
  27  -5   7    1.59    0.94
  26  -5   7   25.76    1.41
  25  -5   7    6.32    1.23
  24  -5   7    0.65    0.90
  23  -5   7  117.75    5.53
  22  -5   7   28.33    1.59
  21  -5   7   48.60    3.11
  20  -5   7  145.18    5.85
  19  -5   7  160.82    5.96
  18  -5   7  599.18   21.68
  17  -5   7  202.19    6.36
  16  -5   7   15.61    1.05
  15  -5   7   35.12    2.38
  14  -5   7  534.25   17.23
  13  -5   7   -0.54    0.69
  12  -5   7  261.96   10.77
  11  -5   7    1.08    0.58
  10  -5   7  734.02   18.86
   9  -5   7  431.38   13.30
   8  -5   7  110.49    5.42
   7  -5   7   52.75    2.38
   6  -5   7   40.54    2.10
   5  -5   7  259.64   11.67
   4  -5   7   60.12    4.23
   3  -5   7  359.69   12.03
   1  -5   7 1097.58   41.59
   0  -5   7 2315.84   48.02
  -2  -5   7  414.69   15.25
  -5  -5   7   33.42    2.75
  -6  -5   7   97.01    5.53
  -7  -5   7  222.86   12.57
  -9  -5   7  128.59    5.20
 -10  -5   7  874.18   21.25
 -11  -5   7  829.05   24.97
 -12  -5   7    5.24    0.69
 -13  -5   7  230.85    6.29
 -14  -5   7    1.59    1.34
 -15  -5   7  920.32   21.90
 -16  -5   7   16.66    1.37
 -17  -5   7   36.46    1.73
 -18  -5   7   74.97    2.96
 -19  -5   7  126.35    6.00
 -20  -5   7    4.95    0.83
 -21  -5   7   68.29    4.77
 -22  -5   7    6.43    1.41
 -23  -5   7    8.67    1.48
 -24  -5   7    3.79    1.08
 -25  -5   7   16.40    1.66
 -26  -5   7   23.38    1.59
 -27  -5   7   34.61    1.48
 -28  -5   7    3.94    1.01
 -29  -5   7   -3.79    2.28
 -30  -5   7    8.49    1.26
 -32  -5   7   -1.30    1.91
 -33  -5   7    1.01    1.01
 -34  -5   7    0.51    0.72
 -35  -5   7    1.37    0.61
  30  -5   8    3.14    1.01
  29  -5   8    1.91    0.83
  28  -5   8    1.81    0.87
  27  -5   8   84.15    4.30
  26  -5   8   49.32    2.85
  25  -5   8    1.05    1.26
  24  -5   8    4.05    2.06
  23  -5   8  208.30   10.88
  22  -5   8   19.48    1.66
  21  -5   8   28.04    1.30
  20  -5   8   81.95    3.36
  19  -5   8 1047.61   25.29
  18  -5   8    2.02    0.72
  17  -5   8   98.21    4.52
  16  -5   8   22.04    1.63
  15  -5   8  680.00   18.97
  14  -5   8   20.78    1.48
  13  -5   8  275.83    6.68
  12  -5   8  226.11   14.24
  11  -5   8 1664.34   52.54
  10  -5   8  174.99    5.74
   9  -5   8 1522.02   36.64
   8  -5   8  116.92    8.38
   7  -5   8  296.82    9.90
   6  -5   8  156.88    8.60
   5  -5   8    7.08    1.01
   3  -5   8 1233.87   44.04
  -3  -5   8  216.00    9.18
  -5  -5   8 1019.82   39.78
  -6  -5   8  578.83   16.19
  -7  -5   8  299.93   12.25
  -9  -5   8   69.23    2.67
 -10  -5   8 1107.26   46.07
 -11  -5   8   21.17    1.19
 -13  -5   8    5.13    0.54
 -14  -5   8   13.69    1.37
 -15  -5   8  112.44    3.36
 -16  -5   8  192.80    4.73
 -17  -5   8  305.31    8.35
 -18  -5   8  347.34   10.12
 -19  -5   8   77.61    4.01
 -21  -5   8   19.08    1.55
 -22  -5   8  188.21    7.59
 -23  -5   8   10.70    0.83
 -24  -5   8    2.71    0.79
 -25  -5   8   62.51    2.35
 -26  -5   8   10.12    1.23
 -27  -5   8    5.74    0.87
 -28  -5   8   15.75    1.34
 -29  -5   8   64.68    2.60
 -30  -5   8    0.47    0.51
 -31  -5   8   -0.43    0.83
 -32  -5   8    0.07    1.19
 -33  -5   8   13.62    1.30
 -34  -5   8    0.11    1.99
  29  -5   9    0.72    0.83
  28  -5   9    3.22    0.90
  27  -5   9    1.63    0.79
  26  -5   9   14.13    1.16
  25  -5   9    5.56    1.01
  24  -5   9   46.79    2.53
  23  -5   9   27.64    2.28
  22  -5   9    3.36    0.90
  21  -5   9    0.83    0.90
  20  -5   9   52.36    1.91
  19  -5   9   51.13    2.10
  18  -5   9    0.76    0.69
  17  -5   9    1.05    0.76
  16  -5   9  183.66    6.40
  15  -5   9   23.59    1.95
  14  -5   9  110.89    4.30
  13  -5   9   86.75    2.93
  12  -5   9  429.61   13.08
  11  -5   9   28.72    1.70
  10  -5   9    1.95    0.69
   9  -5   9  235.58    8.92
   8  -5   9  914.03   22.91
   7  -5   9   11.92    0.72
   6  -5   9   72.70    5.02
   3  -5   9   85.70    4.59
  -7  -5   9  194.82    6.18
  -8  -5   9   16.19    1.05
  -9  -5   9  260.01    8.89
 -10  -5   9   22.04    1.55
 -11  -5   9  120.50    4.37
 -12  -5   9   76.09    3.11
 -13  -5   9  109.59    4.99
 -14  -5   9    4.84    0.79
 -15  -5   9  285.66    8.60
 -16  -5   9   -0.54    0.61
 -17  -5   9    0.43    0.65
 -18  -5   9    9.14    0.76
 -19  -5   9   82.20    4.44
 -20  -5   9   31.36    1.48
 -21  -5   9   15.25    1.05
 -22  -5   9   21.72    1.48
 -23  -5   9    0.33    0.98
 -24  -5   9    8.38    0.98
 -25  -5   9   12.94    0.94
 -26  -5   9   15.83    1.05
 -27  -5   9    2.75    1.05
 -28  -5   9    1.66    1.41
 -29  -5   9    0.94    0.69
 -30  -5   9   -0.54    0.98
 -31  -5   9    1.63    1.23
 -32  -5   9    1.99    0.83
 -33  -5   9   -0.33    0.87
 -34  -5   9   -1.01    1.16
  29  -5  10    0.72    1.16
  28  -5  10    0.65    0.90
  27  -5  10   16.62    1.52
  26  -5  10   28.76    2.13
  25  -5  10    7.05    1.05
  24  -5  10   18.90    1.52
  23  -5  10   88.85    5.49
  22  -5  10   24.97    1.63
  21  -5  10   14.49    0.90
  20  -5  10   79.96    3.65
  19  -5  10  298.81    9.14
  18  -5  10    8.13    0.98
  17  -5  10    3.18    0.76
  16  -5  10   46.94    3.36
  15  -5  10  654.64   15.54
  14  -5  10   19.01    1.41
  13  -5  10   54.85    2.64
  12  -5  10  644.59   17.52
  11  -5  10  849.24   18.25
  10  -5  10   41.26    2.06
   9  -5  10 1017.37   30.97
   8  -5  10    5.06    0.79
   5  -5  10  885.23   30.24
   4  -5  10  368.22    8.35
  -9  -5  10  327.46   14.24
 -10  -5  10 1110.26   39.89
 -11  -5  10   11.24    0.98
 -12  -5  10    0.83    1.05
 -13  -5  10  201.11    6.21
 -14  -5  10   69.88    3.72
 -15  -5  10    1.30    0.83
 -16  -5  10   59.83    2.82
 -17  -5  10    1.05    0.61
 -18  -5  10   84.48    3.25
 -19  -5  10   28.15    2.06
 -20  -5  10   15.86    1.12
 -21  -5  10   13.15    0.94
 -22  -5  10   71.07    4.41
 -23  -5  10   20.70    2.42
 -24  -5  10   14.13    1.52
 -25  -5  10  106.30    4.73
 -26  -5  10    5.06    0.69
 -27  -5  10    2.38    0.72
 -28  -5  10   11.82    0.87
 -29  -5  10    8.45    1.66
 -30  -5  10   -0.36    0.58
 -31  -5  10    0.07    2.02
 -32  -5  10    0.61    0.83
 -33  -5  10    0.43    1.59
 -34  -5  10   -2.57    1.59
  28  -5  11    4.05    0.87
  27  -5  11    2.49    0.90
  26  -5  11   11.24    1.30
  25  -5  11    3.69    1.34
  24  -5  11    5.89    0.87
  23  -5  11    0.58    1.12
  22  -5  11   22.73    1.23
  21  -5  11   32.77    2.02
  20  -5  11   24.46    1.30
  19  -5  11    8.13    1.01
  18  -5  11   82.85    3.04
  17  -5  11    1.30    0.69
  16  -5  11  144.38    5.78
  15  -5  11   93.11    4.62
  14  -5  11  316.08    8.78
  13  -5  11    2.89    0.76
  12  -5  11    1.84    0.65
  11  -5  11    8.67    0.98
  10  -5  11  305.68   17.63
   9  -5  11   17.02    1.12
   8  -5  11  281.21   11.24
   7  -5  11    2.06    0.69
   6  -5  11  423.79   19.11
  -9  -5  11  101.86    3.69
 -10  -5  11  168.99    4.19
 -13  -5  11    1.08    1.01
 -14  -5  11  103.08    4.77
 -15  -5  11   30.86    1.66
 -16  -5  11    3.90    1.59
 -17  -5  11   14.31    1.99
 -18  -5  11   -0.76    1.12
 -19  -5  11   49.07    2.20
 -20  -5  11   18.93    1.01
 -21  -5  11   -0.22    0.76
 -22  -5  11    9.25    0.87
 -24  -5  11    2.28    1.26
 -25  -5  11   11.56    1.08
 -26  -5  11    5.20    1.01
 -27  -5  11    3.25    0.83
 -28  -5  11    5.09    1.01
 -29  -5  11    1.48    2.24
 -30  -5  11    0.14    0.72
 -31  -5  11    2.24    1.34
 -32  -5  11   -0.79    1.52
 -33  -5  11    2.17    1.63
  27  -5  12   11.16    1.19
  26  -5  12    0.43    0.87
  25  -5  12    1.52    0.79
  24  -5  12   45.45    2.96
  23  -5  12   85.99    4.48
  22  -5  12    0.76    0.79
  21  -5  12   25.94    2.35
  20  -5  12   30.17    1.48
  19  -5  12  162.16    5.96
  18  -5  12    6.83    1.01
  17  -5  12   57.88    3.07
  16  -5  12   16.55    1.26
  15  -5  12  172.67    5.56
  14  -5  12   52.72    3.00
  13  -5  12  364.39   11.60
  12  -5  12   27.68    1.81
  11  -5  12    3.43    0.65
  10  -5  12  194.39    7.05
   9  -5  12  339.21   11.71
   8  -5  12   72.30    3.79
   6  -5  12    9.43    0.94
 -12  -5  12   29.48    1.48
 -14  -5  12  198.98    6.83
 -15  -5  12    5.24    0.76
 -16  -5  12  117.97    6.43
 -17  -5  12    3.94    0.69
 -18  -5  12  210.40    5.38
 -19  -5  12   19.01    1.26
 -20  -5  12   66.30    4.23
 -21  -5  12   39.46    1.63
 -22  -5  12   28.29    1.48
 -23  -5  12    4.70    0.76
 -24  -5  12   33.49    1.77
 -25  -5  12   23.99    1.23
 -26  -5  12    0.04    0.98
 -27  -5  12    4.37    0.87
 -28  -5  12    5.67    1.26
 -29  -5  12   20.96    2.17
 -30  -5  12    3.87    1.08
 -31  -5  12    1.12    1.34
  26  -5  13    0.87    1.08
  25  -5  13   -0.47    1.01
  24  -5  13   15.03    1.12
  23  -5  13    0.07    1.16
  22  -5  13    0.25    1.19
  21  -5  13   31.94    2.31
  20  -5  13    6.97    0.79
  19  -5  13    3.65    0.79
  18  -5  13   35.34    1.66
  17  -5  13    4.05    0.79
  16  -5  13    0.40    0.72
  15  -5  13   24.86    1.59
  14  -5  13   16.55    1.81
  13  -5  13   14.81    1.26
  12  -5  13    0.07    0.72
  11  -5  13    2.38    1.08
   7  -5  13   44.55    2.93
 -12  -5  13   12.54    1.26
 -15  -5  13    3.11    0.61
 -17  -5  13    7.44    0.69
 -18  -5  13    1.88    1.05
 -19  -5  13   11.63    1.05
 -20  -5  13    0.65    0.58
 -21  -5  13    9.07    0.83
 -22  -5  13    0.72    1.12
 -23  -5  13   13.87    0.87
 -24  -5  13   -0.11    0.76
 -25  -5  13    6.54    1.01
 -26  -5  13    2.60    0.83
 -27  -5  13   -0.58    0.79
 -28  -5  13    2.46    2.53
 -29  -5  13   -0.33    0.83
 -30  -5  13    1.63    1.19
  24  -5  14   35.92    2.57
  23  -5  14   31.69    2.20
  22  -5  14   54.02    2.60
  21  -5  14   40.87    1.70
  20  -5  14    2.67    0.72
  19  -5  14   19.98    1.73
  18  -5  14    4.55    1.26
  17  -5  14  231.93    8.85
  16  -5  14   38.05    1.81
  15  -5  14   46.57    2.42
  14  -5  14   47.33    2.78
  13  -5  14  267.85    9.86
  12  -5  14    1.52    1.19
  11  -5  14   79.27    5.74
  10  -5  14   10.66    1.05
   8  -5  14    0.98    0.72
 -17  -5  14    0.29    1.01
 -18  -5  14  101.06    3.76
 -19  -5  14    5.67    0.69
 -20  -5  14   37.58    1.66
 -21  -5  14   40.18    2.60
 -22  -5  14    3.54    0.87
 -23  -5  14    3.76    0.72
 -24  -5  14   14.67    1.19
 -25  -5  14   18.36    1.52
 -26  -5  14   -1.12    0.79
 -27  -5  14    4.30    0.94
 -28  -5  14    4.88    1.26
 -29  -5  14    2.89    0.94
  23  -5  15    3.61    1.12
  22  -5  15   -2.13    0.87
  21  -5  15    0.83    0.83
  19  -5  15    2.38    1.37
  18  -5  15   24.61    1.55
  17  -5  15    1.66    0.94
  16  -5  15   60.88    3.29
  15  -5  15   26.16    1.52
  14  -5  15    5.53    0.87
  13  -5  15    0.04    1.45
  12  -5  15   14.34    2.13
 -17  -5  15    5.82    1.95
 -18  -5  15    0.83    2.10
 -19  -5  15    4.62    1.19
 -20  -5  15   11.31    1.48
 -21  -5  15   16.84    1.45
 -22  -5  15    2.93    0.69
 -23  -5  15    0.72    1.26
 -24  -5  15    0.69    1.99
 -25  -5  15    8.13    1.05
 -26  -5  15    2.10    0.94
 -27  -5  15   -1.77    1.26
 -28  -5  15    1.23    1.26
 -29  -5  15    0.36    1.45
  22  -5  16   16.66    1.08
  21  -5  16   76.02    2.82
  20  -5  16   10.80    1.01
  19  -5  16    3.47    0.87
  18  -5  16   10.12    1.37
  17  -5  16  177.12    5.46
  16  -5  16    0.72    0.76
  15  -5  16   20.45    1.77
  14  -5  16    9.57    1.52
  13  -5  16  131.12    7.91
  12  -5  16    3.79    0.83
  11  -5  16   27.89    2.49
  10  -5  16    1.26    0.58
   9  -5  16  249.56    9.65
   8  -5  16   25.29    1.95
 -14  -5  16   24.89    1.48
 -16  -5  16   42.85    1.70
 -17  -5  16    4.66    0.72
 -18  -5  16    1.84    0.87
 -19  -5  16   -0.76    1.59
 -20  -5  16   16.51    1.41
 -21  -5  16    8.31    0.83
 -22  -5  16    2.57    2.06
 -23  -5  16   10.15    1.26
 -24  -5  16    2.46    1.59
 -25  -5  16    5.35    2.13
 -26  -5  16   -0.98    0.76
 -27  -5  16    3.29    0.83
  21  -5  17    3.79    0.94
  20  -5  17   10.08    1.41
  19  -5  17    0.94    1.08
  18  -5  17   13.01    1.55
  17  -5  17    0.72    1.01
  16  -5  17   19.33    3.11
  15  -5  17   34.58    2.35
  12  -5  17    4.91    1.01
  11  -5  17    1.16    1.26
  10  -5  17   65.83    3.50
 -17  -5  17    7.12    1.63
 -18  -5  17   -0.36    0.65
 -19  -5  17   18.72    1.88
 -20  -5  17    1.99    1.16
 -21  -5  17   10.59    2.24
 -22  -5  17    1.91    0.87
 -23  -5  17   -0.07    1.37
 -24  -5  17    2.06    0.76
 -25  -5  17    0.79    1.30
 -27  -5  17    1.08    1.12
 -28  -5  17    2.13    1.37
  19  -5  18   10.15    1.55
  18  -5  18   -0.29    1.19
  17  -5  18   99.33    5.49
  16  -5  18   30.21    3.32
  15  -5  18   62.40    4.44
  14  -5  18   38.26    3.79
  13  -5  18   44.73    4.52
  12  -5  18    4.19    1.30
  11  -5  18  107.85    5.38
   9  -5  18   32.45    2.20
 -17  -5  18    3.18    0.87
 -19  -5  18    4.55    1.34
 -20  -5  18    6.68    1.45
 -21  -5  18    0.58    1.30
 -23  -5  18    8.09    1.63
 -24  -5  18    8.74    2.53
 -25  -5  18    0.07    0.94
 -26  -5  18   -0.47    2.35
  17  -5  19   -0.14    0.94
  15  -5  19    0.25    1.41
  14  -5  19   13.30    1.95
  13  -5  19    7.59    1.66
  12  -5  19    7.19    0.94
 -20  -5  19    0.00    0.69
 -21  -5  19   -1.05    1.12
 -23  -5  19   -2.20    2.31
  15  -5  20   17.20    2.28
  14  -5  20    0.54    1.73
 -23  -5  20   -0.98    1.01
  15  -6 -24    1.01    1.16
  14  -6 -24    0.36    0.94
  13  -6 -24    1.08    0.98
  12  -6 -24    1.52    0.83
  11  -6 -24   11.38    1.08
  10  -6 -24    1.66    1.08
   9  -6 -24    1.77    2.24
   8  -6 -24   -0.18    0.98
   7  -6 -24    4.34    1.23
   6  -6 -24    0.04    0.79
   5  -6 -24    0.43    0.79
   4  -6 -24    8.27    0.94
   3  -6 -24    0.47    1.01
   2  -6 -24    0.76    1.26
   1  -6 -24    1.95    1.19
   0  -6 -24    0.98    1.19
  -1  -6 -24    9.97    2.06
  17  -6 -23    2.67    1.99
  16  -6 -23    2.35    1.26
  15  -6 -23    2.71    1.37
  14  -6 -23   12.39    0.94
  13  -6 -23    4.23    0.87
  12  -6 -23    4.12    0.87
  11  -6 -23    3.32    1.05
  10  -6 -23    5.67    1.05
   9  -6 -23    1.48    0.94
   8  -6 -23    0.98    0.76
   7  -6 -23   16.37    1.34
   6  -6 -23    4.81    0.98
   5  -6 -23    0.04    0.83
   4  -6 -23   10.48    1.19
   3  -6 -23   22.47    1.19
   2  -6 -23    0.00    1.01
   1  -6 -23    0.58    1.26
   0  -6 -23    3.25    1.81
  -1  -6 -23   30.28    2.53
  -2  -6 -23   -0.83    0.90
  -3  -6 -23    5.13    2.20
  -4  -6 -23    5.56    1.59
  -5  -6 -23   23.49    1.99
  -6  -6 -23    6.61    1.23
  21  -6 -22   -1.95    1.23
  19  -6 -22    0.90    1.01
  18  -6 -22   -0.29    1.30
  17  -6 -22   -0.25    0.94
  16  -6 -22    0.79    0.87
  15  -6 -22    6.58    0.94
  14  -6 -22    4.08    0.90
  13  -6 -22    2.35    1.08
  12  -6 -22    1.59    0.90
  11  -6 -22    8.13    1.05
  10  -6 -22    1.59    0.90
   9  -6 -22   16.84    1.66
   8  -6 -22   -0.83    0.90
   7  -6 -22    3.14    0.94
   6  -6 -22    6.00    1.34
   5  -6 -22   20.41    1.45
   4  -6 -22    1.99    1.08
   3  -6 -22    0.61    0.79
   2  -6 -22   -1.45    1.01
   1  -6 -22    2.64    1.16
   0  -6 -22    0.61    0.94
  -1  -6 -22    8.35    1.26
  -2  -6 -22    4.62    1.05
  -3  -6 -22   28.33    1.70
  -4  -6 -22    6.36    1.41
  -5  -6 -22   42.85    2.46
  -6  -6 -22    4.23    1.26
  -7  -6 -22   12.57    1.26
  -8  -6 -22   28.98    3.04
  -9  -6 -22   18.50    1.59
 -10  -6 -22   10.19    2.13
  23  -6 -21    0.90    1.41
  21  -6 -21    3.72    2.31
  20  -6 -21    1.63    1.55
  19  -6 -21    7.12    1.95
  18  -6 -21   13.15    1.26
  17  -6 -21   -0.11    0.87
  16  -6 -21   -0.14    0.79
  15  -6 -21   13.19    0.94
  14  -6 -21    3.11    0.83
  13  -6 -21    0.40    1.12
  12  -6 -21    9.00    0.98
  11  -6 -21   13.95    1.08
  10  -6 -21    5.09    1.99
   9  -6 -21   -0.11    0.79
   8  -6 -21   10.77    0.90
   7  -6 -21   20.34    2.46
   6  -6 -21   20.16    1.26
   5  -6 -21   20.96    1.63
   4  -6 -21   10.73    1.30
   3  -6 -21   24.35    1.55
   2  -6 -21    3.97    0.87
   1  -6 -21   80.94    3.04
   0  -6 -21   22.98    2.24
  -1  -6 -21   16.87    1.19
  -2  -6 -21    2.10    1.05
  -3  -6 -21   33.10    2.13
  -4  -6 -21    3.36    1.01
  -6  -6 -21   -0.65    1.63
  -7  -6 -21   67.60    2.71
  -8  -6 -21   14.53    1.41
  -9  -6 -21   10.48    1.16
 -10  -6 -21    3.43    1.05
 -11  -6 -21   88.52    2.93
 -12  -6 -21    4.70    0.83
  24  -6 -20    0.07    0.79
  23  -6 -20    0.11    0.69
  21  -6 -20    4.26    1.12
  20  -6 -20    7.77    1.12
  19  -6 -20    1.63    1.01
  18  -6 -20    2.13    1.59
  17  -6 -20   -0.90    1.26
  16  -6 -20    8.89    1.26
  15  -6 -20    6.03    0.79
  14  -6 -20   19.19    0.98
  13  -6 -20    6.11    1.23
  12  -6 -20    1.19    0.72
  11  -6 -20    1.37    0.90
  10  -6 -20    4.84    1.16
   9  -6 -20   11.63    1.01
   8  -6 -20   -0.40    1.16
   7  -6 -20    2.20    0.94
   6  -6 -20    4.73    0.83
   5  -6 -20   34.40    2.75
   4  -6 -20    3.40    0.79
   3  -6 -20    4.48    1.12
   2  -6 -20    1.95    1.05
   1  -6 -20   32.45    1.48
   0  -6 -20    6.54    1.70
  -1  -6 -20   11.24    1.30
  -2  -6 -20    7.12    0.98
  -3  -6 -20   26.59    1.88
  -4  -6 -20    2.75    0.87
  -5  -6 -20   70.64    3.14
  -6  -6 -20   43.61    2.17
  -7  -6 -20    2.71    0.90
  -8  -6 -20   14.20    1.01
  -9  -6 -20   64.24    3.32
 -10  -6 -20   52.75    2.46
 -11  -6 -20    2.57    1.23
 -12  -6 -20   55.75    2.85
 -13  -6 -20   14.53    1.16
 -14  -6 -20    4.55    1.19
  25  -6 -19   -0.58    0.79
  24  -6 -19   -0.83    1.05
  23  -6 -19    0.00    1.08
  22  -6 -19    2.06    0.98
  21  -6 -19    0.51    0.83
  20  -6 -19   23.81    2.57
  19  -6 -19    0.69    0.87
  18  -6 -19   14.67    1.12
  17  -6 -19    0.36    0.83
  16  -6 -19   17.70    1.26
  15  -6 -19    2.10    1.26
  14  -6 -19    0.69    0.79
  13  -6 -19   14.38    1.37
  12  -6 -19   31.25    2.67
  11  -6 -19    9.65    1.19
  10  -6 -19    3.54    0.54
   9  -6 -19   46.25    1.73
   8  -6 -19   39.93    2.38
   7  -6 -19   70.96    2.35
   6  -6 -19    0.72    1.08
   5  -6 -19   52.72    1.91
   4  -6 -19   28.11    1.91
   3  -6 -19   17.60    1.19
   2  -6 -19   -0.40    0.83
   1  -6 -19   21.43    1.81
   0  -6 -19   50.77    1.73
  -1  -6 -19   -0.94    1.05
  -2  -6 -19    1.30    1.37
  -4  -6 -19    0.07    0.79
  -5  -6 -19   21.21    2.28
  -6  -6 -19    4.81    0.98
  -7  -6 -19  218.60    5.71
  -8  -6 -19    7.33    1.01
  -9  -6 -19    0.36    1.91
 -10  -6 -19    6.97    1.08
 -11  -6 -19  195.51   12.07
 -12  -6 -19   -0.69    0.98
 -13  -6 -19   17.78    1.55
 -14  -6 -19    2.60    1.26
 -15  -6 -19   42.67    3.36
 -16  -6 -19    2.31    1.91
  27  -6 -18    0.47    1.30
  26  -6 -18   -0.29    2.42
  25  -6 -18   -0.40    0.76
  24  -6 -18   -0.94    1.34
  23  -6 -18   -0.54    1.08
  22  -6 -18   -0.47    1.55
  21  -6 -18    1.23    1.08
  20  -6 -18    1.66    1.05
  19  -6 -18    4.41    1.23
  18  -6 -18    2.75    0.94
  17  -6 -18   -0.61    1.48
  16  -6 -18   10.19    1.05
  15  -6 -18   -2.38    0.98
  14  -6 -18   12.00    1.01
  13  -6 -18    1.05    0.90
  12  -6 -18    3.32    1.95
  11  -6 -18    3.29    1.05
  10  -6 -18    7.84    0.90
   9  -6 -18    2.20    1.23
   8  -6 -18   -0.54    0.87
   7  -6 -18    2.78    0.98
   6  -6 -18    5.71    1.01
   5  -6 -18    0.79    0.87
   4  -6 -18   20.23    1.52
   3  -6 -18    6.97    1.01
   2  -6 -18    4.55    0.98
   1  -6 -18  123.07    5.38
   0  -6 -18    0.11    0.83
  -1  -6 -18  112.23    4.84
  -2  -6 -18   16.30    1.45
  -3  -6 -18   23.41    2.13
  -4  -6 -18   39.09    2.78
  -6  -6 -18   29.16    1.66
  -7  -6 -18   26.20    1.77
  -8  -6 -18   20.31    1.26
  -9  -6 -18  118.66    3.61
 -10  -6 -18    7.66    1.12
 -11  -6 -18    5.67    1.45
 -12  -6 -18   96.26    3.04
 -13  -6 -18    0.51    1.73
 -14  -6 -18   12.32    2.31
 -15  -6 -18   -1.45    1.26
 -16  -6 -18   14.24    1.48
 -17  -6 -18   13.40    1.30
 -18  -6 -18    1.30    0.90
  27  -6 -17    0.54    0.87
  26  -6 -17    3.18    1.26
  25  -6 -17   -1.70    2.28
  24  -6 -17   19.73    1.45
  23  -6 -17    0.54    0.90
  22  -6 -17   -1.34    0.87
  21  -6 -17    5.28    0.90
  20  -6 -17   33.39    1.77
  19  -6 -17    2.24    1.30
  18  -6 -17    0.40    1.26
  17  -6 -17    5.89    0.98
  16  -6 -17   72.81    3.00
  14  -6 -17    9.61    1.08
  13  -6 -17   12.54    1.16
  12  -6 -17   70.10    3.29
  11  -6 -17   17.02    0.90
  10  -6 -17   35.34    1.63
   9  -6 -17   61.46    2.13
   8  -6 -17  154.79    6.00
   7  -6 -17    6.47    0.79
   5  -6 -17   25.40    1.30
   4  -6 -17  361.50    7.41
   2  -6 -17   39.96    1.55
   1  -6 -17  159.88    4.91
   0  -6 -17    0.90    0.72
  -2  -6 -17  108.76    3.58
  -3  -6 -17   60.95    3.00
  -5  -6 -17   53.91    2.42
  -6  -6 -17   36.75    1.88
  -7  -6 -17  226.51    8.74
  -8  -6 -17   -0.18    0.83
  -9  -6 -17   83.65    3.32
 -10  -6 -17   19.48    1.63
 -11  -6 -17  233.92    6.50
 -12  -6 -17   41.01    1.66
 -13  -6 -17  279.23   10.73
 -14  -6 -17    1.16    0.83
 -15  -6 -17    7.19    0.98
 -16  -6 -17    6.25    1.45
 -17  -6 -17  211.26    6.11
 -18  -6 -17   22.94    1.73
 -19  -6 -17    3.11    0.79
 -20  -6 -17    9.50    1.37
  27  -6 -16   -0.07    1.19
  26  -6 -16    2.13    1.08
  25  -6 -16    7.73    1.77
  24  -6 -16   -0.40    0.98
  23  -6 -16    1.99    0.87
  22  -6 -16    6.87    1.16
  21  -6 -16    0.72    0.76
  20  -6 -16   -0.61    1.05
  19  -6 -16   -0.07    0.94
  18  -6 -16   20.70    1.19
  17  -6 -16    5.67    1.37
  16  -6 -16   16.80    1.16
  15  -6 -16    0.40    1.05
  14  -6 -16    0.18    1.16
  13  -6 -16    4.26    0.90
  12  -6 -16   32.16    1.73
  11  -6 -16    6.47    1.12
  10  -6 -16   22.37    1.19
   9  -6 -16   21.93    1.59
   8  -6 -16   25.15    1.41
   7  -6 -16   -0.22    0.83
   6  -6 -16    3.90    0.98
   5  -6 -16    6.29    1.05
   4  -6 -16   78.66    3.69
   3  -6 -16    7.99    1.99
   2  -6 -16    3.25    0.79
   1  -6 -16   22.47    1.23
   0  -6 -16  104.20    4.37
  -1  -6 -16   25.51    1.88
  -3  -6 -16  167.58    4.99
  -4  -6 -16   23.52    1.48
  -5  -6 -16   47.59    2.64
  -6  -6 -16  310.19    9.83
  -7  -6 -16   83.79    3.07
  -8  -6 -16  176.87    4.34
  -9  -6 -16    2.85    0.90
 -10  -6 -16   -1.55    1.45
 -11  -6 -16  148.57    5.46
 -12  -6 -16   40.94    2.38
 -13  -6 -16   13.62    1.45
 -14  -6 -16    1.48    0.79
 -15  -6 -16   22.94    1.30
 -16  -6 -16   10.48    1.12
 -17  -6 -16    3.04    1.12
 -18  -6 -16    6.97    1.41
 -19  -6 -16   74.76    2.85
 -21  -6 -16    2.71    1.05
  31  -6 -15    5.28    1.16
  29  -6 -15    1.05    1.95
  28  -6 -15    3.97    1.16
  27  -6 -15    6.00    0.83
  26  -6 -15    0.83    1.23
  25  -6 -15    1.59    0.90
  24  -6 -15   45.27    1.63
  23  -6 -15    3.90    1.08
  22  -6 -15   -0.04    0.79
  21  -6 -15   28.65    1.23
  20  -6 -15   90.33    3.32
  19  -6 -15   36.89    3.00
  18  -6 -15   14.20    1.08
  17  -6 -15    8.35    1.16
  16  -6 -15  118.08    5.24
  15  -6 -15   47.44    1.91
  14  -6 -15    4.01    1.34
  13  -6 -15   26.59    1.26
  12  -6 -15  167.11    8.35
  11  -6 -15   12.07    1.66
  10  -6 -15  289.78    6.76
   9  -6 -15    7.84    1.41
   8  -6 -15  350.01   11.16
   7  -6 -15   20.45    1.23
   6  -6 -15   69.26    4.77
   5  -6 -15    1.52    0.94
   4  -6 -15   78.33    2.82
   3  -6 -15  218.67    6.21
   2  -6 -15  201.04    7.59
   1  -6 -15   91.49    3.90
   0  -6 -15  136.61    4.99
  -1  -6 -15  249.35   11.85
  -2  -6 -15  355.79   12.90
  -3  -6 -15   22.65    1.70
  -4  -6 -15    3.90    0.87
  -5  -6 -15  755.30   18.61
  -6  -6 -15  110.02    4.52
  -7  -6 -15  828.58   17.27
  -8  -6 -15    8.85    1.37
  -9  -6 -15  168.12    5.71
 -10  -6 -15  123.10    5.56
 -11  -6 -15   20.23    2.17
 -12  -6 -15   25.15    1.37
 -13  -6 -15  373.71    9.65
 -14  -6 -15    3.36    0.79
 -15  -6 -15    3.32    0.83
 -16  -6 -15   43.36    1.99
 -17  -6 -15  428.16   15.43
 -18  -6 -15   13.51    1.37
 -19  -6 -15    0.69    0.98
 -20  -6 -15   49.25    2.02
 -21  -6 -15  116.06    4.55
 -22  -6 -15    0.69    0.94
  31  -6 -14    0.90    0.94
  30  -6 -14   -0.14    0.69
  29  -6 -14   -2.64    1.12
  28  -6 -14    3.58    1.70
  26  -6 -14   -0.29    0.61
  25  -6 -14    1.48    1.30
  24  -6 -14    7.59    1.77
  23  -6 -14   24.14    2.64
  22  -6 -14    2.35    1.12
  21  -6 -14   -0.58    1.08
  20  -6 -14    1.59    0.72
  19  -6 -14    2.13    0.87
  18  -6 -14   19.01    1.08
  17  -6 -14   21.25    1.63
  16  -6 -14   73.78    3.00
  15  -6 -14    3.69    0.83
  14  -6 -14   11.09    0.90
  13  -6 -14    1.19    1.05
  12  -6 -14   42.53    2.57
  11  -6 -14    9.07    1.05
  10  -6 -14    7.70    1.52
   9  -6 -14    4.23    0.94
   8  -6 -14  110.82    3.79
   7  -6 -14   93.15    3.36
   6  -6 -14   67.86    2.13
   5  -6 -14   82.96    2.46
   4  -6 -14   38.48    1.73
   3  -6 -14   49.50    2.35
   2  -6 -14   65.76    3.14
   1  -6 -14   20.52    1.08
   0  -6 -14  250.79    7.91
  -1  -6 -14   15.65    1.01
  -2  -6 -14  289.96    9.86
  -3  -6 -14   54.74    2.17
  -4  -6 -14  328.29   15.14
  -5  -6 -14  290.43    9.61
  -6  -6 -14  117.21    3.97
  -7  -6 -14    4.88    1.12
  -8  -6 -14   13.12    0.94
  -9  -6 -14   36.24    2.20
 -10  -6 -14    4.66    0.83
 -11  -6 -14  114.14    6.94
 -12  -6 -14   12.61    1.01
 -13  -6 -14   31.29    2.35
 -14  -6 -14   44.15    3.79
 -15  -6 -14    4.73    1.84
 -16  -6 -14    1.55    0.87
 -17  -6 -14   14.71    1.41
 -18  -6 -14    6.61    1.05
 -19  -6 -14   94.70    3.40
 -20  -6 -14    0.04    0.87
 -21  -6 -14   55.79    2.02
 -22  -6 -14    0.54    0.79
 -23  -6 -14    4.37    1.16
 -24  -6 -14   11.42    2.78
  31  -6 -13    4.23    0.58
  30  -6 -13    1.08    0.79
  29  -6 -13   10.59    1.01
  28  -6 -13    6.07    1.05
  27  -6 -13    1.91    0.76
  26  -6 -13    4.95    1.37
  25  -6 -13   23.77    1.23
  24  -6 -13   41.05    1.99
  23  -6 -13    6.14    0.87
  22  -6 -13    2.71    0.98
  21  -6 -13   23.02    1.59
  20  -6 -13   45.02    2.35
  19  -6 -13   17.38    1.19
  18  -6 -13   29.59    2.13
  17  -6 -13   -0.18    0.76
  16  -6 -13   21.82    1.55
  15  -6 -13    5.60    0.79
  14  -6 -13   79.20    3.22
  13  -6 -13  154.36    4.88
  12  -6 -13  307.95    9.65
  11  -6 -13  173.98    7.48
  10  -6 -13  538.44   14.60
   9  -6 -13   -0.18    0.61
   8  -6 -13   96.36    2.89
   7  -6 -13  165.85    6.07
   6  -6 -13  205.81   10.59
   5  -6 -13  165.48    8.09
   2  -6 -13  317.06   14.49
   1  -6 -13  158.00    6.40
   0  -6 -13    5.09    0.90
  -1  -6 -13  115.26    3.32
  -2  -6 -13   45.16    1.99
  -3  -6 -13  714.36   17.78
  -4  -6 -13  404.79   10.08
  -5  -6 -13  823.99   19.76
  -6  -6 -13  652.25   18.21
  -7  -6 -13  139.25    8.02
  -8  -6 -13  158.29    4.88
  -9  -6 -13  839.85   23.70
 -10  -6 -13   16.40    1.23
 -11  -6 -13   27.75    2.02
 -12  -6 -13    7.12    1.19
 -13  -6 -13  652.69   14.02
 -14  -6 -13    5.53    1.12
 -15  -6 -13   54.27    2.82
 -16  -6 -13    7.59    1.66
 -17  -6 -13  288.48   10.08
 -18  -6 -13    3.54    1.84
 -19  -6 -13   32.23    2.17
 -20  -6 -13   17.13    1.23
 -21  -6 -13   22.00    1.34
 -22  -6 -13    2.60    1.08
 -23  -6 -13   22.44    2.06
 -24  -6 -13   31.07    2.02
 -25  -6 -13   11.31    1.26
  32  -6 -12    0.25    0.69
  31  -6 -12   -0.98    0.83
  30  -6 -12   -0.98    1.30
  29  -6 -12    0.33    0.87
  28  -6 -12    0.18    2.02
  27  -6 -12    0.61    1.01
  26  -6 -12    0.54    1.48
  25  -6 -12    1.01    1.23
  24  -6 -12   14.27    1.19
  23  -6 -12    0.14    0.61
  22  -6 -12   62.18    2.28
  21  -6 -12   89.35    5.42
  20  -6 -12   27.64    1.37
  19  -6 -12    3.76    0.90
  18  -6 -12    6.40    0.98
  17  -6 -12  170.18    7.48
  16  -6 -12   34.98    2.10
  15  -6 -12    2.20    1.08
  13  -6 -12    3.79    0.90
  12  -6 -12   25.73    1.52
  11  -6 -12   24.89    2.17
  10  -6 -12   11.89    0.94
   9  -6 -12    7.73    0.94
   8  -6 -12    5.09    1.52
   7  -6 -12   62.26    3.83
   6  -6 -12    5.38    0.98
   5  -6 -12  168.16    6.65
   4  -6 -12    0.58    0.69
   3  -6 -12   89.50    3.22
   2  -6 -12  320.67   11.02
   1  -6 -12   11.31    0.94
   0  -6 -12  139.36    8.27
  -1  -6 -12  269.44   11.31
  -2  -6 -12   88.02    3.22
  -4  -6 -12  249.02    7.91
  -6  -6 -12    0.51    0.72
  -7  -6 -12   12.25    0.98
  -8  -6 -12   13.37    1.05
  -9  -6 -12   93.08    2.64
 -10  -6 -12  226.44    6.36
 -11  -6 -12  249.17    8.82
 -12  -6 -12   24.10    2.60
 -13  -6 -12   90.91    2.89
 -14  -6 -12  112.33    5.38
 -15  -6 -12   -0.72    1.05
 -16  -6 -12  102.65    3.79
 -17  -6 -12    4.30    0.87
 -18  -6 -12   26.05    1.34
 -19  -6 -12    1.12    0.90
 -20  -6 -12   73.75    5.13
 -21  -6 -12    0.43    1.05
 -23  -6 -12    6.03    1.08
 -24  -6 -12    3.90    1.08
 -25  -6 -12   -0.29    1.16
 -26  -6 -12   25.18    2.67
  32  -6 -11    1.08    1.48
  31  -6 -11    0.22    0.61
  30  -6 -11    5.46    1.19
  29  -6 -11   11.38    1.01
  28  -6 -11   12.65    1.41
  27  -6 -11    1.70    0.83
  26  -6 -11   17.34    1.59
  25  -6 -11   14.74    1.12
  24  -6 -11   36.93    1.88
  23  -6 -11    8.92    0.94
  22  -6 -11   30.57    2.17
  21  -6 -11    2.60    0.76
  19  -6 -11    3.94    0.72
  18  -6 -11    5.17    0.94
  17  -6 -11    2.38    1.01
  16  -6 -11   -0.51    1.63
  15  -6 -11   10.59    0.94
  14  -6 -11  197.46    4.70
  13  -6 -11   86.46    3.54
  12  -6 -11   44.48    1.59
  11  -6 -11   43.32    2.20
  10  -6 -11  562.72   23.41
   9  -6 -11  275.65    9.54
   8  -6 -11    2.31    0.94
   7  -6 -11    8.92    1.01
   6  -6 -11  107.96    3.07
   5  -6 -11    3.11    1.16
   4  -6 -11  332.70   11.20
   3  -6 -11  359.69    9.39
   2  -6 -11  694.67   16.73
   1  -6 -11   20.81    1.23
   0  -6 -11  664.25   28.47
  -1  -6 -11  383.07   20.60
  -2  -6 -11  375.88    9.94
  -3  -6 -11   88.70    3.22
  -4  -6 -11  162.56    6.21
  -5  -6 -11 1208.40   28.07
  -6  -6 -11  258.56   16.51
  -7  -6 -11    2.10    0.79
  -8  -6 -11   90.08    3.65
  -9  -6 -11 1556.96   40.58
 -10  -6 -11   31.11    2.20
 -11  -6 -11   15.65    0.87
 -12  -6 -11  133.25    5.20
 -13  -6 -11  156.67    6.18
 -14  -6 -11    7.80    1.01
 -15  -6 -11  971.48   25.36
 -16  -6 -11    0.43    0.72
 -17  -6 -11  195.62    6.14
 -18  -6 -11   12.54    1.08
 -19  -6 -11   46.36    2.31
 -20  -6 -11   -0.40    1.05
 -21  -6 -11   27.64    1.45
 -22  -6 -11    0.98    0.83
 -23  -6 -11   68.94    3.14
 -24  -6 -11    0.65    0.87
 -25  -6 -11   -0.04    0.76
 -26  -6 -11    4.30    0.98
  33  -6 -10    0.94    1.63
  32  -6 -10    0.18    2.78
  31  -6 -10   -1.48    1.16
  30  -6 -10   -0.94    0.87
  29  -6 -10   -0.69    1.26
  28  -6 -10    1.12    0.87
  27  -6 -10    4.91    0.83
  26  -6 -10    6.14    0.72
  25  -6 -10    4.05    0.72
  24  -6 -10    7.08    1.52
  23  -6 -10   17.27    1.88
  22  -6 -10   16.80    1.26
  21  -6 -10    2.75    0.58
  20  -6 -10    7.01    1.19
  19  -6 -10    0.54    1.01
  18  -6 -10   13.04    0.90
  17  -6 -10   -1.01    0.79
  16  -6 -10    3.76    0.79
  15  -6 -10  165.12    5.96
  13  -6 -10    9.43    2.24
  12  -6 -10    1.81    0.69
  11  -6 -10    3.72    0.76
  10  -6 -10   35.05    1.55
   9  -6 -10   30.35    1.48
   8  -6 -10    2.96    0.76
   7  -6 -10  896.54   35.81
   6  -6 -10  265.21    8.45
   5  -6 -10  339.53   11.63
   4  -6 -10   66.77    2.28
   3  -6 -10  255.13    8.17
   2  -6 -10  195.91    7.01
   1  -6 -10  728.89   18.79
   0  -6 -10   70.10    2.78
  -1  -6 -10    4.34    0.65
  -2  -6 -10   23.16    1.19
  -3  -6 -10  339.31    9.14
  -4  -6 -10   25.44    1.41
  -5  -6 -10   62.22    2.96
  -6  -6 -10  767.44   33.86
  -7  -6 -10   23.23    1.45
  -8  -6 -10    3.25    1.08
  -9  -6 -10  150.02    4.99
 -10  -6 -10  291.33    8.31
 -11  -6 -10  295.85   16.77
 -12  -6 -10  199.56    6.32
 -13  -6 -10  198.22    6.72
 -14  -6 -10  103.23    3.72
 -15  -6 -10  309.61    8.27
 -16  -6 -10   44.62    2.20
 -17  -6 -10  321.14    9.43
 -18  -6 -10   50.62    1.91
 -19  -6 -10   19.48    1.48
 -20  -6 -10   33.89    1.84
 -21  -6 -10   23.27    2.82
 -22  -6 -10  268.68    8.09
 -23  -6 -10    1.08    0.79
 -24  -6 -10   15.43    1.26
 -25  -6 -10   21.25    3.18
 -26  -6 -10    6.65    1.12
 -27  -6 -10    3.76    0.83
 -28  -6 -10   -0.25    0.58
  31  -6  -9   -1.52    1.30
  30  -6  -9    1.08    0.87
  29  -6  -9    9.79    0.87
  28  -6  -9    0.04    0.76
  27  -6  -9    2.31    0.98
  26  -6  -9   16.26    1.41
  25  -6  -9   21.61    1.52
  24  -6  -9   -0.18    0.76
  23  -6  -9   41.23    2.13
  22  -6  -9   77.65    2.06
  21  -6  -9    4.48    1.19
  20  -6  -9    0.00    0.69
  19  -6  -9    2.67    0.72
  18  -6  -9   75.55    3.00
  17  -6  -9    2.28    0.79
  16  -6  -9   54.38    2.31
  15  -6  -9   34.83    1.70
  14  -6  -9  420.29   10.62
  13  -6  -9   31.80    1.30
  12  -6  -9   97.34    2.89
  11  -6  -9   41.33    2.75
  10  -6  -9 1220.10   32.84
   9  -6  -9  627.76   20.27
   8  -6  -9  678.48   14.38
   7  -6  -9   38.01    1.70
   6  -6  -9    5.09    0.90
   5  -6  -9  195.62    8.27
   4  -6  -9  171.84    4.95
   3  -6  -9  443.30   20.63
   2  -6  -9   62.07    2.53
   1  -6  -9   81.80    3.36
   0  -6  -9  376.89    9.43
  -1  -6  -9    4.84    0.47
  -2  -6  -9  263.33    6.40
  -3  -6  -9  449.81   11.53
  -4  -6  -9  625.95   15.36
  -5  -6  -9  891.55   22.04
  -6  -6  -9   40.32    2.96
  -7  -6  -9  629.45   14.74
  -8  -6  -9  546.17   23.74
  -9  -6  -9  265.35   15.54
 -10  -6  -9  248.44    7.55
 -11  -6  -9 2061.94   58.82
 -12  -6  -9  126.64    5.93
 -13  -6  -9  170.33    4.81
 -14  -6  -9  360.99   10.51
 -15  -6  -9  562.00   17.31
 -16  -6  -9  148.36    6.14
 -17  -6  -9   41.48    2.31
 -18  -6  -9   77.03    3.58
 -19  -6  -9  211.48    6.65
 -20  -6  -9    8.35    1.05
 -21  -6  -9   14.09    1.01
 -22  -6  -9   16.11    1.26
 -23  -6  -9  163.03    7.77
 -24  -6  -9   -0.51    0.69
 -25  -6  -9    3.97    1.12
 -26  -6  -9    8.89    1.08
 -27  -6  -9   70.82    2.82
 -28  -6  -9    0.40    1.16
 -29  -6  -9   -0.11    1.05
  32  -6  -8   -1.95    1.70
  31  -6  -8    3.54    0.83
  30  -6  -8    0.00    0.83
  29  -6  -8    0.11    0.83
  28  -6  -8   -0.69    0.90
  27  -6  -8   39.24    2.28
  26  -6  -8   23.20    1.59
  25  -6  -8    2.35    1.12
  24  -6  -8   48.34    4.12
  23  -6  -8   11.78    1.63
  22  -6  -8   15.75    1.70
  21  -6  -8   31.22    2.53
  20  -6  -8   15.18    1.59
  19  -6  -8   65.18    3.18
  18  -6  -8   39.28    1.41
  17  -6  -8    0.69    0.90
  16  -6  -8   27.64    2.24
  15  -6  -8  222.50    6.87
  14  -6  -8   14.42    1.73
  13  -6  -8   75.01    2.67
  12  -6  -8  276.59    9.86
  11  -6  -8  157.86    5.28
  10  -6  -8  140.55    4.88
   9  -6  -8    9.79    0.90
   8  -6  -8   13.77    0.87
   7  -6  -8  844.22   18.17
   6  -6  -8   31.47    1.19
   5  -6  -8  379.57   10.66
   4  -6  -8  684.41   15.21
   3  -6  -8    7.55    0.76
   2  -6  -8  710.46   13.48
   1  -6  -8  621.97   24.68
   0  -6  -8  218.24    9.97
  -1  -6  -8  741.07   22.76
  -2  -6  -8   12.18    1.01
  -3  -6  -8  421.26   11.60
  -4  -6  -8  299.35    8.24
  -5  -6  -8  439.69   15.21
  -6  -6  -8   25.11    1.45
  -7  -6  -8  250.03   15.25
  -8  -6  -8  338.23    9.65
  -9  -6  -8   10.44    1.41
 -10  -6  -8   20.45    1.23
 -11  -6  -8  213.86    8.71
 -12  -6  -8   19.98    1.26
 -13  -6  -8   19.15    1.37
 -14  -6  -8    6.25    0.90
 -15  -6  -8  210.65    7.19
 -16  -6  -8    7.73    1.08
 -17  -6  -8  775.32   18.82
 -18  -6  -8   98.82    3.69
 -19  -6  -8    1.08    0.65
 -20  -6  -8    0.47    0.76
 -21  -6  -8  128.95    4.12
 -22  -6  -8   30.17    1.26
 -23  -6  -8   19.69    1.26
 -24  -6  -8   80.72    3.36
 -25  -6  -8   10.12    0.87
 -26  -6  -8    1.26    0.94
 -27  -6  -8    1.12    1.08
 -28  -6  -8    2.24    0.94
 -29  -6  -8   13.87    1.48
  34  -6  -7    1.34    1.19
  33  -6  -7    6.11    0.72
  32  -6  -7    5.09    0.79
  31  -6  -7   17.99    1.30
  30  -6  -7    6.54    1.48
  29  -6  -7   46.28    2.42
  28  -6  -7    1.81    0.83
  27  -6  -7   46.68    1.66
  26  -6  -7   33.89    1.70
  25  -6  -7   31.07    1.81
  24  -6  -7    1.77    1.01
  23  -6  -7   41.91    1.84
  22  -6  -7    5.46    0.76
  21  -6  -7   13.98    1.48
  20  -6  -7   33.64    1.52
  19  -6  -7  243.71    6.87
  18  -6  -7   29.56    2.10
  17  -6  -7   -0.40    1.05
  16  -6  -7  359.01   10.48
  15  -6  -7   14.02    1.73
  14  -6  -7  151.79    6.21
  13  -6  -7  101.71    3.00
  12  -6  -7  904.09   23.38
  11  -6  -7   39.75    1.45
  10  -6  -7 1354.87   27.21
   8  -6  -7 1411.75   41.30
   7  -6  -7  398.03   14.31
   6  -6  -7    0.51    0.69
   5  -6  -7    6.43    0.76
   4  -6  -7 1942.34   42.67
   3  -6  -7   27.17    1.66
   2  -6  -7  354.09    7.77
   1  -6  -7  749.20   14.56
   0  -6  -7 1090.68   28.87
  -1  -6  -7  538.91   20.88
  -2  -6  -7    0.65    0.94
  -3  -6  -7   75.91    2.46
  -4  -6  -7  115.44    3.14
  -5  -6  -7  486.70   12.75
  -6  -6  -7   24.21    1.41
  -7  -6  -7  399.29   14.49
  -8  -6  -7  657.35   20.23
  -9  -6  -7   22.84    1.63
 -10  -6  -7   55.97    2.60
 -11  -6  -7 1367.88   36.60
 -12  -6  -7  103.48    4.23
 -13  -6  -7   97.92    3.94
 -14  -6  -7    4.12    0.79
 -15  -6  -7  476.62   16.11
 -16  -6  -7  353.51   10.51
 -17  -6  -7  491.03   17.09
 -18  -6  -7    2.49    0.65
 -19  -6  -7  311.24    9.47
 -20  -6  -7   22.58    1.30
 -21  -6  -7   32.88    1.55
 -22  -6  -7   32.66    1.70
 -23  -6  -7  131.95    5.42
 -24  -6  -7    0.54    0.79
 -25  -6  -7   38.30    1.88
 -26  -6  -7   28.80    1.88
 -27  -6  -7   91.49    3.58
 -28  -6  -7    0.65    0.72
 -29  -6  -7   31.94    1.48
 -30  -6  -7   13.22    1.01
  34  -6  -6   -0.76    1.05
  33  -6  -6   -1.08    0.83
  32  -6  -6    4.84    0.98
  31  -6  -6    5.71    0.65
  30  -6  -6    1.34    0.61
  28  -6  -6    0.25    0.83
  27  -6  -6   19.26    1.41
  26  -6  -6   22.22    1.63
  25  -6  -6   14.02    0.79
  24  -6  -6   62.87    2.13
  23  -6  -6   31.40    1.37
  22  -6  -6   14.06    1.26
  21  -6  -6   28.18    1.34
  20  -6  -6    0.51    0.51
  19  -6  -6   13.62    1.08
  18  -6  -6  116.60    3.54
  17  -6  -6   34.80    1.84
  16  -6  -6   16.69    1.12
  15  -6  -6  129.46    5.49
  14  -6  -6    9.29    0.72
  13  -6  -6   26.67    1.48
  12  -6  -6  434.20   14.60
  11  -6  -6    1.08    0.54
  10  -6  -6   58.57    4.55
   9  -6  -6  171.92    5.82
   7  -6  -6  101.13    5.13
   6  -6  -6  396.87   11.38
   5  -6  -6   37.87    1.52
   4  -6  -6  484.96   13.73
   3  -6  -6  679.35   13.84
   2  -6  -6 2144.93   44.70
   1  -6  -6 1650.14   34.18
   0  -6  -6  144.06    5.64
  -1  -6  -6  563.22   13.01
  -2  -6  -6  716.46   20.74
  -3  -6  -6    1.77    0.58
  -4  -6  -6   79.63    3.04
  -5  -6  -6  854.01   41.62
  -7  -6  -6    0.58    1.16
  -8  -6  -6   65.18    3.87
  -9  -6  -6  252.16    6.47
 -10  -6  -6  251.98    7.08
 -11  -6  -6   15.21    1.37
 -12  -6  -6  215.71   10.48
 -13  -6  -6  556.58   20.45
 -14  -6  -6  100.88    4.66
 -15  -6  -6   29.34    1.45
 -16  -6  -6   88.56    3.32
 -17  -6  -6  220.01    7.62
 -18  -6  -6   64.17    2.78
 -19  -6  -6  483.55   14.60
 -20  -6  -6    0.54    1.48
 -21  -6  -6   64.42    2.93
 -22  -6  -6   48.53    1.95
 -23  -6  -6   25.62    1.66
 -24  -6  -6    0.11    0.98
 -25  -6  -6   24.03    1.52
 -26  -6  -6    2.53    0.90
 -27  -6  -6    5.89    0.79
 -28  -6  -6    2.89    0.54
 -29  -6  -6   19.76    1.19
 -30  -6  -6    0.36    0.87
 -31  -6  -6   21.79    2.53
  34  -6  -5    1.30    1.23
  33  -6  -5    1.73    0.98
  32  -6  -5    3.79    0.72
  31  -6  -5   44.80    2.13
  30  -6  -5   -2.17    1.30
  29  -6  -5    8.74    1.23
  28  -6  -5    1.34    0.61
  27  -6  -5   31.87    1.19
  26  -6  -5    0.40    0.90
  25  -6  -5    1.41    0.72
  24  -6  -5   40.68    1.77
  23  -6  -5  239.88    5.96
  22  -6  -5  125.88    5.28
  21  -6  -5   36.38    1.55
  20  -6  -5   20.67    2.02
  19  -6  -5   89.97    2.75
  18  -6  -5   18.86    1.55
  17  -6  -5   -0.04    1.05
  16  -6  -5  383.14    9.43
  15  -6  -5  354.35    7.62
  14  -6  -5   66.92    2.60
  13  -6  -5  241.76    8.71
  12  -6  -5  662.91   14.53
  11  -6  -5  710.46   15.28
  10  -6  -5   97.41    3.87
   9  -6  -5   33.35    1.45
   8  -6  -5 1419.08   26.48
   7  -6  -5  147.74    3.97
   6  -6  -5    4.73    0.58
   5  -6  -5    3.11    0.69
   4  -6  -5 1097.80   46.57
   3  -6  -5   73.02    5.42
   2  -6  -5  449.52   13.04
   1  -6  -5   70.64    3.25
   0  -6  -5  835.01   23.77
  -1  -6  -5   93.98    5.89
  -2  -6  -5  206.17    9.47
  -3  -6  -5  430.37   11.96
  -4  -6  -5 2032.46   56.69
  -5  -6  -5  316.05   11.78
  -6  -6  -5  634.77   27.75
  -7  -6  -5  182.68    7.26
  -8  -6  -5    3.11    0.72
  -9  -6  -5    5.78    0.72
 -10  -6  -5  444.35   15.36
 -11  -6  -5  151.39    4.12
 -12  -6  -5   41.01    2.42
 -13  -6  -5    3.58    0.69
 -14  -6  -5   62.83    2.35
 -15  -6  -5  560.04   13.51
 -16  -6  -5    2.67    0.65
 -17  -6  -5  423.94   15.10
 -18  -6  -5  126.79    5.02
 -19  -6  -5   56.29    2.28
 -20  -6  -5   27.35    2.13
 -21  -6  -5   49.72    2.10
 -22  -6  -5   71.87    2.64
 -23  -6  -5   55.10    2.17
 -24  -6  -5    0.11    1.08
 -25  -6  -5  185.93    6.54
 -26  -6  -5    6.25    1.08
 -28  -6  -5    0.33    1.70
 -29  -6  -5   43.11    3.47
 -30  -6  -5    2.93    0.94
 -31  -6  -5    1.73    1.26
  34  -6  -4   -2.46    2.46
  33  -6  -4   -0.98    0.72
  32  -6  -4    5.67    2.06
  30  -6  -4   26.88    1.48
  29  -6  -4    6.47    0.98
  28  -6  -4    3.54    1.12
  27  -6  -4    2.46    1.16
  26  -6  -4    7.05    0.87
  25  -6  -4   13.69    1.01
  24  -6  -4   26.16    1.45
  22  -6  -4    0.40    0.76
  21  -6  -4    9.61    0.76
  20  -6  -4    0.00    0.83
  19  -6  -4    6.65    0.83
  18  -6  -4   76.02    2.57
  17  -6  -4   29.45    1.55
  16  -6  -4    0.22    0.65
  15  -6  -4    3.69    0.47
  14  -6  -4   11.60    0.83
  13  -6  -4   72.08    3.00
  12  -6  -4    5.53    1.05
  11  -6  -4  474.74   17.05
   9  -6  -4  167.40    5.24
   8  -6  -4  289.96    7.23
   7  -6  -4  573.05   17.92
   6  -6  -4  178.27    9.11
   5  -6  -4   51.99    1.70
   4  -6  -4 1605.02   43.72
   3  -6  -4   70.85    2.02
   2  -6  -4   22.76    1.55
   1  -6  -4   22.51    1.59
   0  -6  -4  254.01   10.12
  -1  -6  -4   64.78    2.93
  -2  -6  -4   36.02    2.06
  -3  -6  -4  234.39    9.68
  -4  -6  -4 1442.64   32.41
  -5  -6  -4  498.30   16.19
  -6  -6  -4  646.87   20.81
  -7  -6  -4   50.11    4.73
  -8  -6  -4  931.59   21.86
  -9  -6  -4   20.45    1.48
 -10  -6  -4   32.59    1.70
 -11  -6  -4    1.23    0.54
 -12  -6  -4  241.83    6.54
 -13  -6  -4  655.61   19.48
 -14  -6  -4  499.42   14.42
 -15  -6  -4   23.67    2.13
 -16  -6  -4   43.65    2.78
 -17  -6  -4   39.20    1.95
 -18  -6  -4   -0.18    0.51
 -19  -6  -4  283.17    6.36
 -20  -6  -4   39.93    1.41
 -21  -6  -4   27.17    1.16
 -22  -6  -4   16.55    1.48
 -23  -6  -4   13.51    1.19
 -24  -6  -4   69.23    3.94
 -25  -6  -4    7.66    1.37
 -26  -6  -4    6.14    1.26
 -27  -6  -4    9.65    1.26
 -28  -6  -4    1.77    1.30
 -29  -6  -4    0.11    0.65
 -30  -6  -4    1.01    0.87
 -31  -6  -4   12.54    1.08
 -32  -6  -4    0.29    0.94
  34  -6  -3   -1.26    1.30
  33  -6  -3    2.53    0.72
  32  -6  -3   -0.72    0.76
  31  -6  -3   20.41    1.59
  30  -6  -3    1.01    0.69
  29  -6  -3   12.79    0.98
  28  -6  -3    4.59    0.79
  27  -6  -3  119.52    5.13
  26  -6  -3   -0.25    0.90
  25  -6  -3    0.72    1.05
  24  -6  -3    2.71    0.65
  23  -6  -3   61.10    2.85
  22  -6  -3    0.76    1.16
  21  -6  -3   54.31    2.42
  20  -6  -3    3.36    0.65
  19  -6  -3  131.52    4.91
  18  -6  -3   70.46    3.07
  17  -6  -3  146.70    7.26
  16  -6  -3  677.40   23.23
  15  -6  -3  476.58   12.28
  14  -6  -3    1.73    0.72
  11  -6  -3   12.90    1.01
  10  -6  -3  671.76   30.60
   9  -6  -3  379.24   12.43
   8  -6  -3  877.32   26.77
   7  -6  -3   23.52    1.12
   6  -6  -3  726.32   21.10
   5  -6  -3  470.76   14.85
   4  -6  -3   43.58    1.37
   3  -6  -3    7.70    0.98
   2  -6  -3 1027.56   21.50
   1  -6  -3  324.57    6.83
   0  -6  -3  718.81   17.92
  -1  -6  -3   29.12    1.84
  -2  -6  -3  866.19   33.89
  -3  -6  -3  497.97   15.83
  -4  -6  -3    4.34    0.61
  -5  -6  -3  179.97    7.52
  -6  -6  -3 1635.19   38.95
  -7  -6  -3  831.68   19.01
  -8  -6  -3    3.25    0.54
  -9  -6  -3 1740.26   49.72
 -10  -6  -3 2058.29   52.39
 -11  -6  -3   51.13    4.16
 -12  -6  -3    3.72    0.54
 -13  -6  -3  874.21   26.59
 -14  -6  -3  230.70   12.61
 -15  -6  -3  103.23    5.71
 -16  -6  -3  487.46   11.78
 -17  -6  -3  437.16   14.63
 -18  -6  -3   63.63    2.93
 -19  -6  -3   15.57    1.05
 -20  -6  -3   34.36    1.59
 -21  -6  -3  388.31   10.23
 -22  -6  -3    2.93    1.88
 -23  -6  -3   33.35    1.19
 -24  -6  -3    2.28    1.12
 -25  -6  -3   79.63    3.40
 -26  -6  -3   13.01    1.01
 -27  -6  -3   10.23    0.98
 -28  -6  -3    5.82    1.08
 -29  -6  -3   57.16    2.85
 -30  -6  -3   -0.47    0.94
 -31  -6  -3    3.94    0.98
 -32  -6  -3    4.01    0.76
  34  -6  -2   -0.07    1.01
  32  -6  -2    0.11    0.76
  31  -6  -2    0.11    0.98
  30  -6  -2   17.38    1.23
  29  -6  -2    3.65    0.79
  28  -6  -2   15.61    1.12
  27  -6  -2   26.09    1.91
  26  -6  -2    2.57    0.83
  25  -6  -2   28.91    1.70
  23  -6  -2  185.18    4.77
  22  -6  -2   30.17    1.99
  21  -6  -2    7.01    0.87
  20  -6  -2   21.86    1.63
  19  -6  -2   64.75    3.76
  18  -6  -2    1.70    0.54
  17  -6  -2    1.41    0.69
  16  -6  -2   30.93    1.52
  15  -6  -2  733.37   17.34
  14  -6  -2  105.47    5.85
  13  -6  -2   85.70    2.82
  12  -6  -2  121.19    5.85
  11  -6  -2   63.59    2.53
  10  -6  -2  475.32   14.49
   9  -6  -2  653.48   26.30
   8  -6  -2   43.68    2.31
   7  -6  -2  219.00    5.53
   6  -6  -2 1294.53   31.04
   5  -6  -2  136.65    4.34
   4  -6  -2  884.15   25.18
   3  -6  -2   23.41    2.35
   2  -6  -2   17.63    0.98
   1  -6  -2  907.60   35.34
   0  -6  -2  338.30    9.76
  -2  -6  -2    1.91    0.72
  -3  -6  -2  151.03    5.35
  -4  -6  -2   50.84    2.89
  -6  -6  -2    3.83    0.65
  -7  -6  -2 2686.15   68.54
  -8  -6  -2 1044.39   25.15
  -9  -6  -2   85.24    5.20
 -10  -6  -2  115.12    4.52
 -11  -6  -2    0.14    1.12
 -12  -6  -2   75.30    2.78
 -13  -6  -2  242.23    7.44
 -14  -6  -2  720.54   20.16
 -15  -6  -2   60.85    3.25
 -16  -6  -2  209.28    6.40
 -17  -6  -2   70.49    3.25
 -18  -6  -2    9.18    1.48
 -19  -6  -2   22.04    1.81
 -20  -6  -2   35.45    2.85
 -21  -6  -2   56.44    2.46
 -22  -6  -2    3.36    0.83
 -23  -6  -2    8.24    1.99
 -24  -6  -2   17.60    1.16
 -25  -6  -2    2.60    0.61
 -26  -6  -2   38.30    2.13
 -27  -6  -2    3.65    1.12
 -28  -6  -2    1.95    0.76
 -29  -6  -2   28.22    1.84
 -30  -6  -2    1.08    1.48
 -31  -6  -2    2.31    0.58
 -32  -6  -2    4.08    1.30
 -33  -6  -2    4.88    0.76
  34  -6  -1    0.25    1.12
  33  -6  -1    4.44    0.90
  32  -6  -1    3.32    0.98
  31  -6  -1   34.11    2.38
  30  -6  -1    0.58    0.87
  29  -6  -1   -0.43    0.61
  28  -6  -1    5.85    0.94
  27  -6  -1   68.43    2.75
  26  -6  -1    5.56    1.16
  25  -6  -1   63.99    4.05
  24  -6  -1    5.42    0.76
  23  -6  -1   59.40    2.17
  22  -6  -1   32.55    1.55
  21  -6  -1   37.32    2.06
  20  -6  -1   28.51    3.11
  19  -6  -1   80.47    5.60
  18  -6  -1  273.41    8.82
  17  -6  -1  277.71    8.60
  16  -6  -1  187.31    5.74
  15  -6  -1  110.24    3.43
  14  -6  -1  563.26   12.36
  13  -6  -1 1202.07   38.88
  12  -6  -1    6.47    0.83
  11  -6  -1  273.41    7.52
  10  -6  -1 1934.14   48.24
   9  -6  -1  255.24    9.50
   8  -6  -1 1141.01   49.86
   7  -6  -1  142.65    4.52
   6  -6  -1 2169.94   96.07
   5  -6  -1  828.18   25.11
   4  -6  -1   76.24    3.50
   3  -6  -1   92.53    2.67
   2  -6  -1 4489.82   92.28
   1  -6  -1  187.60    7.48
   0  -6  -1   20.52    1.41
  -1  -6  -1  555.13   11.27
  -2  -6  -1 3111.68  107.78
  -3  -6  -1  322.80   12.97
  -4  -6  -1    1.12    0.33
  -5  -6  -1 1476.28   28.80
  -7  -6  -1    4.62    0.61
  -8  -6  -1  321.10    8.02
  -9  -6  -1  492.01   13.30
 -10  -6  -1 1360.29   34.65
 -11  -6  -1  153.56    7.05
 -12  -6  -1   12.00    0.65
 -13  -6  -1  782.69   20.45
 -14  -6  -1 1127.50   41.08
 -15  -6  -1   91.88    3.76
 -16  -6  -1  222.57    9.07
 -17  -6  -1 1020.62   20.70
 -18  -6  -1  347.88   13.77
 -20  -6  -1  258.27    8.67
 -21  -6  -1   37.58    1.81
 -22  -6  -1   41.33    2.82
 -23  -6  -1   99.94    3.61
 -24  -6  -1    7.59    0.98
 -25  -6  -1  152.26    7.19
 -26  -6  -1    8.49    0.94
 -27  -6  -1   26.99    1.23
 -28  -6  -1    1.84    0.87
 -29  -6  -1   33.57    1.52
 -30  -6  -1    5.24    1.01
 -31  -6  -1    1.34    1.26
 -33  -6  -1    1.12    0.87
  33  -6   0    2.60    1.41
  32  -6   0   11.49    1.01
  31  -6   0    2.31    0.76
  30  -6   0    2.06    0.98
  29  -6   0   10.88    1.05
  28  -6   0   12.47    1.05
  27  -6   0    0.25    0.83
  26  -6   0   33.57    1.73
  25  -6   0   16.66    1.70
  24  -6   0   33.42    2.06
  23  -6   0   50.08    4.26
  22  -6   0   20.63    0.90
  21  -6   0    0.47    0.61
  20  -6   0    2.38    0.98
  19  -6   0   18.75    1.55
  18  -6   0    7.44    1.34
  17  -6   0   43.14    1.73
  16  -6   0   16.40    0.76
  15  -6   0  539.16   16.04
  14  -6   0  310.55    7.88
  13  -6   0  194.53    6.21
  12  -6   0   91.38    3.65
  11  -6   0   37.22    1.77
  10  -6   0 1100.36   35.34
   9  -6   0 2011.03   38.34
   8  -6   0    5.82    0.51
   7  -6   0  455.84   10.77
   6  -6   0  261.88    6.54
   5  -6   0   59.51    3.29
   4  -6   0   82.96    3.32
   2  -6   0  389.07   16.77
   1  -6   0    5.85    0.54
   0  -6   0  138.71    5.24
  -1  -6   0    4.77    0.87
  -3  -6   0  103.95    4.19
  -4  -6   0   76.89    2.67
  -5  -6   0   50.91    1.81
  -6  -6   0  254.44    8.71
  -7  -6   0  440.63   10.23
  -8  -6   0    3.79    0.58
  -9  -6   0 2160.87   59.40
 -10  -6   0 1115.21   31.22
 -11  -6   0   37.97    3.76
 -12  -6   0   71.69    4.48
 -13  -6   0  185.10    5.89
 -14  -6   0  284.57   11.96
 -15  -6   0  512.75   13.04
 -16  -6   0   17.09    0.83
 -17  -6   0   45.49    1.95
 -19  -6   0   17.96    2.42
 -20  -6   0    1.16    0.79
 -21  -6   0   -0.25    0.65
 -23  -6   0   46.18    2.28
 -24  -6   0   28.11    1.84
 -25  -6   0   12.43    1.59
 -26  -6   0   26.12    3.43
 -27  -6   0    0.58    1.05
 -28  -6   0   12.57    1.45
 -29  -6   0   14.74    1.19
 -30  -6   0    2.24    0.72
 -31  -6   0    2.24    0.94
 -32  -6   0    7.08    1.08
 -33  -6   0    4.44    1.52
  33  -6   1    3.47    1.37
  32  -6   1    2.31    0.87
  31  -6   1    0.98    0.83
  30  -6   1    4.37    1.55
  29  -6   1   33.75    1.45
  28  -6   1    3.29    1.84
  27  -6   1   31.00    1.48
  26  -6   1    9.18    1.01
  25  -6   1  157.35    4.77
  24  -6   1   10.26    1.19
  23  -6   1   91.88    5.49
  22  -6   1   42.27    1.88
  21  -6   1   38.91    2.35
  20  -6   1  279.44   12.28
  19  -6   1   -0.04    0.98
  18  -6   1  387.08   13.40
  17  -6   1 1211.94   30.28
  16  -6   1  256.97    8.42
  15  -6   1   99.98    3.79
  14  -6   1 1218.15   40.43
  13  -6   1  867.89   21.93
  12  -6   1   13.84    0.98
  11  -6   1  155.37    4.23
  10  -6   1 1598.73   61.24
   9  -6   1  541.76   31.58
   8  -6   1  364.79   11.67
   7  -6   1    7.26    1.34
   6  -6   1  833.02   20.78
   5  -6   1 1753.19   64.21
   4  -6   1   -0.54    1.01
   2  -6   1 3064.35   79.38
   1  -6   1  553.36   17.09
   0  -6   1   20.31    1.26
  -1  -6   1  203.06    4.70
  -2  -6   1 4401.73  110.60
  -3  -6   1   96.98    3.36
  -4  -6   1   68.72    3.18
  -5  -6   1  868.57   23.81
  -6  -6   1 2099.34   57.88
  -7  -6   1  144.42    5.78
  -8  -6   1 1070.52   46.47
  -9  -6   1  257.51    9.57
 -10  -6   1 1617.73   37.25
 -11  -6   1  269.72   12.07
 -12  -6   1    3.07    1.05
 -13  -6   1  970.54   22.80
 -14  -6   1  534.79   25.40
 -15  -6   1  103.88    3.18
 -16  -6   1  164.58    5.78
 -17  -6   1  260.66    7.62
 -18  -6   1  247.47    8.35
 -19  -6   1   77.50    4.16
 -20  -6   1   27.89    1.48
 -21  -6   1   31.25    2.57
 -22  -6   1   22.15    2.02
 -23  -6   1   57.88    2.20
 -24  -6   1    6.58    1.16
 -25  -6   1   58.24    2.42
 -26  -6   1    1.77    2.13
 -27  -6   1   60.20    2.89
 -28  -6   1    2.31    1.16
 -29  -6   1    1.26    0.83
 -30  -6   1   -0.07    0.90
 -31  -6   1   27.06    1.45
 -32  -6   1    5.38    1.84
 -33  -6   1    5.06    0.87
 -34  -6   1    0.51    1.05
  33  -6   2    9.76    1.55
  32  -6   2    5.38    1.34
  31  -6   2    3.94    0.94
  30  -6   2   -0.43    0.69
  29  -6   2   34.94    2.02
  28  -6   2    1.84    0.90
  27  -6   2    3.11    0.54
  26  -6   2   36.67    2.06
  25  -6   2    1.73    0.90
  24  -6   2   20.09    1.91
  23  -6   2   12.97    0.79
  22  -6   2    6.32    1.88
  21  -6   2   68.04    3.40
  20  -6   2   38.88    2.10
  19  -6   2   26.81    1.77
  18  -6   2   13.51    1.30
  17  -6   2   78.70    3.47
  16  -6   2  223.33    6.79
  15  -6   2   60.81    3.22
  14  -6   2  845.34   24.46
  13  -6   2  248.33    8.89
  12  -6   2   89.68    3.40
  11  -6   2    0.69    0.61
  10  -6   2  128.70    4.62
   9  -6   2   87.76    2.85
   8  -6   2 1207.82   32.88
   7  -6   2 2945.94   64.97
   6  -6   2    4.26    0.54
   5  -6   2   21.03    1.73
   3  -6   2  162.45    4.81
   2  -6   2    2.89    0.94
   1  -6   2  425.09   22.37
  -1  -6   2  913.23   36.53
  -3  -6   2   28.98    1.26
  -5  -6   2  132.17    4.59
  -6  -6   2 1190.08   34.51
  -7  -6   2  232.04    5.93
  -8  -6   2   47.62    2.31
  -9  -6   2  636.10   15.36
 -10  -6   2  450.93   20.78
 -11  -6   2   57.45    3.32
 -12  -6   2  119.27    5.64
 -13  -6   2   82.24    2.85
 -14  -6   2  102.11    6.25
 -15  -6   2  740.92   17.67
 -16  -6   2   24.93    1.84
 -17  -6   2    1.73    0.47
 -18  -6   2    2.53    0.90
 -19  -6   2   58.14    3.00
 -20  -6   2   19.80    2.06
 -21  -6   2    5.89    1.05
 -22  -6   2   28.62    2.71
 -23  -6   2  206.35    8.20
 -24  -6   2   43.97    1.73
 -25  -6   2   25.40    1.26
 -26  -6   2    2.20    0.87
 -27  -6   2   21.79    1.19
 -28  -6   2   14.13    0.98
 -29  -6   2    4.77    0.94
 -30  -6   2   14.67    1.08
 -31  -6   2   -0.40    1.16
 -32  -6   2    0.14    0.79
 -33  -6   2    4.01    0.98
  32  -6   3    2.13    0.98
  31  -6   3    2.75    1.19
  30  -6   3    0.29    0.69
  29  -6   3   64.93    2.60
  28  -6   3    6.61    1.08
  27  -6   3    9.29    0.94
  26  -6   3   16.48    2.71
  25  -6   3   65.72    2.93
  24  -6   3    0.14    0.72
  23  -6   3   34.76    2.42
  22  -6   3    2.06    0.79
  21  -6   3  477.99   18.57
  20  -6   3   36.60    4.23
  19  -6   3   11.16    1.48
  18  -6   3   71.22    4.81
  17  -6   3  484.93   14.27
  16  -6   3  628.08   20.49
  15  -6   3  130.62    7.30
  14  -6   3  238.54    7.15
  13  -6   3  957.21   26.74
  12  -6   3    6.21    1.01
  11  -6   3   50.77    2.85
  10  -6   3 2642.72  107.82
   9  -6   3 2185.69   59.51
   8  -6   3    3.40    0.54
   6  -6   3 1740.58   43.50
   5  -6   3  184.74    9.68
   4  -6   3    4.81    0.65
   3  -6   3  489.41   18.07
   2  -6   3  971.05   25.58
   1  -6   3   31.87    1.37
   0  -6   3  766.68   21.50
  -1  -6   3  312.50   10.30
  -2  -6   3 1039.84   20.63
  -3  -6   3    8.31    0.76
  -4  -6   3   47.77    1.63
  -5  -6   3  481.96   21.82
  -6  -6   3  753.64   21.06
  -7  -6   3   23.20    1.41
  -8  -6   3  869.91   25.73
  -9  -6   3  361.54    8.20
 -10  -6   3  618.69   18.97
 -12  -6   3  578.87   25.11
 -14  -6   3    2.17    0.61
 -15  -6   3  487.35   13.12
 -18  -6   3   54.02    3.50
 -19  -6   3  120.75    4.12
 -20  -6   3    1.95    0.83
 -21  -6   3   48.49    2.78
 -22  -6   3    0.79    0.83
 -23  -6   3   66.81    3.25
 -24  -6   3    4.37    2.06
 -25  -6   3    0.33    0.79
 -26  -6   3    2.28    0.87
 -27  -6   3   96.76    5.24
 -28  -6   3    3.58    1.23
 -29  -6   3   11.89    0.98
 -31  -6   3   23.96    1.34
 -32  -6   3    0.25    1.08
 -33  -6   3    0.00    0.98
  32  -6   4    1.08    1.01
  31  -6   4   11.63    0.98
  30  -6   4    1.84    0.72
  29  -6   4   -0.43    0.90
  28  -6   4    1.37    0.79
  27  -6   4    9.65    1.73
  26  -6   4    5.28    1.08
  25  -6   4   10.04    1.08
  24  -6   4   72.52    3.25
  23  -6   4   13.95    1.12
  22  -6   4   18.21    1.34
  21  -6   4   34.00    1.66
  20  -6   4   48.06    3.83
  19  -6   4  393.40   10.66
  18  -6   4    0.14    0.54
  17  -6   4   51.74    3.25
  16  -6   4   53.94    2.17
  15  -6   4   29.05    2.13
  14  -6   4  519.65   14.02
  13  -6   4  742.19   22.40
  12  -6   4  274.71    9.65
  11  -6   4    0.83    0.51
  10  -6   4   31.00    1.88
   9  -6   4   22.11    1.12
   8  -6   4  944.16   22.76
   7  -6   4   55.64    2.20
   6  -6   4  717.76   15.90
   5  -6   4  527.63   16.95
   4  -6   4 1432.52   32.34
   3  -6   4  264.23    8.53
   2  -6   4   39.28    1.48
   1  -6   4   58.97    1.55
   0  -6   4  278.76    6.94
  -1  -6   4   22.55    1.48
  -2  -6   4   24.50    1.59
  -3  -6   4   81.95    3.11
  -4  -6   4 1518.15   40.40
  -5  -6   4   55.46    1.88
  -6  -6   4  161.26    4.16
  -7  -6   4  504.80   12.43
  -8  -6   4  286.71    7.01
  -9  -6   4  155.66    5.09
 -10  -6   4  666.89   14.06
 -11  -6   4  464.76   16.04
 -12  -6   4    5.78    0.54
 -13  -6   4   60.99    2.64
 -14  -6   4   12.07    1.12
 -15  -6   4    3.54    0.98
 -16  -6   4    1.59    0.76
 -17  -6   4   39.46    3.50
 -18  -6   4   69.48    4.08
 -19  -6   4    7.08    0.65
 -20  -6   4    0.11    0.83
 -21  -6   4   10.01    1.88
 -22  -6   4    0.58    0.61
 -23  -6   4   19.15    1.19
 -24  -6   4   26.20    1.55
 -25  -6   4   10.70    1.34
 -26  -6   4    1.48    2.64
 -27  -6   4    1.16    0.83
 -28  -6   4    4.05    0.79
 -30  -6   4   22.58    1.34
 -31  -6   4    0.00    1.12
 -32  -6   4    9.65    0.79
 -33  -6   4   -0.61    0.87
 -34  -6   4    3.50    1.59
  31  -6   5   -1.05    0.83
  30  -6   5    4.16    0.83
  29  -6   5   41.33    2.02
  28  -6   5    0.18    0.79
  27  -6   5   21.25    1.52
  25  -6   5  184.38    7.12
  24  -6   5    0.58    0.69
  23  -6   5   45.85    3.07
  22  -6   5   75.55    3.04
  21  -6   5   58.75    3.58
  20  -6   5   30.71    2.46
  19  -6   5   61.42    2.53
  18  -6   5  150.34    5.93
  17  -6   5  498.08   13.55
  16  -6   5    1.66    0.61
  15  -6   5  623.38   18.39
  14  -6   5   80.32    3.69
  13  -6   5    3.04    0.69
  12  -6   5   45.89    2.93
  11  -6   5  156.85    6.79
  10  -6   5  490.09   26.16
   9  -6   5    5.96    0.69
   8  -6   5    4.30    0.79
   7  -6   5  219.10    7.12
   6  -6   5  645.57   15.39
   5  -6   5  338.12   13.26
   4  -6   5 2236.35   85.38
   3  -6   5  455.01   16.01
   2  -6   5  239.19    8.82
   1  -6   5  106.44    4.37
   0  -6   5  869.51   19.98
  -1  -6   5   82.06    4.19
  -2  -6   5  466.03   14.60
  -3  -6   5   86.25    3.00
  -4  -6   5 1083.27   28.62
  -5  -6   5    2.85    0.43
  -6  -6   5    5.38    1.08
  -7  -6   5  146.33    5.42
  -8  -6   5 1488.09   28.69
  -9  -6   5   26.38    1.16
 -10  -6   5   95.86    4.30
 -11  -6   5  723.54   20.99
 -12  -6   5  638.13   14.13
 -13  -6   5  242.34    8.85
 -14  -6   5   62.11    3.18
 -15  -6   5  372.38   13.37
 -16  -6   5  402.65   11.02
 -17  -6   5    0.33    0.72
 -19  -6   5  106.34    6.61
 -20  -6   5   19.48    1.30
 -22  -6   5  110.85    4.37
 -23  -6   5  277.57   11.02
 -24  -6   5   34.90    2.13
 -25  -6   5    1.63    0.90
 -26  -6   5    0.04    0.72
 -27  -6   5   25.65    1.45
 -28  -6   5    2.64    0.83
 -29  -6   5    8.96    1.12
 -30  -6   5    0.83    0.90
 -32  -6   5    1.66    0.79
 -33  -6   5    3.18    1.45
  31  -6   6   24.03    1.70
  30  -6   6    0.40    0.76
  29  -6   6   21.86    1.45
  28  -6   6    4.99    1.12
  27  -6   6    4.91    1.16
  26  -6   6    2.53    1.12
  25  -6   6   26.38    1.73
  24  -6   6    2.06    0.87
  23  -6   6   23.45    1.52
  22  -6   6   51.89    3.14
  21  -6   6   71.58    5.31
  20  -6   6    1.16    1.63
  19  -6   6  611.39   22.04
  18  -6   6   83.79    6.94
  17  -6   6  261.41   10.66
  15  -6   6   28.65    1.81
  14  -6   6  119.24    4.23
  13  -6   6  593.07   20.38
  12  -6   6  238.15    6.90
  11  -6   6   17.96    1.91
  10  -6   6  291.11   15.86
   9  -6   6  246.60    8.06
   8  -6   6   62.62    3.50
   7  -6   6    1.77    0.40
   6  -6   6  663.49   17.63
   5  -6   6  820.74   25.15
   4  -6   6   90.80    3.79
   3  -6   6    0.51    0.47
   2  -6   6  683.40   20.34
   1  -6   6  556.11   16.19
   0  -6   6  136.69    5.35
  -1  -6   6 1684.43   43.86
  -2  -6   6 2377.84   83.68
  -3  -6   6  647.48   24.61
  -4  -6   6  456.71   13.69
  -5  -6   6   33.67    2.13
  -6  -6   6  417.11   13.30
  -7  -6   6   88.45    3.22
  -8  -6   6  151.72    6.47
  -9  -6   6  168.66    5.67
 -10  -6   6   59.36    2.17
 -11  -6   6    0.90    0.43
 -12  -6   6  411.22   10.88
 -13  -6   6   26.88    1.08
 -14  -6   6    7.77    0.76
 -15  -6   6  151.14    5.02
 -16  -6   6   19.80    1.77
 -17  -6   6   30.03    2.06
 -18  -6   6  124.26    4.12
 -19  -6   6   14.20    1.16
 -20  -6   6    3.83    1.77
 -21  -6   6   28.65    2.10
 -22  -6   6   10.33    1.16
 -23  -6   6   24.68    1.37
 -24  -6   6   65.18    4.99
 -25  -6   6   10.41    1.19
 -26  -6   6   19.22    1.34
 -27  -6   6   15.14    1.12
 -29  -6   6    1.48    0.72
 -30  -6   6    1.30    0.83
 -31  -6   6    2.78    0.98
 -32  -6   6    4.12    0.90
 -33  -6   6   -0.40    0.72
 -34  -6   6   -1.16    1.45
  30  -6   7   11.74    1.08
  29  -6   7   25.98    2.06
  28  -6   7    2.78    1.16
  27  -6   7   79.38    6.00
  26  -6   7   29.38    1.77
  25  -6   7   35.81    1.99
  24  -6   7    1.91    0.98
  23  -6   7  127.22    3.50
  22  -6   7   34.87    1.95
  21  -6   7   40.00    2.57
  20  -6   7   21.90    1.41
  19  -6   7  330.14    8.45
  18  -6   7    1.55    1.23
  17  -6   7  516.14   15.57
  16  -6   7  336.60   10.44
  15  -6   7  411.90   18.57
  14  -6   7    7.33    0.90
  13  -6   7  110.20    5.13
  12  -6   7  109.73    4.41
  11  -6   7 1312.20   31.87
  10  -6   7   51.99    2.13
   9  -6   7   28.94    1.77
   8  -6   7  743.88   16.11
   7  -6   7  372.23   17.27
   6  -6   7   29.74    1.48
   5  -6   7  547.87   17.81
   4  -6   7  136.07    8.31
   3  -6   7   92.14    6.36
   0  -6   7 1113.69   41.95
  -1  -6   7  783.48   31.07
  -3  -6   7   23.88    2.17
  -8  -6   7 1247.74   50.48
  -9  -6   7  437.23   11.13
 -10  -6   7 1160.92   34.00
 -11  -6   7   36.06    2.20
 -13  -6   7   94.56    4.55
 -14  -6   7  128.09    5.82
 -15  -6   7   10.77    0.76
 -16  -6   7  363.92    9.50
 -18  -6   7   23.81    1.34
 -19  -6   7  225.14    8.96
 -20  -6   7   34.76    2.10
 -21  -6   7   13.30    1.01
 -22  -6   7    6.54    0.79
 -23  -6   7   36.57    2.17
 -24  -6   7    0.33    0.76
 -25  -6   7   28.51    1.48
 -26  -6   7   25.44    1.45
 -27  -6   7   39.20    1.91
 -28  -6   7    1.95    0.87
 -29  -6   7   34.07    2.02
 -30  -6   7    2.46    0.94
 -31  -6   7    8.92    1.37
 -32  -6   7    3.22    0.87
 -33  -6   7    3.87    1.37
 -34  -6   7   -0.51    0.61
  29  -6   8    6.50    1.08
  28  -6   8    4.48    1.19
  27  -6   8   -2.46    1.88
  26  -6   8    1.05    0.90
  25  -6   8    6.50    0.98
  24  -6   8   77.68    3.07
  23  -6   8   13.51    1.63
  22  -6   8   25.98    2.06
  21  -6   8  107.96    7.59
  20  -6   8    0.22    0.83
  19  -6   8    1.52    0.65
  18  -6   8   91.16    7.84
  17  -6   8  800.25   17.42
  16  -6   8    7.44    1.81
  15  -6   8  265.46   13.91
  14  -6   8    7.23    0.90
  13  -6   8   24.82    1.73
  12  -6   8   17.63    2.64
  11  -6   8  217.98    6.14
  10  -6   8   16.84    1.45
   9  -6   8   12.10    1.05
   8  -6   8  343.69   12.86
   7  -6   8  242.26    7.08
   6  -6   8   33.13    1.95
   5  -6   8  444.53   11.38
   4  -6   8  339.71   17.05
   2  -6   8   11.96    1.08
  -1  -6   8  662.15   16.30
  -3  -6   8    8.02    1.23
  -5  -6   8  397.20   12.28
  -7  -6   8  874.54   24.89
  -9  -6   8    7.91    1.08
 -10  -6   8  113.49    4.01
 -11  -6   8  137.95    5.60
 -12  -6   8  256.83    6.83
 -13  -6   8   70.35    3.07
 -14  -6   8   12.47    1.23
 -15  -6   8  229.76    9.18
 -16  -6   8   20.70    1.88
 -17  -6   8    0.00    0.90
 -18  -6   8   41.62    2.10
 -19  -6   8   64.68    2.53
 -20  -6   8   14.45    1.70
 -21  -6   8   26.63    1.91
 -22  -6   8   18.43    1.12
 -23  -6   8   12.68    1.08
 -24  -6   8   39.93    3.25
 -26  -6   8   16.91    1.19
 -27  -6   8   29.27    2.96
 -29  -6   8   -0.04    1.12
 -30  -6   8    0.04    1.16
 -31  -6   8    2.10    1.34
 -32  -6   8   -1.45    1.95
 -33  -6   8    0.79    1.01
 -34  -6   8   -1.08    1.45
  29  -6   9   -0.43    1.08
  28  -6   9    0.72    0.65
  27  -6   9   64.17    2.89
  26  -6   9    6.43    1.05
  25  -6   9    6.36    1.12
  24  -6   9   -0.07    0.98
  23  -6   9  145.58    6.14
  22  -6   9   13.98    1.77
  21  -6   9   10.44    1.45
  20  -6   9    5.89    1.05
  19  -6   9  226.62    8.49
  18  -6   9   56.62    2.93
  17  -6   9   46.36    2.10
  16  -6   9  151.57    6.07
  15  -6   9  568.39   18.46
  14  -6   9  324.10    8.31
  13  -6   9  153.52    5.09
  12  -6   9  121.76    4.34
  11  -6   9 1982.02   57.85
  10  -6   9  237.89    9.36
   8  -6   9  585.01   28.98
   7  -6   9  612.51   15.39
   4  -6   9  589.78   23.70
  -6  -6   9    3.54    0.54
  -9  -6   9  577.89   21.90
 -10  -6   9 1052.34   42.92
 -11  -6   9   30.21    1.59
 -13  -6   9   29.56    1.95
 -14  -6   9  358.07    9.76
 -15  -6   9   28.47    1.55
 -16  -6   9   44.91    2.75
 -17  -6   9   -0.69    0.98
 -18  -6   9   71.14    2.75
 -19  -6   9    1.59    0.61
 -20  -6   9    0.79    0.58
 -21  -6   9    2.85    1.12
 -22  -6   9   70.24    2.67
 -23  -6   9   33.06    1.77
 -24  -6   9    0.54    1.30
 -25  -6   9   24.89    1.95
 -26  -6   9    9.21    1.55
 -27  -6   9    3.40    1.59
 -28  -6   9   -1.63    1.16
 -29  -6   9    8.82    1.41
 -30  -6   9   -1.70    0.87
 -31  -6   9   -0.29    0.87
 -32  -6   9    2.53    1.77
 -33  -6   9    8.09    1.19
  28  -6  10    0.83    0.79
  27  -6  10    0.90    1.30
  25  -6  10   18.21    1.66
  24  -6  10   12.00    1.12
  23  -6  10    0.43    0.79
  22  -6  10  215.09    7.01
  21  -6  10   14.13    1.16
  20  -6  10   26.88    1.59
  19  -6  10   15.46    1.12
  18  -6  10   44.19    3.54
  17  -6  10  294.19    8.67
  16  -6  10   42.78    2.35
  15  -6  10  258.16    6.65
  14  -6  10   92.21    3.11
  13  -6  10  180.66    5.85
  12  -6  10  190.67    5.53
  11  -6  10  230.70    8.96
  10  -6  10  272.54    9.97
   9  -6  10  134.99    5.35
   7  -6  10   20.16    1.16
   5  -6  10   52.36    3.32
   4  -6  10   21.43    1.77
   3  -6  10  285.04   12.57
  -8  -6  10    2.28    0.54
  -9  -6  10   27.06    1.30
 -10  -6  10   32.23    2.57
 -11  -6  10    2.46    0.69
 -12  -6  10    1.81    0.54
 -13  -6  10    5.74    0.94
 -14  -6  10    5.35    0.76
 -15  -6  10  140.73    9.25
 -16  -6  10    1.05    0.54
 -17  -6  10    0.87    0.69
 -18  -6  10   13.19    0.94
 -19  -6  10    0.87    0.79
 -20  -6  10    7.88    1.01
 -21  -6  10    1.84    1.08
 -22  -6  10   16.58    1.01
 -23  -6  10    8.24    1.08
 -24  -6  10    8.56    1.77
 -27  -6  10    3.69    2.49
 -28  -6  10    1.59    2.28
 -29  -6  10    0.76    1.19
 -30  -6  10    0.61    0.90
 -31  -6  10   -0.51    0.76
 -33  -6  10    0.07    1.88
  27  -6  11   10.80    1.19
  26  -6  11    2.78    1.23
  24  -6  11    0.07    1.16
  23  -6  11   47.80    1.88
  22  -6  11    1.23    0.98
  21  -6  11   16.95    1.59
  20  -6  11    0.72    0.90
  19  -6  11   24.93    1.48
  18  -6  11    9.18    1.19
  17  -6  11  143.77    4.55
  16  -6  11   -0.58    0.98
  14  -6  11    5.24    0.79
  13  -6  11  129.14    5.53
  12  -6  11  121.22    5.71
  11  -6  11   11.63    1.08
  10  -6  11   24.32    1.77
   9  -6  11 1319.61   47.73
   6  -6  11  216.83   10.41
   5  -6  11  976.90   35.19
  -8  -6  11    2.93    0.54
 -11  -6  11   39.53    2.20
 -12  -6  11   41.80    1.84
 -13  -6  11   68.58    2.78
 -14  -6  11  150.38    9.43
 -15  -6  11   11.35    1.52
 -16  -6  11    1.95    1.55
 -17  -6  11    2.28    0.65
 -18  -6  11    3.90    0.76
 -19  -6  11    4.19    1.05
 -20  -6  11   43.61    2.67
 -21  -6  11    1.26    0.65
 -22  -6  11   26.23    3.07
 -23  -6  11    6.18    0.83
 -24  -6  11   28.11    1.52
 -26  -6  11    7.19    2.13
 -27  -6  11    1.41    1.12
 -28  -6  11    6.18    1.45
 -29  -6  11    5.13    1.88
 -30  -6  11    1.63    0.69
 -31  -6  11   -1.88    1.23
 -33  -6  11   -0.58    1.59
  26  -6  12   17.42    1.99
  25  -6  12    1.08    0.87
  24  -6  12    3.22    1.16
  23  -6  12    2.06    1.63
  22  -6  12   59.73    4.05
  21  -6  12   -0.14    1.12
  20  -6  12   41.95    2.75
  19  -6  12   -0.07    0.87
  18  -6  12   15.97    1.08
  17  -6  12    2.93    0.72
  16  -6  12   68.80    2.71
  15  -6  12   -0.07    0.72
  14  -6  12   81.30    4.26
  13  -6  12   66.41    3.69
  12  -6  12   13.98    1.19
  11  -6  12  198.76    8.60
  10  -6  12  152.84    6.58
   7  -6  12   11.89    1.26
  -9  -6  12    5.85    0.61
 -10  -6  12   12.86    1.16
 -12  -6  12   17.38    1.05
 -14  -6  12    3.83    0.94
 -16  -6  12   26.05    1.63
 -17  -6  12  122.74    4.19
 -18  -6  12    6.54    1.34
 -19  -6  12    1.23    1.01
 -20  -6  12   20.45    1.63
 -21  -6  12   71.61    5.53
 -22  -6  12   43.50    2.17
 -23  -6  12    0.65    1.23
 -24  -6  12   10.84    1.26
 -25  -6  12    1.84    0.69
 -26  -6  12    1.45    1.81
 -27  -6  12   -0.47    0.98
 -28  -6  12    1.34    1.19
 -29  -6  12    2.78    0.61
 -30  -6  12   -0.65    1.52
 -31  -6  12   -0.07    1.26
 -32  -6  12   -1.48    1.05
  25  -6  13    5.24    1.26
  24  -6  13   20.74    1.66
  23  -6  13   19.33    1.63
  22  -6  13    6.94    1.12
  21  -6  13   16.69    1.77
  20  -6  13   11.63    1.08
  19  -6  13   23.16    1.37
  18  -6  13   -0.54    1.08
  17  -6  13  178.31    6.76
  16  -6  13    7.15    0.94
  14  -6  13    5.42    0.79
  13  -6  13  436.51   13.12
  12  -6  13    4.66    0.94
  11  -6  13   19.51    2.93
   7  -6  13  102.14    6.07
 -13  -6  13   99.76    4.66
 -14  -6  13   59.11    2.13
 -15  -6  13    2.85    0.98
 -16  -6  13   14.53    2.17
 -17  -6  13    1.08    1.23
 -18  -6  13   25.08    2.10
 -19  -6  13   14.81    2.82
 -20  -6  13   32.12    1.88
 -21  -6  13   16.26    1.45
 -22  -6  13   -3.32    2.49
 -23  -6  13    2.31    0.76
 -24  -6  13   28.36    1.91
 -25  -6  13   12.50    1.45
 -26  -6  13    0.40    0.76
 -27  -6  13    3.83    0.79
 -28  -6  13    4.48    0.83
 -29  -6  13    7.62    1.30
 -30  -6  13   -0.47    1.23
  24  -6  14    3.04    0.90
  23  -6  14    5.85    0.94
  22  -6  14    1.99    0.76
  21  -6  14   35.81    2.31
  20  -6  14   -0.61    0.79
  19  -6  14   55.61    2.38
  18  -6  14    5.64    1.37
  17  -6  14    8.78    1.08
  16  -6  14    1.52    1.16
  15  -6  14    2.71    0.94
  14  -6  14   31.76    1.73
  13  -6  14   18.61    2.93
  12  -6  14   10.26    1.48
 -14  -6  14    7.95    0.98
 -15  -6  14    2.93    1.23
 -17  -6  14   15.61    1.30
 -18  -6  14   16.69    2.60
 -19  -6  14    1.59    0.90
 -20  -6  14   -2.28    1.77
 -21  -6  14   -0.87    1.08
 -22  -6  14    2.64    1.08
 -23  -6  14   14.06    0.94
 -24  -6  14    7.62    1.41
 -25  -6  14    0.54    0.72
 -26  -6  14   -0.47    0.98
 -27  -6  14    1.05    0.83
 -28  -6  14    1.45    0.83
  22  -6  15    0.29    0.87
  21  -6  15   79.42    3.18
  20  -6  15   24.68    1.45
  19  -6  15    0.36    0.98
  18  -6  15   10.08    1.41
  17  -6  15  275.29   16.73
  16  -6  15   20.02    3.50
  14  -6  15    2.06    1.23
  12  -6  15   14.38    2.17
  11  -6  15   10.62    1.55
  10  -6  15   71.76    4.23
   9  -6  15  112.44    5.49
 -15  -6  15   29.92    1.26
 -16  -6  15   77.43    4.55
 -18  -6  15   12.18    1.08
 -20  -6  15   49.75    2.60
 -21  -6  15   19.19    1.41
 -22  -6  15   -0.51    0.83
 -23  -6  15    1.48    0.83
 -24  -6  15   45.27    3.04
 -25  -6  15    1.37    0.90
 -26  -6  15    1.48    0.83
 -27  -6  15    5.93    2.35
 -28  -6  15    1.26    2.53
  21  -6  16    4.08    1.19
  20  -6  16    5.35    1.05
  19  -6  16   30.57    2.49
  18  -6  16    3.69    0.98
  17  -6  16    2.35    0.83
  16  -6  16    6.03    1.08
  14  -6  16    1.52    0.87
  13  -6  16    5.74    0.90
  11  -6  16   72.73    2.93
  10  -6  16   -0.79    0.83
 -17  -6  16    3.04    0.65
 -18  -6  16   14.38    1.01
 -19  -6  16    1.81    2.17
 -20  -6  16    0.69    1.88
 -21  -6  16   -4.05    2.46
 -22  -6  16    7.59    1.84
 -23  -6  16   -1.05    1.05
 -24  -6  16    0.79    0.69
 -25  -6  16    3.14    1.12
 -26  -6  16    0.65    1.05
  20  -6  17    6.18    2.31
  19  -6  17    2.82    1.26
  18  -6  17    7.55    2.10
  17  -6  17  117.50    6.90
  16  -6  17    4.23    1.63
  13  -6  17  160.28    9.90
 -18  -6  17    1.16    0.83
 -19  -6  17    1.55    0.90
 -21  -6  17   -0.36    1.12
 -23  -6  17    2.49    1.81
 -24  -6  17   15.79    2.75
 -25  -6  17   -2.28    1.23
 -26  -6  17   -1.52    2.82
  15  -6  18    1.59    1.30
  14  -6  18    4.99    1.05
  13  -6  18   -0.72    0.83
 -19  -6  18    1.55    1.19
 -21  -6  18   -0.47    1.01
 -22  -6  18    1.34    1.30
 -23  -6  18   -1.12    2.13
 -26  -6  18   -0.65    1.23
  16  -6  19    1.23    1.05
  15  -6  19    9.36    1.66
  14  -6  19   -0.11    0.79
  12  -7 -24    3.54    1.01
  11  -7 -24    1.81    0.94
  10  -7 -24    4.48    1.41
   9  -7 -24   -0.36    0.90
   8  -7 -24   13.08    1.19
   7  -7 -24   10.37    1.59
   6  -7 -24    6.72    1.01
   5  -7 -24   -0.33    1.01
   4  -7 -24   -0.43    0.87
   3  -7 -24    8.09    1.05
   2  -7 -24    3.83    1.70
   1  -7 -24    0.65    0.83
  17  -7 -23   -0.65    1.48
  16  -7 -23    1.59    2.10
  15  -7 -23   -0.22    1.77
  14  -7 -23    1.30    1.01
  13  -7 -23    0.54    0.72
  12  -7 -23    1.01    0.76
  11  -7 -23   22.94    1.30
  10  -7 -23    0.58    1.30
   9  -7 -23    0.47    1.23
   8  -7 -23    2.02    1.45
   7  -7 -23    9.14    2.02
   6  -7 -23    4.37    1.99
   5  -7 -23    9.97    1.26
   4  -7 -23    4.73    0.94
   3  -7 -23   11.85    1.19
   2  -7 -23   -0.25    1.26
   1  -7 -23    5.53    1.23
   0  -7 -23   22.51    1.55
  -1  -7 -23   -0.18    1.05
  -2  -7 -23    0.04    1.23
  -3  -7 -23    1.59    1.45
  -4  -7 -23   32.70    2.10
  20  -7 -22   -0.11    1.34
  19  -7 -22    1.34    1.12
  17  -7 -22    2.13    0.79
  16  -7 -22    0.90    0.87
  15  -7 -22   -0.79    1.34
  14  -7 -22   12.25    1.37
  13  -7 -22   10.26    1.05
  12  -7 -22    1.08    1.16
  11  -7 -22    0.58    0.72
   9  -7 -22    8.20    1.77
   8  -7 -22    3.79    1.16
   7  -7 -22    1.05    0.83
   6  -7 -22   21.43    1.08
   5  -7 -22    6.36    1.30
   4  -7 -22    2.57    2.24
   3  -7 -22   12.36    2.10
   2  -7 -22    4.48    0.90
   1  -7 -22   13.91    1.41
   0  -7 -22   -0.76    1.55
  -1  -7 -22    7.05    1.45
  -2  -7 -22    7.01    2.28
  -3  -7 -22   43.21    1.91
  -4  -7 -22    2.67    1.08
  -5  -7 -22    2.60    1.34
  -6  -7 -22   72.05    6.14
  -7  -7 -22   24.43    2.06
  -8  -7 -22   13.87    1.95
  21  -7 -21    0.47    1.95
  20  -7 -21   -0.14    1.01
  19  -7 -21    1.77    1.01
  18  -7 -21    1.01    0.98
  17  -7 -21    0.14    1.01
  16  -7 -21    1.52    0.90
  15  -7 -21    4.62    0.98
  14  -7 -21   14.81    1.16
  13  -7 -21    3.72    1.66
  12  -7 -21    4.08    2.06
  10  -7 -21    1.91    1.01
   9  -7 -21   26.34    1.30
   8  -7 -21    1.52    1.12
   7  -7 -21   12.03    1.41
   6  -7 -21   12.47    1.63
   5  -7 -21   22.29    1.55
   4  -7 -21    2.82    0.72
   3  -7 -21   -0.07    0.90
   2  -7 -21    5.56    1.30
   1  -7 -21   46.54    2.13
   0  -7 -21    3.00    0.98
  -1  -7 -21    1.70    0.90
  -2  -7 -21   -0.51    1.26
  -3  -7 -21   20.13    1.59
  -4  -7 -21    9.32    1.01
  -5  -7 -21   26.85    1.95
  -7  -7 -21    4.37    0.98
  -8  -7 -21    2.78    1.12
  -9  -7 -21   87.08    3.58
 -10  -7 -21    5.82    1.48
 -11  -7 -21    6.61    1.41
  23  -7 -20   -1.12    1.30
  21  -7 -20    1.55    0.90
  20  -7 -20    3.58    0.65
  19  -7 -20   -0.40    0.83
  18  -7 -20   -0.11    0.58
  17  -7 -20    5.71    2.53
  16  -7 -20    2.24    0.98
  15  -7 -20    8.92    1.01
  14  -7 -20    0.87    0.72
  13  -7 -20   -0.98    1.01
  12  -7 -20    1.88    1.01
  11  -7 -20   -1.08    1.26
  10  -7 -20   12.10    1.08
   9  -7 -20    1.01    0.72
   8  -7 -20   26.34    2.89
   7  -7 -20    0.51    1.88
   6  -7 -20    1.63    0.76
   5  -7 -20   13.30    1.01
   4  -7 -20   30.50    2.24
   3  -7 -20    2.42    1.05
   2  -7 -20    9.03    1.01
   1  -7 -20   31.07    1.63
   0  -7 -20   17.05    1.16
  -1  -7 -20    2.28    1.01
  -2  -7 -20   20.45    1.48
  -3  -7 -20   57.31    2.13
  -4  -7 -20    4.91    1.08
  -5  -7 -20   13.04    2.28
  -6  -7 -20   12.90    1.77
  -7  -7 -20    9.54    0.90
  -8  -7 -20   28.72    1.81
  -9  -7 -20   14.49    1.08
 -10  -7 -20   35.84    1.88
 -11  -7 -20   46.36    2.57
 -12  -7 -20    1.30    0.87
 -13  -7 -20    2.46    1.01
  23  -7 -19   -0.51    0.90
  22  -7 -19    1.88    0.98
  21  -7 -19    2.53    0.94
  20  -7 -19    6.50    0.90
  19  -7 -19    0.36    0.76
  18  -7 -19    7.55    1.12
  17  -7 -19    3.54    0.83
  16  -7 -19    3.90    1.19
  15  -7 -19   10.51    1.45
  14  -7 -19    8.89    0.90
  13  -7 -19    1.01    0.90
  12  -7 -19    6.32    0.98
  11  -7 -19    3.29    0.65
  10  -7 -19   47.84    2.71
   9  -7 -19   50.40    2.20
   8  -7 -19   49.50    2.06
   7  -7 -19    4.81    1.12
   6  -7 -19   50.69    2.89
   5  -7 -19    7.30    0.72
   4  -7 -19    2.06    0.98
   3  -7 -19   63.81    2.75
   2  -7 -19   14.56    1.55
   0  -7 -19   15.03    1.45
  -1  -7 -19   32.05    3.18
  -2  -7 -19   17.89    1.59
  -3  -7 -19    4.08    0.98
  -4  -7 -19    7.48    2.06
  -6  -7 -19   16.04    1.16
  -7  -7 -19    3.94    1.01
  -8  -7 -19   16.26    2.20
  -9  -7 -19  278.58   10.51
 -10  -7 -19    4.12    1.48
 -11  -7 -19    5.67    2.17
 -12  -7 -19    4.70    1.16
 -13  -7 -19   12.90    1.81
 -14  -7 -19    7.44    1.55
 -15  -7 -19   18.21    1.34
  23  -7 -18    1.55    0.94
  22  -7 -18    0.40    1.84
  21  -7 -18    3.72    1.16
  20  -7 -18   -0.33    1.01
  19  -7 -18    3.32    1.59
  18  -7 -18    0.00    0.72
  17  -7 -18    3.00    1.30
  16  -7 -18    1.01    0.76
  15  -7 -18    1.16    0.87
  14  -7 -18    3.83    1.01
  13  -7 -18    3.43    0.76
  12  -7 -18   -0.18    1.05
  11  -7 -18    7.15    1.05
  10  -7 -18    5.38    1.23
   9  -7 -18   59.83    2.17
   8  -7 -18    6.14    1.70
   7  -7 -18   48.56    2.64
   6  -7 -18    6.43    0.94
   5  -7 -18   25.33    2.24
   4  -7 -18   15.21    0.98
   3  -7 -18   -0.54    1.73
   2  -7 -18   12.86    1.16
   1  -7 -18   42.85    4.01
   0  -7 -18    2.38    0.79
  -1  -7 -18    3.40    1.45
  -2  -7 -18   21.06    1.45
  -3  -7 -18   21.39    1.41
  -4  -7 -18  139.69    6.65
  -5  -7 -18    3.72    0.90
  -6  -7 -18    1.19    0.87
  -7  -7 -18   15.36    2.10
  -8  -7 -18   49.65    2.78
  -9  -7 -18   36.35    1.55
 -10  -7 -18    9.76    1.01
 -11  -7 -18   71.47    3.58
 -12  -7 -18    2.20    0.94
 -13  -7 -18    4.55    1.01
 -14  -7 -18   -0.72    1.48
 -15  -7 -18   77.83    4.84
 -16  -7 -18   19.76    1.34
 -17  -7 -18    0.11    0.72
  28  -7 -17    0.25    1.01
  27  -7 -17    1.23    1.08
  26  -7 -17    0.83    1.01
  25  -7 -17   -2.17    1.41
  24  -7 -17    1.30    1.37
  23  -7 -17    2.35    1.01
  22  -7 -17    3.94    1.48
  21  -7 -17    4.19    0.83
  20  -7 -17   -1.08    1.05
  19  -7 -17    2.71    0.87
  18  -7 -17   24.64    1.59
  17  -7 -17   -0.36    0.83
  16  -7 -17   -0.54    0.87
  15  -7 -17    6.54    1.12
  14  -7 -17   67.02    3.29
  13  -7 -17    3.83    0.76
  12  -7 -17    5.13    0.76
  11  -7 -17    5.24    0.90
  10  -7 -17   55.03    2.53
   9  -7 -17   64.71    3.14
   8  -7 -17    5.49    0.98
   7  -7 -17    7.48    1.01
   6  -7 -17    5.71    0.87
   5  -7 -17  224.99    8.64
   4  -7 -17   29.88    1.66
   3  -7 -17   22.62    1.81
   2  -7 -17    2.28    0.90
   1  -7 -17    0.69    0.83
   0  -7 -17   10.12    1.23
  -1  -7 -17  245.15   12.65
  -2  -7 -17  110.82    3.18
  -3  -7 -17   -0.40    1.48
  -4  -7 -17   77.32    2.57
  -5  -7 -17  146.37    4.91
  -6  -7 -17   32.41    2.42
  -7  -7 -17  114.32    4.34
  -8  -7 -17   16.44    1.52
  -9  -7 -17   58.97    4.81
 -10  -7 -17   76.56    3.07
 -11  -7 -17    0.69    1.37
 -12  -7 -17   58.82    2.13
 -13  -7 -17    7.44    1.01
 -14  -7 -17   19.73    1.59
 -15  -7 -17    3.22    1.01
 -16  -7 -17   25.04    1.63
 -17  -7 -17    3.04    1.12
 -18  -7 -17    0.79    0.79
 -19  -7 -17   49.97    3.97
  28  -7 -16    5.13    1.19
  27  -7 -16    2.35    1.66
  26  -7 -16    2.13    0.79
  25  -7 -16    0.33    0.79
  24  -7 -16    4.16    1.01
  23  -7 -16    1.95    1.91
  22  -7 -16    2.31    1.08
  21  -7 -16    2.67    1.01
  20  -7 -16    4.84    1.95
  19  -7 -16   39.46    3.65
  18  -7 -16   -0.61    0.76
  17  -7 -16   12.90    1.05
  16  -7 -16   16.30    1.08
  15  -7 -16   17.70    1.37
  14  -7 -16   -0.04    0.90
  13  -7 -16    0.04    0.79
  12  -7 -16   54.81    2.17
  11  -7 -16    0.90    1.16
  10  -7 -16    4.26    0.94
   9  -7 -16   76.49    5.31
   8  -7 -16   35.63    2.60
   7  -7 -16   18.75    1.12
   6  -7 -16    5.13    1.12
   5  -7 -16   67.57    2.78
   4  -7 -16   47.08    2.49
   3  -7 -16   34.07    1.55
   2  -7 -16   33.02    1.84
   1  -7 -16  233.67    6.94
   0  -7 -16   36.60    1.66
  -1  -7 -16   18.82    1.63
  -2  -7 -16    1.66    1.05
  -3  -7 -16   10.26    1.91
  -4  -7 -16  130.07    4.99
  -5  -7 -16   13.51    1.48
  -6  -7 -16   16.11    1.48
  -7  -7 -16  126.68    8.27
  -8  -7 -16  128.59    3.65
  -9  -7 -16   24.86    1.84
 -10  -7 -16    1.48    1.12
 -11  -7 -16   23.31    1.05
 -12  -7 -16   -0.22    1.01
 -13  -7 -16  193.99    6.07
 -14  -7 -16    4.95    1.41
 -15  -7 -16   20.63    1.77
 -16  -7 -16    5.49    0.87
 -17  -7 -16   29.74    1.91
 -18  -7 -16    1.88    0.79
 -19  -7 -16   17.89    2.31
 -20  -7 -16   15.54    1.26
  29  -7 -15   -1.34    0.94
  28  -7 -15    0.18    1.37
  27  -7 -15    4.12    1.05
  26  -7 -15    1.59    0.79
  24  -7 -15    0.33    0.87
  23  -7 -15   12.57    1.05
  22  -7 -15   21.25    1.26
  21  -7 -15    5.42    1.01
  20  -7 -15    9.39    1.34
  19  -7 -15    4.59    1.30
  18  -7 -15    1.19    0.87
  17  -7 -15   38.73    1.91
  16  -7 -15    0.18    0.79
  15  -7 -15   14.78    1.08
  14  -7 -15   15.07    1.52
  13  -7 -15    8.20    2.06
  12  -7 -15   57.23    2.67
  11  -7 -15   12.50    1.34
  10  -7 -15   15.50    1.19
   9  -7 -15   17.56    1.16
   8  -7 -15   38.95    1.84
   7  -7 -15    9.83    1.01
   6  -7 -15   -0.94    1.34
   5  -7 -15  167.07    6.94
   4  -7 -15   19.87    1.52
   3  -7 -15    7.44    1.16
   2  -7 -15  302.24    8.35
   1  -7 -15   11.63    2.06
   0  -7 -15   12.61    1.16
  -1  -7 -15  106.23    4.55
  -3  -7 -15    7.52    0.83
  -4  -7 -15    5.49    0.83
  -5  -7 -15    9.18    1.08
  -6  -7 -15  296.46    8.06
  -7  -7 -15  201.25    5.96
  -8  -7 -15    3.00    1.08
  -9  -7 -15   -0.22    0.79
 -10  -7 -15  202.05   10.01
 -11  -7 -15    1.63    1.91
 -12  -7 -15   60.92    3.14
 -13  -7 -15   38.30    2.38
 -14  -7 -15  140.55    4.44
 -15  -7 -15    1.88    0.72
 -16  -7 -15   86.46    3.07
 -17  -7 -15   56.40    2.31
 -18  -7 -15   33.82    2.06
 -19  -7 -15   24.28    1.52
 -20  -7 -15   56.29    2.49
 -21  -7 -15   20.23    1.48
  30  -7 -14   -1.41    1.05
  29  -7 -14   -0.43    1.26
  28  -7 -14    8.31    1.30
  27  -7 -14    1.81    1.01
  26  -7 -14    3.29    1.52
  25  -7 -14    0.54    0.54
  24  -7 -14    4.44    0.65
  23  -7 -14    8.67    1.01
  22  -7 -14    4.91    1.08
  21  -7 -14    1.70    0.65
  20  -7 -14    7.77    1.05
  19  -7 -14   76.13    5.67
  18  -7 -14   36.57    1.73
  17  -7 -14    0.04    0.98
  16  -7 -14   30.60    1.55
  15  -7 -14    8.85    0.94
  14  -7 -14    8.17    0.79
  13  -7 -14   41.33    2.49
  12  -7 -14  183.80    4.99
  11  -7 -14  127.40    3.40
  10  -7 -14  165.95    6.43
   9  -7 -14   19.87    1.41
   8  -7 -14  134.52    3.79
   7  -7 -14   -0.33    0.90
   6  -7 -14   60.38    2.57
   5  -7 -14    8.42    0.90
   4  -7 -14    7.37    0.79
   3  -7 -14  135.28    4.41
   2  -7 -14   33.71    1.48
   1  -7 -14   30.10    2.49
   0  -7 -14  341.45    7.88
  -1  -7 -14  185.18    5.89
  -2  -7 -14  118.91    3.90
  -3  -7 -14   28.07    2.93
  -4  -7 -14   38.73    2.38
  -5  -7 -14  235.47    8.06
  -6  -7 -14   92.53    4.01
  -7  -7 -14   42.67    2.24
  -8  -7 -14  200.75    7.37
  -9  -7 -14  462.09   12.21
 -10  -7 -14   53.08    2.17
 -11  -7 -14    9.29    0.98
 -12  -7 -14   12.39    1.34
 -13  -7 -14  243.42    7.08
 -14  -7 -14    4.26    1.12
 -15  -7 -14    9.00    1.05
 -16  -7 -14   55.46    4.19
 -17  -7 -14  114.21    5.02
 -18  -7 -14   36.71    1.88
 -19  -7 -14   -0.33    1.19
 -20  -7 -14   54.88    3.07
 -22  -7 -14    6.94    1.19
 -23  -7 -14   10.23    1.19
  31  -7 -13    2.53    1.34
  30  -7 -13    0.83    1.34
  29  -7 -13    1.12    1.23
  28  -7 -13    4.73    2.20
  27  -7 -13    0.94    0.54
  26  -7 -13    1.37    1.30
  25  -7 -13    0.00    0.87
  24  -7 -13   17.74    1.48
  23  -7 -13    5.35    0.94
  22  -7 -13   24.24    1.19
  21  -7 -13    8.06    1.08
  20  -7 -13    9.61    1.16
  19  -7 -13   20.78    1.12
  18  -7 -13    3.43    1.01
  17  -7 -13   32.70    1.77
  16  -7 -13   12.18    1.05
  15  -7 -13   -0.69    0.94
  14  -7 -13   18.50    1.48
  13  -7 -13  159.09    5.82
  12  -7 -13    0.69    0.69
  11  -7 -13   19.80    1.37
  10  -7 -13  106.23    3.43
   9  -7 -13   92.10    3.90
   8  -7 -13   28.98    1.91
   7  -7 -13  118.22    3.83
   6  -7 -13   54.23    2.38
   5  -7 -13   13.48    1.23
   4  -7 -13   61.14    4.23
   3  -7 -13    2.02    0.72
   2  -7 -13  579.52   11.89
   1  -7 -13    4.37    0.98
   0  -7 -13    2.64    0.79
  -1  -7 -13   14.45    1.55
  -2  -7 -13  347.73    9.79
  -3  -7 -13  359.73    8.45
  -4  -7 -13   53.08    2.42
  -5  -7 -13    7.59    0.83
  -6  -7 -13  393.98    9.03
  -7  -7 -13  200.39    6.21
  -8  -7 -13    8.74    1.26
  -9  -7 -13   10.84    0.79
 -10  -7 -13   21.21    1.66
 -11  -7 -13    1.63    1.12
 -12  -7 -13  253.54    7.26
 -13  -7 -13    9.11    1.05
 -14  -7 -13   14.34    1.30
 -15  -7 -13   26.20    1.73
 -16  -7 -13  274.21    8.85
 -17  -7 -13   42.35    1.73
 -18  -7 -13   17.85    1.63
 -19  -7 -13   11.67    1.26
 -20  -7 -13   15.90    1.23
 -21  -7 -13   51.85    2.20
 -22  -7 -13    0.87    0.54
 -23  -7 -13    1.66    0.94
 -24  -7 -13   40.32    3.43
  32  -7 -12    1.26    0.83
  31  -7 -12   -0.36    1.52
  30  -7 -12    1.01    0.90
  29  -7 -12    4.23    0.90
  28  -7 -12    5.09    1.37
  27  -7 -12    2.35    1.23
  26  -7 -12   11.42    1.01
  25  -7 -12    3.47    0.76
  24  -7 -12   12.90    1.48
  23  -7 -12   26.20    1.52
  22  -7 -12   35.92    2.53
  21  -7 -12    6.36    0.87
  20  -7 -12    3.69    0.98
  19  -7 -12   31.36    1.63
  18  -7 -12   66.34    1.99
  17  -7 -12    4.01    1.12
  16  -7 -12   57.63    2.46
  15  -7 -12    8.67    1.12
  14  -7 -12   71.25    3.61
  13  -7 -12  146.08    5.93
  12  -7 -12   -0.25    0.98
  11  -7 -12    1.66    1.12
  10  -7 -12  330.50    9.32
   9  -7 -12   17.60    1.23
   8  -7 -12    6.97    1.01
   7  -7 -12   53.62    2.28
   6  -7 -12  206.06    6.90
   5  -7 -12  185.50    5.56
   4  -7 -12    0.61    0.72
   3  -7 -12  264.52    8.38
   2  -7 -12  198.69    5.13
   1  -7 -12   44.08    2.06
   0  -7 -12    0.58    0.72
  -1  -7 -12  111.76    4.62
  -2  -7 -12   22.15    1.91
  -3  -7 -12    8.24    1.70
  -4  -7 -12   35.84    1.70
  -5  -7 -12  186.69    6.87
  -6  -7 -12  467.29   12.25
  -7  -7 -12  136.98    5.35
  -8  -7 -12    2.93    1.59
  -9  -7 -12  414.65   14.13
 -10  -7 -12    5.64    1.52
 -11  -7 -12  145.58    5.64
 -12  -7 -12   10.01    0.94
 -13  -7 -12  253.54    8.49
 -14  -7 -12  124.76    4.37
 -15  -7 -12   50.95    3.97
 -16  -7 -12   29.99    1.73
 -17  -7 -12  123.97    5.17
 -18  -7 -12  170.04    4.70
 -19  -7 -12    0.22    0.61
 -20  -7 -12   32.16    3.83
 -21  -7 -12   70.31    5.85
 -22  -7 -12   21.64    3.07
 -23  -7 -12   15.54    1.59
 -24  -7 -12   -0.90    0.72
 -25  -7 -12   22.00    2.24
  31  -7 -11    1.45    1.16
  30  -7 -11    1.19    1.16
  29  -7 -11    2.67    1.26
  28  -7 -11   -0.36    1.12
  27  -7 -11    1.16    0.61
  26  -7 -11    0.65    0.69
  24  -7 -11   -0.58    1.08
  23  -7 -11    8.42    1.55
  22  -7 -11   35.48    2.13
  21  -7 -11   20.31    1.73
  20  -7 -11   11.60    0.90
  18  -7 -11   75.55    2.49
  17  -7 -11   27.57    1.99
  16  -7 -11   53.76    2.57
  15  -7 -11    2.67    1.05
  14  -7 -11   35.01    1.52
  13  -7 -11  128.88    3.90
  12  -7 -11  172.17    4.66
  11  -7 -11   79.82    2.49
  10  -7 -11    5.82    1.34
   9  -7 -11    6.18    0.76
   8  -7 -11  136.80    4.73
   7  -7 -11  840.32   19.58
   6  -7 -11  116.09    4.52
   5  -7 -11   53.40    3.43
   3  -7 -11  607.31   18.43
   2  -7 -11  341.84   11.35
   1  -7 -11   15.83    1.23
   0  -7 -11   24.82    2.49
  -1  -7 -11   87.48    3.61
  -2  -7 -11  163.64    6.47
  -3  -7 -11 1150.87   35.19
  -4  -7 -11   82.85    3.29
  -5  -7 -11    7.19    0.79
  -6  -7 -11  120.75    3.87
  -7  -7 -11   34.83    2.20
  -8  -7 -11   66.48    3.32
  -9  -7 -11   20.13    1.12
 -10  -7 -11  191.28    5.17
 -11  -7 -11    4.52    0.79
 -12  -7 -11  157.14    6.00
 -13  -7 -11  106.16    4.12
 -14  -7 -11   21.57    2.31
 -15  -7 -11   23.70    1.59
 -16  -7 -11  193.85    8.13
 -17  -7 -11    1.84    1.05
 -18  -7 -11  156.09    6.87
 -19  -7 -11   46.61    3.90
 -20  -7 -11   67.49    2.75
 -21  -7 -11   20.34    1.30
 -22  -7 -11   38.81    1.99
 -23  -7 -11    2.57    0.72
 -24  -7 -11    6.90    1.26
 -25  -7 -11    0.54    0.76
 -26  -7 -11    9.47    1.30
  31  -7 -10    0.51    0.58
  30  -7 -10    5.17    1.19
  29  -7 -10    6.11    0.79
  28  -7 -10    8.45    0.87
  27  -7 -10    0.00    1.12
  26  -7 -10   19.22    2.75
  25  -7 -10    9.50    1.26
  24  -7 -10    4.34    0.76
  23  -7 -10    1.37    1.37
  22  -7 -10   37.25    2.71
  21  -7 -10    4.52    1.30
  20  -7 -10   40.25    1.63
  19  -7 -10    0.33    0.87
  18  -7 -10  157.90    5.71
  17  -7 -10  120.28    4.91
  16  -7 -10    3.54    0.83
  15  -7 -10   44.98    2.71
  14  -7 -10  172.60    9.86
  13  -7 -10   93.08    3.25
  12  -7 -10  388.96   16.30
  11  -7 -10    4.23    0.79
  10  -7 -10   97.74    4.73
   9  -7 -10    1.05    0.87
   8  -7 -10   95.82    4.62
   7  -7 -10   87.48    4.34
   6  -7 -10    3.90    0.54
   5  -7 -10  320.74    7.80
   4  -7 -10  237.17    6.79
   3  -7 -10   21.28    2.06
   2  -7 -10  498.40   20.60
   1  -7 -10  110.38    4.62
   0  -7 -10  282.62   12.68
  -1  -7 -10    3.58    0.72
  -2  -7 -10  429.14   10.48
  -3  -7 -10   65.69    2.60
  -4  -7 -10   49.54    2.20
  -5  -7 -10  183.41    6.76
  -6  -7 -10    4.34    0.69
  -7  -7 -10  113.02    4.99
  -8  -7 -10  195.87    5.67
  -9  -7 -10  177.55    4.37
 -10  -7 -10   47.15    3.97
 -11  -7 -10  282.41   10.48
 -12  -7 -10   11.13    1.01
 -13  -7 -10   63.23    2.24
 -14  -7 -10   18.28    1.59
 -15  -7 -10   83.86    4.12
 -16  -7 -10    9.86    1.19
 -17  -7 -10    3.14    1.48
 -18  -7 -10  199.05    6.21
 -19  -7 -10    9.07    1.19
 -20  -7 -10   44.33    2.46
 -21  -7 -10   96.33    3.61
 -22  -7 -10   32.23    1.59
 -23  -7 -10   75.66    4.41
 -24  -7 -10   20.23    1.95
 -25  -7 -10    7.99    1.08
 -26  -7 -10   -0.36    0.90
 -27  -7 -10   31.07    1.95
  32  -7  -9    0.11    1.19
  31  -7  -9    8.38    1.26
  30  -7  -9    3.58    0.90
  29  -7  -9    3.83    1.12
  28  -7  -9    8.92    1.01
  27  -7  -9    2.42    1.30
  26  -7  -9   36.75    1.66
  25  -7  -9    8.92    1.05
  24  -7  -9   27.79    1.77
  23  -7  -9    1.01    0.54
  22  -7  -9    2.06    0.83
  21  -7  -9   29.12    1.41
  20  -7  -9   -1.37    0.76
  19  -7  -9    1.34    0.98
  18  -7  -9    9.07    0.65
  17  -7  -9   31.25    1.55
  16  -7  -9   49.10    2.02
  15  -7  -9   57.09    1.95
  14  -7  -9   19.58    1.41
  13  -7  -9    7.91    1.05
  12  -7  -9  361.36    8.27
  11  -7  -9  448.54   15.25
  10  -7  -9  129.97    3.43
   9  -7  -9   17.63    1.12
   8  -7  -9   53.98    1.91
   7  -7  -9  189.04    7.23
   6  -7  -9    1.23    0.79
   5  -7  -9  306.83    6.47
   4  -7  -9  481.60   11.35
   3  -7  -9  541.76   14.42
   2  -7  -9   46.10    1.52
   1  -7  -9  436.55    9.39
   0  -7  -9    1.34    0.76
  -1  -7  -9   57.49    2.28
  -2  -7  -9   42.17    1.99
  -3  -7  -9  485.50   20.02
  -4  -7  -9    1.99    0.83
  -5  -7  -9  237.68    5.74
  -6  -7  -9   18.36    1.08
  -7  -7  -9  451.40   14.78
  -8  -7  -9    2.10    1.16
  -9  -7  -9   90.19    5.82
 -10  -7  -9  400.52    9.83
 -11  -7  -9  238.00   11.45
 -12  -7  -9  145.29    5.17
 -13  -7  -9   91.16    3.29
 -14  -7  -9   -0.61    1.01
 -15  -7  -9  706.74   18.86
 -16  -7  -9  260.26    6.79
 -17  -7  -9   81.91    2.93
 -18  -7  -9   62.80    3.54
 -19  -7  -9    9.86    0.87
 -20  -7  -9   19.08    1.41
 -21  -7  -9    7.99    0.94
 -22  -7  -9  161.98    6.36
 -23  -7  -9    2.93    0.65
 -24  -7  -9    5.38    1.12
 -25  -7  -9    2.13    0.79
 -26  -7  -9   53.44    2.35
 -27  -7  -9    0.33    0.98
 -28  -7  -9    0.40    1.55
  33  -7  -8    5.31    0.69
  32  -7  -8   -0.40    0.69
  31  -7  -8    2.60    0.69
  30  -7  -8    5.35    1.37
  29  -7  -8   25.76    1.52
  28  -7  -8   18.43    1.26
  27  -7  -8    1.52    0.76
  26  -7  -8    1.05    0.90
  25  -7  -8   17.96    1.08
  24  -7  -8   54.63    2.20
  23  -7  -8    4.23    0.98
  22  -7  -8   16.19    1.08
  21  -7  -8   53.44    3.04
  20  -7  -8    1.30    0.98
  19  -7  -8   40.03    2.02
  18  -7  -8    7.05    0.72
  17  -7  -8    6.14    0.83
  16  -7  -8   77.25    2.38
  15  -7  -8   26.41    1.37
  14  -7  -8  152.22    3.69
  13  -7  -8  339.97    8.35
  12  -7  -8  260.62    8.74
  11  -7  -8   27.53    1.73
  10  -7  -8  143.55    6.18
   8  -7  -8  500.68   11.31
   6  -7  -8   57.85    2.02
   5  -7  -8  508.63   22.94
   4  -7  -8  484.57   17.34
   3  -7  -8  101.53    2.82
   2  -7  -8  438.21    9.83
   1  -7  -8  876.92   25.69
   0  -7  -8  872.87   19.80
  -1  -7  -8  181.27    5.20
  -2  -7  -8  212.49    6.43
  -3  -7  -8  114.61    4.44
  -4  -7  -8  789.48   16.44
  -5  -7  -8  134.52    4.66
  -6  -7  -8   18.17    1.52
  -7  -7  -8  589.13   14.49
  -8  -7  -8  484.85   11.02
  -9  -7  -8   21.46    1.30
 -10  -7  -8   75.73    3.58
 -11  -7  -8  668.40   17.63
 -12  -7  -8   64.17    2.28
 -13  -7  -8   72.88    2.78
 -14  -7  -8   25.51    1.41
 -15  -7  -8    0.79    0.79
 -16  -7  -8  393.87   11.16
 -17  -7  -8   24.53    2.89
 -18  -7  -8  333.86    9.07
 -19  -7  -8   31.54    1.52
 -20  -7  -8  198.04    6.43
 -21  -7  -8   -0.07    0.79
 -22  -7  -8    1.70    0.69
 -23  -7  -8   67.78    2.78
 -24  -7  -8   44.33    2.49
 -25  -7  -8    6.36    0.79
 -26  -7  -8    0.87    0.94
 -27  -7  -8   44.84    2.71
 -28  -7  -8    7.01    1.41
 -29  -7  -8    6.94    1.34
  33  -7  -7   -1.01    1.08
  32  -7  -7    0.29    0.83
  31  -7  -7    1.26    0.94
  30  -7  -7    9.68    0.94
  29  -7  -7    2.60    0.72
  28  -7  -7    5.89    1.16
  27  -7  -7   12.79    0.98
  26  -7  -7   52.39    2.24
  25  -7  -7    2.96    0.87
  24  -7  -7   78.59    2.64
  23  -7  -7   39.67    1.99
  22  -7  -7   12.86    1.41
  21  -7  -7   15.72    0.98
  20  -7  -7   62.80    1.99
  19  -7  -7    5.02    0.65
  18  -7  -7   22.76    1.59
  17  -7  -7   39.82    1.66
  16  -7  -7   20.41    1.37
  15  -7  -7   70.71    2.42
  14  -7  -7  154.25    4.08
  13  -7  -7   14.56    1.08
  12  -7  -7   68.04    2.67
  11  -7  -7   58.64    2.17
  10  -7  -7   74.97    2.28
   9  -7  -7   59.73    3.29
   8  -7  -7  121.15    3.50
   7  -7  -7  136.61    5.49
   6  -7  -7   29.77    1.52
   5  -7  -7  507.18   14.16
   4  -7  -7  226.66    7.37
   3  -7  -7  160.46    9.68
   2  -7  -7    4.01    0.51
   1  -7  -7  624.00   12.75
   0  -7  -7   -0.76    0.61
  -1  -7  -7  141.78    3.76
  -2  -7  -7 1879.58   49.14
  -3  -7  -7   71.11    2.93
  -4  -7  -7   80.57    2.64
  -5  -7  -7   32.95    1.37
  -6  -7  -7   68.29    2.71
  -7  -7  -7  104.82    3.47
  -8  -7  -7  244.03    8.35
  -9  -7  -7   20.41    2.17
 -10  -7  -7    4.30    0.69
 -11  -7  -7   78.41    3.69
 -12  -7  -7  121.04    3.43
 -13  -7  -7  324.90   11.02
 -14  -7  -7   20.67    1.30
 -15  -7  -7  305.06   13.55
 -16  -7  -7   44.88    1.99
 -17  -7  -7  702.37   23.27
 -18  -7  -7   28.18    1.63
 -19  -7  -7    2.17    1.19
 -20  -7  -7  103.84    5.42
 -21  -7  -7  131.19    3.72
 -22  -7  -7  104.20    3.65
 -23  -7  -7   20.38    1.30
 -25  -7  -7    8.78    1.19
 -26  -7  -7    5.96    0.98
 -27  -7  -7   21.86    1.55
 -28  -7  -7   14.02    1.66
 -29  -7  -7    0.04    1.12
  32  -7  -6    0.18    0.83
  31  -7  -6    0.94    0.83
  30  -7  -6    1.52    1.08
  29  -7  -6   -1.63    1.08
  28  -7  -6    3.58    0.83
  27  -7  -6    1.52    1.26
  26  -7  -6   -0.14    0.98
  25  -7  -6    5.31    0.79
  24  -7  -6   28.91    2.02
  23  -7  -6    7.77    0.76
  22  -7  -6   27.24    2.20
  21  -7  -6   89.64    3.11
  20  -7  -6    0.33    0.94
  19  -7  -6   62.69    2.89
  18  -7  -6   36.42    1.77
  17  -7  -6   16.11    1.05
  16  -7  -6   89.75    2.67
  15  -7  -6   65.58    2.38
  14  -7  -6    4.81    0.61
  13  -7  -6   12.43    0.94
  11  -7  -6    4.41    0.83
  10  -7  -6   30.24    1.70
   9  -7  -6   30.31    1.63
   8  -7  -6  320.24    7.48
   7  -7  -6  271.42   15.25
   5  -7  -6 1732.89   46.72
   4  -7  -6  157.93    5.35
   3  -7  -6  574.43   15.32
   2  -7  -6   57.20    1.99
   1  -7  -6  633.43   16.48
   0  -7  -6 1000.13   19.98
  -1  -7  -6   17.09    2.17
  -2  -7  -6  114.39    5.02
  -3  -7  -6  923.06   27.75
  -4  -7  -6  277.02    8.38
  -5  -7  -6   49.57    3.18
  -6  -7  -6  444.21   10.26
  -7  -7  -6 1473.24   34.40
  -8  -7  -6  599.32   14.89
  -9  -7  -6   80.90    3.22
 -10  -7  -6  384.05   13.87
 -11  -7  -6  263.94    6.40
 -12  -7  -6  525.57   13.69
 -13  -7  -6  211.59    6.58
 -14  -7  -6   17.05    1.12
 -15  -7  -6  173.29    5.17
 -16  -7  -6  273.05    7.95
 -17  -7  -6  131.12    5.09
 -18  -7  -6   13.77    0.94
 -19  -7  -6  270.66    7.01
 -20  -7  -6  194.25    6.25
 -21  -7  -6   15.57    1.19
 -22  -7  -6    1.95    1.05
 -23  -7  -6   80.50    3.94
 -24  -7  -6   11.13    1.23
 -25  -7  -6   32.48    1.73
 -26  -7  -6    1.08    0.83
 -27  -7  -6   27.86    1.45
 -28  -7  -6    8.49    0.83
 -29  -7  -6   16.40    1.23
 -30  -7  -6    0.54    0.94
  32  -7  -5    0.47    0.79
  31  -7  -5    0.04    0.69
  30  -7  -5   11.96    1.23
  29  -7  -5   10.37    1.26
  28  -7  -5    7.30    0.98
  27  -7  -5   13.04    0.94
  26  -7  -5    4.99    1.12
  25  -7  -5    5.02    1.48
  24  -7  -5   72.01    2.46
  23  -7  -5   15.68    1.01
  22  -7  -5   41.23    1.66
  21  -7  -5  180.66    8.09
  20  -7  -5    8.45    1.34
  19  -7  -5  103.81    3.40
  18  -7  -5   33.67    1.52
  17  -7  -5   39.42    1.84
  16  -7  -5   79.63    2.49
  15  -7  -5  134.74    3.94
  13  -7  -5   70.53    2.24
  12  -7  -5   99.72    3.50
  11  -7  -5  144.46    3.47
  10  -7  -5 1123.96   21.68
   9  -7  -5  147.74    4.37
   8  -7  -5    5.31    0.72
   7  -7  -5   18.97    1.63
   6  -7  -5  586.46   15.14
   5  -7  -5  125.74    3.36
   4  -7  -5 1195.35   24.28
   3  -7  -5   47.08    1.59
   2  -7  -5 1199.80   28.40
   1  -7  -5  885.99   24.61
   0  -7  -5   13.62    0.94
  -3  -7  -5  145.18    4.23
  -4  -7  -5  940.41   21.28
  -5  -7  -5    4.26    0.65
  -6  -7  -5   68.40    5.35
  -7  -7  -5   34.33    2.31
  -8  -7  -5  786.81   19.62
  -9  -7  -5  423.72   14.92
 -10  -7  -5    8.53    0.98
 -11  -7  -5  386.61   10.84
 -12  -7  -5  555.42   15.97
 -13  -7  -5   44.30    2.42
 -14  -7  -5   16.69    1.05
 -15  -7  -5  240.78    9.18
 -16  -7  -5  123.50    4.12
 -17  -7  -5  236.52    8.53
 -18  -7  -5  142.97    5.56
 -19  -7  -5  132.78    4.59
 -20  -7  -5    3.32    0.83
 -21  -7  -5    4.91    0.69
 -22  -7  -5   72.08    2.60
 -23  -7  -5  140.81    4.95
 -24  -7  -5    3.76    1.63
 -25  -7  -5   25.44    1.16
 -26  -7  -5   31.51    1.66
 -27  -7  -5   82.74    3.94
 -28  -7  -5    7.73    1.63
 -29  -7  -5   -1.30    1.88
 -30  -7  -5   -1.52    2.02
  33  -7  -4    0.22    1.05
  32  -7  -4   14.42    1.19
  31  -7  -4   11.35    1.08
  30  -7  -4    8.67    0.87
  29  -7  -4    0.69    0.65
  28  -7  -4   13.40    0.87
  27  -7  -4    2.85    1.01
  26  -7  -4   14.67    0.87
  25  -7  -4    1.77    0.65
  24  -7  -4   35.16    2.13
  23  -7  -4   58.90    3.25
  22  -7  -4   12.28    1.45
  21  -7  -4   59.44    2.46
  20  -7  -4   13.51    1.16
  19  -7  -4  102.98    2.75
  18  -7  -4   53.58    2.67
  17  -7  -4   79.63    2.46
  16  -7  -4  395.83   11.24
  15  -7  -4  182.47    7.30
  14  -7  -4   26.92    1.59
  13  -7  -4  160.50    5.46
  12  -7  -4  348.20    9.00
  11  -7  -4    3.29    0.61
  10  -7  -4   11.06    1.26
   9  -7  -4  341.09    8.17
   8  -7  -4    5.64    0.83
   7  -7  -4  120.86    3.76
   6  -7  -4    1.05    0.61
   5  -7  -4   24.32    1.26
   4  -7  -4  129.06    4.41
   3  -7  -4  238.22    6.18
   2  -7  -4   79.02    3.00
   1  -7  -4   19.58    1.37
   0  -7  -4  701.07   14.67
  -1  -7  -4  137.05    5.17
  -2  -7  -4   14.42    0.79
  -3  -7  -4 1449.90   37.29
  -4  -7  -4   83.90    3.04
  -5  -7  -4   27.86    2.53
  -6  -7  -4    0.11    0.98
  -7  -7  -4   75.66    3.07
  -8  -7  -4  117.72    3.65
  -9  -7  -4 1090.28   32.01
 -10  -7  -4   11.31    0.98
 -11  -7  -4   68.07    3.36
 -13  -7  -4  127.44    4.91
 -14  -7  -4    1.26    0.83
 -15  -7  -4   12.54    0.87
 -16  -7  -4    6.58    0.72
 -17  -7  -4  185.21    6.68
 -18  -7  -4   73.75    2.75
 -19  -7  -4  181.49    6.03
 -20  -7  -4  106.77    3.18
 -21  -7  -4  167.22    5.74
 -22  -7  -4    4.66    0.98
 -23  -7  -4   40.90    4.19
 -24  -7  -4   14.42    1.16
 -25  -7  -4   51.05    4.62
 -26  -7  -4   -0.18    0.98
 -27  -7  -4    8.64    0.79
 -28  -7  -4   38.84    2.13
 -29  -7  -4    3.97    1.34
 -30  -7  -4    1.16    0.79
 -31  -7  -4   -3.54    2.28
  33  -7  -3    1.19    1.26
  32  -7  -3    6.87    0.79
  31  -7  -3    1.59    0.83
  30  -7  -3    0.22    0.87
  29  -7  -3   33.17    1.81
  28  -7  -3   24.64    1.77
  27  -7  -3    0.47    0.69
  26  -7  -3   45.85    4.01
  25  -7  -3   37.72    1.41
  24  -7  -3   26.77    1.52
  23  -7  -3    2.13    0.79
  22  -7  -3   -0.25    0.72
  21  -7  -3    4.55    0.61
  20  -7  -3    1.66    1.01
  19  -7  -3  208.26    7.37
  18  -7  -3    3.69    0.76
  17  -7  -3    6.14    0.87
  16  -7  -3   87.19    4.12
  15  -7  -3  185.54    9.50
  14  -7  -3   12.57    1.01
  13  -7  -3   87.66    3.65
  11  -7  -3  434.16   12.21
  10  -7  -3  783.41   16.33
   8  -7  -3  177.77    5.96
   7  -7  -3  439.44   18.57
   6  -7  -3  504.11   11.09
   5  -7  -3   53.58    1.84
   4  -7  -3  446.41    9.57
   3  -7  -3   89.35    2.35
   2  -7  -3 1071.42   19.76
   1  -7  -3  248.91    5.96
   0  -7  -3  693.48   14.49
  -1  -7  -3    3.29    0.83
  -2  -7  -3    0.43    0.36
  -3  -7  -3  494.90   12.00
  -4  -7  -3 1016.21   29.38
  -5  -7  -3   12.83    1.26
  -6  -7  -3   50.01    2.35
  -7  -7  -3  406.48   14.92
  -8  -7  -3   25.98    1.16
  -9  -7  -3 1012.78   25.18
 -10  -7  -3  680.36   32.81
 -11  -7  -3   35.84    1.45
 -12  -7  -3  310.66   12.00
 -13  -7  -3   60.95    2.78
 -14  -7  -3  564.67   25.08
 -16  -7  -3   11.45    1.19
 -17  -7  -3   40.68    3.94
 -18  -7  -3   73.46    2.64
 -19  -7  -3  124.58    4.34
 -20  -7  -3   10.70    0.90
 -21  -7  -3   11.27    0.76
 -22  -7  -3  194.57    6.03
 -23  -7  -3   61.32    3.87
 -24  -7  -3   10.80    1.48
 -25  -7  -3    8.35    0.79
 -26  -7  -3   16.91    1.84
 -27  -7  -3    6.21    0.87
 -28  -7  -3   29.95    1.41
 -29  -7  -3   -0.40    0.83
 -30  -7  -3    2.64    0.87
 -31  -7  -3   -0.11    1.05
  33  -7  -2    4.95    1.48
  32  -7  -2    7.91    0.98
  31  -7  -2    3.29    1.08
  30  -7  -2    5.89    0.90
  29  -7  -2    1.23    0.76
  28  -7  -2   26.30    1.19
  27  -7  -2   74.90    2.85
  26  -7  -2   89.07    3.11
  25  -7  -2    3.90    1.26
  24  -7  -2  100.66    5.24
  23  -7  -2  133.54    4.23
  22  -7  -2   21.64    1.16
  21  -7  -2   10.62    1.37
  20  -7  -2   71.22    2.49
  19  -7  -2  173.29    6.40
  18  -7  -2   69.16    3.58
  17  -7  -2   11.24    0.87
  16  -7  -2  230.56    9.03
  15  -7  -2   21.03    1.05
  14  -7  -2  761.44   19.40
  13  -7  -2   49.07    2.82
  12  -7  -2   93.98    4.44
  11  -7  -2  346.18   12.14
  10  -7  -2   46.97    1.88
   9  -7  -2   11.02    1.19
   8  -7  -2  240.86    8.02
   7  -7  -2  646.11   23.96
   6  -7  -2  182.25    6.29
   5  -7  -2  133.25    4.62
   4  -7  -2   12.07    1.01
   3  -7  -2  110.82    2.75
   2  -7  -2  825.94   19.37
   1  -7  -2  174.88    4.48
   0  -7  -2  162.02    3.65
  -1  -7  -2  133.51    4.48
  -2  -7  -2 2413.86   61.32
  -3  -7  -2   29.27    1.23
  -4  -7  -2  647.66   12.39
  -5  -7  -2  104.35    3.36
  -6  -7  -2  299.79    8.60
  -7  -7  -2   14.71    0.87
  -8  -7  -2  186.55    9.32
  -9  -7  -2  687.23   18.39
 -10  -7  -2   24.68    2.31
 -11  -7  -2  398.25   12.36
 -12  -7  -2  667.18   27.21
 -13  -7  -2   49.07    2.60
 -14  -7  -2   20.67    1.70
 -16  -7  -2  162.30    6.76
 -17  -7  -2   63.34    2.42
 -18  -7  -2  123.46    5.85
 -19  -7  -2  106.12    4.70
 -20  -7  -2   33.13    1.59
 -21  -7  -2   80.94    4.30
 -22  -7  -2    0.25    0.72
 -23  -7  -2    0.83    0.61
 -24  -7  -2   47.48    1.77
 -25  -7  -2   29.19    1.91
 -26  -7  -2    1.41    0.83
 -27  -7  -2   28.87    1.41
 -28  -7  -2   11.31    1.88
 -29  -7  -2    5.56    1.23
 -30  -7  -2    3.18    0.83
 -31  -7  -2    0.69    0.58
 -32  -7  -2    1.01    0.94
  33  -7  -1    2.85    0.98
  32  -7  -1    4.95    2.13
  31  -7  -1   -0.40    0.83
  30  -7  -1   21.61    1.77
  29  -7  -1   19.73    1.59
  28  -7  -1    4.84    1.12
  27  -7  -1    8.82    0.94
  26  -7  -1   18.90    1.37
  25  -7  -1   13.98    1.63
  24  -7  -1   84.44    2.71
  23  -7  -1   47.62    2.49
  22  -7  -1    1.37    0.69
  21  -7  -1   63.38    2.20
  20  -7  -1   95.42    3.14
  19  -7  -1   40.11    2.60
  18  -7  -1    3.04    0.79
  17  -7  -1  246.09    7.99
  16  -7  -1   69.66    3.83
  15  -7  -1   16.40    1.70
  14  -7  -1  533.23   12.68
  13  -7  -1  504.73   13.73
  12  -7  -1   54.31    2.24
  11  -7  -1  127.62    4.08
  10  -7  -1   17.27    1.12
   9  -7  -1 1513.28   42.74
   8  -7  -1   37.72    2.13
   7  -7  -1    2.71    0.76
   6  -7  -1  414.32   14.74
   5  -7  -1 2452.71   66.84
   4  -7  -1   31.18    2.02
   3  -7  -1  356.91   10.98
   2  -7  -1   22.40    1.01
   1  -7  -1 2093.52   45.71
   0  -7  -1  295.34    9.68
  -1  -7  -1  331.98   13.15
  -2  -7  -1  424.73   10.12
  -3  -7  -1 1153.58   53.29
  -4  -7  -1  210.29    6.83
  -5  -7  -1   13.73    1.73
  -6  -7  -1 1334.39   24.93
  -7  -7  -1  479.04   20.56
  -8  -7  -1  100.84    2.89
  -9  -7  -1 2264.24  101.46
 -10  -7  -1  496.34   10.59
 -11  -7  -1   16.48    1.34
 -12  -7  -1   29.09    1.66
 -13  -7  -1  515.31   17.31
 -14  -7  -1  465.56   14.49
 -15  -7  -1   15.39    1.05
 -16  -7  -1  298.20    6.79
 -17  -7  -1  572.22   27.68
 -18  -7  -1  392.18   13.51
 -19  -7  -1   67.68    2.78
 -20  -7  -1   55.17    2.38
 -21  -7  -1   95.14    4.95
 -22  -7  -1    0.83    0.83
 -23  -7  -1    4.70    0.61
 -24  -7  -1  101.86    6.47
 -25  -7  -1   13.73    1.16
 -26  -7  -1   86.14    3.14
 -27  -7  -1    1.41    1.52
 -29  -7  -1    1.26    1.19
 -30  -7  -1    0.18    0.83
 -31  -7  -1    2.35    0.76
  33  -7   0    5.89    1.81
  32  -7   0   -2.13    0.90
  31  -7   0    0.00    0.87
  30  -7   0   11.74    1.55
  29  -7   0    1.30    1.08
  28  -7   0   -1.12    0.79
  26  -7   0   70.38    4.16
  25  -7   0   57.59    2.60
  24  -7   0   29.48    1.52
  23  -7   0   20.78    1.30
  22  -7   0   65.18    3.40
  21  -7   0   83.14    2.85
  20  -7   0    5.42    0.69
  19  -7   0  181.89    5.28
  18  -7   0  664.39   16.11
  17  -7   0    1.66    0.83
  16  -7   0   16.04    1.08
  15  -7   0   37.40    1.77
  14  -7   0  547.36   13.40
  13  -7   0   41.01    1.88
  12  -7   0  569.98   14.99
  11  -7   0   40.03    1.73
  10  -7   0  634.40   20.20
   9  -7   0  805.60   20.31
   8  -7   0    3.87    0.83
   7  -7   0  352.00    9.61
   6  -7   0  366.12    8.35
   5  -7   0  952.36   22.40
   4  -7   0   63.16    2.42
   3  -7   0    1.70    1.63
   2  -7   0 2359.74   42.13
   1  -7   0  309.94    9.57
   0  -7   0   -0.51    0.43
  -1  -7   0  347.95   10.23
  -2  -7   0 2283.75   55.97
  -3  -7   0    2.20    0.58
  -4  -7   0   63.41    1.81
  -5  -7   0  957.50   19.91
  -6  -7   0  345.42    7.80
  -7  -7   0  381.44   11.24
  -9  -7   0  807.80   17.42
 -10  -7   0  525.39   15.72
 -11  -7   0   35.34    2.42
 -12  -7   0  452.12   18.90
 -13  -7   0   35.34    2.35
 -14  -7   0  587.47   18.86
 -15  -7   0   28.58    1.66
 -16  -7   0   13.01    1.05
 -17  -7   0    1.19    0.98
 -18  -7   0  642.61   23.99
 -19  -7   0  181.74    7.44
 -20  -7   0    4.66    0.79
 -21  -7   0   77.21    4.05
 -22  -7   0   67.78    3.87
 -23  -7   0   14.45    0.87
 -24  -7   0   28.91    1.91
 -25  -7   0   60.12    2.49
 -26  -7   0   55.50    2.06
 -27  -7   0   44.62    2.20
 -28  -7   0    1.08    0.69
 -29  -7   0    1.26    0.83
 -30  -7   0   11.45    0.87
 -31  -7   0    0.04    0.83
 -32  -7   0   -0.47    0.79
 -33  -7   0    8.02    1.45
  32  -7   1    4.44    0.87
  31  -7   1    1.63    1.05
  30  -7   1    1.12    0.65
  29  -7   1    1.88    1.16
  28  -7   1   14.63    1.01
  27  -7   1    0.36    0.76
  26  -7   1   94.81    3.50
  25  -7   1   14.89    1.01
  24  -7   1  112.26    4.77
  23  -7   1    4.48    0.69
  22  -7   1    1.37    0.98
  21  -7   1  126.64    4.08
  20  -7   1   67.46    2.60
  19  -7   1   91.12    3.58
  18  -7   1  415.37   11.71
  17  -7   1  607.96   17.13
  16  -7   1  337.26   10.77
  15  -7   1   18.39    1.55
  14  -7   1  534.50   14.49
  13  -7   1  496.74   13.48
  12  -7   1   36.17    1.73
  11  -7   1   23.05    1.95
  10  -7   1  508.48   15.18
   9  -7   1 2360.79   69.45
   7  -7   1  544.18   19.29
   6  -7   1 1623.77   34.18
   5  -7   1   13.04    1.08
   4  -7   1  253.65    8.82
   3  -7   1 1254.83   30.78
   2  -7   1  476.25   10.04
   1  -7   1  331.62    7.88
   0  -7   1  264.30   14.27
  -2  -7   1   26.63    0.98
  -3  -7   1  362.08    9.25
  -4  -7   1   32.19    1.48
  -5  -7   1 2251.02   41.48
  -6  -7   1  413.20   13.98
  -7  -7   1    3.14    0.43
  -8  -7   1   26.56    1.99
  -9  -7   1 1448.49   39.85
 -10  -7   1   16.77    1.19
 -11  -7   1  126.06    3.97
 -12  -7   1   48.96    1.81
 -13  -7   1  479.11   15.75
 -14  -7   1  598.85   19.55
 -15  -7   1   13.69    0.90
 -16  -7   1   68.40    5.35
 -17  -7   1  230.52    7.15
 -18  -7   1    2.96    0.76
 -19  -7   1   45.16    2.28
 -20  -7   1   83.79    3.22
 -21  -7   1   52.64    2.35
 -22  -7   1    2.24    0.69
 -23  -7   1   39.75    1.81
 -24  -7   1   74.03    2.53
 -25  -7   1   13.84    1.16
 -26  -7   1   17.96    1.41
 -27  -7   1    8.02    1.05
 -28  -7   1    5.31    0.72
 -29  -7   1   15.61    1.08
 -30  -7   1   17.85    1.08
 -31  -7   1    1.37    1.05
 -32  -7   1    3.94    0.72
  32  -7   2    0.76    0.61
  31  -7   2    1.12    1.08
  30  -7   2    0.79    0.72
  29  -7   2    8.53    1.12
  28  -7   2   11.45    1.19
  27  -7   2   32.41    1.73
  26  -7   2    1.63    0.94
  25  -7   2   33.24    1.70
  24  -7   2   47.73    1.99
  23  -7   2   -1.12    1.01
  22  -7   2    0.79    0.72
  21  -7   2   92.39    3.47
  20  -7   2   35.66    1.73
  19  -7   2  130.94    5.13
  18  -7   2  122.38    4.91
  17  -7   2   74.50    2.64
  16  -7   2  187.96    9.76
  15  -7   2  175.10    6.47
  14  -7   2   22.47    2.75
  13  -7   2   54.41    3.22
  12  -7   2  738.50   20.52
  11  -7   2  459.71   21.82
  10  -7   2   29.77    2.17
   9  -7   2  682.64   28.98
   8  -7   2  181.20    4.81
   7  -7   2   15.54    1.30
   6  -7   2  335.05   10.41
   5  -7   2  109.30    4.37
   3  -7   2   31.07    1.26
   2  -7   2 2816.19   50.11
   1  -7   2  142.61    5.24
   0  -7   2  144.60    4.99
  -1  -7   2  175.35    5.64
  -2  -7   2  841.62   22.11
  -3  -7   2  116.67    4.37
  -4  -7   2   12.86    0.76
  -5  -7   2  119.74    3.00
  -6  -7   2  172.02    4.37
  -7  -7   2  848.88   18.72
  -8  -7   2  207.32    7.12
  -9  -7   2    9.03    1.48
 -10  -7   2   49.86    1.88
 -11  -7   2  408.11   22.15
 -12  -7   2   76.24    6.21
 -13  -7   2   37.32    2.06
 -14  -7   2  696.95   19.33
 -15  -7   2   20.81    1.73
 -16  -7   2  239.77    8.13
 -17  -7   2    8.96    1.05
 -18  -7   2   65.87    2.64
 -19  -7   2  158.87    3.90
 -20  -7   2   65.65    2.82
 -21  -7   2    9.25    0.79
 -22  -7   2   15.18    1.84
 -23  -7   2  118.48    6.11
 -24  -7   2   87.11    5.09
 -25  -7   2    1.95    0.72
 -26  -7   2   73.71    3.29
 -27  -7   2   65.47    3.50
 -28  -7   2   21.10    1.30
 -29  -7   2    3.65    1.26
 -30  -7   2    5.09    0.76
 -31  -7   2    2.60    1.41
 -32  -7   2   10.91    1.26
 -33  -7   2    2.85    1.16
  31  -7   3    1.34    1.23
  30  -7   3    4.30    0.69
  29  -7   3    1.23    1.12
  27  -7   3    5.89    1.01
  26  -7   3   16.69    1.19
  25  -7   3    7.99    1.84
  24  -7   3    8.89    1.05
  23  -7   3   63.38    2.53
  22  -7   3  195.51    6.21
  21  -7   3    9.29    1.05
  20  -7   3   15.43    1.48
  19  -7   3  173.90   10.12
  18  -7   3   87.11    3.79
  17  -7   3   48.99    2.31
  16  -7   3   11.82    1.05
  15  -7   3  462.20   12.00
  14  -7   3  703.85   24.32
  13  -7   3   61.68    3.04
  12  -7   3  335.77   13.80
  11  -7   3   31.00    2.13
  10  -7   3  826.59   25.26
   9  -7   3 1211.47   29.95
   8  -7   3   25.08    1.91
   7  -7   3  450.64   13.30
   6  -7   3   54.05    2.38
   5  -7   3   15.97    1.48
   4  -7   3 1153.62   26.88
   3  -7   3  560.98   24.57
   2  -7   3    0.51    0.61
   1  -7   3    4.66    0.72
   0  -7   3  741.35   16.98
  -1  -7   3  237.57    7.95
  -2  -7   3 1034.24   28.58
  -3  -7   3   84.84    3.32
  -4  -7   3  439.18   14.16
  -5  -7   3   48.16    2.24
  -6  -7   3  519.22   11.38
  -7  -7   3  479.76   11.20
  -8  -7   3  184.60    5.85
  -9  -7   3   73.09    3.40
 -10  -7   3  806.93   17.74
 -11  -7   3  394.49    9.07
 -12  -7   3   26.41    1.30
 -13  -7   3   82.74    3.61
 -14  -7   3   12.72    1.52
 -15  -7   3  168.59   11.89
 -16  -7   3   74.58    2.57
 -17  -7   3    2.31    0.98
 -18  -7   3    3.43    0.94
 -19  -7   3  233.88    9.25
 -20  -7   3   -0.07    0.90
 -21  -7   3    3.69    0.69
 -22  -7   3   -0.14    0.76
 -23  -7   3    0.90    1.01
 -24  -7   3   26.81    1.88
 -25  -7   3   34.83    3.65
 -26  -7   3   46.07    4.62
 -27  -7   3    0.83    1.05
 -28  -7   3   23.88    1.52
 -29  -7   3   27.21    2.28
 -30  -7   3    0.90    0.72
 -31  -7   3   -0.36    0.79
 -32  -7   3    3.18    1.26
  31  -7   4    0.33    0.51
  30  -7   4    2.67    1.23
  29  -7   4    7.73    1.01
  28  -7   4   38.66    2.60
  27  -7   4    7.84    1.52
  26  -7   4   -0.22    1.30
  25  -7   4   48.71    2.46
  24  -7   4   17.27    1.52
  23  -7   4   44.48    2.31
  22  -7   4    5.71    1.01
  21  -7   4  188.39    6.65
  20  -7   4  122.74    4.62
  19  -7   4  203.60    6.47
  18  -7   4   68.54    7.91
  17  -7   4  215.35    6.54
  16  -7   4    7.84    0.83
  15  -7   4   14.78    1.48
  14  -7   4    3.50    0.83
  13  -7   4  140.77    9.68
  12  -7   4  211.70   12.79
  11  -7   4   67.68    4.95
  10  -7   4   12.90    1.52
   9  -7   4 1243.19   31.76
   8  -7   4  128.23    4.26
   7  -7   4   87.84    3.58
   6  -7   4    1.95    0.47
   5  -7   4   29.48    1.23
   4  -7   4   91.41    4.52
   3  -7   4 1572.50   35.08
   2  -7   4   16.77    1.23
   1  -7   4  146.37    3.79
   0  -7   4  765.24   31.58
  -1  -7   4   22.00    1.16
  -2  -7   4   79.78    2.67
  -3  -7   4  253.10    8.67
  -4  -7   4  140.88    4.30
  -5  -7   4   23.16    1.45
  -6  -7   4    2.24    0.47
  -7  -7   4  122.41    3.69
  -8  -7   4    4.16    0.58
  -9  -7   4  338.16   15.21
 -10  -7   4   10.98    1.12
 -11  -7   4    5.35    0.72
 -12  -7   4  363.85    9.07
 -13  -7   4  155.73    5.09
 -14  -7   4   20.38    1.55
 -16  -7   4  392.03    9.86
 -17  -7   4   90.55    3.25
 -18  -7   4   50.01    1.99
 -19  -7   4  112.30    4.16
 -20  -7   4   10.44    1.59
 -21  -7   4   60.85    2.31
 -22  -7   4   13.84    1.01
 -25  -7   4    0.98    0.76
 -26  -7   4   14.56    1.23
 -27  -7   4    4.48    1.19
 -28  -7   4   11.35    1.08
 -29  -7   4    1.26    0.72
 -30  -7   4    4.70    0.90
 -31  -7   4    9.11    1.63
 -32  -7   4    9.65    0.76
 -33  -7   4   -0.22    1.37
  30  -7   5   -0.61    0.79
  29  -7   5   -1.41    1.05
  28  -7   5   10.41    1.37
  27  -7   5   68.90    5.71
  26  -7   5   29.38    1.70
  25  -7   5   32.99    1.88
  24  -7   5    9.39    0.87
  23  -7   5  143.99    4.81
  22  -7   5   92.43    6.94
  21  -7   5    4.30    0.83
  20  -7   5    2.24    1.16
  19  -7   5  172.60    6.00
  18  -7   5  166.06    8.49
  17  -7   5  306.54    8.20
  16  -7   5  163.50    9.07
  15  -7   5  272.36    7.26
  14  -7   5   21.28    1.55
  13  -7   5   47.33    3.11
  12  -7   5  597.04   13.98
  11  -7   5  364.61   21.79
  10  -7   5    9.54    0.87
   9  -7   5  520.84   27.71
   8  -7   5  841.73   20.96
   7  -7   5   33.78    1.99
   6  -7   5   72.01    3.14
   5  -7   5    4.91    0.79
   4  -7   5 1017.98   22.84
   3  -7   5  147.24    4.16
   2  -7   5  223.84    8.09
   1  -7   5   89.35    5.13
   0  -7   5   12.68    1.01
  -1  -7   5  873.20   23.59
  -2  -7   5 1196.18   31.11
  -3  -7   5   45.63    1.73
  -4  -7   5 1156.87   30.03
  -5  -7   5  133.58    3.36
  -6  -7   5  618.90   16.77
  -7  -7   5   18.79    1.34
  -8  -7   5    4.41    0.51
  -9  -7   5  134.52    6.90
 -10  -7   5 1098.74   21.79
 -11  -7   5  137.59    3.79
 -12  -7   5  106.01    5.78
 -13  -7   5   65.15    3.54
 -14  -7   5   54.85    2.28
 -15  -7   5  146.51    6.40
 -16  -7   5   81.33    2.71
 -17  -7   5   54.20    3.69
 -18  -7   5   33.02    1.84
 -19  -7   5  115.48    6.03
 -20  -7   5   10.26    1.23
 -21  -7   5  185.32    7.70
 -22  -7   5   34.14    2.78
 -23  -7   5   14.78    1.30
 -24  -7   5   62.83    2.60
 -25  -7   5    4.77    1.08
 -26  -7   5    5.09    0.87
 -27  -7   5    7.44    1.05
 -28  -7   5    2.28    0.90
 -29  -7   5    4.08    0.83
 -31  -7   5   -0.18    0.98
 -32  -7   5    0.22    0.83
 -33  -7   5   -1.66    1.63
  30  -7   6    3.87    2.78
  29  -7   6   16.55    1.59
  28  -7   6    9.61    0.98
  27  -7   6   28.29    1.63
  26  -7   6    0.79    1.16
  25  -7   6   31.15    1.52
  24  -7   6   14.92    1.26
  23  -7   6   69.92    5.31
  22  -7   6   -0.04    0.79
  21  -7   6   14.31    1.73
  20  -7   6  203.10    7.48
  19  -7   6  289.56    8.96
  18  -7   6   24.75    2.24
  17  -7   6  151.46    5.35
  16  -7   6  304.16   10.88
  15  -7   6  240.49    7.88
  14  -7   6   24.86    1.63
  13  -7   6  218.71   10.23
  12  -7   6  632.96   22.76
  11  -7   6  292.78    9.61
  10  -7   6  378.12   10.41
   9  -7   6   87.95    3.25
   8  -7   6  651.24   18.72
   7  -7   6 1557.61   42.74
   6  -7   6  435.82   12.39
   5  -7   6   53.01    5.02
   4  -7   6  328.73   11.38
   3  -7   6 1053.39   50.95
   2  -7   6  117.39    3.83
   1  -7   6   18.64    2.24
   0  -7   6 1044.50   22.00
  -1  -7   6  546.13   22.33
  -2  -7   6   57.38    2.13
  -3  -7   6  635.99   17.09
  -4  -7   6  162.23    7.77
  -5  -7   6 1691.08   36.49
  -6  -7   6 1727.86   48.02
  -7  -7   6  250.86   13.12
  -8  -7   6  303.98   14.24
  -9  -7   6   34.40    1.77
 -10  -7   6   26.38    1.19
 -11  -7   6    2.85    1.12
 -12  -7   6  212.82    5.85
 -14  -7   6    5.85    0.79
 -15  -7   6   63.09    3.32
 -16  -7   6   90.40    3.47
 -17  -7   6   17.42    1.52
 -20  -7   6    1.48    0.98
 -21  -7   6   86.21    2.42
 -22  -7   6   26.09    2.42
 -23  -7   6    2.75    0.51
 -24  -7   6   27.14    2.24
 -26  -7   6   -0.22    1.41
 -27  -7   6    0.98    0.69
 -28  -7   6    3.36    1.05
 -29  -7   6    1.37    0.87
 -30  -7   6    0.14    0.76
 -31  -7   6    1.26    1.77
 -33  -7   6    1.16    0.98
  29  -7   7   -0.90    1.05
  28  -7   7   15.46    1.73
  27  -7   7   11.31    1.19
  26  -7   7    4.41    1.01
  25  -7   7   10.70    1.05
  24  -7   7    1.52    1.19
  23  -7   7   21.43    1.41
  22  -7   7   96.98    3.76
  21  -7   7   96.98    6.50
  20  -7   7  123.72    5.35
  19  -7   7    1.01    0.72
  18  -7   7   32.19    2.17
  17  -7   7  696.01   22.22
  15  -7   7  360.99   10.44
  14  -7   7   24.97    2.13
  13  -7   7  337.29   10.26
  12  -7   7  154.61    9.57
  11  -7   7   82.63    4.81
  10  -7   7    5.96    0.72
   9  -7   7   26.59    1.73
   8  -7   7  261.20    8.31
   7  -7   7  124.87    3.97
   6  -7   7   73.71    2.46
   5  -7   7   27.24    2.53
   4  -7   7   91.02    4.99
   3  -7   7   64.03    4.05
   1  -7   7  130.47    5.49
   0  -7   7    0.54    0.51
  -2  -7   7    2.42    0.72
  -4  -7   7  224.60    9.25
  -5  -7   7  523.80   20.13
  -6  -7   7   32.99    1.45
  -7  -7   7  153.13    5.42
  -8  -7   7  114.97    4.01
  -9  -7   7   57.63    1.88
 -10  -7   7   70.20    2.24
 -11  -7   7   59.47    2.46
 -13  -7   7   15.39    1.12
 -14  -7   7  179.29    6.94
 -15  -7   7   63.45    3.61
 -16  -7   7   21.28    1.19
 -18  -7   7   26.74    2.17
 -19  -7   7    4.26    1.16
 -21  -7   7   13.04    1.16
 -22  -7   7   12.36    1.59
 -24  -7   7   69.05    3.54
 -25  -7   7    2.57    0.72
 -26  -7   7   41.84    2.53
 -27  -7   7   12.43    1.26
 -28  -7   7    8.09    0.94
 -29  -7   7    2.24    2.13
 -30  -7   7    5.93    0.98
 -31  -7   7    0.33    0.94
 -32  -7   7   -0.40    1.12
 -33  -7   7   -0.47    0.79
  29  -7   8    5.67    0.98
  28  -7   8    8.27    1.05
  27  -7   8   33.24    1.84
  26  -7   8    0.25    1.01
  25  -7   8    3.47    1.05
  24  -7   8   38.19    1.99
  23  -7   8   54.27    2.49
  22  -7   8    1.55    0.76
  21  -7   8   -0.94    0.98
  20  -7   8  175.06    9.50
  19  -7   8   30.35    1.84
  18  -7   8  318.43   13.08
  17  -7   8   24.89    1.66
  16  -7   8  306.58   15.18
  15  -7   8    1.99    0.94
  14  -7   8   21.50    1.66
  13  -7   8   78.08    3.58
  12  -7   8   68.94    4.95
  11  -7   8  662.59   21.79
  10  -7   8   72.81    4.12
   9  -7   8   23.56    1.88
   8  -7   8  495.22   13.22
   7  -7   8  576.81   15.25
   6  -7   8   16.37    1.08
   5  -7   8  132.42    4.55
   3  -7   8  112.23    6.47
   1  -7   8  218.31   11.53
  -2  -7   8  438.86   12.68
  -4  -7   8  503.64   22.15
  -6  -7   8   54.78    3.58
  -7  -7   8    7.37    0.98
  -9  -7   8  611.10   18.79
 -10  -7   8  132.82    4.34
 -11  -7   8   23.77    1.30
 -12  -7   8  253.97    6.97
 -13  -7   8  317.78    7.66
 -14  -7   8  135.64    3.90
 -15  -7   8   19.51    2.64
 -16  -7   8   75.52    2.67
 -17  -7   8    3.54    0.61
 -18  -7   8    4.91    1.73
 -19  -7   8   37.11    2.64
 -20  -7   8    0.98    1.08
 -21  -7   8   37.61    2.06
 -22  -7   8   11.09    0.98
 -23  -7   8    2.20    1.16
 -24  -7   8   45.60    1.81
 -25  -7   8   14.16    1.41
 -26  -7   8    2.57    0.87
 -27  -7   8    2.53    1.16
 -28  -7   8   17.23    1.55
 -29  -7   8   19.58    2.82
 -30  -7   8    5.89    0.90
 -31  -7   8    2.38    1.08
 -32  -7   8    0.79    0.90
 -33  -7   8    3.76    1.48
  28  -7   9   -0.58    1.16
  27  -7   9   -0.25    1.01
  26  -7   9   38.63    2.42
  25  -7   9    1.41    0.76
  24  -7   9    6.94    1.08
  23  -7   9    1.37    0.83
  22  -7   9  111.11    3.90
  21  -7   9    4.99    0.94
  20  -7   9   20.27    1.77
  19  -7   9    7.84    1.01
  18  -7   9   53.33    2.38
  17  -7   9   80.36    3.14
  16  -7   9  220.66    5.74
  15  -7   9  719.60   24.14
  14  -7   9    0.07    0.87
  13  -7   9   76.31    4.52
  12  -7   9  146.66    6.29
  11  -7   9  211.48    8.13
  10  -7   9  354.49   13.44
   9  -7   9   84.04    3.72
   8  -7   9    2.06    0.90
   7  -7   9  465.60   15.43
   6  -7   9   16.26    1.30
   5  -7   9  258.81   13.69
   4  -7   9    1.59    0.94
   3  -7   9  481.53   22.26
   2  -7   9   47.01    3.50
   1  -7   9   56.73    2.64
   0  -7   9    0.79    0.36
  -1  -7   9  409.34   17.23
  -2  -7   9   36.13    2.02
  -5  -7   9  302.50    7.66
  -9  -7   9   16.66    1.66
 -11  -7   9  402.62   13.33
 -12  -7   9  274.57   13.44
 -13  -7   9    6.29    0.79
 -14  -7   9   16.73    1.52
 -15  -7   9   48.74    3.07
 -16  -7   9   47.84    1.99
 -17  -7   9   29.81    1.59
 -18  -7   9    9.68    0.79
 -19  -7   9    0.87    0.58
 -20  -7   9   -1.34    1.16
 -21  -7   9   24.10    1.95
 -22  -7   9    2.42    0.87
 -23  -7   9    2.53    1.01
 -24  -7   9   26.95    1.73
 -25  -7   9   11.67    0.94
 -26  -7   9   29.12    1.70
 -27  -7   9    4.05    2.28
 -28  -7   9    5.28    1.01
 -29  -7   9    2.96    1.19
 -30  -7   9    4.26    2.31
 -31  -7   9    2.02    1.26
 -32  -7   9    0.04    0.87
  27  -7  10   13.91    2.67
  26  -7  10   -0.14    1.45
  25  -7  10    5.24    0.94
  24  -7  10   13.91    1.45
  23  -7  10   61.32    2.42
  22  -7  10   20.67    1.23
  21  -7  10   59.76    3.18
  20  -7  10   26.48    2.20
  19  -7  10    7.55    1.23
  18  -7  10  149.59    5.74
  17  -7  10    2.10    0.83
  16  -7  10    7.30    1.05
  15  -7  10   70.64    3.79
  14  -7  10   11.85    1.12
  13  -7  10   53.22    1.88
  12  -7  10    5.46    1.16
  11  -7  10  254.33   10.12
  10  -7  10   42.31    1.81
   9  -7  10  155.44    7.33
   8  -7  10  191.25    7.66
   7  -7  10  119.13    4.84
   6  -7  10    4.01    1.30
   5  -7  10  147.53    5.60
   4  -7  10   52.50    1.95
   2  -7  10  431.13   16.84
  -4  -7  10  183.44    8.20
  -7  -7  10   88.70    3.79
  -8  -7  10   96.58    3.14
 -10  -7  10   93.98    5.02
 -11  -7  10    5.02    1.19
 -12  -7  10  351.35   16.62
 -13  -7  10   76.78    3.18
 -14  -7  10  138.20    4.77
 -15  -7  10   38.19    1.52
 -16  -7  10    4.34    0.76
 -17  -7  10  100.16    4.48
 -19  -7  10    0.47    0.65
 -20  -7  10   36.38    1.77
 -21  -7  10    5.46    0.72
 -22  -7  10   26.12    2.46
 -23  -7  10    0.43    0.76
 -24  -7  10    3.83    1.37
 -25  -7  10    3.36    0.83
 -26  -7  10   13.33    1.05
 -27  -7  10    0.04    1.12
 -28  -7  10    2.20    1.30
 -29  -7  10    3.22    1.52
  26  -7  11    5.42    1.52
  25  -7  11    1.01    0.69
  24  -7  11    4.34    3.22
  23  -7  11   -0.22    1.26
  22  -7  11   29.56    2.13
  21  -7  11   15.65    1.08
  20  -7  11   48.67    2.64
  19  -7  11   31.11    1.45
  17  -7  11    1.59    1.12
  16  -7  11  136.94    5.53
  15  -7  11   22.62    1.81
  14  -7  11   11.96    1.26
  13  -7  11   84.37    3.32
  12  -7  11  121.44    5.09
  11  -7  11    0.18    0.90
  10  -7  11  173.40    9.97
   9  -7  11   15.46    1.48
   8  -7  11   50.37    2.85
   5  -7  11    4.48    0.90
  -9  -7  11    3.58    0.79
 -10  -7  11    3.18    0.90
 -11  -7  11   62.91    2.46
 -12  -7  11  149.12    6.00
 -13  -7  11   95.57    4.23
 -14  -7  11   29.45    1.84
 -16  -7  11   45.31    2.75
 -17  -7  11   22.08    1.48
 -18  -7  11   56.51    3.29
 -19  -7  11   -0.07    0.69
 -20  -7  11    6.50    1.16
 -21  -7  11   13.37    1.19
 -22  -7  11   24.21    1.19
 -23  -7  11    3.36    1.34
 -24  -7  11   -0.04    0.72
 -25  -7  11   -1.37    1.45
 -26  -7  11    1.30    0.87
 -27  -7  11    0.36    1.08
 -28  -7  11    0.79    0.76
 -29  -7  11    3.14    0.87
 -30  -7  11    0.79    0.69
 -31  -7  11    0.98    1.12
  25  -7  12   14.24    1.19
  24  -7  12    0.07    0.90
  23  -7  12    9.43    0.98
  22  -7  12   17.63    1.63
  21  -7  12   44.01    3.54
  20  -7  12   18.07    1.45
  19  -7  12    1.16    0.87
  18  -7  12  114.65    4.44
  17  -7  12   74.47    4.12
  16  -7  12   17.67    1.08
  15  -7  12   40.54    2.24
  12  -7  12    7.95    1.08
  10  -7  12    3.00    1.12
   9  -7  12  339.50   18.79
   8  -7  12    2.20    1.37
   7  -7  12  100.63    5.78
   6  -7  12  324.61   12.97
 -11  -7  12    2.67    0.61
 -13  -7  12  111.39    3.54
 -14  -7  12   42.82    3.04
 -15  -7  12    5.56    1.01
 -16  -7  12   42.02    2.13
 -17  -7  12    4.30    1.55
 -18  -7  12   52.68    2.53
 -19  -7  12   24.50    1.45
 -20  -7  12    2.49    0.76
 -21  -7  12    6.87    2.53
 -22  -7  12   22.94    1.23
 -23  -7  12   13.66    1.08
 -24  -7  12    6.29    2.64
 -25  -7  12    2.17    0.69
 -26  -7  12   10.77    1.91
 -27  -7  12    0.18    1.63
 -28  -7  12    2.89    1.01
 -29  -7  12    4.34    0.87
 -30  -7  12    1.12    1.01
  24  -7  13   21.17    1.41
  23  -7  13    4.48    0.94
  22  -7  13    0.76    0.72
  21  -7  13   38.88    2.53
  20  -7  13    8.82    1.19
  19  -7  13    7.19    0.98
  18  -7  13    7.19    1.70
  17  -7  13   25.65    1.81
  16  -7  13  158.76    5.38
  15  -7  13   16.08    1.48
  14  -7  13   13.04    1.19
  13  -7  13    4.84    1.48
  12  -7  13  184.06   10.41
  11  -7  13    2.96    0.65
 -11  -7  13   13.22    1.12
 -12  -7  13    1.34    0.76
 -14  -7  13    7.77    1.45
 -15  -7  13    1.59    0.65
 -16  -7  13    8.31    0.79
 -17  -7  13   24.03    2.71
 -18  -7  13    3.72    1.37
 -19  -7  13   16.26    2.67
 -20  -7  13    5.93    0.72
 -21  -7  13    6.79    0.98
 -22  -7  13   12.47    1.08
 -23  -7  13    1.12    0.72
 -24  -7  13   13.33    0.87
 -25  -7  13    1.63    1.45
 -26  -7  13    0.18    0.87
 -27  -7  13   -0.11    0.90
 -28  -7  13    2.02    1.01
  23  -7  14    5.85    1.52
  22  -7  14    4.37    2.06
  21  -7  14    8.24    1.12
  20  -7  14   38.19    2.53
  19  -7  14    0.18    1.16
  18  -7  14   24.03    1.59
  17  -7  14   74.47    3.90
  16  -7  14   24.53    1.66
  15  -7  14    6.47    0.90
  13  -7  14  153.38    8.92
  12  -7  14    6.97    0.69
  11  -7  14    7.91    1.63
  10  -7  14   33.89    2.60
   8  -7  14  113.20    5.35
 -15  -7  14    8.56    1.52
 -18  -7  14   21.17    2.35
 -19  -7  14   62.98    4.30
 -20  -7  14    3.47    1.19
 -21  -7  14   -0.43    0.83
 -22  -7  14    1.84    0.65
 -23  -7  14    7.19    0.79
 -24  -7  14    2.57    0.69
 -25  -7  14   -1.66    2.02
 -26  -7  14    1.48    0.76
 -27  -7  14    0.83    0.79
 -28  -7  14    2.10    1.55
 -29  -7  14   -0.76    1.23
  21  -7  15   10.19    1.16
  20  -7  15   25.18    1.48
  19  -7  15   12.18    1.05
  18  -7  15   15.90    1.66
  17  -7  15   27.86    2.10
  16  -7  15   44.23    2.64
  15  -7  15    1.48    1.84
  11  -7  15    2.31    1.01
  10  -7  15  110.78    5.93
   8  -7  15    0.65    0.87
 -15  -7  15    5.93    0.72
 -16  -7  15   -0.07    0.79
 -17  -7  15   17.67    2.13
 -19  -7  15    5.06    2.20
 -21  -7  15    1.81    0.69
 -22  -7  15   17.89    1.48
 -23  -7  15   10.04    1.48
 -24  -7  15    1.48    1.37
 -25  -7  15    2.24    0.94
 -26  -7  15    1.45    0.79
 -27  -7  15    3.25    0.90
  20  -7  16    9.25    1.12
  19  -7  16    5.82    1.01
  18  -7  16    2.46    0.94
  17  -7  16   16.08    2.10
  16  -7  16    3.36    1.16
  15  -7  16   10.23    2.06
  11  -7  16   12.54    1.34
 -16  -7  16   12.43    1.19
 -17  -7  16    8.31    1.48
 -18  -7  16   -1.37    1.01
 -20  -7  16    2.49    1.41
 -22  -7  16   -0.25    1.16
 -23  -7  16    1.45    0.94
 -24  -7  16    4.26    1.34
 -25  -7  16    3.40    2.10
  19  -7  17   24.35    1.73
  16  -7  17   11.89    1.84
  14  -7  17    5.89    1.12
  12  -7  17   25.65    2.17
 -19  -7  17    1.55    0.76
 -21  -7  17    0.36    0.87
 -24  -7  17    0.40    1.08
  16  -7  18    8.20    1.88
  14  -7  18    0.58    0.83
 -20  -7  18    0.51    0.94
 -21  -7  18    2.64    1.12
 -22  -7  18   -2.24    1.95
  14  -7  19    1.16    1.52
  13  -8 -23    1.91    1.48
  12  -8 -23    2.93    1.08
  10  -8 -23    1.08    0.76
   9  -8 -23    4.95    2.24
   8  -8 -23    6.90    1.45
   7  -8 -23    1.34    0.98
   6  -8 -23   11.06    1.59
   5  -8 -23    2.10    1.34
   4  -8 -23    0.25    1.30
   3  -8 -23   -0.22    1.73
   2  -8 -23    5.93    1.16
   1  -8 -23   -1.19    1.48
   0  -8 -23    0.04    1.08
  -1  -8 -23    6.94    1.19
  16  -8 -22    0.58    1.34
  13  -8 -22   -0.51    1.05
  12  -8 -22    3.07    1.37
  11  -8 -22   10.98    1.88
  10  -8 -22   -0.33    1.05
   9  -8 -22   -2.28    1.23
   8  -8 -22   -0.29    1.48
   7  -8 -22   24.43    1.70
   6  -8 -22    3.50    1.16
   5  -8 -22    2.42    0.83
   4  -8 -22   22.04    1.52
   3  -8 -22   -0.58    0.87
   2  -8 -22    0.14    0.90
   1  -8 -22    2.78    1.63
   0  -8 -22   54.67    3.83
  -1  -8 -22    1.05    2.06
  -2  -8 -22   24.93    1.63
  -4  -8 -22   11.82    1.59
  -5  -8 -22   -0.83    0.90
  20  -8 -21   -0.69    0.90
  18  -8 -21    0.61    0.61
  17  -8 -21    3.61    0.79
  15  -8 -21   -0.58    0.72
  14  -8 -21    4.73    0.79
  12  -8 -21    2.02    1.52
  11  -8 -21    5.96    0.87
  10  -8 -21   18.07    1.48
   9  -8 -21   34.47    1.70
   8  -8 -21    0.22    0.79
   7  -8 -21    5.74    0.90
   6  -8 -21   -0.98    0.90
   5  -8 -21    9.86    1.30
   4  -8 -21    2.93    0.98
   3  -8 -21    7.73    1.08
   2  -8 -21   22.58    1.45
   1  -8 -21    2.38    0.79
   0  -8 -21    4.01    0.98
  -1  -8 -21    1.30    1.19
  -2  -8 -21    9.25    1.81
  -3  -8 -21    8.67    1.01
  -4  -8 -21   36.57    2.02
  -5  -8 -21    1.23    0.98
  -6  -8 -21   65.11    2.89
  -7  -8 -21   10.77    1.01
  -8  -8 -21   23.16    1.37
  -9  -8 -21    1.52    1.16
  21  -8 -20   -0.58    1.73
  20  -8 -20    1.08    1.08
  19  -8 -20   -0.76    1.73
  18  -8 -20   -1.23    1.88
  17  -8 -20    0.69    0.87
  16  -8 -20    7.12    1.16
  15  -8 -20    0.65    1.08
  14  -8 -20    8.17    1.48
  13  -8 -20   -0.43    1.16
  12  -8 -20   -0.76    0.69
  11  -8 -20    7.48    1.26
  10  -8 -20    7.52    1.34
   9  -8 -20   14.24    1.41
   8  -8 -20    1.23    0.69
   7  -8 -20   19.91    1.37
   6  -8 -20    0.61    1.05
   5  -8 -20   35.59    1.63
   4  -8 -20   41.77    3.32
   2  -8 -20   -0.69    0.79
   1  -8 -20   47.59    2.38
   0  -8 -20    9.03    2.17
  -2  -8 -20    4.05    1.34
  -3  -8 -20    0.36    0.94
  -4  -8 -20   21.28    1.48
  -5  -8 -20    3.76    1.37
  -6  -8 -20    3.00    1.16
  -7  -8 -20    2.89    1.91
  -8  -8 -20    2.20    1.16
  -9  -8 -20    0.43    1.81
 -10  -8 -20    3.47    0.87
 -11  -8 -20   -0.47    1.08
  22  -8 -19   -0.04    1.45
  21  -8 -19    0.40    0.94
  20  -8 -19   -0.61    0.98
  19  -8 -19    0.94    0.79
  18  -8 -19    1.08    1.19
  17  -8 -19   15.10    1.66
  16  -8 -19    1.59    0.87
  15  -8 -19    5.49    0.72
  14  -8 -19    2.02    0.87
  13  -8 -19   11.82    1.52
  12  -8 -19    1.26    1.12
  11  -8 -19   15.57    1.23
  10  -8 -19   30.68    1.70
   9  -8 -19    7.41    0.79
   8  -8 -19   -1.37    1.26
   7  -8 -19   69.77    2.89
   6  -8 -19    1.48    0.76
   5  -8 -19    5.35    1.08
   4  -8 -19   25.98    1.34
   3  -8 -19   39.60    1.63
   2  -8 -19   33.89    1.70
   1  -8 -19    2.57    0.69
   0  -8 -19   21.03    1.23
  -1  -8 -19   20.81    1.88
  -2  -8 -19   18.17    1.59
  -3  -8 -19    1.16    0.76
  -4  -8 -19   34.18    3.00
  -5  -8 -19    4.41    1.16
  -6  -8 -19   19.48    1.88
  -7  -8 -19   19.80    2.64
  -8  -8 -19   76.31    2.67
  -9  -8 -19   18.17    1.70
 -10  -8 -19   16.26    2.35
 -11  -8 -19   -1.70    1.05
 -12  -8 -19   29.34    1.99
 -13  -8 -19    1.91    1.23
  25  -8 -18    0.00    0.94
  22  -8 -18    0.65    1.01
  21  -8 -18    2.20    0.87
  20  -8 -18    1.99    0.87
  19  -8 -18   -0.36    1.05
  18  -8 -18    1.88    0.83
  17  -8 -18    2.46    0.90
  16  -8 -18   -0.29    0.79
  15  -8 -18   -0.18    0.72
  14  -8 -18    5.82    1.08
  13  -8 -18    2.89    1.08
  12  -8 -18   -0.22    0.83
  11  -8 -18   13.51    1.05
  10  -8 -18   14.34    1.19
   9  -8 -18    5.09    1.37
   8  -8 -18   85.78    2.46
   7  -8 -18   53.87    2.67
   6  -8 -18   50.69    2.85
   5  -8 -18   36.28    3.11
   4  -8 -18   27.57    1.34
   3  -8 -18   22.47    1.16
   2  -8 -18    4.55    2.13
   1  -8 -18    1.30    0.76
   0  -8 -18    0.94    0.83
  -1  -8 -18   46.72    3.83
  -2  -8 -18   13.12    1.05
  -3  -8 -18    9.79    1.37
  -4  -8 -18    1.88    1.01
  -5  -8 -18    5.78    1.16
  -6  -8 -18   21.21    2.06
  -7  -8 -18    2.28    0.79
  -8  -8 -18   13.95    1.70
  -9  -8 -18   51.05    3.32
 -10  -8 -18   11.38    1.88
 -11  -8 -18   25.98    2.96
 -12  -8 -18    1.34    1.41
 -13  -8 -18   22.62    1.63
 -14  -8 -18   93.11    3.40
 -15  -8 -18   38.41    2.71
  25  -8 -17    6.40    1.55
  24  -8 -17   -0.07    0.65
  23  -8 -17    0.61    0.79
  22  -8 -17    1.59    1.16
  21  -8 -17   11.31    1.91
  20  -8 -17    0.94    1.55
  19  -8 -17    1.95    1.30
  18  -8 -17   18.90    1.81
  17  -8 -17   13.98    1.08
  16  -8 -17    0.00    1.59
  15  -8 -17   39.35    2.53
  14  -8 -17   -0.29    0.72
  13  -8 -17   44.08    2.57
  12  -8 -17    2.35    0.83
  11  -8 -17   30.46    2.71
  10  -8 -17   19.40    1.26
   9  -8 -17   46.50    2.24
   8  -8 -17    1.41    0.83
   7  -8 -17    7.41    0.87
   6  -8 -17   59.29    2.89
   5  -8 -17    8.49    1.70
   4  -8 -17    7.37    0.83
   3  -8 -17    1.88    1.19
   2  -8 -17   26.41    1.91
   1  -8 -17   18.03    1.34
   0  -8 -17  188.79    5.56
  -1  -8 -17    0.98    0.90
  -2  -8 -17  104.02    4.52
  -3  -8 -17    3.29    1.81
  -4  -8 -17  126.43    5.13
  -5  -8 -17   20.09    1.55
  -6  -8 -17    7.84    1.30
  -7  -8 -17    4.52    2.02
  -8  -8 -17   72.01    3.11
  -9  -8 -17    9.68    1.05
 -10  -8 -17   11.38    1.08
 -11  -8 -17    0.43    1.05
 -12  -8 -17    7.37    1.59
 -13  -8 -17   32.41    2.46
 -14  -8 -17    0.87    1.26
 -15  -8 -17   10.26    1.37
 -16  -8 -17   58.43    2.96
 -17  -8 -17    1.91    0.98
  27  -8 -16    0.90    1.99
  25  -8 -16    2.93    1.30
  24  -8 -16    1.23    0.79
  23  -8 -16   -1.05    1.08
  22  -8 -16   -1.19    1.08
  21  -8 -16    1.63    0.83
  20  -8 -16    1.52    1.01
  19  -8 -16    1.59    0.61
  18  -8 -16    0.47    0.87
  17  -8 -16   -1.88    1.70
  16  -8 -16    3.32    0.94
  15  -8 -16    7.41    0.90
  13  -8 -16    6.76    1.08
  12  -8 -16   35.30    1.73
  11  -8 -16   10.19    1.37
  10  -8 -16   43.25    2.46
   9  -8 -16   49.83    1.88
   8  -8 -16    5.09    1.23
   7  -8 -16   29.41    1.73
   6  -8 -16   63.59    2.49
   5  -8 -16   10.91    1.45
   4  -8 -16  108.65    3.14
   3  -8 -16   11.24    1.19
   2  -8 -16  191.43    6.43
   1  -8 -16   29.16    1.73
   0  -8 -16   30.75    1.41
  -1  -8 -16    2.35    0.76
  -2  -8 -16    1.59    1.48
  -3  -8 -16    0.36    0.76
  -4  -8 -16    6.43    0.94
  -5  -8 -16   38.37    1.63
  -6  -8 -16   24.97    1.05
  -7  -8 -16   -0.51    1.01
  -8  -8 -16   13.37    1.73
  -9  -8 -16   25.80    2.57
 -10  -8 -16  107.20    4.59
 -11  -8 -16    6.87    0.90
 -12  -8 -16   44.23    2.85
 -13  -8 -16    7.88    1.30
 -14  -8 -16   32.37    2.71
 -15  -8 -16   33.53    2.53
 -16  -8 -16   28.07    1.77
 -17  -8 -16    4.62    0.83
 -18  -8 -16    1.16    1.37
 -19  -8 -16   15.65    1.26
  27  -8 -15    0.58    1.08
  26  -8 -15    0.79    1.12
  25  -8 -15    4.81    0.98
  24  -8 -15    2.78    0.87
  23  -8 -15    9.65    1.34
  22  -8 -15    4.23    1.12
  21  -8 -15   21.68    1.77
  20  -8 -15    9.61    0.87
  19  -8 -15   15.90    0.98
  18  -8 -15   17.09    1.41
  17  -8 -15   27.57    2.49
  16  -8 -15    0.94    0.72
  14  -8 -15    2.78    0.69
  13  -8 -15    0.90    0.90
  12  -8 -15   29.41    1.66
  11  -8 -15   27.82    1.37
  10  -8 -15   -0.69    0.90
   9  -8 -15   10.84    1.12
   8  -8 -15  110.82    3.36
   7  -8 -15   96.80    4.23
   6  -8 -15   73.53    3.32
   5  -8 -15    1.08    0.87
   4  -8 -15   10.55    1.34
   3  -8 -15   59.36    2.13
   2  -8 -15   15.32    1.16
   1  -8 -15  227.70    8.17
   0  -8 -15  524.45   11.38
  -1  -8 -15    4.16    0.90
  -2  -8 -15  167.58    5.09
  -3  -8 -15   11.85    1.45
  -4  -8 -15  228.86   10.15
  -5  -8 -15   76.67    3.76
  -6  -8 -15    6.47    1.34
  -7  -8 -15    2.24    0.98
  -8  -8 -15  395.39   12.00
  -9  -8 -15   -0.61    1.34
 -10  -8 -15   57.38    2.75
 -11  -8 -15   11.09    0.87
 -12  -8 -15  134.70    3.72
 -13  -8 -15    0.04    1.12
 -14  -8 -15    4.52    0.87
 -15  -8 -15   38.08    1.95
 -16  -8 -15   20.85    1.66
 -17  -8 -15    5.28    0.76
 -18  -8 -15   15.32    1.01
 -19  -8 -15   76.06    3.61
 -20  -8 -15   35.92    2.02
  28  -8 -14   -0.54    1.01
  27  -8 -14    3.07    1.26
  26  -8 -14    0.65    0.61
  25  -8 -14    3.50    0.61
  24  -8 -14   -1.34    1.95
  23  -8 -14   -0.04    1.41
  22  -8 -14   -0.76    1.26
  21  -8 -14   16.26    1.73
  20  -8 -14   10.23    2.10
  19  -8 -14   -0.54    0.83
  18  -8 -14    1.26    0.87
  17  -8 -14   14.85    1.95
  16  -8 -14    4.37    0.83
  15  -8 -14   14.45    0.79
  14  -8 -14    1.23    0.98
  13  -8 -14  103.12    2.71
  12  -8 -14   -0.29    0.69
  11  -8 -14    0.36    0.65
  10  -8 -14   22.84    2.02
   9  -8 -14   95.75    3.25
   8  -8 -14   44.73    2.57
   7  -8 -14   75.88    3.07
   6  -8 -14   55.03    1.70
   5  -8 -14   59.33    2.28
   4  -8 -14   21.82    1.23
   3  -8 -14  132.46    4.91
   2  -8 -14   86.97    3.29
   0  -8 -14  278.65    6.32
  -1  -8 -14   42.74    2.24
  -2  -8 -14   55.43    3.65
  -3  -8 -14    0.33    0.79
  -4  -8 -14   13.26    1.55
  -5  -8 -14    3.22    0.65
  -6  -8 -14   99.22    4.26
  -7  -8 -14   21.35    1.45
  -8  -8 -14   16.69    1.16
  -9  -8 -14   15.25    1.45
 -10  -8 -14  256.57    7.08
 -11  -8 -14    4.44    0.98
 -12  -8 -14  162.16    5.20
 -13  -8 -14   19.01    1.81
 -14  -8 -14  140.55    5.09
 -15  -8 -14    2.82    1.01
 -16  -8 -14  131.41    6.36
 -17  -8 -14   11.02    1.48
 -18  -8 -14   11.20    1.91
 -19  -8 -14    5.28    0.90
 -20  -8 -14   -0.76    0.87
 -21  -8 -14   -0.76    1.05
 -22  -8 -14    8.20    1.48
  29  -8 -13    1.19    1.52
  28  -8 -13    0.47    0.79
  27  -8 -13    1.16    1.19
  26  -8 -13   -0.36    1.45
  25  -8 -13   11.63    0.94
  24  -8 -13    3.32    1.05
  23  -8 -13   14.06    1.37
  22  -8 -13   10.91    1.05
  21  -8 -13   -1.52    1.12
  20  -8 -13    1.66    1.08
  19  -8 -13  118.01    3.04
  18  -8 -13   67.24    2.57
  17  -8 -13   -0.79    1.23
  16  -8 -13   16.40    1.16
  15  -8 -13   74.58    4.62
  14  -8 -13   20.52    1.34
  13  -8 -13  104.49    2.89
  12  -8 -13    1.70    0.54
  11  -8 -13   60.63    2.28
  10  -8 -13   16.19    1.01
   9  -8 -13   12.00    1.05
   8  -8 -13  205.81   11.71
   7  -8 -13    4.41    0.90
   6  -8 -13   73.35    3.07
   5  -8 -13  163.50    7.52
   4  -8 -13   94.70    3.36
   3  -8 -13  177.91    5.42
   2  -8 -13  122.13    5.17
   1  -8 -13   64.31    1.88
   0  -8 -13  167.33    4.48
  -1  -8 -13   78.33    3.36
  -2  -8 -13  302.46    6.72
  -3  -8 -13  178.13    7.73
  -4  -8 -13  387.70    9.18
  -5  -8 -13  414.00   20.09
  -6  -8 -13   85.20    3.22
  -7  -8 -13   53.84    3.11
  -8  -8 -13  183.04    6.83
  -9  -8 -13  118.12    5.06
 -10  -8 -13  419.74   10.48
 -11  -8 -13    8.45    1.16
 -12  -8 -13  266.58   10.88
 -13  -8 -13   48.63    2.60
 -14  -8 -13  489.77   16.33
 -15  -8 -13   13.59    2.06
 -16  -8 -13    3.04    1.37
 -18  -8 -13  353.12   10.70
 -19  -8 -13    2.38    0.87
 -20  -8 -13   25.15    2.38
 -21  -8 -13   50.01    2.67
 -22  -8 -13  107.46    6.79
 -23  -8 -13    8.17    1.23
  29  -8 -12    4.08    0.76
  28  -8 -12    0.47    0.79
  27  -8 -12    1.48    0.94
  26  -8 -12    0.00    0.83
  24  -8 -12   -0.54    0.58
  23  -8 -12    2.17    0.87
  22  -8 -12    0.87    0.79
  21  -8 -12    9.32    0.90
  19  -8 -12   16.22    1.01
  18  -8 -12   40.29    1.95
  17  -8 -12   37.76    3.65
  15  -8 -12    3.36    1.01
  14  -8 -12    2.96    0.72
  13  -8 -12  333.46    8.71
  12  -8 -12    6.83    1.30
  11  -8 -12   59.91    2.31
  10  -8 -12   35.19    1.26
   9  -8 -12    2.28    1.01
   8  -8 -12    1.48    0.69
   7  -8 -12  254.01    7.59
   6  -8 -12    0.72    0.72
   5  -8 -12   28.76    1.37
   4  -8 -12   -0.54    0.79
   3  -8 -12    4.26    0.72
   2  -8 -12   28.72    3.04
   1  -8 -12   50.37    3.32
   0  -8 -12   -0.83    1.01
  -1  -8 -12    2.57    1.05
  -2  -8 -12   27.14    1.52
  -3  -8 -12    8.64    0.87
  -4  -8 -12   -0.04    1.23
  -5  -8 -12  169.53    6.14
  -6  -8 -12   34.90    1.52
  -7  -8 -12   16.80    1.12
  -8  -8 -12  194.25    5.64
  -9  -8 -12   19.62    1.84
 -10  -8 -12  297.40   10.91
 -11  -8 -12   79.35    3.36
 -13  -8 -12    3.14    0.72
 -14  -8 -12    1.01    0.87
 -15  -8 -12    8.85    1.26
 -16  -8 -12   99.07    3.29
 -17  -8 -12   48.49    2.02
 -18  -8 -12    1.77    0.83
 -19  -8 -12    3.72    0.90
 -20  -8 -12   23.63    2.60
 -21  -8 -12    1.19    0.98
 -23  -8 -12    1.59    1.08
 -24  -8 -12   20.88    2.06
  31  -8 -11   -0.58    0.94
  30  -8 -11    2.17    0.65
  29  -8 -11    1.66    1.63
  27  -8 -11    4.23    0.98
  26  -8 -11   13.12    2.71
  25  -8 -11   16.04    1.30
  24  -8 -11    0.04    1.05
  23  -8 -11   17.78    1.16
  22  -8 -11   43.68    2.24
  21  -8 -11    8.17    1.34
  20  -8 -11   37.29    3.07
  19  -8 -11   89.21    2.60
  18  -8 -11  115.91    4.70
  17  -8 -11   21.46    1.81
  16  -8 -11    6.72    1.34
  15  -8 -11   78.62    4.23
  14  -8 -11   71.72    2.46
  13  -8 -11  434.09   20.45
  12  -8 -11  287.57   14.09
  11  -8 -11    1.81    1.05
  10  -8 -11    9.65    0.87
   9  -8 -11  177.55    4.81
   8  -8 -11  175.56    5.38
   7  -8 -11  208.16    6.79
   6  -8 -11   34.58    2.13
   5  -8 -11  381.44    8.17
   4  -8 -11   89.97    3.50
   3  -8 -11   28.83    1.66
   2  -8 -11  330.28    8.20
   1  -8 -11   70.17    2.24
   0  -8 -11    2.60    0.47
  -1  -8 -11   14.67    1.01
  -2  -8 -11  644.63   18.75
  -3  -8 -11  713.39   25.36
  -4  -8 -11   10.41    1.05
  -5  -8 -11    2.06    0.83
  -6  -8 -11  241.22    6.00
  -7  -8 -11  408.18   10.91
  -8  -8 -11   18.64    1.26
  -9  -8 -11   12.72    1.08
 -10  -8 -11  392.18   10.01
 -12  -8 -11   56.11    2.38
 -13  -8 -11   41.23    1.84
 -14  -8 -11  198.62    8.31
 -15  -8 -11    3.29    1.19
 -16  -8 -11    6.54    1.37
 -17  -8 -11  156.81    5.82
 -18  -8 -11  284.39   10.01
 -19  -8 -11    5.17    0.87
 -20  -8 -11   26.99    2.82
 -21  -8 -11   50.04    2.85
 -22  -8 -11  222.28    6.58
 -23  -8 -11   59.04    5.71
 -24  -8 -11   12.86    1.99
 -25  -8 -11   21.03    2.78
  30  -8 -10    4.62    0.79
  28  -8 -10   -0.07    1.16
  27  -8 -10    8.71    1.16
  25  -8 -10    1.34    0.83
  24  -8 -10    0.00    0.58
  23  -8 -10   10.08    0.87
  22  -8 -10   24.61    1.16
  21  -8 -10    0.61    0.58
  20  -8 -10    4.37    0.83
  19  -8 -10    4.26    1.30
  18  -8 -10  150.85    5.20
  17  -8 -10   28.36    1.52
  16  -8 -10   21.35    2.10
  15  -8 -10   29.95    2.28
  14  -8 -10    1.16    1.12
  13  -8 -10   91.74    4.12
  12  -8 -10   26.12    1.63
  11  -8 -10  563.95   13.55
  10  -8 -10    3.11    0.94
   9  -8 -10   31.83    1.34
   8  -8 -10   99.11    3.87
   7  -8 -10  528.10   11.67
   6  -8 -10   47.44    1.77
   5  -8 -10  398.14   11.96
   4  -8 -10    3.11    0.79
   3  -8 -10   43.58    1.99
   2  -8 -10   77.58    3.22
   1  -8 -10  154.57    5.89
   0  -8 -10   19.51    1.08
  -1  -8 -10  103.63    3.40
  -2  -8 -10    4.55    0.87
  -3  -8 -10   88.52    2.57
  -4  -8 -10   16.91    0.98
  -5  -8 -10    3.18    0.76
  -6  -8 -10   96.40    2.71
  -7  -8 -10  758.16   18.21
  -8  -8 -10    1.30    0.90
  -9  -8 -10  134.16    9.11
 -10  -8 -10  120.72    3.79
 -11  -8 -10   53.51    1.73
 -12  -8 -10   85.16    3.00
 -13  -8 -10   90.19    3.50
 -14  -8 -10   11.89    1.01
 -15  -8 -10   54.41    2.75
 -16  -8 -10   66.63    2.93
 -17  -8 -10    1.99    0.65
 -18  -8 -10   21.39    1.91
 -19  -8 -10   60.45    2.38
 -20  -8 -10    1.45    0.87
 -21  -8 -10    3.47    1.81
 -22  -8 -10   44.88    2.75
 -23  -8 -10    3.97    1.37
 -24  -8 -10   12.68    1.23
 -25  -8 -10   12.00    0.94
 -26  -8 -10    7.99    1.55
  31  -8  -9    1.34    2.17
  30  -8  -9    3.11    0.69
  29  -8  -9    0.83    0.76
  28  -8  -9   17.05    1.88
  27  -8  -9    6.61    0.87
  26  -8  -9    3.40    0.94
  25  -8  -9    6.65    1.23
  23  -8  -9    0.25    1.19
  21  -8  -9   19.69    1.52
  20  -8  -9   19.44    1.77
  19  -8  -9    2.06    1.01
  18  -8  -9    6.58    0.79
  17  -8  -9   82.09    4.48
  16  -8  -9   61.14    2.53
  15  -8  -9   38.37    1.52
  14  -8  -9    0.43    0.61
  13  -8  -9  210.50    7.41
  12  -8  -9    6.58    1.73
  11  -8  -9   -1.91    1.12
  10  -8  -9  109.59    3.22
   9  -8  -9  480.30   11.82
   8  -8  -9   29.77    1.34
   7  -8  -9  185.14    7.99
   5  -8  -9  585.08   14.13
   4  -8  -9    4.44    0.83
   3  -8  -9  139.98    3.58
   2  -8  -9   60.09    2.57
   0  -8  -9   10.59    1.01
  -1  -8  -9    2.75    0.61
  -2  -8  -9   34.25    1.88
  -3  -8  -9  237.75    5.85
  -4  -8  -9    3.22    0.90
  -5  -8  -9  128.12    4.05
  -6  -8  -9  126.71    4.44
  -7  -8  -9  111.03    5.42
  -8  -8  -9  121.33    4.44
  -9  -8  -9    7.37    0.72
 -10  -8  -9   68.04    4.66
 -11  -8  -9   31.83    2.02
 -12  -8  -9  184.63    9.32
 -13  -8  -9  241.65    6.11
 -14  -8  -9   88.67    4.34
 -15  -8  -9   46.97    2.28
 -16  -8  -9    0.83    0.87
 -17  -8  -9   10.70    1.01
 -18  -8  -9  114.14    3.40
 -19  -8  -9    7.26    0.87
 -20  -8  -9   52.07    2.06
 -21  -8  -9    2.96    0.79
 -22  -8  -9    6.03    1.19
 -23  -8  -9    7.01    1.26
 -24  -8  -9   36.02    1.73
 -25  -8  -9    4.99    0.79
 -26  -8  -9    1.48    1.05
 -27  -8  -9   13.55    1.59
  31  -8  -8    0.83    1.19
  30  -8  -8    6.11    0.94
  29  -8  -8   -0.79    0.98
  28  -8  -8    0.98    0.94
  27  -8  -8   -0.22    0.90
  26  -8  -8    0.33    0.58
  25  -8  -8   10.77    0.98
  24  -8  -8    1.55    1.23
  23  -8  -8    2.49    0.65
  22  -8  -8    7.30    0.94
  21  -8  -8    2.89    0.83
  20  -8  -8    6.61    0.83
  19  -8  -8    3.29    1.23
  18  -8  -8   72.88    3.07
  17  -8  -8   89.57    3.14
  16  -8  -8   97.92    4.41
  15  -8  -8   85.96    3.32
  14  -8  -8    8.24    0.79
  13  -8  -8    2.57    0.76
  12  -8  -8   75.91    2.57
  11  -8  -8  316.52    7.95
  10  -8  -8   93.69    4.70
   9  -8  -8  188.10    5.38
   8  -8  -8  101.35    3.83
   7  -8  -8  481.46   14.20
   6  -8  -8    2.42    0.61
   5  -8  -8  168.77    5.85
   4  -8  -8   37.43    1.48
   3  -8  -8  170.83    5.06
   2  -8  -8   15.79    0.94
   1  -8  -8    4.66    0.76
   0  -8  -8   38.41    2.60
  -1  -8  -8   40.87    1.77
  -2  -8  -8    8.74    0.83
  -3  -8  -8  836.56   20.41
  -4  -8  -8    9.25    0.90
  -5  -8  -8   80.36    3.90
  -6  -8  -8  260.29    7.70
  -7  -8  -8 1474.58   34.83
  -8  -8  -8  309.83    9.94
  -9  -8  -8   29.59    1.52
 -10  -8  -8   77.43    2.75
 -11  -8  -8    3.32    0.83
 -12  -8  -8   74.54    2.85
 -13  -8  -8   29.66    2.17
 -14  -8  -8    0.43    0.51
 -15  -8  -8   73.89    3.79
 -16  -8  -8   30.13    1.95
 -17  -8  -8    4.66    0.94
 -18  -8  -8   20.38    1.26
 -19  -8  -8   38.66    1.91
 -20  -8  -8   36.89    1.63
 -21  -8  -8   60.88    2.89
 -22  -8  -8   50.48    2.57
 -23  -8  -8    9.97    0.98
 -24  -8  -8    5.38    1.01
 -25  -8  -8   14.92    1.30
 -26  -8  -8   23.05    2.02
 -27  -8  -8   -0.79    1.30
 -28  -8  -8   -1.12    0.98
  32  -8  -7    1.01    0.72
  31  -8  -7   -0.33    1.73
  30  -8  -7    0.04    0.83
  29  -8  -7    2.57    0.94
  28  -8  -7    7.05    1.08
  27  -8  -7    8.38    1.37
  26  -8  -7   11.16    1.30
  25  -8  -7    1.88    0.83
  24  -8  -7   26.38    1.81
  23  -8  -7   21.82    1.30
  22  -8  -7    4.26    0.79
  21  -8  -7   34.90    1.48
  20  -8  -7   36.46    1.73
  19  -8  -7    0.40    0.72
  18  -8  -7   18.25    1.01
  17  -8  -7    6.61    0.90
  16  -8  -7   79.06    4.44
  15  -8  -7    0.33    1.52
  14  -8  -7    5.93    0.76
  13  -8  -7   24.64    1.30
  12  -8  -7   84.62    2.78
  11  -8  -7    1.08    0.51
  10  -8  -7   22.91    1.34
   9  -8  -7  274.31    7.52
   8  -8  -7   92.39    3.47
   7  -8  -7   24.79    1.59
   6  -8  -7   62.62    2.64
   5  -8  -7  118.22    4.05
   4  -8  -7   36.42    2.28
   3  -8  -7   98.35    3.04
   2  -8  -7   86.39    2.57
   1  -8  -7  549.31   11.96
   0  -8  -7   33.10    1.63
  -1  -8  -7 2082.10   54.20
  -2  -8  -7    3.58    1.01
  -3  -8  -7  257.51    6.61
  -4  -8  -7    0.18    0.54
  -5  -8  -7  191.90    6.97
  -6  -8  -7   77.18    2.64
  -7  -8  -7   18.36    0.90
  -8  -8  -7    2.31    0.94
  -9  -8  -7    1.16    0.61
 -10  -8  -7   19.80    1.52
 -11  -8  -7    1.08    0.65
 -12  -8  -7   18.36    1.16
 -13  -8  -7   13.84    1.08
 -14  -8  -7   72.63    2.82
 -15  -8  -7    0.79    0.65
 -16  -8  -7   99.15    3.65
 -17  -8  -7   16.62    1.16
 -18  -8  -7   75.19    2.96
 -19  -8  -7    3.04    0.83
 -20  -8  -7  270.52   11.60
 -21  -8  -7   26.38    3.54
 -22  -8  -7    0.83    0.83
 -23  -8  -7    3.43    1.01
 -24  -8  -7   85.99    3.61
 -25  -8  -7    0.22    0.58
 -26  -8  -7   -0.76    1.73
 -27  -8  -7   13.12    1.08
 -28  -8  -7    8.71    1.16
  32  -8  -6   -0.29    0.87
  31  -8  -6    0.83    0.65
  30  -8  -6    0.90    1.19
  29  -8  -6    0.94    1.99
  28  -8  -6    8.49    0.79
  27  -8  -6    0.36    0.94
  26  -8  -6    3.14    1.08
  25  -8  -6    3.43    0.94
  24  -8  -6    0.90    0.83
  23  -8  -6   -0.54    0.83
  22  -8  -6   18.86    1.52
  21  -8  -6   81.12    2.82
  20  -8  -6    1.84    0.87
  19  -8  -6   14.99    1.08
  18  -8  -6    0.00    0.51
  17  -8  -6  184.06    4.73
  16  -8  -6    7.62    0.87
  15  -8  -6  114.86    4.84
  13  -8  -6    1.12    0.61
  11  -8  -6  202.84    6.25
  10  -8  -6   44.84    1.41
   9  -8  -6   18.54    1.01
   8  -8  -6   26.81    1.77
   7  -8  -6    5.64    1.05
   6  -8  -6  182.57    6.18
   5  -8  -6    1.08    0.47
   4  -8  -6   41.05    2.02
   3  -8  -6  142.47    3.79
   1  -8  -6   89.50    2.31
   0  -8  -6   11.45    0.76
  -1  -8  -6  635.20   18.86
  -2  -8  -6   83.14    2.31
  -4  -8  -6  367.14    9.47
  -5  -8  -6   17.16    1.01
  -6  -8  -6   58.71    2.06
  -7  -8  -6  264.92    8.24
  -8  -8  -6  210.76    6.58
  -9  -8  -6   74.18    2.78
 -10  -8  -6  446.08   20.52
 -11  -8  -6   88.99    2.75
 -12  -8  -6   18.43    1.34
 -13  -8  -6   40.58    2.24
 -14  -8  -6  264.70    7.91
 -15  -8  -6   25.58    1.59
 -16  -8  -6    1.88    0.90
 -17  -8  -6   82.89    2.96
 -18  -8  -6   73.24    3.18
 -19  -8  -6    4.55    0.76
 -20  -8  -6   85.52    2.60
 -21  -8  -6   33.60    1.73
 -22  -8  -6   54.34    2.38
 -23  -8  -6   24.82    1.55
 -24  -8  -6    0.33    0.69
 -25  -8  -6    3.40    0.94
 -26  -8  -6   26.05    1.70
 -27  -8  -6   20.45    1.23
 -28  -8  -6    8.13    1.73
 -29  -8  -6    0.29    1.59
  31  -8  -5    7.33    0.83
  30  -8  -5    1.08    0.69
  29  -8  -5    0.04    0.76
  28  -8  -5   27.17    1.99
  27  -8  -5    0.04    0.76
  26  -8  -5    1.55    0.69
  25  -8  -5    0.51    1.08
  24  -8  -5   12.21    1.05
  23  -8  -5    2.06    0.61
  22  -8  -5    5.02    0.72
  21  -8  -5   15.68    0.90
  19  -8  -5    1.81    1.16
  18  -8  -5  118.04    3.32
  17  -8  -5   54.74    2.02
  16  -8  -5   37.65    1.84
  15  -8  -5   25.33    1.26
  14  -8  -5   12.50    0.83
  13  -8  -5  384.26    9.68
  12  -8  -5    6.43    0.65
  11  -8  -5    3.47    0.79
  10  -8  -5   35.37    1.88
   9  -8  -5  213.36    6.65
   8  -8  -5    1.26    0.65
   7  -8  -5    5.60    0.72
   6  -8  -5   51.85    1.81
   5  -8  -5   19.87    1.19
   4  -8  -5   44.59    2.06
   3  -8  -5  798.62   18.46
   2  -8  -5    0.54    0.65
   1  -8  -5   85.13    3.50
   0  -8  -5    1.41    0.65
  -1  -8  -5  858.06   18.68
  -2  -8  -5   -0.14    0.76
  -3  -8  -5  446.92   10.70
  -4  -8  -5  360.78   16.58
  -5  -8  -5  150.09    4.84
  -6  -8  -5  186.48    7.23
  -7  -8  -5   14.53    1.88
  -9  -8  -5  611.64   27.21
 -11  -8  -5   17.67    1.12
 -12  -8  -5  264.63    9.57
 -13  -8  -5   -1.01    1.16
 -14  -8  -5    2.17    0.65
 -15  -8  -5  111.25    3.54
 -16  -8  -5  275.65   12.65
 -17  -8  -5  323.16   13.62
 -18  -8  -5  151.86    4.95
 -19  -8  -5  209.13    8.27
 -20  -8  -5  114.10    6.18
 -21  -8  -5    1.08    0.69
 -22  -8  -5   16.19    1.08
 -23  -8  -5    1.88    1.88
 -24  -8  -5  195.26    7.12
 -25  -8  -5    1.91    0.90
 -26  -8  -5    1.70    0.72
 -27  -8  -5   10.59    2.49
 -28  -8  -5   39.85    2.02
 -29  -8  -5   -0.43    0.90
 -30  -8  -5    1.59    0.90
  32  -8  -4   -0.69    0.87
  31  -8  -4    4.26    0.58
  30  -8  -4    1.84    0.65
  29  -8  -4    9.97    1.16
  28  -8  -4    8.38    2.17
  27  -8  -4   -0.72    0.94
  26  -8  -4    1.91    0.94
  25  -8  -4    1.08    0.79
  24  -8  -4    1.34    1.19
  23  -8  -4   25.62    2.06
  22  -8  -4   21.43    2.75
  21  -8  -4   76.35    2.96
  20  -8  -4  110.27    4.05
  19  -8  -4  137.81    3.97
  18  -8  -4   46.14    2.82
  17  -8  -4  170.29    4.73
  16  -8  -4   33.21    1.34
  15  -8  -4   28.07    2.28
  14  -8  -4  103.88    3.83
  13  -8  -4   94.38    4.26
  12  -8  -4   26.92    1.48
  11  -8  -4  107.13    3.29
  10  -8  -4    0.14    1.01
   9  -8  -4   47.73    2.67
   8  -8  -4  149.91    5.46
   7  -8  -4  143.95    4.62
   6  -8  -4  176.54    6.72
   4  -8  -4    4.70    0.79
   3  -8  -4  399.73    9.03
   1  -8  -4  152.26    5.85
   0  -8  -4   64.68    2.13
  -1  -8  -4  343.33   11.89
  -2  -8  -4    1.45    0.58
  -3  -8  -4  192.29    4.66
  -4  -8  -4  647.12   15.83
  -5  -8  -4    8.96    0.79
  -6  -8  -4   32.63    1.84
  -7  -8  -4  177.08    4.66
  -8  -8  -4  662.88   19.62
  -9  -8  -4    0.18    0.54
 -10  -8  -4   50.69    2.53
 -11  -8  -4   20.20    1.41
 -12  -8  -4  450.10   14.49
 -13  -8  -4   17.67    0.87
 -14  -8  -4   27.28    1.12
 -15  -8  -4   16.55    1.16
 -16  -8  -4    1.70    0.65
 -17  -8  -4  240.06   12.14
 -18  -8  -4    8.74    1.12
 -19  -8  -4   60.23    2.49
 -20  -8  -4    4.23    0.94
 -21  -8  -4    1.41    0.76
 -22  -8  -4   40.21    2.89
 -23  -8  -4  144.17    5.64
 -24  -8  -4   -0.29    0.61
 -25  -8  -4   20.45    1.45
 -26  -8  -4   48.99    2.38
 -27  -8  -4    0.22    0.76
 -28  -8  -4    3.14    0.72
 -29  -8  -4   11.85    0.90
 -30  -8  -4    1.55    1.41
  32  -8  -3   12.57    1.16
  31  -8  -3   13.91    1.16
  30  -8  -3    6.61    0.69
  29  -8  -3    4.12    0.76
  28  -8  -3   68.00    4.44
  27  -8  -3    0.72    0.69
  26  -8  -3   42.06    1.77
  25  -8  -3   -0.04    0.79
  24  -8  -3  118.98    4.62
  23  -8  -3   91.27    3.87
  22  -8  -3   57.23    2.57
  21  -8  -3   23.27    2.42
  20  -8  -3  146.01    5.13
  19  -8  -3  163.03    4.01
  18  -8  -3  167.87    4.70
  17  -8  -3   19.69    1.45
  16  -8  -3    5.60    0.87
  15  -8  -3  262.10    9.03
  14  -8  -3  123.93    3.61
  13  -8  -3   63.38    5.53
  12  -8  -3    0.61    0.54
  11  -8  -3 1270.87   27.03
  10  -8  -3  147.56    4.37
   9  -8  -3  447.75   14.27
   8  -8  -3   46.90    2.42
   7  -8  -3  923.60   29.63
   6  -8  -3  104.13    6.40
   5  -8  -3  778.21   24.89
   4  -8  -3  234.86    7.33
   3  -8  -3  587.47   12.65
   2  -8  -3   71.25    2.85
   1  -8  -3  110.96    4.08
   0  -8  -3    1.45    0.83
  -1  -8  -3 1323.98   36.35
  -2  -8  -3  365.55   12.79
  -3  -8  -3   41.44    1.34
  -4  -8  -3  313.77    8.09
  -5  -8  -3  494.83   10.15
  -6  -8  -3   32.45    1.95
  -7  -8  -3    1.41    0.98
  -8  -8  -3 1202.33   39.75
  -9  -8  -3  393.26   12.61
 -10  -8  -3   80.18    3.47
 -11  -8  -3   51.05    2.06
 -12  -8  -3 1177.43   38.81
 -13  -8  -3  131.30    7.41
 -14  -8  -3   -1.30    0.90
 -15  -8  -3   98.75    3.87
 -16  -8  -3  183.66   10.37
 -17  -8  -3    0.58    1.26
 -18  -8  -3    8.38    1.30
 -19  -8  -3   15.43    0.94
 -20  -8  -3  312.72    8.42
 -21  -8  -3    3.22    0.79
 -22  -8  -3   20.13    1.70
 -23  -8  -3   31.33    1.55
 -24  -8  -3    7.80    2.24
 -25  -8  -3   -0.11    1.23
 -26  -8  -3   11.56    1.23
 -27  -8  -3    7.77    1.08
 -28  -8  -3   46.83    1.88
 -29  -8  -3    0.33    0.65
 -30  -8  -3    4.12    2.20
 -31  -8  -3    1.77    1.63
  31  -8  -2   -0.14    0.65
  30  -8  -2   -0.18    0.69
  28  -8  -2    7.48    1.70
  27  -8  -2    1.45    0.94
  26  -8  -2   50.48    2.17
  25  -8  -2    1.05    0.51
  24  -8  -2   78.80    3.18
  23  -8  -2   15.43    0.94
  22  -8  -2   26.67    1.48
  21  -8  -2    0.36    0.61
  20  -8  -2   46.65    2.75
  19  -8  -2  194.10    9.65
  18  -8  -2    5.89    0.72
  16  -8  -2  210.11    6.58
  15  -8  -2   93.51    3.22
  14  -8  -2  447.82   14.38
  13  -8  -2  518.71   14.78
  12  -8  -2    6.87    1.08
  11  -8  -2   21.79    1.41
  10  -8  -2   71.47    5.28
   9  -8  -2  220.91    9.03
   8  -8  -2  310.05   11.06
   7  -8  -2    0.00    0.43
   6  -8  -2   12.57    0.87
   5  -8  -2 1026.22   23.59
   4  -8  -2   21.03    2.38
   3  -8  -2  186.66    4.34
   1  -8  -2  446.95   10.98
   0  -8  -2  969.09   25.11
  -2  -8  -2    0.79    0.51
  -3  -8  -2  349.79   16.98
  -4  -8  -2  356.62    8.78
  -5  -8  -2  312.04    7.15
  -6  -8  -2   13.87    0.94
  -7  -8  -2  258.89    8.35
  -8  -8  -2   11.24    0.90
  -9  -8  -2  137.66    3.69
 -10  -8  -2    0.18    0.79
 -11  -8  -2   20.88    1.70
 -12  -8  -2   51.31    2.13
 -13  -8  -2   67.02    2.71
 -14  -8  -2  193.23    6.97
 -15  -8  -2   78.30    3.18
 -16  -8  -2  108.58    3.54
 -17  -8  -2   28.76    3.14
 -18  -8  -2  154.50    5.74
 -19  -8  -2   27.21    1.37
 -20  -8  -2    1.91    0.76
 -21  -8  -2   61.60    3.58
 -22  -8  -2   25.47    1.45
 -23  -8  -2   34.72    2.06
 -24  -8  -2   11.02    1.23
 -25  -8  -2   43.54    2.46
 -26  -8  -2    8.74    1.01
 -27  -8  -2    1.08    0.65
 -28  -8  -2   31.29    2.02
 -29  -8  -2    3.07    0.65
 -30  -8  -2    0.22    0.72
 -31  -8  -2    1.66    1.08
  32  -8  -1    3.04    1.26
  31  -8  -1    2.60    0.90
  30  -8  -1   29.95    1.23
  29  -8  -1    8.67    1.19
  28  -8  -1   21.50    1.99
  27  -8  -1    4.99    0.90
  26  -8  -1   41.44    2.46
  25  -8  -1   22.18    1.99
  24  -8  -1   21.17    1.66
  23  -8  -1   58.10    2.35
  22  -8  -1  167.58    4.66
  21  -8  -1    2.89    0.83
  19  -8  -1  112.33    3.90
  18  -8  -1  694.06   15.46
  17  -8  -1    0.18    1.01
  16  -8  -1  125.81    5.35
  15  -8  -1  801.88   23.02
  14  -8  -1  128.81    4.62
  13  -8  -1    7.55    0.90
  12  -8  -1   24.24    1.41
  11  -8  -1 1287.31   35.16
  10  -8  -1  192.04    6.21
   9  -8  -1   39.96    2.49
   8  -8  -1   13.33    0.90
   7  -8  -1  313.26    9.07
   6  -8  -1   23.81    1.52
   5  -8  -1  865.00   20.63
   4  -8  -1    0.87    0.69
   3  -8  -1 2009.62   42.38
   2  -8  -1   86.82    3.29
   1  -8  -1   99.40    3.97
   0  -8  -1    1.48    0.58
  -1  -8  -1 1703.47   34.98
  -2  -8  -1  223.91    5.35
  -3  -8  -1   20.60    1.12
  -4  -8  -1  231.75   13.80
  -5  -8  -1  348.20    7.84
  -6  -8  -1   76.53    3.04
  -7  -8  -1  651.82   20.88
  -9  -8  -1  314.28    7.99
 -10  -8  -1  160.43    4.91
 -11  -8  -1  327.72    9.50
 -12  -8  -1  637.22   13.87
 -13  -8  -1   63.23    2.82
 -14  -8  -1   44.04    1.95
 -15  -8  -1  286.27    8.35
 -16  -8  -1  215.49    8.45
 -17  -8  -1   35.99    1.59
 -18  -8  -1  144.49    6.11
 -19  -8  -1    0.43    0.79
 -20  -8  -1  233.52   10.04
 -21  -8  -1   27.82    2.38
 -22  -8  -1  138.49    4.19
 -23  -8  -1    6.50    0.87
 -24  -8  -1    2.13    0.61
 -25  -8  -1   44.30    2.28
 -26  -8  -1   40.18    2.06
 -27  -8  -1   10.66    1.91
 -28  -8  -1    0.79    2.60
 -29  -8  -1    5.78    0.79
 -30  -8  -1    6.90    0.94
 -31  -8  -1   -0.14    0.79
  31  -8   0   -0.14    0.94
  30  -8   0    2.71    0.83
  29  -8   0    6.58    1.59
  28  -8   0   17.99    2.49
  26  -8   0    1.59    0.61
  25  -8   0   37.00    1.73
  24  -8   0  104.57    3.87
  23  -8   0   -0.33    0.58
  22  -8   0   26.95    1.99
  21  -8   0   18.97    1.01
  20  -8   0  309.79    8.27
  19  -8   0  119.96    4.88
  18  -8   0   37.47    2.13
  17  -8   0  107.24    5.42
  16  -8   0  112.66    4.05
  15  -8   0  109.19    3.79
  14  -8   0   44.55    2.06
  13  -8   0  323.38   12.00
  12  -8   0   32.27    1.45
  11  -8   0    0.72    0.72
  10  -8   0   17.96    2.28
   9  -8   0  440.59   15.18
   8  -8   0   83.07    2.42
   7  -8   0  250.36   11.20
   6  -8   0  543.03   14.31
   5  -8   0  140.99    5.28
   4  -8   0  429.64   15.28
   3  -8   0  418.26   10.84
   2  -8   0  801.77   16.44
   1  -8   0 1670.31   66.12
   0  -8   0  221.60   11.02
  -1  -8   0 1681.18   64.53
  -2  -8   0  794.07   18.79
  -3  -8   0  374.25   17.02
  -4  -8   0  443.81   14.89
  -6  -8   0  502.59   11.13
  -7  -8   0  232.08    7.01
  -8  -8   0   78.33    3.50
  -9  -8   0  426.57   10.95
 -11  -8   0    0.04    0.69
 -12  -8   0   31.33    1.63
 -13  -8   0  284.25    8.96
 -14  -8   0   40.11    2.10
 -15  -8   0   98.24    4.41
 -16  -8   0   94.99    3.22
 -17  -8   0   94.34    3.07
 -18  -8   0   42.27    2.89
 -19  -8   0  108.79    4.77
 -21  -8   0   19.33    1.88
 -22  -8   0   22.37    0.98
 -23  -8   0   -1.30    1.30
 -24  -8   0   97.66    4.81
 -25  -8   0   32.16    3.25
 -26  -8   0    1.52    0.65
 -27  -8   0    0.47    0.76
 -28  -8   0   21.61    1.26
 -29  -8   0    3.11    1.37
 -30  -8   0    2.75    1.08
 -31  -8   0    1.52    1.05
 -32  -8   0    1.45    0.87
  31  -8   1    0.98    0.90
  30  -8   1    5.60    0.87
  29  -8   1    8.02    0.98
  28  -8   1    8.42    0.98
  27  -8   1   10.51    1.05
  26  -8   1   44.44    1.95
  25  -8   1   54.88    2.38
  24  -8   1    0.04    1.66
  23  -8   1    3.94    1.12
  22  -8   1  159.45    5.13
  21  -8   1   24.24    2.31
  20  -8   1  226.58   12.97
  19  -8   1    2.10    0.65
  18  -8   1  148.79    5.42
  17  -8   1   39.89    1.95
  16  -8   1  243.71    7.44
  15  -8   1  310.88   10.15
  14  -8   1   53.22    2.49
  13  -8   1   63.38    2.60
  12  -8   1  678.56   17.49
  11  -8   1  407.10   21.90
  10  -8   1  160.06    5.78
   9  -8   1  333.10    8.42
   8  -8   1   99.69    3.36
   7  -8   1  668.77   30.97
   6  -8   1   88.27    3.00
   5  -8   1  343.65    9.11
   4  -8   1  258.09    7.30
   3  -8   1   19.84    1.26
   2  -8   1  215.31   10.59
   1  -8   1 1458.21   50.66
   0  -8   1    3.47    1.55
  -1  -8   1   97.81    3.87
  -2  -8   1   97.01    3.18
  -3  -8   1 2170.52   39.06
  -4  -8   1    0.36    0.58
  -5  -8   1  848.38   20.78
  -6  -8   1   28.00    1.45
  -7  -8   1  303.62   10.44
  -8  -8   1   12.94    0.79
  -9  -8   1   37.43    1.66
 -10  -8   1  196.74    9.21
 -12  -8   1   31.80    1.84
 -13  -8   1    8.02    1.08
 -14  -8   1  113.35    4.34
 -15  -8   1  862.72   21.57
 -16  -8   1  112.73    4.44
 -17  -8   1   -0.14    0.83
 -18  -8   1  627.65   17.81
 -19  -8   1   87.55    6.14
 -20  -8   1   41.73    2.78
 -21  -8   1    0.65    1.99
 -22  -8   1  161.47    6.18
 -23  -8   1   54.67    4.16
 -24  -8   1   22.15    1.45
 -25  -8   1   16.58    1.99
 -27  -8   1    5.49    0.83
 -28  -8   1   13.19    0.90
 -29  -8   1    7.30    0.87
 -30  -8   1   24.03    1.30
 -31  -8   1    3.32    0.90
 -32  -8   1    0.54    0.90
  31  -8   2   -0.14    0.90
  30  -8   2    0.04    0.79
  29  -8   2    5.02    0.87
  28  -8   2   35.88    1.66
  27  -8   2    2.02    0.72
  26  -8   2    6.83    0.83
  25  -8   2   50.55    2.42
  24  -8   2   15.25    1.55
  23  -8   2   41.84    3.36
  22  -8   2   23.45    2.28
  21  -8   2   60.41    2.46
  20  -8   2    3.76    0.83
  19  -8   2   28.69    3.25
  18  -8   2  180.52    6.21
  17  -8   2   39.24    1.81
  16  -8   2  123.32    5.49
  15  -8   2   92.82    3.83
  14  -8   2  232.08    8.27
  13  -8   2   71.29    2.89
  12  -8   2   54.09    2.24
  11  -8   2   21.68    1.77
  10  -8   2    2.46    0.90
   9  -8   2  149.37    5.64
   8  -8   2   12.75    1.08
   7  -8   2  299.50    6.76
   6  -8   2   12.68    1.23
   5  -8   2  318.36   15.43
   4  -8   2  373.50   12.57
   3  -8   2  339.17    8.42
   2  -8   2    0.43    0.65
   1  -8   2  162.02    9.90
   0  -8   2 1072.54   44.88
  -1  -8   2  475.89   10.66
  -4  -8   2   22.58    1.16
  -5  -8   2  927.58   21.14
  -6  -8   2    9.47    1.34
  -8  -8   2  304.99    8.71
  -9  -8   2  167.25    5.17
 -10  -8   2   62.07    3.18
 -11  -8   2   19.58    1.30
 -12  -8   2    8.89    1.12
 -13  -8   2  473.54   16.19
 -14  -8   2  388.85    9.97
 -15  -8   2   83.25    4.41
 -16  -8   2  168.92    6.14
 -17  -8   2   79.85    3.54
 -18  -8   2    6.32    0.83
 -19  -8   2  187.49    4.91
 -20  -8   2   46.61    2.06
 -21  -8   2    0.98    0.72
 -22  -8   2   23.63    1.84
 -23  -8   2   13.51    1.26
 -24  -8   2   62.62    2.96
 -25  -8   2   -0.18    0.76
 -26  -8   2   42.06    2.10
 -27  -8   2    0.25    0.72
 -28  -8   2    4.19    0.94
 -29  -8   2    2.89    1.01
 -30  -8   2    1.70    0.83
 -31  -8   2    0.65    0.72
 -32  -8   2    6.43    1.01
  31  -8   3    2.31    1.26
  30  -8   3    4.59    1.01
  29  -8   3    0.51    0.65
  28  -8   3   51.45    3.07
  27  -8   3    8.96    1.01
  26  -8   3   16.87    1.73
  25  -8   3   -0.72    0.79
  24  -8   3    6.65    0.79
  23  -8   3   25.98    2.02
  22  -8   3   19.08    1.37
  21  -8   3    6.79    1.26
  20  -8   3  342.17   10.62
  19  -8   3   15.79    1.19
  17  -8   3    2.24    0.79
  16  -8   3  223.73    6.76
  15  -8   3  105.29    4.08
  14  -8   3    0.54    0.65
  13  -8   3  128.02    7.12
  12  -8   3 1344.65   31.11
  11  -8   3   53.11    4.70
  10  -8   3   87.76    2.93
   9  -8   3  394.67   14.31
   8  -8   3 1224.15   26.09
   7  -8   3    3.04    0.51
   6  -8   3   34.47    2.13
   5  -8   3  505.92   12.50
   4  -8   3  372.66   12.47
   3  -8   3   37.36    1.99
   2  -8   3  362.15    8.06
   0  -8   3    1.99    0.54
  -1  -8   3  121.04    6.50
  -2  -8   3   69.05    1.99
  -3  -8   3  600.48   23.09
  -4  -8   3  229.69    5.60
  -5  -8   3  761.88   15.10
  -6  -8   3  103.70    2.89
  -7  -8   3  929.10   21.43
  -8  -8   3   37.04    2.06
  -9  -8   3  450.64   10.41
 -10  -8   3  136.29    5.78
 -11  -8   3 1178.15   33.10
 -12  -8   3    0.83    0.65
 -13  -8   3   66.16    2.60
 -14  -8   3  115.66    4.01
 -15  -8   3  293.17   13.91
 -16  -8   3    5.17    1.12
 -17  -8   3   22.04    1.16
 -18  -8   3  164.62    6.25
 -19  -8   3  148.32    4.73
 -20  -8   3  134.45    3.58
 -22  -8   3   49.75    2.82
 -23  -8   3   72.73    2.75
 -24  -8   3   92.61    3.47
 -25  -8   3   -1.23    1.55
 -26  -8   3   32.84    1.77
 -27  -8   3    3.14    1.23
 -28  -8   3   51.70    3.22
 -29  -8   3    2.67    1.34
 -30  -8   3    1.84    1.70
 -31  -8   3    6.68    0.94
 -32  -8   3    6.40    0.87
  30  -8   4   -1.01    0.79
  29  -8   4   15.97    1.26
  28  -8   4    5.02    1.12
  27  -8   4    0.90    1.01
  26  -8   4   51.16    2.57
  25  -8   4   19.04    2.75
  24  -8   4    1.12    0.65
  23  -8   4  162.45    6.25
  22  -8   4   36.28    3.18
  21  -8   4    0.07    1.01
  20  -8   4    3.18    1.84
  19  -8   4   64.68    2.06
  18  -8   4    5.74    1.34
  17  -8   4  230.20   11.31
  16  -8   4    3.36    1.12
  15  -8   4   19.44    1.19
  14  -8   4   26.67    2.24
  13  -8   4   24.46    1.63
  12  -8   4  540.50   21.21
  11  -8   4   18.79    1.26
  10  -8   4   61.03    2.53
   9  -8   4    2.35    0.87
   7  -8   4  197.79   13.04
   6  -8   4   38.34    2.02
   5  -8   4    8.53    1.63
   4  -8   4  693.80   30.75
   3  -8   4  206.39    6.03
   2  -8   4    0.98    0.61
   1  -8   4  359.55    8.02
   0  -8   4   66.16    2.28
  -1  -8   4  177.26    8.38
  -2  -8   4   56.84    2.46
  -3  -8   4  379.57    9.57
  -4  -8   4    4.37    0.61
  -5  -8   4  122.16    4.48
  -6  -8   4  199.81    7.23
  -7  -8   4  159.09    6.14
  -8  -8   4  147.60    4.70
  -9  -8   4   43.00    2.60
 -11  -8   4   93.73    4.23
 -12  -8   4   25.73    2.82
 -13  -8   4   79.20    2.96
 -14  -8   4  107.38    5.42
 -15  -8   4   25.04    2.02
 -16  -8   4   35.99    1.59
 -17  -8   4  184.31    5.60
 -18  -8   4   36.71    2.42
 -19  -8   4  136.22    3.94
 -21  -8   4   69.59    2.64
 -22  -8   4   18.72    1.88
 -23  -8   4   22.76    2.31
 -24  -8   4    1.63    0.90
 -25  -8   4    0.54    0.61
 -26  -8   4    3.18    1.16
 -27  -8   4    0.18    0.87
 -28  -8   4    8.71    1.37
 -29  -8   4    7.37    1.16
 -30  -8   4    1.37    0.98
 -32  -8   4    0.98    0.83
  30  -8   5   -1.23    1.12
  29  -8   5   -0.33    0.83
  28  -8   5   32.70    2.10
  27  -8   5   11.02    1.23
  26  -8   5    3.11    0.83
  25  -8   5    0.83    0.72
  24  -8   5  162.49    6.87
  23  -8   5    0.58    0.61
  22  -8   5   18.17    1.23
  21  -8   5    3.47    1.70
  20  -8   5  115.30    4.88
  19  -8   5  183.66    7.01
  18  -8   5  179.97    6.32
  17  -8   5  451.61   22.98
  16  -8   5  337.58    9.90
  14  -8   5    2.35    1.01
  13  -8   5   -0.33    1.59
  12  -8   5  294.80    8.74
  11  -8   5   15.97    1.48
  10  -8   5   10.98    1.59
   9  -8   5  636.36   17.70
   8  -8   5  793.24   20.45
   7  -8   5   16.69    1.30
   6  -8   5  183.62    7.26
   5  -8   5  189.55   11.35
   4  -8   5  369.16   13.59
   3  -8   5  456.74   11.35
   2  -8   5    3.11    0.61
   1  -8   5  878.55   24.61
   0  -8   5    0.61    0.54
  -1  -8   5   93.73    3.61
  -2  -8   5    0.58    0.61
  -4  -8   5   47.91    2.31
  -5  -8   5   19.91    0.87
  -6  -8   5   60.59    2.06
  -7  -8   5    5.17    0.54
  -8  -8   5    1.30    0.47
  -9  -8   5  222.43   10.88
 -10  -8   5   35.19    1.84
 -11  -8   5    0.40    1.05
 -12  -8   5    6.32    1.01
 -13  -8   5  391.85   15.25
 -15  -8   5   31.51    1.88
 -16  -8   5   43.32    1.63
 -18  -8   5  130.76    4.34
 -20  -8   5   31.47    2.17
 -21  -8   5   13.84    1.45
 -22  -8   5    4.62    0.90
 -23  -8   5    1.81    0.98
 -24  -8   5   13.91    1.23
 -25  -8   5   -0.04    2.35
 -27  -8   5   -0.43    0.83
 -28  -8   5   19.84    1.30
 -29  -8   5    0.58    0.76
 -30  -8   5    1.52    1.26
 -31  -8   5    2.96    1.12
 -32  -8   5    0.18    1.34
  29  -8   6    1.99    1.23
  28  -8   6    6.11    1.08
  27  -8   6   14.81    1.88
  26  -8   6   28.15    2.35
  25  -8   6    2.64    0.76
  24  -8   6   -0.65    0.94
  23  -8   6   23.12    1.73
  22  -8   6   49.57    4.59
  21  -8   6   33.28    2.02
  20  -8   6   80.18    6.25
  19  -8   6    3.79    0.90
  18  -8   6   83.36    4.41
  17  -8   6   90.69    5.17
  16  -8   6    4.55    0.76
  15  -8   6   36.78    1.73
  14  -8   6  318.68   12.39
  13  -8   6   50.87    2.10
  12  -8   6   33.02    2.17
  11  -8   6  110.20    4.34
  10  -8   6  515.17   18.32
   9  -8   6   77.39    3.54
   8  -8   6  223.04    6.11
   7  -8   6  291.51    7.52
   6  -8   6   63.45    2.96
   5  -8   6   17.56    1.41
   4  -8   6  413.39   11.56
   3  -8   6  232.11   11.38
   2  -8   6   77.50    4.95
   1  -8   6  715.41   20.88
   0  -8   6   14.13    0.94
  -1  -8   6   82.09    2.75
  -2  -8   6    0.90    0.61
  -3  -8   6  162.12    4.44
  -4  -8   6   47.69    1.59
  -5  -8   6    2.20    0.87
  -6  -8   6  217.95    6.47
  -7  -8   6    2.60    0.43
  -8  -8   6   29.23    1.12
  -9  -8   6   20.41    1.37
 -12  -8   6   -0.18    0.76
 -13  -8   6    1.88    0.54
 -14  -8   6   31.90    1.70
 -15  -8   6  117.57    5.74
 -16  -8   6    6.47    1.73
 -17  -8   6  202.99    5.49
 -20  -8   6    1.01    1.19
 -21  -8   6   65.76    2.57
 -22  -8   6   16.55    1.63
 -23  -8   6    0.47    0.76
 -24  -8   6    0.87    0.76
 -25  -8   6    2.64    1.37
 -26  -8   6    1.52    0.76
 -27  -8   6    1.05    0.83
 -28  -8   6    5.17    1.34
 -29  -8   6    0.58    0.76
 -30  -8   6   -0.65    1.23
 -31  -8   6    1.08    1.12
 -32  -8   6   -0.54    0.69
  28  -8   7    5.82    2.78
  27  -8   7   11.06    1.77
  26  -8   7    0.29    1.12
  25  -8   7    0.22    0.79
  24  -8   7   70.82    2.42
  23  -8   7    3.00    0.90
  22  -8   7    0.07    1.23
  21  -8   7   20.16    1.52
  20  -8   7  265.79   13.69
  19  -8   7    3.65    0.98
  18  -8   7   64.39    2.75
  17  -8   7   18.57    1.34
  16  -8   7  110.56    6.79
  15  -8   7   -0.18    0.98
  14  -8   7   81.66    4.77
  13  -8   7   15.61    1.59
  12  -8   7   24.21    1.91
  11  -8   7    0.51    0.87
  10  -8   7   26.05    1.63
   9  -8   7    0.14    0.69
   8  -8   7    3.97    0.72
   7  -8   7   21.93    1.23
   6  -8   7   80.61    3.14
   5  -8   7  210.76    6.90
   4  -8   7    1.23    0.65
   3  -8   7  278.54   10.23
   2  -8   7    3.50    0.65
   1  -8   7 1982.56   81.01
   0  -8   7   32.74    1.59
  -1  -8   7  548.08   22.84
  -2  -8   7   67.71    3.58
  -3  -8   7  102.07    3.25
  -4  -8   7   42.56    2.10
  -5  -8   7  124.80    4.01
  -6  -8   7   63.38    2.42
  -7  -8   7   24.97    2.20
  -8  -8   7   83.14    3.47
  -9  -8   7  301.30    7.23
 -10  -8   7   26.09    1.08
 -11  -8   7    1.77    0.58
 -12  -8   7   71.79    3.07
 -13  -8   7   22.18    1.19
 -14  -8   7    6.11    1.01
 -15  -8   7   -1.73    1.70
 -16  -8   7   61.46    4.05
 -17  -8   7    9.00    0.90
 -18  -8   7   22.47    1.99
 -19  -8   7    1.95    0.94
 -21  -8   7   37.36    2.53
 -22  -8   7    2.57    1.05
 -23  -8   7   15.03    1.08
 -24  -8   7   18.57    2.53
 -25  -8   7   -1.12    0.79
 -26  -8   7    7.12    1.01
 -28  -8   7    4.26    1.12
 -30  -8   7    0.11    0.94
 -31  -8   7    1.70    1.41
  28  -8   8    0.14    0.76
  27  -8   8   -0.11    0.87
  26  -8   8   25.08    1.63
  25  -8   8   12.43    1.05
  24  -8   8    4.23    1.01
  23  -8   8   12.32    1.16
  22  -8   8   42.64    4.44
  21  -8   8   45.82    2.28
  20  -8   8   35.81    3.58
  19  -8   8   39.02    2.49
  18  -8   8   16.08    2.02
  17  -8   8    6.00    1.55
  16  -8   8   25.94    1.84
  15  -8   8   69.84    3.00
  14  -8   8    1.70    0.79
  13  -8   8   39.20    1.81
  12  -8   8   87.48    4.34
  11  -8   8    4.30    1.19
  10  -8   8   74.00    2.75
   9  -8   8   32.12    1.73
   8  -8   8  321.72    9.47
   7  -8   8 1224.26   56.08
   6  -8   8  266.44   15.25
   5  -8   8   79.56    2.96
   4  -8   8   11.96    0.94
   3  -8   8  909.98   24.17
   2  -8   8   12.39    1.70
   1  -8   8   39.82    3.79
   0  -8   8   43.03    2.31
  -1  -8   8    4.66    0.98
  -2  -8   8   18.03    1.19
  -5  -8   8  179.76    5.96
  -6  -8   8    1.77    0.58
  -7  -8   8  475.78   11.71
  -8  -8   8  121.76    7.30
  -9  -8   8  167.58    7.15
 -10  -8   8   90.91    3.32
 -11  -8   8  304.92    9.79
 -12  -8   8   88.96    2.64
 -13  -8   8    1.55    0.79
 -14  -8   8    7.80    0.90
 -15  -8   8   93.55    3.07
 -18  -8   8   66.70    2.75
 -19  -8   8    1.01    0.94
 -20  -8   8    4.55    1.23
 -21  -8   8    0.94    0.98
 -22  -8   8    3.76    0.69
 -23  -8   8    2.64    0.69
 -24  -8   8   -0.25    1.34
 -25  -8   8    5.35    0.94
 -26  -8   8    0.98    0.79
 -27  -8   8   -2.75    1.48
 -28  -8   8    1.45    1.12
 -29  -8   8    1.70    1.08
 -30  -8   8    3.72    0.94
 -32  -8   8   -0.14    1.48
  27  -8   9   10.95    1.30
  26  -8   9    1.59    1.12
  25  -8   9    4.44    1.05
  24  -8   9   21.72    1.66
  23  -8   9    6.00    0.94
  22  -8   9    3.29    1.84
  21  -8   9   -0.40    0.87
  20  -8   9   33.46    3.94
  19  -8   9    6.72    0.83
  18  -8   9   69.55    2.78
  17  -8   9    8.56    1.70
  16  -8   9    1.73    0.87
  15  -8   9   42.42    1.88
  14  -8   9   77.47    3.14
  13  -8   9  201.62    6.36
  12  -8   9  204.18    7.91
  11  -8   9   29.16    1.70
  10  -8   9   56.58    3.11
   9  -8   9    9.72    1.16
   8  -8   9  132.86    9.43
   7  -8   9   99.29    4.95
   6  -8   9  119.24   11.20
   5  -8   9  117.39    5.49
   3  -8   9  271.28   16.15
   2  -8   9   26.81    1.77
   0  -8   9    7.37    0.61
  -1  -8   9  906.41   23.99
  -2  -8   9   58.68    2.82
  -3  -8   9  121.80    6.11
  -4  -8   9    1.45    1.08
  -5  -8   9  623.42   23.12
  -6  -8   9   37.54    2.38
  -8  -8   9   29.52    2.35
  -9  -8   9  483.59   23.34
 -10  -8   9   91.49    3.00
 -11  -8   9    0.04    0.94
 -12  -8   9    5.46    0.58
 -13  -8   9  170.83    4.99
 -14  -8   9    0.61    0.61
 -16  -8   9   53.84    1.95
 -17  -8   9   74.87    5.20
 -18  -8   9    7.30    1.12
 -19  -8   9   -0.14    0.65
 -20  -8   9   14.53    1.08
 -21  -8   9   15.43    1.45
 -22  -8   9    4.23    0.90
 -23  -8   9    1.63    1.12
 -24  -8   9   25.11    1.08
 -26  -8   9    1.99    0.76
 -27  -8   9    4.16    0.90
 -28  -8   9   10.44    1.55
 -29  -8   9    1.81    2.35
  26  -8  10    6.40    1.19
  25  -8  10   10.98    1.48
  24  -8  10    7.84    1.23
  23  -8  10    6.76    1.26
  22  -8  10   28.40    1.37
  21  -8  10    2.06    0.69
  20  -8  10    3.72    1.23
  19  -8  10   37.97    2.10
  18  -8  10   13.51    1.34
  17  -8  10   -0.25    0.87
  16  -8  10   47.77    1.81
  15  -8  10   46.14    2.17
  14  -8  10   10.01    1.19
  13  -8  10   68.22    4.26
  12  -8  10   64.03    3.22
  11  -8  10   45.45    2.31
  10  -8  10  103.81    4.26
   9  -8  10  138.71    5.82
   8  -8  10    1.63    0.76
   7  -8  10  691.93   30.50
   6  -8  10   95.79    3.11
   4  -8  10   18.10    1.77
   2  -8  10    1.52    0.65
  -5  -8  10  366.99   15.21
  -6  -8  10   44.62    2.31
  -7  -8  10  499.96   19.11
 -10  -8  10    1.01    0.79
 -12  -8  10   26.30    2.42
 -13  -8  10   86.36    4.16
 -14  -8  10   -0.14    1.45
 -15  -8  10   24.71    1.34
 -16  -8  10   17.99    2.93
 -17  -8  10   23.16    2.85
 -18  -8  10  141.31    6.40
 -19  -8  10    3.14    0.72
 -20  -8  10    2.75    0.90
 -21  -8  10    2.06    1.16
 -22  -8  10   18.36    0.98
 -23  -8  10    5.60    0.83
 -24  -8  10    0.87    0.72
 -25  -8  10   -0.07    1.12
 -26  -8  10    2.78    2.17
 -27  -8  10    6.25    1.16
 -28  -8  10    1.01    1.52
  25  -8  11   15.21    3.14
  24  -8  11   10.19    1.52
  23  -8  11   46.65    1.95
  22  -8  11  155.19    5.49
  21  -8  11   31.65    2.02
  20  -8  11   21.03    1.41
  19  -8  11    3.29    0.83
  18  -8  11  191.79   10.80
  17  -8  11  104.96    5.35
  16  -8  11    5.46    1.01
  15  -8  11    1.84    1.16
  14  -8  11  143.34    6.03
  13  -8  11   28.07    2.13
  12  -8  11   46.83    2.82
  11  -8  11   53.55    3.00
  10  -8  11  351.85   18.97
   9  -8  11   12.83    1.19
   8  -8  11   13.30    1.41
   7  -8  11  379.06   14.27
   6  -8  11  200.89    6.43
   5  -8  11    2.57    1.23
  -9  -8  11  154.75    5.38
 -10  -8  11    7.01    0.65
 -12  -8  11  242.95   13.40
 -13  -8  11  390.59   16.26
 -14  -8  11   55.10    2.78
 -15  -8  11   61.21    2.75
 -16  -8  11    6.18    0.65
 -17  -8  11   17.38    1.05
 -18  -8  11   87.29    2.78
 -19  -8  11   70.35    2.53
 -20  -8  11   24.10    1.26
 -21  -8  11    7.48    0.90
 -22  -8  11   34.07    1.95
 -23  -8  11    9.50    2.82
 -24  -8  11    0.65    0.69
 -25  -8  11   10.33    0.90
 -26  -8  11    6.40    1.16
 -28  -8  11    0.11    0.90
 -29  -8  11    2.53    0.94
 -30  -8  11   -0.36    0.90
  24  -8  12    8.17    2.60
  23  -8  12   -2.02    1.30
  22  -8  12    1.45    0.79
  21  -8  12    1.70    0.94
  20  -8  12   17.38    1.30
  19  -8  12    2.35    0.90
  18  -8  12    1.91    1.45
  17  -8  12   36.67    2.10
  16  -8  12   63.41    2.46
  15  -8  12    5.78    1.05
  14  -8  12   -0.47    0.76
  13  -8  12   -0.11    1.05
  12  -8  12  190.63    8.13
  11  -8  12   56.33    4.48
  10  -8  12  232.18    8.35
   7  -8  12   17.05    1.70
   6  -8  12   23.12    1.26
   5  -8  12  146.70    6.07
  -8  -8  12    1.88    0.65
 -10  -8  12   25.36    1.88
 -11  -8  12   55.21    1.91
 -12  -8  12    4.05    1.30
 -13  -8  12  258.42   10.80
 -15  -8  12    1.99    0.79
 -16  -8  12    1.48    0.87
 -17  -8  12   25.11    2.57
 -18  -8  12   30.82    3.29
 -19  -8  12   12.90    1.99
 -20  -8  12    1.30    0.76
 -21  -8  12    4.81    1.84
 -22  -8  12    0.18    1.23
 -23  -8  12   -0.79    1.37
 -24  -8  12   -0.94    0.87
 -25  -8  12   -0.18    0.79
 -26  -8  12   -0.22    1.23
 -27  -8  12    1.45    0.72
 -28  -8  12    0.58    1.41
 -29  -8  12    2.53    1.05
 -30  -8  12    1.12    1.52
  23  -8  13    6.00    2.35
  22  -8  13   63.05    2.38
  21  -8  13   25.76    1.45
  20  -8  13   14.13    2.42
  19  -8  13    1.59    1.16
  18  -8  13  216.83    5.20
  17  -8  13   67.17    2.75
  16  -8  13    0.90    0.94
  15  -8  13    4.88    1.52
  13  -8  13   19.66    1.84
  12  -8  13  150.74    8.24
  11  -8  13    2.10    1.45
   9  -8  13   77.90    4.62
   8  -8  13   95.06    4.01
 -11  -8  13   41.55    2.38
 -12  -8  13    1.30    0.94
 -14  -8  13   17.27    1.59
 -17  -8  13   -0.36    1.01
 -18  -8  13   39.93    3.69
 -19  -8  13   71.72    3.25
 -20  -8  13    1.55    0.98
 -21  -8  13    0.76    0.72
 -22  -8  13    6.79    1.26
 -23  -8  13   10.66    1.23
 -24  -8  13   -4.12    2.53
 -25  -8  13    5.82    0.94
 -26  -8  13    3.50    1.01
 -27  -8  13    0.58    0.87
 -28  -8  13    0.07    1.63
  22  -8  14    2.64    2.67
  21  -8  14    0.76    1.08
  20  -8  14    0.65    1.52
  19  -8  14    2.13    1.01
  18  -8  14    6.97    0.98
  17  -8  14    5.28    0.90
  16  -8  14   89.03    4.05
  15  -8  14   -2.20    1.91
  11  -8  14    0.72    1.37
  10  -8  14  133.29    6.40
 -14  -8  14    0.11    0.79
 -15  -8  14   11.92    1.41
 -16  -8  14    2.75    1.08
 -18  -8  14    1.66    1.70
 -19  -8  14    1.63    1.70
 -20  -8  14    4.81    2.42
 -21  -8  14    6.25    1.19
 -22  -8  14    0.83    0.65
 -23  -8  14    1.45    0.65
 -24  -8  14    1.23    0.79
 -25  -8  14    0.98    0.87
  20  -8  15   21.90    1.48
  19  -8  15   36.28    2.75
  18  -8  15    8.02    2.02
  17  -8  15    3.40    1.30
  16  -8  15   12.72    1.66
  10  -8  15   24.93    1.84
 -16  -8  15    0.40    0.65
 -18  -8  15    8.85    0.98
 -19  -8  15    9.25    1.26
 -20  -8  15    4.12    0.79
 -21  -8  15   17.27    1.73
 -22  -8  15    1.48    0.72
 -23  -8  15    4.26    0.94
 -24  -8  15    2.49    1.05
 -25  -8  15    1.99    2.46
 -26  -8  15    1.30    1.08
  19  -8  16    8.96    1.52
  18  -8  16   -0.04    1.08
  15  -8  16   16.66    2.28
 -18  -8  16    2.85    1.23
 -19  -8  16    0.94    1.19
 -22  -8  16   -0.22    1.16
 -23  -8  16    0.47    0.72
  17  -8  17   -2.17    1.59
  13  -8  17   12.43    1.81
 -20  -8  17    1.99    1.30
 -21  -8  17    8.31    1.34
 -23  -8  17    1.19    2.38
  15  -8  18   28.54    2.75
  14  -9 -22   -0.51    1.01
  12  -9 -22    0.54    0.79
  11  -9 -22    0.65    0.79
  10  -9 -22    1.37    1.16
   9  -9 -22   10.80    1.05
   8  -9 -22    9.50    1.48
   7  -9 -22    1.41    0.94
   6  -9 -22    1.95    0.72
   5  -9 -22    5.78    1.19
   4  -9 -22    1.48    0.94
   3  -9 -22    6.87    1.63
   2  -9 -22   28.65    2.24
   1  -9 -22    1.41    1.23
   0  -9 -22    2.67    0.90
  -1  -9 -22    1.08    1.66
  -2  -9 -22   21.39    2.31
  17  -9 -21    1.63    1.95
  16  -9 -21    1.01    1.12
  15  -9 -21    3.72    0.83
  14  -9 -21    5.85    0.79
  13  -9 -21   -0.18    0.61
  12  -9 -21   -0.61    0.69
  11  -9 -21    4.01    0.79
  10  -9 -21    5.82    1.05
   9  -9 -21    1.91    1.77
   8  -9 -21    0.14    0.83
   7  -9 -21    1.59    1.95
   6  -9 -21   10.12    2.35
   5  -9 -21    3.94    2.10
   4  -9 -21    9.03    1.41
   3  -9 -21    3.94    1.26
   2  -9 -21   -0.87    1.41
   1  -9 -21    1.19    1.55
   0  -9 -21   -0.18    0.54
  -1  -9 -21   15.25    1.59
  -2  -9 -21   12.36    1.41
  -3  -9 -21    3.50    1.52
  -4  -9 -21    0.33    0.98
  -5  -9 -21   18.17    2.64
  -6  -9 -21    0.58    0.94
  20  -9 -20    1.30    1.16
  19  -9 -20   -1.16    1.26
  18  -9 -20    0.25    1.08
  17  -9 -20   -0.07    1.37
  16  -9 -20    0.61    2.38
  15  -9 -20    1.12    1.37
  13  -9 -20    8.38    1.63
  12  -9 -20    2.46    1.01
  11  -9 -20   10.26    1.59
  10  -9 -20    8.85    2.46
   9  -9 -20    9.50    2.17
   8  -9 -20   25.36    2.64
   7  -9 -20    1.19    1.26
   6  -9 -20    0.72    0.76
   5  -9 -20   -0.43    0.65
   4  -9 -20    3.54    0.94
   3  -9 -20   42.53    2.10
   2  -9 -20   78.04    3.65
   1  -9 -20    9.94    1.48
   0  -9 -20    8.82    1.16
  -1  -9 -20   26.88    2.67
  -2  -9 -20    3.18    0.76
  -3  -9 -20    1.05    0.83
  -4  -9 -20   19.48    1.77
  -5  -9 -20    7.41    1.05
  -6  -9 -20    1.70    1.01
  -7  -9 -20    0.87    1.05
  -8  -9 -20   33.86    1.95
  -9  -9 -20    2.89    0.94
  21  -9 -19    0.36    1.52
  19  -9 -19    0.87    1.16
  18  -9 -19   -0.58    0.87
  17  -9 -19   -1.16    0.76
  16  -9 -19    0.65    0.76
  15  -9 -19    0.72    0.69
  14  -9 -19   11.78    1.05
  13  -9 -19    7.66    1.01
  12  -9 -19    2.82    1.16
  11  -9 -19    3.40    1.19
  10  -9 -19   -2.24    1.19
   9  -9 -19    1.05    1.23
   8  -9 -19   -0.11    1.19
   7  -9 -19    0.54    0.83
   6  -9 -19   25.40    1.30
   5  -9 -19   52.14    2.53
   4  -9 -19    0.61    0.76
   3  -9 -19   11.24    1.16
   2  -9 -19    7.37    1.52
   1  -9 -19    0.79    0.54
   0  -9 -19    0.00    0.87
  -1  -9 -19    0.04    0.90
  -2  -9 -19   10.04    1.05
  -3  -9 -19    1.59    0.94
  -4  -9 -19    1.08    1.30
  -5  -9 -19    2.28    1.41
  -7  -9 -19    6.65    1.48
  -8  -9 -19    7.08    2.13
  -9  -9 -19    9.25    1.73
 -10  -9 -19   26.38    2.28
 -11  -9 -19   19.22    1.84
 -12  -9 -19    0.25    0.90
  22  -9 -18   -0.36    0.54
  21  -9 -18    1.16    0.79
  20  -9 -18   -0.65    1.30
  19  -9 -18    3.36    1.81
  18  -9 -18    2.60    1.41
  17  -9 -18   17.13    1.73
  16  -9 -18    0.18    0.98
  15  -9 -18    3.72    0.76
  14  -9 -18    0.58    0.76
  13  -9 -18   24.86    2.89
  12  -9 -18    1.08    1.05
  11  -9 -18   10.30    1.23
  10  -9 -18    0.83    0.79
   9  -9 -18   10.80    0.94
   8  -9 -18   -0.25    0.79
   7  -9 -18   29.45    1.66
   6  -9 -18   45.71    2.17
   5  -9 -18    2.06    1.08
   4  -9 -18   19.15    2.31
   3  -9 -18   11.02    1.63
   2  -9 -18   46.97    2.93
   1  -9 -18   -0.61    0.98
   0  -9 -18   27.79    1.37
  -1  -9 -18    2.35    0.90
  -2  -9 -18   53.66    3.04
  -3  -9 -18   -0.90    1.19
  -4  -9 -18   46.18    3.07
  -5  -9 -18   12.21    1.45
  -6  -9 -18   19.08    1.26
  -7  -9 -18   -0.90    0.87
  -8  -9 -18   38.52    1.84
  -9  -9 -18   19.26    1.26
 -10  -9 -18   -0.94    1.59
 -11  -9 -18    9.54    1.05
 -12  -9 -18   69.30    2.53
 -13  -9 -18   34.04    1.63
 -14  -9 -18    3.22    1.05
  24  -9 -17   -0.29    2.35
  23  -9 -17    0.33    1.55
  21  -9 -17    5.74    1.34
  20  -9 -17    1.52    0.83
  19  -9 -17    2.38    1.05
  18  -9 -17    1.66    1.23
  17  -9 -17   -0.14    0.98
  16  -9 -17    0.07    1.37
  15  -9 -17    5.78    1.12
  14  -9 -17    6.90    1.16
  13  -9 -17    0.54    0.76
  12  -9 -17    4.16    1.37
  11  -9 -17    1.19    0.79
  10  -9 -17    5.53    0.79
   9  -9 -17    0.29    0.83
   8  -9 -17    9.36    0.87
   7  -9 -17    2.28    0.76
   6  -9 -17    8.20    0.79
   5  -9 -17    3.43    0.79
   4  -9 -17    4.95    0.76
   3  -9 -17    0.90    0.90
   2  -9 -17   -1.23    1.45
   1  -9 -17    0.36    1.01
   0  -9 -17   -1.05    1.12
  -1  -9 -17   19.29    2.28
  -2  -9 -17    4.66    0.94
  -3  -9 -17    0.43    0.87
  -4  -9 -17   42.38    1.99
  -5  -9 -17   14.45    1.30
  -6  -9 -17    7.55    1.30
  -7  -9 -17    0.47    0.98
  -8  -9 -17    2.96    0.90
  -9  -9 -17    0.22    1.05
 -10  -9 -17   20.78    1.48
 -11  -9 -17    1.16    0.87
 -12  -9 -17    5.13    0.98
 -13  -9 -17    1.88    0.87
 -14  -9 -17    0.61    1.59
 -15  -9 -17    1.41    1.81
 -16  -9 -17    0.61    0.61
  24  -9 -16   -2.31    1.91
  23  -9 -16    4.01    1.01
  22  -9 -16    2.60    0.90
  21  -9 -16    5.28    0.90
  20  -9 -16    4.05    1.16
  19  -9 -16    8.02    1.95
  17  -9 -16   21.50    1.30
  16  -9 -16    1.63    1.23
  15  -9 -16   19.62    1.34
  14  -9 -16    1.23    1.66
  13  -9 -16    2.31    0.76
  12  -9 -16    6.29    1.30
  11  -9 -16  101.39    3.04
  10  -9 -16  105.79    3.04
   9  -9 -16   98.03    3.97
   8  -9 -16    2.75    0.72
   7  -9 -16    6.36    1.05
   6  -9 -16   84.08    3.00
   5  -9 -16   13.51    1.48
   4  -9 -16   25.98    1.70
   3  -9 -16   10.95    1.08
   2  -9 -16   12.07    1.23
   1  -9 -16    1.95    1.05
   0  -9 -16  127.18    5.64
  -1  -9 -16   61.75    2.93
  -2  -9 -16   18.54    1.26
  -3  -9 -16   33.13    2.06
  -4  -9 -16   38.70    2.06
  -5  -9 -16   26.41    1.26
  -6  -9 -16    0.47    1.12
  -8  -9 -16  286.49    9.97
  -9  -9 -16   18.14    1.55
 -10  -9 -16    0.54    1.48
 -11  -9 -16   14.45    1.30
 -12  -9 -16  180.52    4.88
 -13  -9 -16   59.65    2.85
 -14  -9 -16   -2.82    1.66
 -15  -9 -16   13.59    1.19
 -16  -9 -16   56.44    2.82
 -17  -9 -16   13.04    1.88
  26  -9 -15    0.69    0.83
  25  -9 -15   -2.38    1.66
  24  -9 -15   -0.11    0.94
  23  -9 -15    1.81    0.87
  22  -9 -15   -0.65    1.08
  21  -9 -15    5.74    0.94
  20  -9 -15    1.77    0.90
  18  -9 -15    6.58    0.87
  17  -9 -15   -0.29    0.94
  16  -9 -15    1.70    0.83
  15  -9 -15    1.73    1.12
  14  -9 -15   34.54    1.52
  13  -9 -15    8.89    1.19
  12  -9 -15    3.69    0.98
  11  -9 -15    0.98    0.98
  10  -9 -15    5.35    0.90
   9  -9 -15    4.77    0.79
   8  -9 -15   -0.72    0.79
   7  -9 -15   14.45    1.45
   6  -9 -15   44.33    2.31
   5  -9 -15    1.52    0.76
   4  -9 -15    6.18    0.98
   3  -9 -15   13.62    0.98
   2  -9 -15  140.99    4.41
   1  -9 -15   37.97    2.85
   0  -9 -15    0.90    1.01
  -1  -9 -15  189.58    7.08
  -2  -9 -15   26.23    1.73
  -3  -9 -15    2.57    0.76
  -4  -9 -15    1.45    0.83
  -5  -9 -15    1.19    1.01
  -6  -9 -15    5.78    0.79
  -7  -9 -15  174.73    5.71
  -8  -9 -15   32.16    2.06
  -9  -9 -15    1.73    0.87
 -10  -9 -15    2.38    1.41
 -11  -9 -15   50.73    2.17
 -12  -9 -15   27.89    2.17
 -13  -9 -15   25.58    1.84
 -14  -9 -15   20.13    1.48
 -15  -9 -15    1.73    0.94
 -16  -9 -15    1.16    0.72
 -17  -9 -15    4.37    0.94
 -18  -9 -15   -0.69    0.76
  27  -9 -14    2.67    2.13
  26  -9 -14    1.55    0.69
  24  -9 -14   -3.36    1.88
  23  -9 -14   19.37    2.28
  22  -9 -14    0.36    0.79
  21  -9 -14   11.42    1.16
  20  -9 -14    4.88    0.79
  18  -9 -14    2.13    1.01
  17  -9 -14    0.69    0.76
  16  -9 -14    0.40    0.76
  15  -9 -14  143.08    6.29
  14  -9 -14   -0.51    0.61
  13  -9 -14    2.71    0.79
  12  -9 -14    3.36    0.90
  11  -9 -14   41.80    1.88
  10  -9 -14    5.20    0.87
   9  -9 -14   16.33    1.05
   8  -9 -14  105.69    3.14
   7  -9 -14  101.02    3.90
   6  -9 -14   53.08    1.91
   5  -9 -14  126.24    4.70
   4  -9 -14  117.57    3.90
   3  -9 -14  141.28    4.12
   2  -9 -14  124.51    7.12
   1  -9 -14   83.28    2.49
   0  -9 -14  120.64    4.84
  -1  -9 -14   82.27    3.94
  -2  -9 -14    3.61    0.94
  -3  -9 -14    6.21    1.08
  -4  -9 -14  143.77    5.09
  -5  -9 -14   69.95    3.14
  -6  -9 -14   19.51    2.31
  -7  -9 -14   78.55    2.96
  -8  -9 -14  219.83    8.31
  -9  -9 -14   -1.08    1.08
 -10  -9 -14  126.06    5.64
 -11  -9 -14   10.30    1.37
 -12  -9 -14  179.25    5.46
 -13  -9 -14   20.16    1.59
 -14  -9 -14   76.02    3.22
 -15  -9 -14  209.85    6.14
 -16  -9 -14  120.10    3.65
 -17  -9 -14   65.29    3.36
 -18  -9 -14   15.75    1.37
 -19  -9 -14   36.78    3.54
 -20  -9 -14   13.37    1.48
  27  -9 -13    0.83    0.90
  26  -9 -13    3.79    1.16
  25  -9 -13    1.08    0.65
  24  -9 -13   -0.25    0.87
  23  -9 -13    0.51    0.76
  22  -9 -13    1.55    0.94
  21  -9 -13    0.98    0.72
  20  -9 -13    0.98    0.61
  19  -9 -13    2.28    0.79
  17  -9 -13   12.47    1.12
  16  -9 -13    6.43    0.69
  15  -9 -13   -0.79    1.05
  14  -9 -13    7.62    0.94
  13  -9 -13    3.79    0.79
  12  -9 -13   64.75    1.88
  11  -9 -13   76.17    2.31
  10  -9 -13    0.36    0.83
   9  -9 -13   13.91    1.55
   8  -9 -13    7.23    0.94
   7  -9 -13   13.80    1.34
   6  -9 -13   63.99    2.24
   5  -9 -13   99.90    3.61
   4  -9 -13   13.59    1.37
   3  -9 -13    7.05    0.87
   2  -9 -13   17.23    1.05
   1  -9 -13   69.34    4.91
   0  -9 -13  250.32    6.83
  -1  -9 -13   11.56    1.91
  -2  -9 -13   68.94    3.36
  -3  -9 -13  165.52    4.88
  -4  -9 -13   88.16    3.69
  -5  -9 -13    2.46    0.79
  -6  -9 -13   -0.33    0.72
  -7  -9 -13   83.18    3.47
  -8  -9 -13   37.47    1.66
  -9  -9 -13   47.95    2.71
 -10  -9 -13   13.87    2.78
 -11  -9 -13   85.52    4.95
 -12  -9 -13   56.55    2.67
 -13  -9 -13   52.86    2.46
 -14  -9 -13   16.51    1.66
 -15  -9 -13   84.51    4.41
 -16  -9 -13   82.09    4.48
 -17  -9 -13   11.13    1.30
 -18  -9 -13    8.60    1.26
 -19  -9 -13   64.03    2.67
 -20  -9 -13    3.69    1.12
 -21  -9 -13    7.15    1.19
  27  -9 -12    8.71    0.76
  26  -9 -12    1.77    1.26
  25  -9 -12    0.29    1.23
  24  -9 -12    4.44    0.76
  23  -9 -12   13.98    1.26
  22  -9 -12   12.94    1.48
  21  -9 -12   15.90    1.34
  20  -9 -12    5.02    1.05
  19  -9 -12  100.05    3.94
  18  -9 -12    6.65    0.76
  17  -9 -12    4.44    0.65
  16  -9 -12   19.80    1.26
  15  -9 -12  120.54    3.76
  14  -9 -12   22.44    1.45
  13  -9 -12   58.17    2.93
  12  -9 -12   15.79    1.30
  11  -9 -12   92.03    2.57
  10  -9 -12    8.89    0.94
   9  -9 -12   92.14    4.88
   8  -9 -12  165.63    6.03
   7  -9 -12  122.88    3.65
   6  -9 -12  139.25    4.99
   5  -9 -12   73.35    3.07
   4  -9 -12    5.17    0.72
   3  -9 -12    1.23    0.72
   2  -9 -12  114.10    4.52
   1  -9 -12  393.69    8.64
   0  -9 -12   91.34    3.83
  -1  -9 -12  283.56    7.37
  -2  -9 -12   72.05    3.43
  -3  -9 -12  122.60    4.08
  -4  -9 -12  440.63   12.79
  -5  -9 -12   56.55    3.22
  -6  -9 -12  332.96   11.42
  -7  -9 -12  323.92   18.21
  -8  -9 -12  293.82    7.19
 -10  -9 -12  534.90   13.98
 -11  -9 -12    5.42    0.72
 -12  -9 -12  171.16    4.81
 -13  -9 -12   14.20    1.23
 -14  -9 -12  386.07   11.16
 -15  -9 -12    0.51    0.87
 -16  -9 -12   10.04    1.26
 -17  -9 -12   57.70    2.42
 -18  -9 -12  102.94    4.30
 -19  -9 -12   10.66    0.90
 -20  -9 -12    2.46    0.87
 -21  -9 -12   30.82    1.59
 -22  -9 -12   61.71    3.43
 -23  -9 -12   -0.29    0.83
  30  -9 -11    0.58    0.90
  29  -9 -11    0.00    1.34
  28  -9 -11    0.33    0.65
  27  -9 -11    0.40    0.76
  26  -9 -11   -1.01    0.79
  25  -9 -11   -0.51    1.23
  24  -9 -11   21.32    1.55
  23  -9 -11    6.43    0.90
  22  -9 -11   -0.43    0.54
  21  -9 -11   -0.69    0.61
  20  -9 -11   16.04    1.70
  19  -9 -11   29.63    1.81
  18  -9 -11    0.22    0.83
  17  -9 -11   15.03    1.41
  16  -9 -11   38.19    1.66
  15  -9 -11    0.47    1.23
  14  -9 -11    0.90    0.90
  13  -9 -11    1.08    0.51
  12  -9 -11    6.90    0.87
  11  -9 -11   64.13    3.69
  10  -9 -11   84.55    3.22
   9  -9 -11   19.84    1.16
   8  -9 -11  136.07    3.22
   7  -9 -11   58.03    1.99
   6  -9 -11   77.47    2.38
   5  -9 -11   18.50    0.83
   4  -9 -11   34.54    1.37
   3  -9 -11    2.49    0.61
   2  -9 -11   18.03    1.16
   1  -9 -11  126.17    3.76
   0  -9 -11   21.21    1.08
  -1  -9 -11    3.07    0.83
  -2  -9 -11    1.88    0.90
  -3  -9 -11  148.03    4.88
  -4  -9 -11    3.40    1.37
  -5  -9 -11    3.50    1.55
  -6  -9 -11  318.25   10.80
  -7  -9 -11    2.28    0.98
  -8  -9 -11    3.00    0.87
  -9  -9 -11  141.82    5.17
 -10  -9 -11    0.83    1.48
 -11  -9 -11  112.66    3.79
 -12  -9 -11   75.05    3.14
 -13  -9 -11   25.22    1.91
 -14  -9 -11    6.61    0.83
 -15  -9 -11   19.29    1.26
 -16  -9 -11   47.95    1.95
 -17  -9 -11   66.70    2.57
 -18  -9 -11    9.94    1.05
 -19  -9 -11    2.17    0.87
 -20  -9 -11    9.11    1.81
 -21  -9 -11   87.19    3.79
 -22  -9 -11    1.77    0.76
 -23  -9 -11    3.00    1.26
 -24  -9 -11    8.06    1.41
  29  -9 -10    0.07    0.94
  28  -9 -10    1.30    0.61
  27  -9 -10   12.00    1.12
  26  -9 -10   -1.23    1.26
  25  -9 -10   10.44    0.98
  24  -9 -10    3.36    1.23
  23  -9 -10   20.20    1.30
  22  -9 -10   15.61    1.12
  21  -9 -10    5.71    1.01
  20  -9 -10   24.03    1.34
  19  -9 -10   46.68    1.73
  18  -9 -10   26.01    1.48
  17  -9 -10   26.38    1.73
  16  -9 -10   21.35    1.08
  15  -9 -10   46.25    2.17
  14  -9 -10    2.49    1.16
  13  -9 -10  485.03   14.96
  12  -9 -10   69.99    2.57
  11  -9 -10   76.09    2.06
  10  -9 -10    1.48    0.76
   9  -9 -10  123.32    4.77
   8  -9 -10   56.47    1.91
   7  -9 -10   34.58    1.77
   6  -9 -10  104.13    3.50
   5  -9 -10  304.19    9.94
   4  -9 -10    1.48    0.69
   3  -9 -10   52.28    2.31
   2  -9 -10   98.86    4.16
   1  -9 -10  123.90    3.94
   0  -9 -10  121.95    6.43
  -1  -9 -10    0.58    1.52
  -2  -9 -10  349.87    7.37
  -3  -9 -10  405.11   16.44
  -4  -9 -10   59.76    2.24
  -5  -9 -10  696.51   16.66
  -6  -9 -10  658.87   15.61
  -7  -9 -10  668.12   15.39
  -8  -9 -10   -0.04    1.01
  -9  -9 -10  102.90    3.43
 -10  -9 -10  482.36   11.85
 -11  -9 -10    4.05    0.87
 -12  -9 -10   11.49    1.16
 -13  -9 -10    5.24    0.76
 -14  -9 -10  587.83   19.29
 -15  -9 -10   14.16    1.19
 -16  -9 -10   36.02    2.53
 -17  -9 -10   16.84    1.19
 -18  -9 -10  167.15    5.13
 -19  -9 -10   28.29    1.70
 -20  -9 -10   36.17    1.73
 -21  -9 -10    6.14    1.55
 -22  -9 -10   71.72    2.60
 -23  -9 -10    3.76    1.19
 -24  -9 -10   42.67    2.28
 -25  -9 -10    0.98    0.94
  29  -9  -9    2.49    1.41
  28  -9  -9    0.33    0.69
  27  -9  -9    3.72    1.30
  26  -9  -9   -0.43    0.51
  25  -9  -9   -0.79    0.94
  23  -9  -9   21.97    1.48
  21  -9  -9    1.23    1.91
  20  -9  -9    5.17    1.12
  19  -9  -9   13.51    1.05
  18  -9  -9   92.17    3.11
  17  -9  -9    1.88    0.72
  16  -9  -9   11.78    2.42
  15  -9  -9   26.63    1.59
  14  -9  -9    9.94    1.48
  13  -9  -9   20.52    1.05
  12  -9  -9    2.60    0.79
   9  -9  -9   12.47    0.87
   8  -9  -9   60.12    1.95
   7  -9  -9   68.80    2.46
   6  -9  -9  104.42    3.18
   5  -9  -9   32.27    3.29
   4  -9  -9    4.48    1.05
   3  -9  -9   37.72    1.48
   2  -9  -9  275.33    6.68
   1  -9  -9    9.21    0.98
   0  -9  -9   69.55    3.18
  -1  -9  -9   13.51    1.05
  -2  -9  -9    0.51    0.83
  -3  -9  -9   -0.11    0.69
  -4  -9  -9    6.50    1.01
  -5  -9  -9    1.95    0.94
  -6  -9  -9   -0.04    0.72
  -7  -9  -9    7.55    1.05
  -8  -9  -9    1.12    0.76
  -9  -9  -9   99.72    3.61
 -10  -9  -9   14.99    1.12
 -11  -9  -9    3.04    0.69
 -12  -9  -9   19.51    1.84
 -13  -9  -9   12.57    1.70
 -14  -9  -9   26.70    1.48
 -15  -9  -9    4.73    0.72
 -16  -9  -9   57.63    2.42
 -17  -9  -9   16.22    1.55
 -18  -9  -9    6.36    1.01
 -19  -9  -9    3.83    1.05
 -20  -9  -9   -0.11    1.08
 -21  -9  -9    0.54    0.83
 -22  -9  -9    9.47    0.98
 -23  -9  -9    1.01    0.61
 -24  -9  -9    5.35    0.98
 -25  -9  -9    0.40    1.41
 -26  -9  -9    1.01    1.66
  31  -9  -8    1.05    1.63
  30  -9  -8    1.55    0.76
  29  -9  -8   -0.87    1.34
  28  -9  -8    7.84    0.90
  27  -9  -8    3.50    0.94
  26  -9  -8    2.24    1.34
  25  -9  -8    1.77    0.65
  24  -9  -8    7.73    0.94
  23  -9  -8    2.28    0.58
  22  -9  -8   -0.33    0.79
  21  -9  -8   17.89    1.23
  20  -9  -8   26.77    1.55
  19  -9  -8    8.96    1.91
  18  -9  -8    3.83    0.83
  17  -9  -8    2.57    0.69
  16  -9  -8    3.14    0.61
  15  -9  -8   76.82    2.53
  14  -9  -8   81.55    3.32
  13  -9  -8   64.97    3.11
  12  -9  -8   19.87    1.01
  11  -9  -8   49.83    1.91
  10  -9  -8   -0.40    0.79
   9  -9  -8  457.32   11.27
   8  -9  -8    0.83    0.61
   7  -9  -8   40.76    1.55
   5  -9  -8  222.83    6.18
   4  -9  -8  109.41    3.87
   3  -9  -8    0.58    0.61
   2  -9  -8   -1.45    1.41
   1  -9  -8  239.99    7.88
   0  -9  -8  122.56    4.77
  -1  -9  -8  282.99    7.62
  -2  -9  -8    5.82    0.69
  -3  -9  -8  367.82   10.91
  -4  -9  -8    5.64    0.94
  -5  -9  -8   71.72    2.31
  -6  -9  -8  170.15    4.41
  -7  -9  -8   78.98    2.64
  -8  -9  -8   80.65    2.82
  -9  -9  -8  344.19   11.92
 -10  -9  -8    2.64    0.72
 -11  -9  -8    0.33    0.58
 -12  -9  -8  205.59    4.84
 -13  -9  -8    3.36    0.76
 -14  -9  -8    8.02    0.83
 -15  -9  -8    4.01    0.72
 -16  -9  -8   54.81    3.69
 -17  -9  -8   14.89    1.19
 -18  -9  -8   57.88    2.35
 -19  -9  -8   -0.33    0.83
 -20  -9  -8   45.82    1.70
 -21  -9  -8   -1.55    0.94
 -22  -9  -8   29.41    1.95
 -23  -9  -8   16.95    1.34
 -24  -9  -8   49.83    2.13
 -25  -9  -8    3.14    0.87
 -26  -9  -8    5.42    2.38
  31  -9  -7   -1.05    1.19
  30  -9  -7    0.33    0.76
  29  -9  -7    0.36    0.61
  28  -9  -7   -0.11    0.90
  27  -9  -7    1.05    0.90
  24  -9  -7    0.90    0.61
  23  -9  -7    0.54    0.54
  22  -9  -7    0.29    1.05
  21  -9  -7    4.19    0.72
  20  -9  -7   46.39    2.64
  19  -9  -7   11.92    1.16
  18  -9  -7   13.48    1.19
  17  -9  -7   13.66    1.16
  16  -9  -7   35.23    2.20
  15  -9  -7    0.51    0.58
  14  -9  -7    2.20    0.65
  13  -9  -7    2.13    0.79
  12  -9  -7   25.80    1.52
  11  -9  -7   27.24    1.70
  10  -9  -7   30.46    1.30
   9  -9  -7  125.45    4.23
   8  -9  -7   49.14    1.84
   7  -9  -7    2.75    1.01
   6  -9  -7   55.17    2.28
   5  -9  -7    1.70    0.72
   4  -9  -7  127.69    3.58
   3  -9  -7   13.44    1.99
   2  -9  -7   25.73    1.16
   1  -9  -7    2.96    1.34
   0  -9  -7   -0.40    0.69
  -1  -9  -7    5.42    0.94
  -2  -9  -7   23.52    1.55
  -3  -9  -7   84.22    2.93
  -4  -9  -7   48.92    2.49
  -5  -9  -7    8.38    0.76
  -6  -9  -7   68.43    4.48
  -7  -9  -7   10.88    0.79
  -8  -9  -7   35.48    2.06
  -9  -9  -7    1.63    0.72
 -11  -9  -7    1.37    0.79
 -12  -9  -7   35.37    1.37
 -13  -9  -7    4.16    0.79
 -14  -9  -7   24.06    1.48
 -15  -9  -7    0.54    1.19
 -16  -9  -7   25.98    1.88
 -17  -9  -7   11.67    1.77
 -18  -9  -7    7.30    1.16
 -19  -9  -7    9.25    1.12
 -20  -9  -7   -1.37    0.94
 -21  -9  -7    0.00    1.37
 -22  -9  -7   14.92    1.12
 -23  -9  -7    2.06    0.58
 -24  -9  -7    2.71    1.16
 -25  -9  -7   17.92    1.23
 -26  -9  -7    0.90    0.58
 -27  -9  -7   -0.25    1.19
  30  -9  -6    0.54    0.98
  29  -9  -6    3.36    1.95
  28  -9  -6    1.95    1.30
  27  -9  -6    2.24    0.87
  26  -9  -6   -0.61    0.98
  25  -9  -6   12.43    1.26
  24  -9  -6    1.26    0.54
  23  -9  -6   24.28    1.26
  22  -9  -6   35.37    1.48
  21  -9  -6   -0.07    0.54
  20  -9  -6   48.71    1.99
  19  -9  -6   12.79    2.67
  18  -9  -6  156.27    5.13
  17  -9  -6    9.86    1.23
  16  -9  -6   23.74    2.20
  15  -9  -6    0.61    0.72
  14  -9  -6  137.45    3.40
  13  -9  -6   32.66    1.63
  12  -9  -6    2.42    1.05
  11  -9  -6   41.66    1.45
  10  -9  -6   22.15    1.19
   9  -9  -6  255.13    6.25
   8  -9  -6    0.36    0.58
   7  -9  -6    2.42    0.90
   6  -9  -6    3.47    0.72
   5  -9  -6  118.55    3.18
   4  -9  -6    2.46    0.61
   3  -9  -6  195.22    4.70
   2  -9  -6    3.87    1.01
   0  -9  -6  252.35    6.50
  -1  -9  -6  859.07   20.16
  -2  -9  -6   38.41    1.48
  -3  -9  -6   35.81    1.48
  -4  -9  -6   89.86    2.78
  -5  -9  -6  886.46   20.56
  -7  -9  -6  156.09    5.17
  -8  -9  -6    0.90    0.61
  -9  -9  -6    2.49    0.90
 -10  -9  -6   32.30    1.63
 -11  -9  -6    4.30    0.76
 -12  -9  -6   22.80    1.34
 -13  -9  -6  248.52    5.96
 -14  -9  -6    8.53    0.94
 -15  -9  -6    4.37    0.69
 -16  -9  -6   25.65    1.59
 -17  -9  -6  118.69    6.87
 -18  -9  -6   10.84    1.63
 -19  -9  -6    6.07    1.08
 -20  -9  -6   57.27    1.88
 -21  -9  -6    7.23    0.79
 -22  -9  -6   10.70    1.48
 -23  -9  -6   60.38    2.13
 -24  -9  -6   29.84    2.24
 -25  -9  -6   17.60    1.26
 -26  -9  -6    1.19    0.69
 -27  -9  -6    1.70    0.79
 -28  -9  -6   17.16    1.63
  30  -9  -5    0.76    0.72
  29  -9  -5    1.41    1.01
  28  -9  -5    0.00    0.72
  27  -9  -5    2.89    1.16
  26  -9  -5   -0.65    0.79
  25  -9  -5    3.94    1.37
  23  -9  -5    0.04    1.19
  21  -9  -5   38.66    2.06
  20  -9  -5    5.09    1.59
  19  -9  -5    3.47    0.58
  18  -9  -5    2.24    0.98
  17  -9  -5    3.54    0.76
  16  -9  -5    0.65    0.61
  15  -9  -5   16.98    1.73
  14  -9  -5    2.13    0.87
  13  -9  -5   14.78    1.19
  12  -9  -5   29.09    1.08
  11  -9  -5   46.21    2.46
  10  -9  -5    9.14    0.69
   9  -9  -5  186.04    6.68
   8  -9  -5    3.87    0.72
   7  -9  -5   46.43    1.66
   6  -9  -5   19.48    1.19
   5  -9  -5  153.89    4.30
   4  -9  -5   43.86    1.55
   3  -9  -5  121.26    4.12
   2  -9  -5  517.37   14.45
   1  -9  -5    1.37    1.08
   0  -9  -5   22.69    1.34
  -2  -9  -5   11.82    1.05
  -3  -9  -5  264.67    6.90
  -4  -9  -5  202.74    6.43
  -6  -9  -5   30.31    2.49
  -7  -9  -5   29.99    1.30
  -8  -9  -5   34.72    1.45
  -9  -9  -5   27.42    1.34
 -10  -9  -5   48.81    2.02
 -11  -9  -5  151.65    5.28
 -12  -9  -5   27.06    1.45
 -13  -9  -5  161.65    4.55
 -14  -9  -5    1.91    0.94
 -15  -9  -5  192.76    6.65
 -16  -9  -5   76.56    4.70
 -17  -9  -5   52.21    4.52
 -18  -9  -5   22.73    1.59
 -19  -9  -5   -0.33    1.01
 -20  -9  -5   11.27    0.98
 -21  -9  -5    0.58    0.69
 -22  -9  -5    3.18    0.94
 -23  -9  -5   29.99    1.70
 -24  -9  -5    3.65    0.87
 -25  -9  -5   17.99    2.96
 -26  -9  -5    3.76    0.90
 -27  -9  -5   11.89    1.66
 -28  -9  -5   -0.07    1.41
  31  -9  -4    1.19    1.05
  30  -9  -4    9.57    1.12
  29  -9  -4    0.58    0.87
  28  -9  -4   34.33    1.63
  27  -9  -4    9.47    0.90
  26  -9  -4    0.07    0.98
  25  -9  -4   20.16    2.60
  24  -9  -4  108.58    4.23
  23  -9  -4    0.83    0.94
  22  -9  -4    4.77    0.72
  21  -9  -4   65.25    2.85
  20  -9  -4    1.37    0.83
  19  -9  -4    3.87    0.79
  18  -9  -4  161.55    4.70
  16  -9  -4   11.71    1.16
  15  -9  -4   17.45    1.01
  14  -9  -4   78.15    2.85
  13  -9  -4    7.05    0.94
  11  -9  -4  362.48    9.11
  10  -9  -4   51.92    1.99
   9  -9  -4  132.93    5.78
   8  -9  -4   17.05    1.52
   7  -9  -4  169.86    8.96
   6  -9  -4    8.06    0.72
   5  -9  -4  614.35   14.71
   4  -9  -4   38.48    1.55
   3  -9  -4   67.24    2.46
   1  -9  -4  455.48   10.33
   0  -9  -4    8.89    0.69
  -1  -9  -4 1009.06   30.35
  -3  -9  -4    1.84    0.72
  -4  -9  -4  479.33    9.97
  -5  -9  -4  518.35   11.96
  -6  -9  -4  478.49   10.62
  -7  -9  -4  440.09   19.40
  -8  -9  -4  146.98    4.05
  -9  -9  -4   82.74    2.93
 -10  -9  -4  147.96    5.78
 -11  -9  -4  237.13    8.74
 -12  -9  -4   95.61    3.25
 -13  -9  -4  197.24    7.26
 -14  -9  -4   15.93    1.34
 -15  -9  -4   11.06    0.87
 -16  -9  -4  251.01    6.90
 -17  -9  -4   53.98    5.60
 -18  -9  -4  267.59   10.19
 -19  -9  -4   69.81    3.90
 -20  -9  -4  265.86    8.49
 -21  -9  -4    5.02    1.08
 -22  -9  -4    0.65    0.69
 -23  -9  -4    7.33    0.76
 -24  -9  -4   70.20    3.00
 -25  -9  -4   19.33    1.55
 -26  -9  -4    9.32    0.90
 -27  -9  -4   22.33    1.52
 -28  -9  -4   15.50    1.77
  31  -9  -3    0.79    1.12
  30  -9  -3   10.44    1.01
  29  -9  -3    9.54    2.13
  28  -9  -3    0.25    0.51
  27  -9  -3   -1.30    1.05
  26  -9  -3    3.36    0.90
  25  -9  -3   16.87    1.34
  24  -9  -3   -0.22    0.72
  23  -9  -3    1.45    0.69
  22  -9  -3   40.03    2.13
  21  -9  -3  108.29    3.18
  20  -9  -3  113.96    3.29
  19  -9  -3    2.78    1.12
  18  -9  -3   21.53    1.37
  17  -9  -3    6.43    0.87
  16  -9  -3   86.61    3.22
  15  -9  -3   10.98    1.16
  14  -9  -3   55.57    2.67
  13  -9  -3   98.60    3.40
  12  -9  -3  280.38    7.37
  11  -9  -3   23.45    1.55
  10  -9  -3  191.93    4.77
   9  -9  -3   98.53    3.22
   8  -9  -3   18.93    0.94
   7  -9  -3    0.87    0.54
   6  -9  -3   73.71    3.50
   5  -9  -3  233.27    6.79
   4  -9  -3   69.30    2.28
   3  -9  -3    8.71    1.45
   2  -9  -3    8.78    0.72
   1  -9  -3   88.81    5.28
   0  -9  -3  145.90    5.24
  -1  -9  -3   21.46    1.05
  -2  -9  -3   62.29    3.25
  -3  -9  -3  384.08    8.24
  -4  -9  -3  153.96    8.71
  -5  -9  -3    1.37    0.65
  -6  -9  -3   18.97    0.94
  -7  -9  -3  116.63    3.69
  -8  -9  -3    4.52    0.72
  -9  -9  -3   26.88    1.99
 -10  -9  -3    1.30    0.51
 -11  -9  -3   76.78    5.67
 -12  -9  -3   10.66    1.05
 -13  -9  -3    2.60    0.51
 -14  -9  -3    1.88    0.61
 -15  -9  -3  299.17    7.41
 -16  -9  -3   28.07    1.88
 -17  -9  -3   34.22    1.59
 -18  -9  -3   11.13    1.08
 -19  -9  -3   11.85    1.01
 -22  -9  -3   10.12    1.08
 -23  -9  -3   -0.07    0.51
 -24  -9  -3    0.14    0.98
 -25  -9  -3    0.18    0.94
 -26  -9  -3    5.71    0.79
 -27  -9  -3    1.99    1.55
 -28  -9  -3    0.00    0.83
 -29  -9  -3    1.34    1.63
  29  -9  -2    4.08    0.61
  28  -9  -2   46.25    2.60
  27  -9  -2    0.33    0.69
  26  -9  -2   10.66    0.76
  25  -9  -2    9.86    1.77
  24  -9  -2   42.27    1.73
  23  -9  -2    1.48    0.83
  22  -9  -2  223.91    8.56
  21  -9  -2   24.39    1.99
  20  -9  -2    5.24    0.98
  19  -9  -2   62.87    3.72
  18  -9  -2  333.93    9.11
  17  -9  -2  130.15    3.69
  16  -9  -2   10.55    1.12
  15  -9  -2  391.02   13.44
  14  -9  -2    4.34    1.05
  13  -9  -2  288.15    7.73
  12  -9  -2   11.09    1.16
  11  -9  -2  414.87    9.72
   9  -9  -2   43.14    2.24
   8  -9  -2  165.09    8.85
   7  -9  -2  866.01   17.70
   6  -9  -2  150.16    5.93
   5  -9  -2   19.48    1.19
   4  -9  -2   11.09    0.90
   3  -9  -2 1568.45   29.56
   2  -9  -2   29.81    1.99
   1  -9  -2    1.19    0.65
   0  -9  -2  427.15   13.59
  -2  -9  -2  129.14    3.76
  -3  -9  -2  240.86    5.93
  -4  -9  -2  416.24    9.90
  -5  -9  -2  476.76   17.27
  -6  -9  -2   59.15    1.91
  -7  -9  -2   42.71    1.77
  -8  -9  -2 1064.88   21.97
  -9  -9  -2  514.59   12.32
 -11  -9  -2   39.82    1.77
 -12  -9  -2  447.82   11.20
 -13  -9  -2  214.91    7.15
 -14  -9  -2    9.43    0.87
 -15  -9  -2  340.07    8.53
 -16  -9  -2  128.99    4.88
 -17  -9  -2   29.41    1.66
 -18  -9  -2   37.00    2.60
 -20  -9  -2  443.81   18.64
 -21  -9  -2   46.25    2.53
 -22  -9  -2  106.01    4.05
 -23  -9  -2    1.88    1.08
 -24  -9  -2   73.46    3.40
 -25  -9  -2    0.76    0.69
 -26  -9  -2   34.36    2.78
 -27  -9  -2   41.99    2.17
 -28  -9  -2   20.81    0.98
 -29  -9  -2    4.73    1.08
 -30  -9  -2   14.89    1.45
  31  -9  -1    0.87    0.72
  30  -9  -1    1.88    0.94
  29  -9  -1    7.37    2.02
  28  -9  -1   11.27    1.19
  27  -9  -1    0.94    0.87
  26  -9  -1    3.76    1.01
  25  -9  -1    2.78    0.90
  24  -9  -1   31.80    1.73
  23  -9  -1    1.55    1.19
  22  -9  -1   27.79    2.35
  21  -9  -1   58.93    2.35
  20  -9  -1   89.14    4.23
  19  -9  -1   25.83    3.32
  18  -9  -1    1.05    1.23
  17  -9  -1    0.04    0.69
  16  -9  -1   65.47    3.18
  15  -9  -1    4.19    0.76
  14  -9  -1   25.91    1.52
  13  -9  -1  254.62    8.49
  12  -9  -1  365.51    9.90
  11  -9  -1  259.82    7.41
  10  -9  -1   36.82    1.77
   9  -9  -1  120.86    3.61
   8  -9  -1  257.95    8.96
   7  -9  -1   33.67    1.48
   6  -9  -1   19.98    1.66
   5  -9  -1   95.50    5.74
   4  -9  -1  338.85   17.49
   3  -9  -1   20.74    1.34
   2  -9  -1  111.86    3.25
   1  -9  -1    3.36    0.47
   0  -9  -1    4.52    0.65
  -1  -9  -1    2.28    0.69
  -2  -9  -1  273.41   13.48
  -3  -9  -1   23.12    1.01
  -4  -9  -1   91.34    2.96
  -5  -9  -1  165.99    4.08
  -6  -9  -1   75.15    2.46
  -7  -9  -1  157.07    5.71
  -8  -9  -1   50.11    2.49
 -10  -9  -1   70.96    2.93
 -11  -9  -1  108.40    3.32
 -13  -9  -1   63.48    3.50
 -14  -9  -1   45.13    2.13
 -15  -9  -1   27.10    1.55
 -16  -9  -1   11.20    0.90
 -17  -9  -1   24.86    1.91
 -18  -9  -1   14.53    1.16
 -19  -9  -1    6.90    1.01
 -20  -9  -1  127.69    4.16
 -21  -9  -1   51.85    2.31
 -22  -9  -1   22.98    1.48
 -23  -9  -1    2.93    1.12
 -24  -9  -1   27.32    1.05
 -25  -9  -1   -0.65    1.05
 -26  -9  -1    7.88    0.90
 -27  -9  -1    0.69    0.65
 -28  -9  -1    6.76    1.19
 -29  -9  -1   -0.79    2.17
  30  -9   0    6.72    0.94
  29  -9   0    2.46    0.90
  28  -9   0    2.64    1.95
  27  -9   0    5.93    1.16
  26  -9   0  117.97    5.53
  25  -9   0   21.93    1.81
  24  -9   0   59.69    2.89
  23  -9   0   29.95    1.88
  22  -9   0  183.80    4.88
  21  -9   0  147.09    5.06
  20  -9   0  167.54    5.53
  19  -9   0    8.85    1.41
  18  -9   0  374.33   11.78
  17  -9   0    7.12    1.41
  16  -9   0  157.61    4.77
  15  -9   0  245.48    6.14
  14  -9   0  486.99   14.49
  13  -9   0  137.77    4.44
  12  -9   0    1.01    0.79
  11  -9   0  157.90    5.31
  10  -9   0   84.37    3.90
   9  -9   0  219.93    7.05
   8  -9   0  100.52    4.37
   7  -9   0  767.22   19.26
   6  -9   0   42.67    1.81
   5  -9   0    9.54    0.72
   4  -9   0  165.41    5.89
   2  -9   0  153.31    9.94
   1  -9   0 2183.13   40.03
   0  -9   0   -0.25    1.59
  -1  -9   0 1971.03   52.50
  -3  -9   0 1531.05   33.28
  -4  -9   0  144.85    7.59
  -5  -9   0    8.82    0.61
  -6  -9   0   47.98    3.43
  -7  -9   0  772.28   23.27
  -8  -9   0   90.08    2.93
  -9  -9   0  213.32    6.68
 -10  -9   0   88.02    2.82
 -12  -9   0    1.30    0.61
 -13  -9   0  150.53    6.14
 -14  -9   0  431.96    9.54
 -15  -9   0  217.04    6.94
 -16  -9   0  150.67    8.56
 -17  -9   0    5.78    0.72
 -18  -9   0  341.09   10.08
 -19  -9   0   11.16    0.98
 -20  -9   0  123.25    5.82
 -21  -9   0  141.75    3.72
 -22  -9   0  162.74   10.51
 -23  -9   0   24.75    1.30
 -24  -9   0   58.93    3.11
 -25  -9   0   20.13    1.12
 -26  -9   0  114.25    5.06
 -27  -9   0    8.20    1.59
 -28  -9   0    1.52    0.94
 -29  -9   0    1.84    0.90
 -30  -9   0    5.85    0.90
 -31  -9   0   -0.54    1.05
  30  -9   1    5.60    0.90
  29  -9   1    0.36    0.90
  28  -9   1    6.90    0.98
  27  -9   1    1.45    0.98
  26  -9   1    9.94    1.26
  25  -9   1    1.12    1.41
  24  -9   1   31.72    1.66
  23  -9   1    2.53    0.61
  22  -9   1   23.70    1.77
  21  -9   1   56.84    4.19
  20  -9   1  131.09    3.87
  19  -9   1    8.53    0.94
  18  -9   1   14.16    1.23
  17  -9   1   32.16    1.73
  16  -9   1   11.67    1.63
  15  -9   1   30.10    1.95
  14  -9   1   54.49    1.73
  13  -9   1   65.98    2.89
  12  -9   1   12.94    1.52
  11  -9   1  107.13    4.66
  10  -9   1   78.73    2.28
   9  -9   1   57.41    2.57
   8  -9   1   50.37    2.57
   7  -9   1  166.82    7.84
   6  -9   1   73.85    2.78
   5  -9   1  171.55    5.17
   4  -9   1  103.34    4.81
   3  -9   1   24.32    1.12
   2  -9   1  282.73   13.62
   1  -9   1    1.59    0.79
   0  -9   1    4.34    1.08
  -1  -9   1    4.12    0.61
  -2  -9   1  103.48    4.16
  -3  -9   1   23.81    1.26
  -4  -9   1  404.06   12.61
  -6  -9   1   18.50    1.08
  -7  -9   1   26.38    1.30
  -8  -9   1  233.52    5.82
  -9  -9   1  112.48    3.11
 -10  -9   1   30.78    1.66
 -11  -9   1  243.10    7.48
 -12  -9   1  349.65   13.37
 -13  -9   1  211.84    6.00
 -14  -9   1   23.77    1.59
 -15  -9   1    4.73    0.90
 -16  -9   1   51.09    2.28
 -17  -9   1    0.18    0.94
 -18  -9   1    1.16    0.65
 -19  -9   1   20.56    0.94
 -20  -9   1   67.49    4.84
 -21  -9   1   47.62    3.43
 -22  -9   1   26.38    2.82
 -23  -9   1    4.26    0.72
 -24  -9   1   26.88    2.38
 -25  -9   1    1.91    0.90
 -26  -9   1    0.76    0.51
 -27  -9   1    1.52    1.34
 -28  -9   1    7.52    1.08
 -29  -9   1    6.54    1.41
 -30  -9   1   -0.65    0.87
 -31  -9   1    1.23    0.72
  30  -9   2   20.20    1.41
  29  -9   2    5.93    0.87
  28  -9   2   22.08    1.12
  27  -9   2   48.89    2.38
  26  -9   2   34.61    1.34
  25  -9   2    0.98    1.26
  24  -9   2   52.79    2.57
  23  -9   2    0.04    0.90
  22  -9   2  106.59    4.05
  21  -9   2   45.13    2.71
  20  -9   2  435.46   10.84
  19  -9   2   39.82    2.17
  18  -9   2   33.46    1.81
  17  -9   2   27.71    1.91
  16  -9   2  139.07    6.68
  15  -9   2  345.20    9.68
  14  -9   2    8.60    1.30
  13  -9   2  240.46    6.65
  12  -9   2  466.39   13.30
  11  -9   2   43.21    2.06
  10  -9   2   37.83    2.13
   9  -9   2  551.99   29.41
   8  -9   2 1155.25   30.28
   7  -9   2   49.46    2.38
   6  -9   2   58.71    3.32
   5  -9   2  487.56   12.86
   4  -9   2  423.50   11.09
   2  -9   2  139.58    4.12
   1  -9   2 2196.46   47.04
   0  -9   2  449.30   14.56
  -1  -9   2    0.94    0.87
  -2  -9   2   33.75    2.49
  -3  -9   2 1606.57   42.42
  -4  -9   2   11.49    0.87
  -5  -9   2   18.61    1.52
  -6  -9   2  140.12    3.83
  -7  -9   2  843.28   23.02
  -8  -9   2  155.80    4.23
  -9  -9   2   37.36    2.60
 -10  -9   2   97.77    3.04
 -11  -9   2  347.01    7.99
 -12  -9   2   11.13    1.59
 -14  -9   2    3.61    0.94
 -15  -9   2  365.15   12.39
 -16  -9   2    9.47    1.30
 -17  -9   2  124.76    5.67
 -18  -9   2  328.15    8.82
 -19  -9   2   57.63    2.93
 -20  -9   2    7.59    1.23
 -21  -9   2   21.64    1.19
 -22  -9   2  210.25    5.78
 -23  -9   2    1.81    0.83
 -24  -9   2   34.94    3.11
 -25  -9   2    8.67    1.37
 -26  -9   2   11.71    1.37
 -28  -9   2   38.95    1.63
 -29  -9   2    0.90    1.34
 -30  -9   2    1.84    1.41
 -31  -9   2   -1.63    1.66
  29  -9   3    0.90    2.20
  28  -9   3    3.47    1.59
  27  -9   3    5.53    1.08
  26  -9   3    7.30    1.08
  25  -9   3    1.34    0.83
  24  -9   3   -0.54    1.16
  23  -9   3   -0.25    0.90
  22  -9   3    6.65    1.12
  21  -9   3    2.60    1.01
  20  -9   3   10.98    0.98
  19  -9   3    8.60    2.24
  18  -9   3    9.11    1.48
  16  -9   3   29.01    2.28
  15  -9   3  298.16    8.17
  14  -9   3    1.48    0.72
  13  -9   3    2.38    0.98
  12  -9   3   10.80    1.05
  11  -9   3   72.48    3.04
  10  -9   3    3.36    1.19
   9  -9   3   28.29    2.13
   8  -9   3    6.29    0.90
   7  -9   3  128.41    3.83
   6  -9   3   19.37    1.77
   5  -9   3    1.77    0.83
   4  -9   3  164.73    4.16
   2  -9   3   58.32    2.17
   1  -9   3   23.45    1.19
   0  -9   3  134.30    4.77
  -1  -9   3  100.09    2.64
  -2  -9   3    7.59    0.65
  -3  -9   3    3.76    0.72
  -4  -9   3   64.35    3.18
  -5  -9   3  230.67    6.58
  -6  -9   3   77.18    3.69
  -7  -9   3    2.38    0.65
  -8  -9   3   16.01    0.79
  -9  -9   3   91.09    2.64
 -10  -9   3  176.79    9.21
 -11  -9   3   22.98    1.45
 -12  -9   3  250.50   13.91
 -13  -9   3   76.74    4.23
 -15  -9   3    9.76    1.26
 -16  -9   3   90.04    3.97
 -17  -9   3    6.79    1.48
 -18  -9   3   16.58    1.48
 -19  -9   3   -0.72    1.19
 -20  -9   3  111.54    5.78
 -21  -9   3  104.24    3.40
 -22  -9   3   26.52    1.66
 -23  -9   3    3.29    0.94
 -24  -9   3    0.07    0.87
 -25  -9   3   16.19    1.34
 -26  -9   3    3.90    0.98
 -27  -9   3   -0.04    0.98
 -28  -9   3    1.45    0.79
 -29  -9   3    6.32    0.83
 -30  -9   3    9.11    1.05
 -31  -9   3    1.23    0.69
  29  -9   4   -1.48    0.98
  28  -9   4   18.64    1.81
  27  -9   4   20.49    1.37
  26  -9   4    5.31    1.66
  25  -9   4   19.22    1.01
  24  -9   4   70.57    2.82
  23  -9   4    6.21    2.42
  22  -9   4    0.29    0.94
  21  -9   4    4.81    0.94
  20  -9   4  271.50   10.55
  19  -9   4   61.50    2.64
  18  -9   4  242.84    8.67
  17  -9   4   65.47    4.37
  16  -9   4  215.38    8.85
  15  -9   4   12.68    1.19
  14  -9   4   16.26    1.41
  13  -9   4  179.86   10.19
  12  -9   4   99.25    4.95
  11  -9   4  240.86    7.70
  10  -9   4  196.34   12.68
   9  -9   4   94.45    6.07
   8  -9   4  161.29    7.44
   7  -9   4  508.41   11.63
   6  -9   4  538.87   14.85
   5  -9   4  572.22   27.82
   4  -9   4  472.68   11.06
   3  -9   4    2.78    1.16
   2  -9   4  114.90    6.54
   1  -9   4 1019.14   44.70
   0  -9   4    8.31    1.05
  -1  -9   4  480.30   10.37
  -2  -9   4  218.53    6.90
  -3  -9   4   67.13    2.89
  -4  -9   4   41.23    2.24
  -5  -9   4  650.16   19.19
  -6  -9   4    7.88    0.65
  -7  -9   4  175.35    6.00
  -8  -9   4   13.59    1.16
  -9  -9   4  131.27    3.50
 -10  -9   4   50.84    2.17
 -11  -9   4  359.91   11.42
 -12  -9   4    5.17    0.65
 -13  -9   4   11.35    1.30
 -14  -9   4   81.80    2.64
 -15  -9   4   19.04    1.12
 -16  -9   4   11.42    1.52
 -17  -9   4  219.00    6.32
 -18  -9   4  155.62    4.95
 -19  -9   4    5.24    0.79
 -20  -9   4    2.06    0.72
 -21  -9   4   52.50    2.67
 -22  -9   4    3.32    1.05
 -23  -9   4    0.00    0.87
 -24  -9   4   86.43    3.22
 -25  -9   4   15.46    1.66
 -26  -9   4    1.12    0.76
 -27  -9   4    6.68    1.19
 -28  -9   4   24.46    1.91
 -29  -9   4   -1.12    1.08
 -30  -9   4    2.78    1.01
 -31  -9   4    0.47    0.87
  28  -9   5   -1.99    2.24
  27  -9   5   11.71    1.63
  26  -9   5    4.19    1.34
  25  -9   5   17.34    2.35
  24  -9   5    4.84    1.01
  23  -9   5   31.40    1.81
  22  -9   5    5.60    1.16
  20  -9   5    7.99    0.87
  19  -9   5    0.43    1.34
  18  -9   5   23.38    1.48
  17  -9   5   59.29    2.10
  16  -9   5   77.86    3.47
  15  -9   5  186.77    6.90
  14  -9   5    3.29    0.83
  13  -9   5  164.58    8.78
  12  -9   5   37.90    2.02
  11  -9   5  211.70    8.09
  10  -9   5   62.80    3.83
   9  -9   5   26.12    1.37
   8  -9   5   38.23    1.81
   7  -9   5   32.99    1.84
   6  -9   5   27.03    1.23
   5  -9   5  141.02    6.54
   4  -9   5  230.59    6.76
   3  -9   5  291.40    7.62
   2  -9   5   15.83    0.83
   1  -9   5    6.32    0.90
   0  -9   5   28.40    1.63
  -1  -9   5    2.67    0.58
  -2  -9   5  550.72   22.04
  -3  -9   5  130.87    5.02
  -4  -9   5   47.41    1.59
  -5  -9   5  165.45    4.81
  -6  -9   5   20.63    1.59
  -7  -9   5   50.08    2.24
  -8  -9   5    4.30    0.69
  -9  -9   5  194.68    4.73
 -10  -9   5    9.72    1.08
 -12  -9   5   30.75    1.34
 -13  -9   5   19.76    1.99
 -14  -9   5    0.83    0.65
 -16  -9   5   -0.54    0.69
 -17  -9   5    0.83    0.94
 -18  -9   5    0.00    0.61
 -19  -9   5    0.29    0.79
 -20  -9   5    1.55    1.19
 -21  -9   5   32.12    1.95
 -22  -9   5   20.63    1.77
 -23  -9   5   -0.47    0.98
 -24  -9   5    2.46    1.16
 -25  -9   5    2.71    1.37
 -26  -9   5   -0.69    1.08
 -27  -9   5    3.29    1.23
 -28  -9   5    0.40    1.23
 -29  -9   5    1.52    1.12
 -30  -9   5   -0.65    0.90
 -31  -9   5    1.34    1.12
  28  -9   6   10.98    1.19
  27  -9   6    2.96    1.16
  25  -9   6   16.58    1.55
  24  -9   6   25.51    1.55
  23  -9   6   55.68    2.57
  22  -9   6   10.19    1.99
  21  -9   6    3.94    1.01
  20  -9   6   54.27    2.38
  19  -9   6    2.89    0.79
  18  -9   6    7.73    1.23
  17  -9   6   98.50    6.83
  16  -9   6   28.44    1.59
  15  -9   6    5.74    0.98
  14  -9   6   10.91    1.34
  13  -9   6  277.57    7.95
  12  -9   6   30.28    1.66
  11  -9   6    6.25    0.98
  10  -9   6   37.61    1.73
   9  -9   6    1.19    0.61
   8  -9   6    1.26    0.69
   7  -9   6  190.74    5.13
   6  -9   6  252.71    7.62
   5  -9   6  975.16   30.82
   4  -9   6  100.99    3.79
   3  -9   6   37.65    1.73
   2  -9   6   41.12    1.66
   1  -9   6  893.43   22.08
   0  -9   6  267.77    6.97
  -1  -9   6  549.10   15.18
  -2  -9   6    3.87    0.83
  -3  -9   6  231.79   11.89
  -4  -9   6    4.01    0.51
  -5  -9   6  135.42    4.05
  -6  -9   6    3.25    0.51
  -7  -9   6    1.70    0.58
  -8  -9   6    0.76    0.69
  -9  -9   6  243.06    8.20
 -10  -9   6   25.08    1.55
 -11  -9   6   45.24    1.88
 -12  -9   6    0.83    0.72
 -13  -9   6   35.73    1.99
 -14  -9   6  133.87    5.46
 -15  -9   6    0.25    0.65
 -16  -9   6   23.41    1.19
 -17  -9   6   11.31    1.30
 -18  -9   6  159.99    4.70
 -19  -9   6   10.37    0.98
 -20  -9   6   45.96    1.81
 -21  -9   6    2.38    0.87
 -22  -9   6   28.29    1.63
 -23  -9   6   18.86    1.73
 -24  -9   6    2.89    1.37
 -25  -9   6    8.06    1.01
 -26  -9   6   -0.04    1.12
 -27  -9   6    1.12    0.72
 -28  -9   6    3.61    1.41
 -30  -9   6    1.91    1.08
 -31  -9   6    1.08    1.63
  26  -9   7    2.60    2.20
  25  -9   7   14.27    2.24
  24  -9   7    4.88    1.12
  23  -9   7    1.66    0.72
  22  -9   7   10.19    1.48
  21  -9   7    1.48    0.69
  20  -9   7   -2.71    1.77
  19  -9   7    6.36    1.66
  18  -9   7    6.47    1.37
  17  -9   7   13.40    1.41
  16  -9   7   19.19    2.85
  15  -9   7    0.61    0.83
  14  -9   7   21.86    1.30
  13  -9   7    6.25    0.76
  12  -9   7   37.25    1.99
  11  -9   7    1.73    0.61
  10  -9   7   30.97    2.06
   9  -9   7   -0.36    0.76
   8  -9   7   44.30    2.17
   7  -9   7   14.27    1.30
   6  -9   7   74.18    3.32
   5  -9   7   10.33    1.08
   4  -9   7   58.06    2.13
   3  -9   7   95.53    3.11
   2  -9   7   22.73    2.85
   1  -9   7    6.32    0.83
   0  -9   7    0.14    0.58
  -1  -9   7    0.61    0.61
  -4  -9   7  126.79    3.94
  -5  -9   7    0.83    0.43
  -6  -9   7   59.15    2.06
  -7  -9   7    2.28    0.65
  -9  -9   7  149.19    4.55
 -10  -9   7   34.51    1.41
 -11  -9   7   24.14    1.01
 -12  -9   7   26.67    1.84
 -13  -9   7    2.06    0.65
 -14  -9   7    2.24    0.65
 -15  -9   7    0.83    0.87
 -16  -9   7   38.37    1.91
 -17  -9   7   16.22    1.08
 -19  -9   7    9.39    1.30
 -20  -9   7   42.96    1.95
 -21  -9   7    1.91    0.65
 -22  -9   7    2.02    1.16
 -23  -9   7    1.30    1.05
 -24  -9   7   -0.33    1.08
 -25  -9   7    5.24    0.94
 -26  -9   7   -0.29    0.98
 -27  -9   7    1.30    1.01
 -28  -9   7   -1.16    1.23
  26  -9   8    1.26    1.66
  24  -9   8   42.56    2.06
  23  -9   8   18.90    1.45
  21  -9   8    1.12    0.98
  20  -9   8   43.50    2.85
  19  -9   8    1.88    1.99
  18  -9   8   43.03    3.50
  17  -9   8   10.41    2.31
  16  -9   8   40.18    2.82
  15  -9   8    3.76    0.83
  14  -9   8    6.03    0.90
  13  -9   8    4.23    0.83
  12  -9   8  225.90    5.93
  11  -9   8   -1.08    0.79
  10  -9   8    3.97    0.87
   9  -9   8  420.58   26.63
   8  -9   8   90.84    7.05
   7  -9   8  103.34    3.61
   6  -9   8  214.59   12.03
   5  -9   8   88.41    5.64
   4  -9   8    8.17    1.19
   3  -9   8  487.31   27.32
   2  -9   8    4.41    1.52
   1  -9   8  289.85   14.67
   0  -9   8  130.11    7.01
  -1  -9   8  261.23   10.33
  -2  -9   8    0.11    0.61
  -4  -9   8  112.30    6.00
  -5  -9   8  230.56    9.94
  -6  -9   8   11.67    0.83
  -7  -9   8   44.23    1.70
  -8  -9   8   -0.11    0.83
  -9  -9   8  491.50   21.61
 -10  -9   8    0.98    0.87
 -11  -9   8   50.80    2.06
 -12  -9   8   22.51    1.26
 -13  -9   8   64.93    3.72
 -14  -9   8   85.67    3.83
 -15  -9   8   71.87    3.22
 -16  -9   8    4.30    1.55
 -17  -9   8    2.46    0.94
 -18  -9   8    5.02    0.79
 -19  -9   8   10.26    0.90
 -20  -9   8   24.24    2.17
 -21  -9   8    9.57    1.12
 -23  -9   8   -0.29    0.90
 -24  -9   8    7.62    1.30
 -25  -9   8   -0.04    0.94
 -26  -9   8    0.25    0.79
 -28  -9   8    4.95    1.05
  26  -9   9    0.65    1.41
  25  -9   9   -0.51    0.98
  24  -9   9    4.08    1.05
  23  -9   9    0.36    1.19
  22  -9   9    9.18    1.19
  21  -9   9   -0.76    1.63
  20  -9   9    0.94    0.87
  19  -9   9    1.34    1.12
  18  -9   9    3.07    1.08
  17  -9   9   13.80    1.45
  16  -9   9   42.74    2.42
  15  -9   9    5.06    1.08
  14  -9   9   21.28    1.19
  13  -9   9    9.11    1.77
  12  -9   9   14.85    1.16
  11  -9   9    0.98    1.16
  10  -9   9   14.13    1.41
   9  -9   9   93.29    3.50
   8  -9   9   -0.33    0.83
   7  -9   9    6.25    0.98
   6  -9   9   -0.58    1.08
   5  -9   9    0.61    0.58
   3  -9   9    0.00    0.90
   2  -9   9    0.47    0.51
   0  -9   9   65.58    4.99
  -1  -9   9    7.99    1.16
  -7  -9   9   69.16    4.23
  -8  -9   9   57.81    3.11
  -9  -9   9   11.20    1.12
 -10  -9   9   10.66    1.19
 -11  -9   9   31.72    2.64
 -12  -9   9    3.11    0.69
 -13  -9   9   22.15    1.55
 -14  -9   9    8.67    1.16
 -15  -9   9   26.38    1.30
 -16  -9   9   13.91    0.94
 -17  -9   9    1.99    0.65
 -18  -9   9   70.89    3.58
 -19  -9   9   11.06    1.37
 -20  -9   9    3.00    0.94
 -21  -9   9    0.33    0.72
 -22  -9   9    5.78    0.90
 -23  -9   9   16.15    1.08
 -24  -9   9    2.78    1.12
 -25  -9   9   -0.43    0.94
 -26  -9   9    0.18    0.76
 -27  -9   9    3.97    0.98
 -28  -9   9    2.06    1.59
 -29  -9   9    0.90    1.26
  25  -9  10    0.14    0.90
  24  -9  10   29.30    2.35
  23  -9  10    4.08    0.83
  22  -9  10   43.90    2.20
  21  -9  10    4.73    1.30
  20  -9  10   26.16    1.73
  19  -9  10   21.32    1.41
  18  -9  10  129.75    4.01
  17  -9  10   12.03    1.48
  16  -9  10   27.71    2.13
  15  -9  10    8.92    1.08
  13  -9  10    4.81    0.72
  12  -9  10    6.03    1.01
  11  -9  10    4.77    1.41
  10  -9  10  398.90   19.15
   9  -9  10  104.13    4.77
   8  -9  10    0.40    1.55
   7  -9  10  561.89   26.12
   6  -9  10  728.89   26.27
   2  -9  10  399.84   15.18
   1  -9  10    0.36    0.72
   0  -9  10   99.87    5.02
  -1  -9  10  124.98    4.01
  -2  -9  10  103.12    5.71
  -3  -9  10   59.91    3.97
  -4  -9  10   -0.14    0.90
  -5  -9  10  270.41   13.80
  -8  -9  10   53.91    2.17
 -11  -9  10   69.84    4.55
 -12  -9  10   59.58    3.94
 -15  -9  10   40.14    1.95
 -16  -9  10   12.90    1.37
 -17  -9  10   18.21    1.41
 -18  -9  10   21.79    1.19
 -19  -9  10   33.82    3.83
 -20  -9  10   13.62    1.05
 -21  -9  10    2.17    0.76
 -22  -9  10    9.47    1.19
 -23  -9  10   13.87    1.26
 -24  -9  10    1.19    0.72
 -25  -9  10    6.11    0.90
 -26  -9  10    2.13    1.26
 -27  -9  10   13.40    2.02
 -28  -9  10   -0.04    1.05
 -29  -9  10   -0.90    1.48
 -30  -9  10    2.10    1.77
  24  -9  11    5.02    1.59
  23  -9  11   -0.18    1.77
  22  -9  11    2.38    1.37
  21  -9  11   54.60    3.36
  20  -9  11    3.76    1.08
  19  -9  11    1.26    1.08
  18  -9  11    6.25    0.87
  17  -9  11   44.44    3.14
  16  -9  11   32.92    1.81
  15  -9  11   13.51    1.19
  14  -9  11    5.09    0.87
  13  -9  11   15.86    1.19
  12  -9  11   60.38    2.96
  11  -9  11   75.41    5.64
  10  -9  11   -0.14    0.72
   9  -9  11  112.15    6.65
   8  -9  11    3.54    1.16
   7  -9  11    1.01    0.61
   6  -9  11  272.47   12.14
   5  -9  11   -0.07    0.83
   4  -9  11    5.09    0.83
   3  -9  11  134.45    4.01
   2  -9  11   -0.07    0.65
   0  -9  11   15.54    1.66
  -6  -9  11   58.64    2.96
  -8  -9  11  132.71    7.44
  -9  -9  11   20.88    2.10
 -10  -9  11   71.11    4.99
 -12  -9  11    5.82    0.83
 -14  -9  11    1.70    0.98
 -15  -9  11    1.95    0.65
 -16  -9  11   27.82    1.91
 -17  -9  11    9.97    0.87
 -18  -9  11   -0.29    0.79
 -19  -9  11   22.62    1.16
 -20  -9  11    7.91    1.08
 -21  -9  11   -0.76    0.87
 -22  -9  11   -1.26    1.45
 -23  -9  11    1.88    1.48
 -24  -9  11   12.90    1.01
 -25  -9  11   -0.18    0.72
 -26  -9  11    1.30    0.87
 -27  -9  11   -0.07    0.79
 -29  -9  11   -1.45    1.45
 -30  -9  11    1.08    1.41
  23  -9  12    1.95    0.87
  22  -9  12   33.60    2.60
  21  -9  12   17.74    1.45
  20  -9  12    0.90    1.12
  19  -9  12    6.18    1.30
  18  -9  12   66.16    4.70
  17  -9  12   40.61    2.42
  16  -9  12    6.47    0.87
  15  -9  12    1.99    1.01
  14  -9  12  283.13    8.49
  13  -9  12    9.50    0.98
  12  -9  12  107.20    5.09
  11  -9  12    3.25    1.05
  10  -9  12  397.60   17.74
   9  -9  12   70.89    4.19
   8  -9  12  207.83   11.13
   6  -9  12  227.27    9.07
   3  -9  12   83.46    5.64
  -5  -9  12   63.59    3.79
 -10  -9  12    4.62    1.23
 -11  -9  12   68.58    3.43
 -13  -9  12   59.26    4.12
 -14  -9  12   16.69    2.06
 -15  -9  12   81.48    4.16
 -16  -9  12   14.09    2.10
 -17  -9  12    3.90    0.76
 -18  -9  12    7.70    1.84
 -19  -9  12   77.14    4.88
 -20  -9  12    3.65    1.12
 -21  -9  12   12.00    0.94
 -22  -9  12    6.68    0.87
 -23  -9  12    9.61    2.35
 -24  -9  12   -1.45    2.60
 -25  -9  12    2.64    1.16
 -26  -9  12    2.20    1.01
 -28  -9  12   -0.90    1.37
  21  -9  13    4.08    0.98
  20  -9  13    2.64    1.26
  19  -9  13   30.57    2.57
  18  -9  13    3.25    2.10
  17  -9  13    4.95    1.45
  16  -9  13   44.77    2.10
  15  -9  13   46.57    2.57
  14  -9  13   12.61    1.05
  11  -9  13   69.55    5.13
   9  -9  13   25.65    1.45
   5  -9  13    0.98    0.79
 -11  -9  13   49.03    1.81
 -12  -9  13   51.16    2.13
 -13  -9  13    4.70    0.87
 -15  -9  13   -0.58    1.12
 -16  -9  13    7.33    1.45
 -17  -9  13   10.19    1.41
 -18  -9  13    9.76    0.90
 -19  -9  13    3.47    1.91
 -20  -9  13   -1.01    1.05
 -21  -9  13   -0.14    0.65
 -22  -9  13    1.16    0.94
 -23  -9  13    0.00    0.72
 -24  -9  13   -0.83    0.72
 -25  -9  13    0.25    0.79
 -26  -9  13    4.84    1.19
  20  -9  14    6.61    1.19
  19  -9  14   18.25    1.55
  18  -9  14    7.84    1.48
  16  -9  14   55.32    4.30
  15  -9  14  120.54    8.49
  14  -9  14   38.77    3.07
  11  -9  14    9.54    1.63
   9  -9  14    1.55    1.05
   7  -9  14   40.83    2.20
 -13  -9  14   -0.29    0.76
 -15  -9  14   83.83    3.14
 -18  -9  14    3.32    1.37
 -19  -9  14    5.09    1.12
 -20  -9  14    3.43    1.23
 -21  -9  14    4.37    0.87
 -22  -9  14   -0.87    0.79
 -23  -9  14   10.12    1.26
 -24  -9  14   -0.90    1.08
  19  -9  15    2.02    1.08
  17  -9  15    2.67    1.34
  16  -9  15    1.45    1.91
  15  -9  15    1.08    1.16
  14  -9  15   11.85    2.35
  13  -9  15   20.34    1.81
  12  -9  15   16.48    1.77
  10  -9  15    0.79    1.01
 -17  -9  15    0.83    1.34
 -18  -9  15    1.16    2.06
 -20  -9  15   -0.65    1.12
 -24  -9  15   -1.73    1.34
 -25  -9  15   -0.14    1.19
  16  -9  16   25.08    2.75
  14  -9  16   -0.47    1.08
  13  -9  16   32.52    2.96
  11  -9  16    8.31    1.34
 -19  -9  16    4.88    1.23
 -20  -9  16    0.98    1.26
 -23  -9  16    1.37    1.23
  14  -9  17    0.51    1.48
  14 -10 -21   -0.94    2.10
  13 -10 -21    3.07    1.26
  12 -10 -21    0.33    1.08
  11 -10 -21    0.14    1.30
  10 -10 -21   -0.76    1.23
   9 -10 -21    2.60    1.08
   8 -10 -21    2.10    0.72
   7 -10 -21    0.47    1.19
   6 -10 -21    4.52    1.08
   5 -10 -21    0.47    1.12
   4 -10 -21    0.94    1.05
   2 -10 -21   16.95    2.53
   1 -10 -21    1.48    0.94
   0 -10 -21    2.53    1.23
  -1 -10 -21    1.73    1.48
  -2 -10 -21    0.98    1.12
  17 -10 -20    0.22    0.87
  16 -10 -20    3.97    1.81
  15 -10 -20   -0.25    0.87
  14 -10 -20    3.72    0.87
  13 -10 -20   -0.36    1.26
  12 -10 -20    5.78    0.98
  11 -10 -20    1.26    1.59
  10 -10 -20    0.22    1.66
   9 -10 -20    4.84    0.94
   8 -10 -20   -0.22    0.83
   7 -10 -20    0.51    1.12
   6 -10 -20    5.02    1.23
   5 -10 -20   11.49    1.26
   4 -10 -20    1.55    1.16
   3 -10 -20   30.97    2.35
   2 -10 -20    3.00    1.63
   0 -10 -20    0.29    1.08
  -1 -10 -20   29.77    3.00
  -2 -10 -20   -0.07    1.12
  -3 -10 -20    1.08    0.69
  -4 -10 -20    2.17    0.76
  -5 -10 -20   17.99    1.55
  -6 -10 -20    6.25    2.13
  19 -10 -19   -2.53    1.84
  18 -10 -19    0.36    1.01
  17 -10 -19    1.77    1.30
  16 -10 -19    1.59    1.99
  15 -10 -19    0.54    1.05
  14 -10 -19    0.61    0.72
  13 -10 -19   -0.07    0.54
  12 -10 -19    2.42    0.76
  11 -10 -19    1.45    1.01
  10 -10 -19    1.63    0.69
   9 -10 -19    0.47    1.23
   8 -10 -19    2.06    0.98
   7 -10 -19    2.64    1.05
   6 -10 -19   24.17    1.99
   5 -10 -19   -0.36    0.90
   4 -10 -19    0.07    0.79
   3 -10 -19    3.90    1.26
   2 -10 -19    1.52    1.26
   1 -10 -19    3.61    0.83
   0 -10 -19    5.85    1.23
  -1 -10 -19    4.62    0.98
  -2 -10 -19    3.40    1.12
  -3 -10 -19    8.20    1.59
  -4 -10 -19    5.85    1.34
  -5 -10 -19    0.83    1.12
  -6 -10 -19    0.79    1.12
  -7 -10 -19    1.52    1.23
  -8 -10 -19    1.23    1.66
  -9 -10 -19    7.95    1.30
  19 -10 -18    1.99    1.81
  18 -10 -18    6.40    1.23
  17 -10 -18    1.16    0.90
  16 -10 -18    2.10    1.08
  15 -10 -18    1.37    0.87
  14 -10 -18   16.48    1.55
  13 -10 -18    1.05    0.83
  12 -10 -18    8.89    0.90
  11 -10 -18    0.87    1.08
  10 -10 -18    8.45    1.08
   9 -10 -18    3.04    1.16
   8 -10 -18   10.04    1.08
   7 -10 -18   30.06    1.37
   6 -10 -18   53.26    1.99
   5 -10 -18    4.05    0.94
   4 -10 -18    5.46    1.08
   3 -10 -18   26.20    1.41
   2 -10 -18    0.14    0.90
   1 -10 -18    1.45    1.05
   0 -10 -18    5.02    0.94
  -1 -10 -18   94.59    2.89
  -2 -10 -18    9.65    0.94
  -3 -10 -18   -0.65    1.05
  -4 -10 -18   -0.14    1.23
  -5 -10 -18   50.15    2.89
  -6 -10 -18   24.50    3.69
  -8 -10 -18   20.99    1.48
  -9 -10 -18   14.16    2.60
 -10 -10 -18    1.77    1.55
 -11 -10 -18   38.16    2.28
 -12 -10 -18    7.73    1.34
  22 -10 -17    4.30    1.12
  21 -10 -17    0.90    2.02
  20 -10 -17   -0.29    1.45
  19 -10 -17    5.49    0.83
  18 -10 -17   -0.72    0.69
  17 -10 -17    8.85    1.19
  16 -10 -17    0.87    0.72
  15 -10 -17    0.07    0.76
  14 -10 -17    7.59    0.94
  13 -10 -17    0.76    0.72
  12 -10 -17   -1.23    0.87
  11 -10 -17    3.40    1.12
  10 -10 -17   12.36    1.26
   9 -10 -17    4.84    1.66
   8 -10 -17   -0.33    0.83
   7 -10 -17    2.82    0.76
   6 -10 -17   10.62    0.98
   5 -10 -17    0.29    0.72
   4 -10 -17    9.94    0.87
   3 -10 -17    1.63    0.94
   2 -10 -17   46.94    2.28
   1 -10 -17   12.61    1.70
   0 -10 -17    8.02    2.24
  -1 -10 -17   22.26    1.23
  -2 -10 -17    2.49    1.05
  -3 -10 -17    6.18    1.88
  -4 -10 -17   52.25    2.46
  -5 -10 -17    1.45    0.90
  -6 -10 -17    0.36    0.72
  -7 -10 -17    8.24    0.94
  -8 -10 -17   28.44    1.66
  -9 -10 -17    0.90    0.83
 -10 -10 -17    1.05    0.83
 -11 -10 -17    5.24    0.98
 -12 -10 -17   29.45    1.66
 -13 -10 -17    5.06    1.23
 -14 -10 -17    0.83    1.66
  23 -10 -16    1.52    1.30
  22 -10 -16    2.28    0.90
  21 -10 -16    3.72    0.98
  20 -10 -16    1.34    0.98
  19 -10 -16    5.85    2.49
  18 -10 -16   26.85    2.24
  16 -10 -16    1.30    0.94
  15 -10 -16    4.16    1.81
  14 -10 -16    8.49    1.41
  13 -10 -16    0.65    0.90
  12 -10 -16    5.93    0.83
  11 -10 -16    3.83    1.01
  10 -10 -16   47.30    1.66
   9 -10 -16   47.66    2.31
   8 -10 -16   17.49    1.84
   7 -10 -16    5.02    0.79
   6 -10 -16   31.07    1.45
   5 -10 -16    1.95    1.01
   4 -10 -16   68.43    4.88
   3 -10 -16    5.38    1.12
   2 -10 -16    2.46    1.19
   1 -10 -16   21.10    2.38
   0 -10 -16   43.97    2.28
  -1 -10 -16   40.72    1.59
  -2 -10 -16   48.99    1.91
  -3 -10 -16    0.69    1.01
  -5 -10 -16   16.11    1.73
  -6 -10 -16   -0.33    0.72
  -7 -10 -16    6.54    1.45
  -8 -10 -16    1.48    1.23
  -9 -10 -16   29.70    2.28
 -10 -10 -16    0.90    0.87
 -11 -10 -16   90.98    4.66
 -12 -10 -16    1.30    1.34
 -13 -10 -16    5.09    1.01
 -14 -10 -16    4.08    1.30
 -15 -10 -16   47.77    2.24
  24 -10 -15    0.83    1.01
  23 -10 -15    0.22    1.08
  22 -10 -15    2.71    0.76
  21 -10 -15   -0.58    0.94
  20 -10 -15    0.33    1.70
  19 -10 -15   17.85    3.11
  18 -10 -15    1.08    1.37
  17 -10 -15    1.70    1.08
  16 -10 -15   -1.05    1.16
  15 -10 -15    4.34    0.79
  14 -10 -15    5.53    0.94
  13 -10 -15    0.79    0.83
  12 -10 -15    9.97    1.34
  11 -10 -15   24.43    1.45
  10 -10 -15   23.88    1.26
   9 -10 -15   -0.29    0.69
   8 -10 -15   13.44    1.12
   7 -10 -15   20.74    1.26
   6 -10 -15    5.31    0.83
   5 -10 -15    0.18    0.76
   4 -10 -15   40.21    1.84
   3 -10 -15   17.09    1.26
   2 -10 -15   21.43    1.12
   1 -10 -15    8.20    0.83
   0 -10 -15   40.14    2.35
  -1 -10 -15   35.99    1.77
  -2 -10 -15    3.54    1.01
  -3 -10 -15   11.27    0.94
  -4 -10 -15  125.74    4.01
  -5 -10 -15    1.73    0.79
  -6 -10 -15   17.31    1.52
  -7 -10 -15    7.26    0.87
  -8 -10 -15  172.93    5.89
  -9 -10 -15    0.07    0.79
 -10 -10 -15    1.88    1.30
 -11 -10 -15   72.23    2.38
 -12 -10 -15   72.88    3.72
 -13 -10 -15    3.07    1.23
 -14 -10 -15   17.60    1.55
 -15 -10 -15   -0.14    0.76
 -16 -10 -15   26.95    2.82
 -17 -10 -15   -3.22    1.63
  25 -10 -14   -0.29    1.30
  24 -10 -14    0.94    0.72
  23 -10 -14    1.88    0.98
  22 -10 -14    0.29    2.17
  20 -10 -14   -1.66    1.70
  19 -10 -14   -0.90    1.26
  18 -10 -14    1.73    2.67
  17 -10 -14    8.45    1.26
  16 -10 -14   36.71    1.59
  15 -10 -14   17.92    1.34
  14 -10 -14   12.32    1.08
  13 -10 -14    2.78    0.94
  12 -10 -14   73.02    3.00
  11 -10 -14    4.19    0.90
  10 -10 -14   11.45    1.34
   9 -10 -14   25.65    2.02
   8 -10 -14   38.44    3.47
   7 -10 -14   22.73    1.81
   5 -10 -14    2.31    0.94
   4 -10 -14  113.09    3.11
   3 -10 -14   24.35    1.16
   2 -10 -14   31.07    2.93
   1 -10 -14    0.22    0.61
   0 -10 -14   14.13    1.99
  -1 -10 -14   -0.69    0.76
  -2 -10 -14   -0.94    1.26
  -3 -10 -14   54.13    2.64
  -4 -10 -14   76.92    3.29
  -5 -10 -14   16.19    1.05
  -6 -10 -14   52.82    2.85
  -7 -10 -14   78.33    4.66
  -8 -10 -14   49.83    3.25
  -9 -10 -14    1.95    0.98
 -10 -10 -14  125.20    5.60
 -11 -10 -14   79.38    3.72
 -12 -10 -14   40.87    2.17
 -13 -10 -14    2.85    1.12
 -14 -10 -14    0.36    0.76
 -15 -10 -14   92.71    3.90
 -16 -10 -14    5.38    1.37
 -17 -10 -14    0.98    0.72
 -18 -10 -14    4.01    1.12
 -19 -10 -14    9.65    1.91
  25 -10 -13    1.73    0.87
  24 -10 -13   -0.11    2.42
  23 -10 -13   26.59    1.41
  22 -10 -13    6.61    0.69
  21 -10 -13    2.35    0.79
  20 -10 -13    8.92    0.83
  19 -10 -13   20.67    1.05
  18 -10 -13    3.40    0.72
  16 -10 -13    2.71    0.94
  15 -10 -13   21.72    1.52
  14 -10 -13   12.86    1.08
  13 -10 -13    6.36    2.24
  12 -10 -13   35.88    1.52
  10 -10 -13    5.09    0.76
   9 -10 -13   44.41    2.38
   8 -10 -13   26.34    1.19
   7 -10 -13   58.21    2.31
   6 -10 -13    1.63    0.72
   5 -10 -13    7.59    1.23
   4 -10 -13   49.14    1.73
   3 -10 -13   74.40    4.48
   2 -10 -13    2.06    0.87
   1 -10 -13   34.25    1.26
   0 -10 -13  112.48    3.83
  -1 -10 -13   98.31    4.34
  -2 -10 -13    3.54    0.87
  -3 -10 -13    2.71    1.12
  -4 -10 -13  100.48    3.14
  -5 -10 -13    0.83    0.79
  -6 -10 -13   27.82    1.63
  -7 -10 -13    6.76    1.01
  -8 -10 -13   91.81    3.32
  -9 -10 -13    0.00    0.79
 -10 -10 -13    8.67    1.63
 -11 -10 -13    2.57    0.98
 -12 -10 -13   78.19    3.11
 -13 -10 -13   13.80    1.05
 -14 -10 -13   66.59    2.46
 -15 -10 -13   11.24    1.26
 -16 -10 -13   37.97    1.73
 -17 -10 -13   41.55    2.13
 -18 -10 -13   34.40    2.13
 -19 -10 -13    7.88    1.63
 -20 -10 -13    5.02    0.98
  27 -10 -12    0.76    1.37
  26 -10 -12    0.36    0.69
  25 -10 -12   -0.29    0.61
  24 -10 -12    0.69    0.98
  23 -10 -12    0.07    0.98
  22 -10 -12    1.16    0.94
  21 -10 -12   -0.33    1.23
  20 -10 -12   16.58    1.45
  19 -10 -12   17.70    1.12
  17 -10 -12    0.69    0.65
  16 -10 -12   20.41    1.16
  15 -10 -12    0.14    1.23
  14 -10 -12   19.80    1.19
  13 -10 -12   44.77    2.42
  12 -10 -12   85.85    2.82
  11 -10 -12    0.07    0.72
  10 -10 -12   22.04    1.41
   9 -10 -12    2.46    1.05
   8 -10 -12   85.38    4.70
   7 -10 -12   35.52    1.91
   6 -10 -12   27.71    2.35
   5 -10 -12   69.95    3.29
   4 -10 -12    0.79    0.90
   3 -10 -12   39.24    1.45
   2 -10 -12  123.57    4.66
   1 -10 -12   63.30    3.36
   0 -10 -12  164.47    6.07
  -1 -10 -12   18.79    1.23
  -2 -10 -12   -2.49    1.26
  -3 -10 -12   64.78    3.40
  -4 -10 -12  160.46    8.13
  -5 -10 -12   56.08    2.60
  -6 -10 -12  100.84    3.65
  -7 -10 -12  189.19    6.43
  -8 -10 -12   -0.36    0.90
  -9 -10 -12   10.77    1.55
 -10 -10 -12   88.88    3.87
 -11 -10 -12  215.24    6.47
 -12 -10 -12   15.75    1.41
 -14 -10 -12    5.42    1.16
 -15 -10 -12   19.66    0.98
 -16 -10 -12    1.84    1.26
 -17 -10 -12   17.70    1.70
 -18 -10 -12    2.17    0.83
 -19 -10 -12    5.67    1.30
 -20 -10 -12    8.92    0.94
 -21 -10 -12   18.75    2.38
  27 -10 -11    4.08    1.19
  26 -10 -11   -0.65    0.61
  25 -10 -11    0.14    1.08
  24 -10 -11    5.02    1.08
  23 -10 -11    1.52    1.52
  20 -10 -11   -0.33    1.01
  19 -10 -11   20.85    2.42
  18 -10 -11    0.14    0.79
  17 -10 -11   40.97    2.24
  15 -10 -11   77.61    2.57
  13 -10 -11   48.38    2.13
  12 -10 -11    2.89    1.41
  11 -10 -11   14.99    1.01
  10 -10 -11   18.14    1.30
   9 -10 -11  207.43   10.04
   8 -10 -11   26.77    2.42
   7 -10 -11   84.84    3.54
   6 -10 -11   65.69    2.17
   5 -10 -11   45.85    1.77
   4 -10 -11   16.30    2.78
   3 -10 -11    7.84    1.30
   2 -10 -11  117.43    3.61
   1 -10 -11   61.71    3.07
   0 -10 -11   24.03    1.77
  -1 -10 -11   22.94    1.12
  -2 -10 -11    1.66    0.51
  -3 -10 -11   30.28    1.34
  -4 -10 -11    0.33    0.79
  -6 -10 -11  237.89    6.25
  -7 -10 -11  145.25    4.23
  -8 -10 -11    0.04    0.69
  -9 -10 -11    2.71    0.79
 -10 -10 -11  130.29    3.18
 -11 -10 -11   16.73    1.01
 -12 -10 -11   -1.01    0.90
 -13 -10 -11    1.73    0.83
 -14 -10 -11  155.80    4.62
 -15 -10 -11   33.13    2.10
 -16 -10 -11   90.33    2.85
 -17 -10 -11    1.70    1.05
 -18 -10 -11  117.50    4.91
 -19 -10 -11    9.47    0.87
 -20 -10 -11    2.89    0.87
 -21 -10 -11   17.23    1.52
 -22 -10 -11   36.42    3.11
  27 -10 -10    0.14    0.90
  26 -10 -10    2.13    0.61
  24 -10 -10   15.86    1.34
  23 -10 -10    1.19    1.05
  22 -10 -10    8.85    1.05
  21 -10 -10   -0.04    0.76
  20 -10 -10   27.82    1.55
  19 -10 -10   60.59    3.94
  18 -10 -10    5.89    0.83
  17 -10 -10    1.16    0.76
  16 -10 -10  125.56    3.65
  15 -10 -10    0.33    0.69
  14 -10 -10    2.64    1.12
  13 -10 -10   72.08    2.89
  12 -10 -10  185.43    5.49
  11 -10 -10    3.87    1.99
  10 -10 -10    1.81    1.01
   9 -10 -10   71.72    2.67
   8 -10 -10   57.27    1.91
   7 -10 -10   16.98    1.30
   6 -10 -10   68.25    2.67
   5 -10 -10  209.38    6.03
   4 -10 -10  155.66    5.24
   3 -10 -10  101.42    5.46
   2 -10 -10    3.32    1.19
   1 -10 -10   53.51    1.84
   0 -10 -10   25.36    1.70
  -1 -10 -10   48.24    1.63
  -2 -10 -10    1.52    0.72
  -3 -10 -10   62.62    2.31
  -4 -10 -10    1.30    1.12
  -5 -10 -10    1.37    1.30
  -6 -10 -10  691.28   16.48
  -7 -10 -10  148.32    6.61
  -8 -10 -10    6.79    0.87
  -9 -10 -10  131.19    4.48
 -10 -10 -10    3.36    0.69
 -11 -10 -10  311.53   10.98
 -12 -10 -10    6.65    1.12
 -13 -10 -10  240.28    5.82
 -14 -10 -10   14.63    1.34
 -16 -10 -10   35.99    2.46
 -17 -10 -10   55.07    2.64
 -18 -10 -10    4.88    0.72
 -19 -10 -10    8.74    1.73
 -20 -10 -10    3.22    0.79
 -21 -10 -10   46.79    1.88
 -22 -10 -10    1.34    0.94
 -23 -10 -10   -1.16    0.90
  27 -10  -9    1.19    0.79
  25 -10  -9    0.76    1.19
  24 -10  -9    5.24    0.76
  23 -10  -9    1.88    0.69
  22 -10  -9    1.34    0.83
  21 -10  -9   10.01    0.58
  20 -10  -9    9.39    0.72
  18 -10  -9   -0.04    0.76
  17 -10  -9    0.14    0.76
  16 -10  -9    3.00    0.79
  15 -10  -9    2.46    0.72
  14 -10  -9    1.91    0.72
  13 -10  -9  124.58    3.36
  12 -10  -9   61.14    2.78
  11 -10  -9    8.45    1.30
  10 -10  -9   17.85    0.94
   9 -10  -9   66.88    2.10
   8 -10  -9   16.22    2.49
   7 -10  -9    1.12    0.83
   6 -10  -9   54.27    2.60
   5 -10  -9  161.76    4.41
   4 -10  -9  339.06   14.02
   3 -10  -9   16.69    1.19
   2 -10  -9  102.22    3.43
   1 -10  -9  301.45    9.65
   0 -10  -9  320.78    8.31
  -1 -10  -9   46.21    2.35
  -2 -10  -9   57.49    1.81
  -3 -10  -9   43.18    2.02
  -4 -10  -9  160.10    7.84
  -5 -10  -9   17.34    1.37
  -6 -10  -9   91.74    4.19
  -7 -10  -9    5.38    0.72
  -8 -10  -9  207.14    6.18
  -9 -10  -9  118.04    3.72
 -10 -10  -9   40.43    1.99
 -11 -10  -9   46.14    2.28
 -12 -10  -9   19.22    1.19
 -13 -10  -9    0.18    0.54
 -14 -10  -9   46.90    3.25
 -15 -10  -9   10.95    0.87
 -16 -10  -9  145.90    4.08
 -17 -10  -9   32.92    1.88
 -18 -10  -9   43.29    1.84
 -19 -10  -9   40.40    2.06
 -20 -10  -9   51.99    1.91
 -22 -10  -9    2.60    0.94
 -24 -10  -9   28.36    2.13
  29 -10  -8    1.73    1.48
  28 -10  -8    0.07    0.69
  27 -10  -8    8.71    1.01
  26 -10  -8   -0.54    0.79
  25 -10  -8   -0.29    0.90
  23 -10  -8   11.60    1.55
  21 -10  -8   11.31    3.04
  20 -10  -8   82.78    3.72
  19 -10  -8   45.96    2.20
  18 -10  -8    2.31    0.90
  17 -10  -8    1.59    1.48
  16 -10  -8  197.86    5.06
  15 -10  -8   34.51    1.63
  14 -10  -8   18.75    1.08
  13 -10  -8   16.62    0.90
  12 -10  -8   12.28    1.37
  11 -10  -8   28.18    1.26
  10 -10  -8  143.95    3.83
   9 -10  -8   15.54    0.98
   8 -10  -8  141.82    3.69
   7 -10  -8   33.93    1.81
   6 -10  -8   78.19    2.75
   5 -10  -8   68.14    2.71
   3 -10  -8    4.99    1.26
   2 -10  -8  230.96    6.32
   1 -10  -8   52.86    3.47
   0 -10  -8   93.83    3.83
  -1 -10  -8   21.68    1.26
  -2 -10  -8   95.14    2.82
  -3 -10  -8   31.87    1.34
  -4 -10  -8   63.92    2.93
  -5 -10  -8   81.15    3.50
  -6 -10  -8    9.97    1.81
  -7 -10  -8    0.61    0.76
  -8 -10  -8  130.94    4.05
  -9 -10  -8  267.67    9.39
 -10 -10  -8   19.44    2.02
 -11 -10  -8   10.73    1.95
 -12 -10  -8  150.24    5.02
 -13 -10  -8  138.71    4.19
 -14 -10  -8    1.84    0.90
 -15 -10  -8    9.47    0.90
 -16 -10  -8   68.00    3.18
 -17 -10  -8   69.73    3.79
 -18 -10  -8    2.28    0.87
 -19 -10  -8   23.16    1.70
 -20 -10  -8    8.38    1.16
 -21 -10  -8  109.73    3.87
 -22 -10  -8    7.01    0.94
 -23 -10  -8    6.58    0.94
 -24 -10  -8    3.14    0.87
 -25 -10  -8   43.50    3.43
  28 -10  -7    3.29    1.12
  27 -10  -7   -1.84    0.98
  26 -10  -7    4.55    0.83
  25 -10  -7    4.88    1.37
  24 -10  -7   20.34    1.08
  23 -10  -7   -0.72    1.52
  22 -10  -7   -0.33    1.08
  21 -10  -7   22.69    1.88
  20 -10  -7   13.87    1.41
  19 -10  -7   -0.36    0.90
  18 -10  -7    1.05    1.01
  17 -10  -7   54.23    3.72
  16 -10  -7    7.52    0.79
  15 -10  -7   53.08    1.88
  14 -10  -7   22.22    1.48
  13 -10  -7    5.31    1.19
  12 -10  -7   97.38    2.82
  10 -10  -7    9.72    1.55
   9 -10  -7   40.03    2.31
   8 -10  -7    3.32    0.76
   7 -10  -7    5.67    0.72
   5 -10  -7   34.14    2.75
   4 -10  -7   13.73    0.94
   3 -10  -7   30.50    1.59
   2 -10  -7   46.86    1.63
   0 -10  -7   19.91    1.52
  -1 -10  -7  551.30   16.30
  -2 -10  -7    0.65    0.72
  -3 -10  -7  264.77    9.43
  -4 -10  -7   62.11    2.24
  -5 -10  -7   30.31    1.45
  -6 -10  -7   39.60    1.84
  -7 -10  -7  122.92    6.32
  -8 -10  -7  113.13    4.30
  -9 -10  -7   51.99    2.46
 -10 -10  -7   14.45    0.90
 -11 -10  -7   59.91    1.70
 -12 -10  -7   12.18    1.26
 -13 -10  -7   28.22    1.88
 -14 -10  -7    3.65    1.26
 -15 -10  -7    8.56    0.94
 -16 -10  -7    1.12    0.79
 -17 -10  -7   52.64    1.95
 -18 -10  -7    7.77    1.12
 -19 -10  -7   13.40    1.01
 -20 -10  -7   14.45    1.12
 -21 -10  -7    1.37    0.65
 -22 -10  -7   11.02    0.90
 -23 -10  -7   -0.76    0.87
 -24 -10  -7    1.37    0.83
 -25 -10  -7   -1.84    1.66
 -26 -10  -7    0.36    1.12
  30 -10  -6   -0.51    0.83
  29 -10  -6    2.78    1.59
  28 -10  -6   -0.36    0.54
  27 -10  -6    1.70    0.72
  26 -10  -6    1.12    0.87
  25 -10  -6    2.75    0.72
  24 -10  -6   -0.43    0.90
  23 -10  -6    2.71    1.08
  21 -10  -6  127.65    5.09
  20 -10  -6   17.42    1.12
  19 -10  -6    2.17    0.69
  18 -10  -6   21.72    1.34
  17 -10  -6   80.79    3.00
  16 -10  -6   11.09    1.08
  15 -10  -6    6.32    0.69
  14 -10  -6  257.22    6.32
  12 -10  -6    0.58    0.94
  11 -10  -6   89.46    3.40
  10 -10  -6   66.66    3.00
   9 -10  -6   25.94    1.99
   8 -10  -6    0.76    0.69
   7 -10  -6   70.57    2.53
   6 -10  -6  221.49    5.67
   5 -10  -6    7.30    0.69
   4 -10  -6    0.47    0.54
   3 -10  -6   53.22    1.77
   2 -10  -6  846.35   16.30
   1 -10  -6  250.29    7.37
   0 -10  -6   92.43    2.78
  -2 -10  -6  490.56   10.55
  -3 -10  -6  107.89    3.65
  -4 -10  -6  665.15   14.85
  -5 -10  -6    5.09    0.79
  -6 -10  -6  413.96   10.95
  -7 -10  -6   29.05    1.99
  -8 -10  -6    1.81    0.90
  -9 -10  -6  403.99   10.91
 -10 -10  -6   69.99    3.47
 -11 -10  -6   56.08    2.13
 -12 -10  -6    2.67    0.94
 -13 -10  -6   16.01    1.12
 -14 -10  -6    6.65    0.76
 -15 -10  -6    2.17    0.83
 -16 -10  -6    7.19    0.65
 -17 -10  -6    1.59    1.12
 -18 -10  -6    2.57    0.72
 -19 -10  -6   29.66    1.34
 -20 -10  -6    0.94    0.76
 -21 -10  -6  112.05    3.54
 -22 -10  -6    0.72    0.54
 -23 -10  -6   41.80    2.13
 -24 -10  -6    4.84    0.69
 -25 -10  -6   16.66    1.73
 -26 -10  -6    1.12    0.61
  30 -10  -5    1.23    0.69
  29 -10  -5    0.83    0.61
  28 -10  -5    4.95    1.01
  27 -10  -5   -0.11    0.51
  26 -10  -5    2.10    0.83
  25 -10  -5   16.80    1.23
  24 -10  -5    3.50    1.23
  23 -10  -5    0.07    0.79
  22 -10  -5   23.27    1.26
  21 -10  -5    7.77    1.05
  20 -10  -5    1.23    1.05
  19 -10  -5   26.92    2.82
  18 -10  -5   11.71    1.37
  17 -10  -5  111.58    4.52
  16 -10  -5   11.06    0.94
  15 -10  -5   -1.34    1.84
  14 -10  -5    2.71    1.23
  13 -10  -5   16.77    1.16
  12 -10  -5    1.66    0.79
  11 -10  -5    3.43    1.12
  10 -10  -5    2.35    0.58
   9 -10  -5  320.74    7.55
   8 -10  -5   11.42    1.01
   7 -10  -5    1.81    0.61
   6 -10  -5  113.63    4.41
   5 -10  -5   23.12    1.37
   4 -10  -5   98.53    2.53
   3 -10  -5  213.90    7.48
   2 -10  -5  154.54    5.06
   1 -10  -5  172.42    5.64
   0 -10  -5    3.61    0.90
  -1 -10  -5   79.13    2.28
  -2 -10  -5  415.23   10.91
  -3 -10  -5    8.06    0.65
  -4 -10  -5   16.80    1.34
  -5 -10  -5  182.25    6.47
  -6 -10  -5  286.96    7.19
  -7 -10  -5    6.18    0.69
  -8 -10  -5    0.25    0.43
  -9 -10  -5  247.32    5.85
 -10 -10  -5  198.36    6.36
 -11 -10  -5    1.34    0.69
 -12 -10  -5    5.24    0.79
 -13 -10  -5    1.70    0.79
 -14 -10  -5  149.12    5.28
 -15 -10  -5   16.04    0.87
 -16 -10  -5    1.30    0.61
 -17 -10  -5    7.52    0.90
 -18 -10  -5    6.54    0.65
 -20 -10  -5    6.03    0.98
 -21 -10  -5   -0.04    0.65
 -22 -10  -5    2.75    0.65
 -23 -10  -5    3.29    0.98
 -24 -10  -5   12.18    1.19
 -25 -10  -5   10.98    1.12
 -26 -10  -5    1.81    1.01
 -27 -10  -5    3.07    1.48
  29 -10  -4   13.04    1.16
  28 -10  -4    3.11    1.16
  27 -10  -4    0.11    0.65
  26 -10  -4   16.84    1.81
  25 -10  -4   20.38    1.01
  24 -10  -4    1.88    0.98
  23 -10  -4    0.69    1.59
  22 -10  -4   16.69    1.99
  21 -10  -4   34.72    2.49
  20 -10  -4    9.94    1.12
  19 -10  -4   78.77    2.85
  18 -10  -4  101.02    4.34
  17 -10  -4   33.57    2.49
  16 -10  -4   41.15    3.29
  15 -10  -4   90.94    2.89
  14 -10  -4   84.98    2.60
  13 -10  -4    1.01    0.58
  12 -10  -4  166.82    4.99
  11 -10  -4    8.53    1.30
   9 -10  -4    1.66    0.76
   8 -10  -4   56.00    2.13
   7 -10  -4   10.84    0.98
   6 -10  -4  331.69    8.49
   4 -10  -4   20.20    1.16
   3 -10  -4   20.99    1.70
   2 -10  -4  322.19    7.95
   1 -10  -4    5.53    1.81
   0 -10  -4  350.73    7.52
  -1 -10  -4   76.38    3.00
  -2 -10  -4  504.33   14.42
  -3 -10  -4   26.67    1.16
  -4 -10  -4 1049.20   22.65
  -5 -10  -4  203.75    6.61
  -6 -10  -4   15.83    1.26
  -7 -10  -4   -1.12    0.98
  -8 -10  -4  411.54   10.55
  -9 -10  -4  533.89   10.77
 -10 -10  -4    2.02    1.05
 -11 -10  -4   93.47    4.05
 -12 -10  -4  233.38    6.83
 -13 -10  -4    1.70    0.54
 -14 -10  -4  200.39    8.09
 -15 -10  -4   70.67    2.42
 -16 -10  -4   27.86    2.53
 -17 -10  -4   81.80    4.01
 -18 -10  -4    4.19    0.98
 -19 -10  -4   38.12    1.70
 -20 -10  -4    2.82    0.79
 -21 -10  -4   15.46    1.45
 -22 -10  -4    2.24    1.84
 -23 -10  -4   88.38    3.04
 -24 -10  -4    0.94    0.76
 -25 -10  -4    1.23    1.63
 -26 -10  -4    1.81    0.87
  30 -10  -3   -1.81    1.88
  29 -10  -3    0.58    0.79
  28 -10  -3    8.74    1.48
  27 -10  -3    0.14    0.65
  26 -10  -3    1.63    0.94
  25 -10  -3   17.38    1.41
  24 -10  -3   14.92    1.23
  23 -10  -3   -0.69    1.08
  22 -10  -3    3.69    1.01
  21 -10  -3   16.51    1.37
  20 -10  -3    2.20    0.79
  19 -10  -3   17.02    1.19
  18 -10  -3    1.95    0.79
  17 -10  -3  108.97    3.83
  16 -10  -3    3.40    0.90
  15 -10  -3   72.88    2.85
  14 -10  -3   72.44    2.38
  13 -10  -3   15.07    1.01
  12 -10  -3   10.23    0.94
  11 -10  -3    0.72    1.05
  10 -10  -3   61.39    3.25
   9 -10  -3  133.18    4.44
   8 -10  -3   34.04    1.34
   7 -10  -3  113.06    3.69
   6 -10  -3  135.96    5.06
   5 -10  -3   10.80    0.79
   4 -10  -3   73.53    2.78
   3 -10  -3  271.35    7.19
   2 -10  -3   56.47    2.96
   1 -10  -3   74.36    2.20
   0 -10  -3  299.32    8.49
  -2 -10  -3   24.53    1.52
  -3 -10  -3   44.66    1.95
  -4 -10  -3  536.38   11.16
  -5 -10  -3  166.21    5.71
  -6 -10  -3   68.61    3.07
  -7 -10  -3   69.48    3.36
  -8 -10  -3  386.90    9.47
  -9 -10  -3   14.27    0.90
 -10 -10  -3  128.34    3.90
 -11 -10  -3   57.34    2.67
 -12 -10  -3   80.54    3.14
 -13 -10  -3   19.08    1.48
 -14 -10  -3   68.61    2.42
 -15 -10  -3    1.77    1.05
 -16 -10  -3  175.85    6.58
 -17 -10  -3  122.60    4.91
 -18 -10  -3    4.34    0.98
 -19 -10  -3  109.80    3.83
 -20 -10  -3  115.33    4.95
 -21 -10  -3   -0.40    1.12
 -22 -10  -3    3.18    0.87
 -23 -10  -3   -0.25    0.83
 -24 -10  -3   37.32    2.35
 -25 -10  -3   -0.25    0.54
 -26 -10  -3    2.28    1.01
 -27 -10  -3    0.65    0.76
 -28 -10  -3    6.65    2.28
  30 -10  -2    0.54    1.16
  29 -10  -2    1.08    1.73
  28 -10  -2    1.88    0.79
  27 -10  -2    4.16    1.48
  26 -10  -2   -0.04    0.83
  25 -10  -2   36.10    3.25
  24 -10  -2   -0.36    0.72
  23 -10  -2   28.94    2.20
  22 -10  -2    1.91    0.69
  21 -10  -2   86.25    5.17
  20 -10  -2    1.12    1.01
  19 -10  -2   36.06    1.77
  18 -10  -2   73.78    3.00
  17 -10  -2   14.02    1.59
  16 -10  -2   10.70    0.87
  15 -10  -2    5.13    0.79
  14 -10  -2   19.80    1.34
  13 -10  -2    0.51    0.51
  12 -10  -2  123.14    3.83
  10 -10  -2  140.05    5.02
   9 -10  -2    1.91    1.05
   8 -10  -2   16.01    1.08
   7 -10  -2   34.87    1.55
   6 -10  -2  102.14    3.18
   5 -10  -2  316.08    8.96
   4 -10  -2    7.95    1.16
   3 -10  -2  199.09    6.32
   2 -10  -2  288.15    6.90
   1 -10  -2  182.03    4.70
   0 -10  -2  414.79    8.85
  -1 -10  -2   49.68    1.70
  -2 -10  -2  240.17    5.31
  -3 -10  -2  112.19    4.34
  -4 -10  -2  321.83    7.30
  -5 -10  -2  439.98    9.29
  -6 -10  -2    6.18    0.65
  -7 -10  -2  353.80    8.67
  -8 -10  -2    3.36    0.79
  -9 -10  -2  132.06    8.27
 -10 -10  -2   21.64    1.37
 -11 -10  -2  383.83    9.72
 -12 -10  -2   57.05    2.38
 -13 -10  -2   16.91    1.16
 -14 -10  -2  167.83    4.55
 -16 -10  -2   27.06    1.55
 -17 -10  -2   23.77    1.70
 -18 -10  -2   15.50    1.41
 -19 -10  -2  176.03    4.99
 -20 -10  -2   78.91    4.05
 -21 -10  -2    0.58    0.76
 -22 -10  -2    1.37    1.37
 -23 -10  -2   55.17    2.96
 -24 -10  -2   -0.36    1.12
 -25 -10  -2   -1.77    0.98
 -26 -10  -2    9.14    0.90
 -27 -10  -2    5.38    0.98
 -28 -10  -2   -0.14    0.87
 -29 -10  -2    1.81    0.98
  29 -10  -1    0.04    0.69
  28 -10  -1    9.50    1.41
  27 -10  -1    9.97    1.08
  26 -10  -1   25.40    1.34
  25 -10  -1   10.48    1.19
  24 -10  -1    5.78    1.41
  23 -10  -1    0.07    0.90
  22 -10  -1   32.74    2.35
  21 -10  -1   18.61    2.17
  20 -10  -1    2.42    1.63
  19 -10  -1    2.60    0.90
  18 -10  -1  268.03    7.70
  17 -10  -1    8.20    1.48
  16 -10  -1   37.50    2.10
  15 -10  -1  195.55    5.28
  14 -10  -1  144.93    5.24
  13 -10  -1   11.85    0.87
  12 -10  -1    1.08    0.83
  11 -10  -1  157.54    4.62
  10 -10  -1   12.25    1.23
   9 -10  -1    0.54    0.54
   8 -10  -1   54.23    2.20
   7 -10  -1  554.37   24.93
   6 -10  -1    0.54    0.76
   5 -10  -1   23.20    1.30
   4 -10  -1    2.17    1.08
   3 -10  -1  249.49    8.53
   2 -10  -1    9.57    0.87
   1 -10  -1   61.14    2.75
   0 -10  -1   84.91    3.61
  -1 -10  -1  324.72    8.38
  -2 -10  -1  330.28    7.52
  -3 -10  -1  161.37    3.90
  -4 -10  -1  121.95    3.14
  -5 -10  -1  207.65    5.56
  -6 -10  -1   29.16    1.26
  -7 -10  -1  262.28    9.54
  -8 -10  -1   34.00    1.26
  -9 -10  -1  381.55   14.53
 -10 -10  -1  281.40   10.66
 -11 -10  -1   33.89    1.59
 -12 -10  -1  169.17    6.65
 -13 -10  -1   42.82    2.46
 -14 -10  -1  198.44    5.42
 -15 -10  -1   38.23    2.02
 -16 -10  -1  119.89    4.99
 -17 -10  -1   56.26    3.87
 -18 -10  -1  174.30    5.17
 -19 -10  -1    2.06    0.47
 -20 -10  -1  104.85    3.11
 -21 -10  -1    0.76    0.61
 -23 -10  -1   19.91    1.37
 -24 -10  -1   39.78    1.84
 -25 -10  -1   32.48    2.13
 -26 -10  -1   10.95    1.16
 -27 -10  -1    0.43    0.61
 -28 -10  -1   -0.83    1.30
 -29 -10  -1    2.38    1.99
  29 -10   0   -0.87    0.69
  28 -10   0    0.14    0.98
  27 -10   0    4.48    0.90
  26 -10   0    1.01    0.87
  25 -10   0   40.36    2.28
  24 -10   0   14.81    1.19
  23 -10   0    4.88    0.83
  22 -10   0   34.87    2.02
  21 -10   0   37.65    2.42
  20 -10   0    0.51    1.16
  19 -10   0  140.30    6.32
  18 -10   0   56.40    3.32
  17 -10   0    3.47    0.69
  16 -10   0    0.14    1.01
  15 -10   0   70.82    4.08
  14 -10   0   11.71    1.16
  13 -10   0   94.77    4.73
  12 -10   0  144.46    5.53
  11 -10   0    3.90    0.79
  10 -10   0    0.25    1.01
   9 -10   0    2.64    0.76
   8 -10   0   93.80    3.36
   7 -10   0  348.42    9.72
   6 -10   0   22.62    2.20
   4 -10   0  137.45    5.67
   3 -10   0   42.53    1.63
   2 -10   0  325.51    9.14
   1 -10   0    0.22    0.69
   0 -10   0  459.92   10.12
  -1 -10   0    1.55    0.87
  -2 -10   0  332.16    7.30
  -3 -10   0   42.09    1.59
  -4 -10   0  120.61    3.79
  -5 -10   0   12.83    1.30
  -6 -10   0   19.51    1.41
  -7 -10   0  348.09   10.37
  -8 -10   0   88.67    2.89
  -9 -10   0    5.93    0.94
 -10 -10   0    2.64    0.65
 -11 -10   0    3.47    0.94
 -12 -10   0  139.36    6.03
 -13 -10   0   80.10    2.96
 -14 -10   0   12.36    0.94
 -15 -10   0   61.64    2.49
 -16 -10   0   -0.22    0.79
 -17 -10   0    4.99    0.79
 -18 -10   0   41.26    1.84
 -19 -10   0  138.85    4.59
 -20 -10   0    0.29    1.26
 -22 -10   0   33.86    1.59
 -23 -10   0    6.47    0.69
 -24 -10   0   12.32    1.01
 -25 -10   0   33.21    1.41
 -26 -10   0    1.23    0.79
 -27 -10   0    4.19    0.83
 -28 -10   0    0.79    0.61
 -29 -10   0   -1.08    1.30
  29 -10   1    0.79    0.72
  27 -10   1   -0.04    0.72
  26 -10   1   17.38    1.73
  25 -10   1   37.25    2.02
  24 -10   1   40.43    1.88
  23 -10   1   23.20    1.34
  22 -10   1   96.11    3.50
  21 -10   1    0.29    1.01
  20 -10   1  113.74    5.46
  19 -10   1    1.95    0.87
  18 -10   1  172.75    5.74
  17 -10   1   58.64    2.42
  16 -10   1  111.36    4.01
  15 -10   1   31.65    2.31
  14 -10   1  217.55    6.18
  13 -10   1   40.83    2.93
  12 -10   1  175.89    7.33
  11 -10   1   36.75    3.29
  10 -10   1  299.82   10.51
   9 -10   1  444.13   16.19
   8 -10   1   32.12    1.77
   7 -10   1  260.11   13.98
   6 -10   1   28.00    1.91
   5 -10   1  242.70    8.49
   4 -10   1  118.08    3.22
   3 -10   1  167.47    4.62
   2 -10   1  315.36    8.09
   1 -10   1  357.38    7.70
   0 -10   1   87.55    3.07
  -1 -10   1   65.22    2.10
  -2 -10   1   10.84    0.83
  -3 -10   1  245.19    6.87
  -4 -10   1    4.99    1.05
  -5 -10   1   24.97    1.26
  -6 -10   1    1.19    0.65
  -7 -10   1  552.67   13.33
  -8 -10   1   52.93    4.37
  -9 -10   1    0.33    0.76
 -10 -10   1   15.07    0.98
 -11 -10   1  148.32    5.85
 -12 -10   1    2.02    0.83
 -13 -10   1   11.27    0.79
 -14 -10   1  129.39    5.46
 -15 -10   1  176.47    7.37
 -16 -10   1   29.77    1.52
 -17 -10   1    5.71    0.90
 -18 -10   1  236.99    7.41
 -19 -10   1    2.89    0.90
 -20 -10   1    0.25    1.34
 -21 -10   1   19.51    1.91
 -22 -10   1   28.87    2.53
 -23 -10   1    0.14    0.87
 -24 -10   1    7.08    0.87
 -25 -10   1   11.20    1.66
 -26 -10   1   21.61    2.28
 -28 -10   1    5.35    1.52
 -29 -10   1   -0.04    0.72
  29 -10   2    3.90    0.94
  28 -10   2   -0.61    0.98
  27 -10   2    3.87    1.26
  26 -10   2   10.01    1.45
  25 -10   2   -0.69    0.69
  24 -10   2   -0.36    0.58
  23 -10   2   56.58    2.71
  22 -10   2   -0.33    0.72
  21 -10   2    0.69    1.26
  20 -10   2   86.21    3.32
  19 -10   2  186.95    5.06
  18 -10   2   14.20    1.34
  17 -10   2   24.28    1.77
  16 -10   2   30.21    1.77
  15 -10   2   25.51    1.91
  14 -10   2  158.51    5.67
  13 -10   2   20.34    1.41
  12 -10   2   61.60    4.19
  11 -10   2  408.98   20.45
  10 -10   2   24.35    1.23
   9 -10   2  131.63    3.97
   8 -10   2    0.51    1.84
   7 -10   2  343.61    8.74
   6 -10   2    8.92    0.90
   5 -10   2  434.09   20.09
   4 -10   2  313.44    9.39
   3 -10   2  110.78    3.14
   2 -10   2  244.87    7.80
   1 -10   2   50.55    1.84
   0 -10   2  376.06   14.06
  -1 -10   2  173.87    4.19
  -2 -10   2  270.38   11.67
  -3 -10   2  189.91    6.50
  -4 -10   2    9.57    1.12
  -5 -10   2  306.98    9.83
  -6 -10   2   97.77    2.85
  -7 -10   2   39.53    1.70
  -8 -10   2   18.10    1.23
  -9 -10   2    2.89    0.72
 -10 -10   2  132.13    6.18
 -11 -10   2   50.58    3.00
 -12 -10   2  123.72    5.42
 -13 -10   2    0.98    0.83
 -14 -10   2   19.69    0.98
 -15 -10   2    6.76    0.79
 -16 -10   2    7.55    0.79
 -17 -10   2   12.61    0.87
 -18 -10   2   62.62    3.90
 -19 -10   2   32.66    2.10
 -20 -10   2   -0.36    0.83
 -21 -10   2   84.84    3.14
 -22 -10   2    0.87    1.01
 -23 -10   2   27.35    2.13
 -24 -10   2    1.19    1.01
 -25 -10   2   26.45    2.53
 -26 -10   2   -0.65    1.01
 -27 -10   2    1.77    0.90
 -29 -10   2    3.40    1.23
 -30 -10   2    0.29    0.61
  28 -10   3    5.31    1.12
  27 -10   3    0.72    0.87
  26 -10   3    1.63    1.01
  25 -10   3    0.98    1.26
  24 -10   3   41.52    2.38
  23 -10   3    0.90    1.73
  22 -10   3    4.01    0.76
  21 -10   3   -0.11    1.30
  20 -10   3  113.27    6.94
  19 -10   3   94.38    4.41
  18 -10   3    5.20    1.26
  17 -10   3  103.30    3.54
  16 -10   3  181.67    7.05
  15 -10   3    1.73    1.08
  14 -10   3   72.88    3.29
  13 -10   3   22.44    2.75
  12 -10   3   94.38    4.23
  11 -10   3   65.69    3.40
  10 -10   3  147.60    4.99
   9 -10   3   13.80    1.45
   8 -10   3  430.22   10.62
   7 -10   3   76.06    5.60
   6 -10   3   66.05    4.41
   5 -10   3  183.59   10.95
   4 -10   3  523.08   12.90
   3 -10   3   44.51    2.06
   2 -10   3   23.63    1.23
   1 -10   3  585.55   21.21
   0 -10   3  312.97    8.42
  -1 -10   3   81.33    2.60
  -2 -10   3   56.84    3.65
  -3 -10   3  279.23    7.52
  -4 -10   3   69.55    2.38
  -6 -10   3  121.84    3.61
  -7 -10   3  125.92    3.47
  -8 -10   3   37.58    2.17
 -10 -10   3   63.30    2.35
 -11 -10   3    1.34    0.72
 -12 -10   3   11.02    1.37
 -13 -10   3   13.40    1.91
 -14 -10   3   66.48    2.38
 -15 -10   3   61.35    2.28
 -17 -10   3  103.70    4.41
 -18 -10   3    0.87    0.90
 -19 -10   3   14.63    1.48
 -21 -10   3   13.19    1.88
 -22 -10   3    3.36    0.94
 -23 -10   3    2.02    0.98
 -24 -10   3   12.36    1.01
 -25 -10   3   15.72    2.31
 -26 -10   3    3.69    1.26
 -27 -10   3    0.14    0.61
 -28 -10   3    6.83    1.26
 -29 -10   3   -1.23    0.76
 -30 -10   3    0.33    0.61
  28 -10   4    1.34    0.72
  27 -10   4   24.79    1.73
  26 -10   4    1.30    0.98
  25 -10   4   -0.40    0.98
  24 -10   4    5.82    1.19
  23 -10   4   95.14    5.60
  22 -10   4    1.55    0.98
  21 -10   4   12.90    1.23
  20 -10   4    1.48    0.98
  19 -10   4   40.00    2.96
  18 -10   4    4.95    0.72
  17 -10   4   80.94    4.08
  16 -10   4   15.93    1.23
  15 -10   4   70.49    3.36
  14 -10   4  199.95    7.95
  13 -10   4    0.36    1.08
  12 -10   4  248.15    7.12
  11 -10   4   94.52    3.32
  10 -10   4   -1.45    0.83
   9 -10   4  572.62   19.69
   8 -10   4  486.55   12.32
   7 -10   4    0.18    1.08
   6 -10   4   11.89    1.26
   5 -10   4  192.66   13.66
   4 -10   4 1118.14   22.55
   3 -10   4   27.86    1.59
   2 -10   4  587.40   18.43
   1 -10   4   79.42    2.38
   0 -10   4  360.92    8.71
  -2 -10   4  366.05    8.24
  -3 -10   4   15.79    1.08
  -5 -10   4   96.18    2.75
  -6 -10   4  333.24   10.73
  -8 -10   4   68.51    3.54
  -9 -10   4    0.04    0.87
 -10 -10   4   21.90    0.98
 -12 -10   4  156.20    5.56
 -13 -10   4    2.71    0.61
 -14 -10   4   77.68    3.65
 -16 -10   4   51.31    2.93
 -17 -10   4   31.33    1.59
 -18 -10   4   87.11    3.36
 -19 -10   4   77.65    2.31
 -20 -10   4    5.31    1.08
 -21 -10   4   31.00    1.91
 -22 -10   4   14.38    1.41
 -23 -10   4    3.69    1.59
 -25 -10   4   16.73    1.19
 -27 -10   4   -1.52    1.63
 -28 -10   4    3.83    1.19
 -29 -10   4    9.00    1.05
  27 -10   5    3.14    1.23
  26 -10   5    0.14    0.83
  25 -10   5   11.16    1.19
  24 -10   5   13.01    1.73
  23 -10   5    4.30    1.01
  22 -10   5    3.69    1.73
  20 -10   5    4.41    0.90
  19 -10   5    6.36    0.87
  18 -10   5    4.23    0.83
  17 -10   5    6.58    0.90
  16 -10   5    0.18    0.79
  15 -10   5   14.67    1.12
  14 -10   5  152.80    5.64
  13 -10   5    2.02    1.12
  12 -10   5    2.35    1.59
  11 -10   5    2.60    0.76
  10 -10   5  201.40    6.14
   9 -10   5  290.90    9.86
   8 -10   5    0.51    0.79
   7 -10   5    8.85    1.34
   6 -10   5  356.80   10.15
   5 -10   5  225.68    6.87
   4 -10   5   16.08    1.45
   3 -10   5    9.50    1.05
   2 -10   5  447.57   11.71
   1 -10   5   82.81    2.75
   0 -10   5    4.48    0.83
  -1 -10   5  192.44    6.40
  -2 -10   5  156.92    9.76
  -3 -10   5  234.06    6.90
  -4 -10   5  100.92    2.64
  -5 -10   5   24.10    1.48
  -6 -10   5  119.42    3.58
  -7 -10   5    2.35    0.90
  -8 -10   5    9.79    0.79
  -9 -10   5  355.68    8.24
 -10 -10   5    2.38    0.58
 -12 -10   5    1.19    0.90
 -13 -10   5   16.66    1.05
 -14 -10   5    1.59    0.79
 -15 -10   5   -0.58    1.34
 -16 -10   5    9.94    0.83
 -17 -10   5  106.01    5.31
 -18 -10   5   12.72    1.08
 -19 -10   5   23.63    1.37
 -20 -10   5    0.65    0.76
 -21 -10   5    7.52    0.76
 -22 -10   5   15.39    1.01
 -23 -10   5    0.90    0.90
 -24 -10   5    2.10    1.01
 -25 -10   5   14.96    1.01
 -26 -10   5    1.08    0.65
 -27 -10   5   -0.79    1.08
 -28 -10   5    3.43    1.30
  26 -10   6    1.30    0.79
  25 -10   6   16.77    1.99
  24 -10   6    2.20    1.34
  23 -10   6   42.31    2.75
  22 -10   6    0.29    0.94
  21 -10   6   93.29    4.37
  20 -10   6    3.29    0.94
  19 -10   6   26.52    2.20
  18 -10   6    0.58    0.76
  17 -10   6    2.02    0.90
  16 -10   6    3.04    0.94
  15 -10   6   -1.52    2.10
  14 -10   6    4.95    0.83
  13 -10   6   16.77    1.19
  12 -10   6    4.62    1.16
  11 -10   6   58.97    2.96
  10 -10   6   80.29    3.11
   9 -10   6  500.86   17.67
   8 -10   6    3.97    0.76
   7 -10   6   35.37    2.02
   6 -10   6  494.03   13.59
   5 -10   6    5.20    0.94
   4 -10   6  833.38   21.68
   3 -10   6  127.55    8.74
   2 -10   6  552.67   23.70
   1 -10   6   11.20    0.79
   0 -10   6  103.73    2.85
  -1 -10   6  265.35    6.29
  -2 -10   6  877.39   18.82
  -3 -10   6   53.37    2.02
  -4 -10   6   -0.40    0.58
  -5 -10   6    7.62    1.05
  -6 -10   6  242.52    5.53
  -7 -10   6   76.06    4.70
  -8 -10   6    0.14    0.51
  -9 -10   6   28.47    1.55
 -10 -10   6   76.02    3.47
 -11 -10   6  108.68    3.83
 -12 -10   6    1.41    0.83
 -13 -10   6    6.68    0.72
 -15 -10   6    6.87    1.16
 -16 -10   6   10.41    1.01
 -17 -10   6   72.48    2.57
 -18 -10   6   14.81    1.77
 -19 -10   6    2.93    0.87
 -20 -10   6   12.94    1.37
 -21 -10   6   91.31    4.44
 -22 -10   6   13.84    1.77
 -23 -10   6    0.18    1.23
 -25 -10   6    1.63    0.83
 -26 -10   6    1.08    1.19
 -27 -10   6    0.76    0.90
 -28 -10   6   -1.23    1.77
 -29 -10   6    1.70    0.83
 -30 -10   6   -0.36    1.23
  26 -10   7   -1.05    1.16
  25 -10   7   -0.29    1.08
  24 -10   7    0.61    0.98
  23 -10   7    0.29    0.98
  22 -10   7   10.80    1.91
  21 -10   7    1.08    0.94
  20 -10   7   11.13    1.34
  19 -10   7    9.97    1.05
  18 -10   7    1.77    1.05
  17 -10   7   44.19    3.25
  16 -10   7    0.94    0.98
  15 -10   7    3.18    1.34
  14 -10   7    4.44    0.72
  13 -10   7   31.76    1.55
  12 -10   7   12.57    1.45
  11 -10   7   71.29    2.49
  10 -10   7   14.96    1.23
   9 -10   7   60.48    2.60
   8 -10   7  113.02    8.71
   7 -10   7  132.93    5.82
   6 -10   7   45.06    2.85
   5 -10   7   37.72    2.35
   4 -10   7   68.43    2.31
   3 -10   7  316.12    8.71
   2 -10   7    2.38    0.90
   1 -10   7  578.36   14.31
   0 -10   7   24.39    0.98
  -1 -10   7   52.21    1.63
  -2 -10   7   51.27    2.38
  -3 -10   7   33.31    2.71
  -4 -10   7   19.01    1.48
  -5 -10   7   42.27    1.81
  -6 -10   7   44.12    1.84
  -7 -10   7    4.73    1.05
  -8 -10   7    3.61    0.76
  -9 -10   7   52.39    2.67
 -10 -10   7   10.62    0.79
 -11 -10   7    2.31    1.19
 -12 -10   7  117.90    5.46
 -13 -10   7    9.61    1.01
 -14 -10   7   29.34    1.91
 -15 -10   7   62.36    4.34
 -17 -10   7   42.06    2.42
 -18 -10   7   -0.04    0.90
 -19 -10   7    0.69    1.41
 -20 -10   7   10.55    1.45
 -21 -10   7    8.02    1.66
 -23 -10   7    0.79    1.08
 -24 -10   7   17.60    1.70
 -25 -10   7    3.11    1.08
 -27 -10   7   -0.72    1.81
 -28 -10   7    2.67    0.72
  25 -10   8   35.45    2.57
  24 -10   8    0.40    0.94
  23 -10   8    5.89    0.90
  22 -10   8    7.19    1.37
  21 -10   8   70.93    6.03
  20 -10   8    6.50    1.01
  19 -10   8   13.59    1.01
  18 -10   8    0.61    0.94
  17 -10   8   47.04    2.38
  16 -10   8   44.26    3.32
  15 -10   8    9.50    1.30
  14 -10   8    2.38    0.83
  13 -10   8  123.17    4.05
  12 -10   8  151.83    5.46
  11 -10   8   10.26    1.84
  10 -10   8   28.15    1.52
   9 -10   8  313.73    8.56
   8 -10   8  132.50    4.95
   7 -10   8    1.41    0.72
   6 -10   8   18.75    1.48
   5 -10   8   90.69    3.90
   4 -10   8   69.45    2.78
   3 -10   8   36.02    1.91
   2 -10   8  119.85    8.35
   1 -10   8   18.46    1.08
   0 -10   8  118.91    4.95
  -1 -10   8   54.23    3.58
  -2 -10   8  293.75    9.21
  -3 -10   8    5.46    1.01
  -4 -10   8   89.72    5.89
  -5 -10   8   59.00    3.40
  -6 -10   8   88.63    2.82
  -7 -10   8   43.50    2.10
  -8 -10   8  162.81    3.83
  -9 -10   8   17.56    0.98
 -10 -10   8  157.28    4.99
 -11 -10   8   25.22    1.59
 -12 -10   8   14.56    1.23
 -13 -10   8   18.54    2.57
 -14 -10   8   16.77    1.12
 -15 -10   8   40.72    1.99
 -16 -10   8  191.86    8.20
 -17 -10   8    2.49    0.87
 -18 -10   8    3.32    0.76
 -19 -10   8   30.31    2.17
 -20 -10   8   59.55    2.93
 -21 -10   8    6.18    0.72
 -22 -10   8    4.55    1.08
 -23 -10   8    6.97    0.87
 -24 -10   8   -0.87    0.94
 -25 -10   8    0.87    1.08
 -26 -10   8    1.99    1.01
 -27 -10   8    7.99    1.59
 -28 -10   8    0.72    0.79
  24 -10   9   25.62    2.82
  23 -10   9   16.48    2.96
  22 -10   9    2.57    1.01
  21 -10   9    5.96    1.59
  20 -10   9   40.87    2.02
  19 -10   9   31.87    2.24
  18 -10   9   32.12    1.91
  17 -10   9   25.62    1.84
  16 -10   9  109.59    3.65
  15 -10   9    6.40    1.48
  14 -10   9   34.76    1.55
  13 -10   9    0.76    0.90
  12 -10   9   19.04    1.45
  11 -10   9   43.79    2.24
  10 -10   9   31.04    3.54
   9 -10   9  115.91    5.42
   8 -10   9  191.93    6.18
   7 -10   9    5.06    1.59
   6 -10   9  125.96    4.95
   5 -10   9   22.65    1.19
   4 -10   9  190.34    5.56
   3 -10   9   50.26    2.78
   2 -10   9   73.96    3.29
   1 -10   9   50.22    2.35
  -2 -10   9  110.89    7.37
  -3 -10   9   17.70    1.34
  -5 -10   9  179.36    5.89
  -6 -10   9   56.84    3.61
  -7 -10   9    0.94    0.90
  -8 -10   9   13.19    1.23
  -9 -10   9   70.06    2.49
 -10 -10   9   24.39    2.64
 -11 -10   9   11.89    1.63
 -12 -10   9   56.15    2.93
 -13 -10   9  126.50    4.41
 -14 -10   9    0.54    1.16
 -15 -10   9    3.94    1.48
 -16 -10   9    3.40    0.94
 -17 -10   9    1.05    0.65
 -18 -10   9    1.01    0.72
 -19 -10   9    1.23    1.12
 -20 -10   9    4.48    0.76
 -21 -10   9    5.46    0.69
 -22 -10   9   -2.57    2.20
 -23 -10   9    3.61    1.77
 -24 -10   9    2.02    1.08
 -25 -10   9    0.51    1.05
 -26 -10   9    0.07    1.30
 -27 -10   9    0.14    1.16
  23 -10  10    1.23    1.01
  22 -10  10    4.34    1.55
  21 -10  10   34.11    2.20
  20 -10  10    2.67    0.87
  19 -10  10    2.31    1.01
  18 -10  10    3.76    0.98
  17 -10  10   48.74    2.31
  16 -10  10   26.99    1.48
  15 -10  10   38.84    1.55
  14 -10  10    9.11    1.45
  13 -10  10  182.76    8.06
  12 -10  10    1.45    1.45
  11 -10  10  266.69    8.56
  10 -10  10    1.08    1.23
   9 -10  10  107.02    6.43
   8 -10  10    4.81    1.34
   6 -10  10  615.40   18.97
   5 -10  10    4.91    1.19
   3 -10  10   59.58    2.60
  -1 -10  10   47.84    3.47
  -4 -10  10  163.42    8.27
  -5 -10  10  198.04    8.78
  -6 -10  10   81.73    3.43
  -7 -10  10   14.34    1.59
  -8 -10  10   65.11    4.48
  -9 -10  10   66.48    2.96
 -10 -10  10    0.40    1.16
 -11 -10  10    1.59    0.65
 -12 -10  10  163.50    6.94
 -13 -10  10   68.29    2.24
 -14 -10  10    0.04    0.83
 -15 -10  10    0.87    0.72
 -16 -10  10   96.22    3.76
 -17 -10  10    0.51    0.98
 -19 -10  10   38.48    2.02
 -20 -10  10   16.44    1.30
 -21 -10  10   -0.36    1.41
 -22 -10  10    6.87    1.45
 -24 -10  10    8.74    1.30
 -25 -10  10    0.51    1.05
 -26 -10  10    1.34    1.45
 -27 -10  10   -0.90    1.23
  22 -10  11   26.45    1.88
  21 -10  11   12.57    1.08
  20 -10  11    3.72    1.30
  19 -10  11    9.79    1.30
  18 -10  11   73.49    4.84
  17 -10  11    1.48    0.76
  16 -10  11   60.70    3.47
  15 -10  11   25.83    1.91
  14 -10  11  103.48    3.79
  13 -10  11    0.94    1.19
  12 -10  11    0.14    1.01
  11 -10  11   12.32    1.41
  10 -10  11  101.71    6.47
   9 -10  11    1.16    0.69
   8 -10  11    2.85    1.59
   7 -10  11  130.87    6.03
   6 -10  11  157.54    7.80
   5 -10  11   17.99    2.78
   4 -10  11    4.62    0.83
   3 -10  11   27.14    2.17
   2 -10  11    1.30    0.98
   1 -10  11   19.29    2.46
   0 -10  11   25.44    1.37
  -3 -10  11    8.09    0.79
  -6 -10  11   66.09    3.97
  -7 -10  11   91.27    4.95
  -9 -10  11  234.13   10.91
 -11 -10  11   10.55    1.41
 -12 -10  11    1.52    0.87
 -13 -10  11   38.30    2.82
 -14 -10  11   21.57    2.06
 -15 -10  11   63.41    4.62
 -16 -10  11    1.84    0.87
 -17 -10  11   27.79    1.66
 -18 -10  11    0.04    0.65
 -19 -10  11   17.31    2.42
 -20 -10  11    1.70    1.30
 -21 -10  11   10.33    0.90
 -22 -10  11    9.21    2.85
 -23 -10  11   -1.88    1.45
 -24 -10  11    4.34    1.16
 -25 -10  11    0.00    1.30
 -26 -10  11    1.37    1.23
 -27 -10  11    4.84    2.38
  21 -10  12   10.80    1.16
  20 -10  12    1.37    1.81
  19 -10  12    2.96    1.48
  18 -10  12   -0.14    1.12
  17 -10  12   11.82    1.08
  16 -10  12    1.34    1.05
  15 -10  12   10.23    1.37
  14 -10  12    4.62    1.08
  13 -10  12   47.59    2.78
  12 -10  12   15.07    1.23
  11 -10  12  163.06   10.30
  10 -10  12   49.25    3.50
   9 -10  12    9.57    1.05
   6 -10  12   75.77    3.76
   5 -10  12   36.17    2.13
   4 -10  12  137.16    4.44
  -8 -10  12   74.18    3.72
  -9 -10  12    2.02    1.30
 -10 -10  12   18.93    1.91
 -11 -10  12    0.51    1.16
 -12 -10  12   78.84    4.62
 -13 -10  12   29.95    2.13
 -15 -10  12    2.46    1.26
 -16 -10  12   16.22    2.53
 -17 -10  12   -0.18    0.76
 -18 -10  12   22.62    1.59
 -19 -10  12    9.43    0.79
 -20 -10  12   15.68    1.63
 -21 -10  12    1.52    1.23
 -22 -10  12   -0.94    0.79
 -23 -10  12    0.51    0.83
 -24 -10  12   -0.40    1.23
 -25 -10  12    0.79    1.23
 -26 -10  12   -0.79    1.23
  20 -10  13    3.58    1.81
  19 -10  13    5.96    1.59
  18 -10  13   21.43    2.38
  17 -10  13   21.28    1.63
  16 -10  13   16.40    2.06
  15 -10  13    5.24    1.16
  14 -10  13   46.72    3.25
  12 -10  13   40.97    2.13
  10 -10  13    3.79    1.30
   9 -10  13    0.83    0.98
   8 -10  13   56.40    4.05
   7 -10  13    4.16    0.83
 -11 -10  13    6.54    0.98
 -12 -10  13   25.65    2.20
 -13 -10  13    5.13    1.16
 -14 -10  13    8.35    0.98
 -15 -10  13   13.26    1.99
 -17 -10  13    2.38    1.08
 -18 -10  13    1.73    0.90
 -20 -10  13    7.66    1.19
 -21 -10  13    0.69    2.24
 -22 -10  13    2.75    1.01
 -23 -10  13   18.82    1.48
 -24 -10  13   -1.37    1.41
 -25 -10  13    1.26    1.52
  19 -10  14    5.85    1.34
  18 -10  14    2.10    1.16
  17 -10  14    0.11    1.37
  16 -10  14    4.66    1.19
  15 -10  14   52.14    3.58
  11 -10  14   38.37    1.95
  10 -10  14   70.31    4.26
   9 -10  14    0.94    0.90
   7 -10  14   46.54    2.38
 -15 -10  14   12.75    1.37
 -16 -10  14   26.95    2.17
 -17 -10  14    4.55    1.45
 -20 -10  14   -1.08    1.26
 -21 -10  14    0.25    0.98
 -22 -10  14    0.36    1.16
 -23 -10  14    1.19    1.08
  17 -10  15    2.89    1.88
  12 -10  15   38.77    2.67
 -17 -10  15    0.79    1.01
 -19 -10  16    1.70    1.55
 -20 -10  16   -0.54    1.59
  13 -11 -20    0.58    1.55
  11 -11 -20    2.85    0.90
  10 -11 -20   -0.36    0.83
   9 -11 -20    1.37    1.01
   8 -11 -20    7.23    0.94
   7 -11 -20    2.24    1.91
   6 -11 -20   -0.25    1.30
   5 -11 -20   -0.98    1.12
   4 -11 -20   -0.36    0.72
   3 -11 -20    4.08    0.94
   2 -11 -20    0.00    1.12
   1 -11 -20    0.58    0.90
   0 -11 -20   -3.07    1.77
  -1 -11 -20    0.61    1.08
  -2 -11 -20    1.59    0.94
  15 -11 -19    0.79    0.98
  14 -11 -19    6.47    0.94
  13 -11 -19    0.69    0.76
  12 -11 -19    5.89    1.08
  11 -11 -19    2.60    0.72
  10 -11 -19    2.71    1.37
   9 -11 -19    1.52    1.05
   8 -11 -19    1.99    0.83
   7 -11 -19   25.69    1.66
   6 -11 -19   20.23    1.16
   5 -11 -19   17.23    1.77
   4 -11 -19    0.54    0.69
   3 -11 -19   15.03    1.16
   2 -11 -19   26.85    1.37
   1 -11 -19    3.50    0.98
   0 -11 -19    1.30    0.94
  -1 -11 -19   48.99    2.93
  -2 -11 -19   10.91    1.19
  -3 -11 -19    1.77    0.79
  -4 -11 -19    1.08    1.30
  -5 -11 -19   38.70    3.40
  -6 -11 -19   14.56    1.05
  19 -11 -18   -1.05    1.52
  18 -11 -18    2.10    1.41
  15 -11 -18    2.20    0.69
  14 -11 -18    3.04    0.65
  13 -11 -18   -0.98    1.30
  12 -11 -18   -0.04    0.69
  11 -11 -18   -0.29    0.83
  10 -11 -18    0.65    0.87
   9 -11 -18    1.91    0.79
   8 -11 -18    1.77    0.98
   7 -11 -18   17.23    1.23
   6 -11 -18   10.91    1.48
   5 -11 -18   -0.69    1.12
   3 -11 -18   -0.72    0.94
   2 -11 -18    5.53    0.87
   1 -11 -18    5.49    1.26
   0 -11 -18    3.47    1.63
  -1 -11 -18   17.13    1.16
  -2 -11 -18   -0.79    0.83
  -3 -11 -18   -0.51    1.01
  -4 -11 -18    2.02    1.08
  -5 -11 -18    0.54    0.90
  -6 -11 -18    3.29    0.83
  -7 -11 -18    7.62    1.05
  -8 -11 -18    3.32    1.05
  -9 -11 -18    7.44    1.34
  19 -11 -17   -0.79    0.90
  18 -11 -17   12.68    1.01
  17 -11 -17    6.11    1.08
  16 -11 -17    2.93    1.26
  15 -11 -17    1.37    0.61
  14 -11 -17    8.92    1.23
  13 -11 -17    1.08    1.05
  12 -11 -17    1.41    1.26
  11 -11 -17    2.67    1.12
  10 -11 -17   19.44    1.37
   9 -11 -17   -0.33    1.34
   8 -11 -17   -0.11    0.65
   7 -11 -17    3.58    1.05
   6 -11 -17   10.70    1.63
   5 -11 -17    3.14    1.12
   4 -11 -17   15.83    1.16
   3 -11 -17   22.00    1.52
   2 -11 -17   14.99    1.73
   1 -11 -17    1.95    0.90
   0 -11 -17    9.29    1.55
  -1 -11 -17   61.21    3.50
  -2 -11 -17   25.87    2.53
  -3 -11 -17   70.85    5.28
  -4 -11 -17    7.73    2.02
  -5 -11 -17   21.06    1.23
  -6 -11 -17    0.47    0.83
  -7 -11 -17   65.98    3.32
  -8 -11 -17   24.24    1.88
  -9 -11 -17   29.56    3.50
 -10 -11 -17    4.66    1.08
 -11 -11 -17   57.45    4.88
  22 -11 -16    2.02    1.81
  21 -11 -16    1.34    0.98
  20 -11 -16    0.76    0.69
  19 -11 -16   -2.13    1.45
  18 -11 -16   -1.19    0.94
  17 -11 -16    0.40    0.69
  16 -11 -16    1.95    0.94
  15 -11 -16    2.17    1.23
  14 -11 -16   16.44    1.26
  13 -11 -16   -0.36    0.94
  12 -11 -16    6.87    1.08
  11 -11 -16    4.37    0.87
  10 -11 -16    0.04    0.87
   9 -11 -16   -0.65    1.05
   8 -11 -16   12.50    1.12
   7 -11 -16   -0.51    0.83
   6 -11 -16    6.83    0.98
   5 -11 -16   31.47    2.17
   4 -11 -16    7.77    1.26
   3 -11 -16    1.73    1.08
   2 -11 -16    3.22    1.19
   1 -11 -16   26.12    1.26
   0 -11 -16    4.88    0.94
  -1 -11 -16   28.98    1.48
  -2 -11 -16    5.78    1.41
  -3 -11 -16   -0.33    0.72
  -4 -11 -16   24.46    2.10
  -5 -11 -16    1.01    0.98
  -6 -11 -16    1.12    1.23
  -7 -11 -16    1.91    0.65
  -8 -11 -16    9.07    1.30
  -9 -11 -16    6.47    1.19
 -10 -11 -16    5.46    1.19
 -11 -11 -16   61.06    2.53
 -12 -11 -16    2.46    0.83
 -13 -11 -16   14.06    1.12
  23 -11 -15    8.53    1.91
  22 -11 -15    2.96    1.23
  21 -11 -15    3.58    1.41
  20 -11 -15    0.61    0.65
  19 -11 -15   -0.69    0.90
  18 -11 -15   12.39    2.28
  16 -11 -15   21.50    2.06
  15 -11 -15    7.52    0.90
  14 -11 -15    0.69    1.08
  13 -11 -15    3.69    1.08
  12 -11 -15   28.69    1.99
  11 -11 -15    0.36    0.94
  10 -11 -15   11.42    1.05
   9 -11 -15    0.54    0.51
   8 -11 -15   82.89    2.57
   7 -11 -15    8.27    1.05
   6 -11 -15   34.98    1.63
   5 -11 -15    2.10    0.69
   4 -11 -15   53.37    1.91
   3 -11 -15   14.92    1.05
   2 -11 -15    0.87    0.79
   1 -11 -15    2.57    1.91
   0 -11 -15   49.32    2.53
  -1 -11 -15    8.27    1.05
  -2 -11 -15   15.18    1.48
  -3 -11 -15   47.30    1.84
  -4 -11 -15   42.20    1.66
  -5 -11 -15   12.57    1.08
  -6 -11 -15   -0.14    0.76
  -7 -11 -15   88.99    3.79
  -8 -11 -15    5.78    0.98
  -9 -11 -15    2.75    1.45
 -10 -11 -15    4.99    0.94
 -11 -11 -15   71.11    3.83
 -12 -11 -15   12.72    1.26
 -13 -11 -15    0.94    0.76
 -14 -11 -15    2.64    0.87
 -15 -11 -15   42.64    3.65
  24 -11 -14    3.76    1.41
  22 -11 -14    0.47    0.58
  21 -11 -14    0.58    0.69
  20 -11 -14    2.42    0.83
  19 -11 -14   20.67    1.63
  18 -11 -14    1.63    1.63
  17 -11 -14    1.66    1.16
  16 -11 -14   18.14    2.13
  15 -11 -14    1.52    1.81
  14 -11 -14   -0.58    0.79
  13 -11 -14    4.88    0.76
  12 -11 -14   50.01    1.73
  11 -11 -14    3.87    0.83
  10 -11 -14    1.37    1.59
   9 -11 -14   45.89    2.20
   8 -11 -14   17.92    1.55
   7 -11 -14    1.08    0.83
   6 -11 -14   10.41    1.01
   5 -11 -14   17.52    1.12
   4 -11 -14   23.02    1.23
   3 -11 -14   19.87    1.30
   2 -11 -14    2.49    0.90
   1 -11 -14    2.96    1.08
   0 -11 -14   34.04    1.48
  -1 -11 -14   97.56    6.25
  -2 -11 -14    4.05    0.79
  -3 -11 -14   77.68    5.17
  -4 -11 -14   83.07    3.11
  -5 -11 -14   20.56    1.05
  -6 -11 -14    0.79    0.79
  -7 -11 -14   60.85    2.31
  -8 -11 -14   53.62    2.60
  -9 -11 -14   99.11    3.29
 -10 -11 -14   13.62    1.59
 -11 -11 -14   17.63    1.30
 -12 -11 -14   41.15    1.91
 -13 -11 -14   49.21    2.53
 -14 -11 -14    1.95    0.94
 -15 -11 -14   20.85    1.48
 -16 -11 -14    9.00    1.34
 -17 -11 -14   15.79    2.46
  24 -11 -13    4.05    1.19
  23 -11 -13    1.55    0.76
  21 -11 -13    1.23    1.52
  20 -11 -13    8.45    1.91
  19 -11 -13    1.63    0.87
  18 -11 -13   12.18    1.12
  17 -11 -13    0.07    0.94
  15 -11 -13    8.49    1.48
  14 -11 -13   11.20    0.90
  13 -11 -13   -0.22    0.65
  12 -11 -13   27.68    1.73
  11 -11 -13    8.38    1.66
  10 -11 -13    2.06    1.19
   9 -11 -13   25.55    1.41
   8 -11 -13   25.15    1.91
   6 -11 -13    5.02    1.01
   5 -11 -13    2.17    0.79
   4 -11 -13  100.95    4.37
   3 -11 -13   22.91    1.66
   2 -11 -13    9.43    0.98
   1 -11 -13   18.32    0.94
   0 -11 -13  137.48    3.54
  -1 -11 -13   49.75    1.88
  -2 -11 -13    4.59    2.02
  -3 -11 -13    4.70    0.69
  -4 -11 -13    2.78    1.88
  -5 -11 -13    1.34    0.83
  -6 -11 -13   54.99    2.13
  -7 -11 -13  126.06    4.01
  -8 -11 -13    3.40    1.01
  -9 -11 -13    0.40    1.37
 -10 -11 -13   11.02    2.20
 -11 -11 -13   71.11    2.85
 -12 -11 -13    1.73    0.79
 -13 -11 -13    4.23    1.01
 -14 -11 -13   20.23    1.73
 -15 -11 -13   56.19    3.54
 -16 -11 -13    7.08    1.41
 -17 -11 -13    8.27    1.48
 -18 -11 -13    0.00    1.12
  26 -11 -12    1.95    1.45
  25 -11 -12   -0.94    1.55
  24 -11 -12    1.05    0.72
  23 -11 -12    5.74    1.08
  22 -11 -12   -0.90    0.90
  21 -11 -12   -1.26    0.94
  20 -11 -12   -0.18    0.87
  19 -11 -12    3.83    1.41
  18 -11 -12    4.59    0.69
  17 -11 -12    7.73    1.26
  16 -11 -12   12.72    1.01
  15 -11 -12   10.51    0.69
  14 -11 -12   52.03    2.42
  13 -11 -12    7.05    0.83
  12 -11 -12    6.25    0.87
  11 -11 -12   17.52    2.35
  10 -11 -12   65.80    2.10
   9 -11 -12    0.98    1.16
   8 -11 -12    0.33    1.12
   7 -11 -12   47.87    2.17
   6 -11 -12   28.69    1.34
   5 -11 -12    0.47    0.98
   4 -11 -12    2.02    0.79
   3 -11 -12   96.04    4.55
   2 -11 -12   25.29    1.26
   1 -11 -12    3.58    0.83
   0 -11 -12    6.29    0.98
  -1 -11 -12    7.44    0.83
  -2 -11 -12   32.23    1.66
  -3 -11 -12    3.40    0.83
  -4 -11 -12    2.85    0.69
  -5 -11 -12   66.81    4.55
  -6 -11 -12   56.51    1.91
  -7 -11 -12    5.20    0.90
  -8 -11 -12   12.72    1.12
  -9 -11 -12  201.25    5.64
 -10 -11 -12   16.95    1.34
 -11 -11 -12    0.94    0.87
 -12 -11 -12   29.52    2.85
 -13 -11 -12   57.09    2.60
 -14 -11 -12    0.11    0.65
 -15 -11 -12    2.17    0.79
 -16 -11 -12   10.55    0.79
 -17 -11 -12    3.79    0.98
 -18 -11 -12   31.80    1.48
 -19 -11 -12    3.94    1.84
  26 -11 -11    4.52    2.28
  25 -11 -11   -0.36    1.08
  24 -11 -11    1.81    1.19
  23 -11 -11    2.38    0.87
  22 -11 -11    1.34    0.76
  21 -11 -11   -0.51    0.76
  20 -11 -11   19.11    1.34
  19 -11 -11    1.34    0.72
  18 -11 -11    3.69    0.79
  17 -11 -11    1.84    0.72
  16 -11 -11   59.11    2.06
  15 -11 -11   -0.98    0.79
  14 -11 -11    9.97    1.01
  13 -11 -11   -0.07    0.90
  12 -11 -11  132.60    4.91
  11 -11 -11    0.22    0.87
  10 -11 -11    1.37    0.83
   9 -11 -11    0.94    1.12
   7 -11 -11   19.55    1.34
   5 -11 -11   18.79    1.16
   4 -11 -11    0.47    0.90
   3 -11 -11   -1.30    1.05
   2 -11 -11   10.23    1.05
   1 -11 -11   52.36    2.06
   0 -11 -11   22.98    1.23
  -1 -11 -11    3.43    0.79
  -2 -11 -11   16.80    1.08
  -3 -11 -11   70.10    4.91
  -4 -11 -11  100.99    3.76
  -5 -11 -11    5.02    0.83
  -6 -11 -11   39.06    2.20
  -7 -11 -11  113.20    5.96
  -8 -11 -11    7.62    0.83
  -9 -11 -11   48.09    2.38
 -10 -11 -11   31.65    1.95
 -11 -11 -11   85.60    2.57
 -12 -11 -11   15.14    1.08
 -13 -11 -11   27.39    1.37
 -14 -11 -11    0.87    0.83
 -15 -11 -11   25.33    1.77
 -16 -11 -11    0.04    0.79
 -17 -11 -11   50.51    1.73
 -18 -11 -11    8.60    1.01
 -19 -11 -11   43.65    2.20
 -20 -11 -11    1.73    1.19
  25 -11 -10   -0.58    1.30
  24 -11 -10    4.52    1.23
  23 -11 -10    5.28    0.76
  22 -11 -10   -1.55    1.19
  21 -11 -10    6.25    1.30
  20 -11 -10    0.00    1.05
  19 -11 -10    2.02    1.12
  18 -11 -10   -0.07    0.76
  17 -11 -10   13.66    1.30
  16 -11 -10    3.29    1.41
  15 -11 -10    3.40    0.65
  14 -11 -10   56.04    2.06
  13 -11 -10    3.69    0.94
  12 -11 -10    2.28    0.83
  11 -11 -10   56.37    4.12
  10 -11 -10   48.31    1.66
   9 -11 -10   32.81    1.55
   8 -11 -10   39.67    2.02
   7 -11 -10    0.25    0.65
   5 -11 -10   12.50    0.83
   4 -11 -10   80.72    3.90
   3 -11 -10   29.19    1.37
   2 -11 -10   32.55    1.70
   1 -11 -10   36.49    2.38
   0 -11 -10    7.08    0.61
  -1 -11 -10   47.87    2.46
  -2 -11 -10    7.01    0.98
  -3 -11 -10   22.11    1.26
  -4 -11 -10   35.55    2.60
  -5 -11 -10   15.68    1.26
  -6 -11 -10    6.25    1.01
  -7 -11 -10    4.84    0.79
  -8 -11 -10   21.86    2.28
  -9 -11 -10    6.14    0.79
 -10 -11 -10    5.93    1.99
 -11 -11 -10  205.08    7.41
 -12 -11 -10   14.53    2.10
 -13 -11 -10    6.65    0.69
 -14 -11 -10    5.20    1.05
 -15 -11 -10    8.89    1.41
 -16 -11 -10    5.06    1.26
 -17 -11 -10    0.51    0.61
 -18 -11 -10    1.23    0.87
 -19 -11 -10    3.83    1.23
 -20 -11 -10    0.07    1.05
 -21 -11 -10   16.48    1.45
 -22 -11 -10    0.51    1.84
  27 -11  -9    7.15    1.12
  26 -11  -9    4.62    0.98
  25 -11  -9   -1.16    1.12
  24 -11  -9    1.19    0.90
  23 -11  -9    0.72    0.79
  22 -11  -9    0.04    1.01
  21 -11  -9    1.84    1.37
  20 -11  -9   44.95    2.17
  19 -11  -9    0.07    0.72
  18 -11  -9    3.50    0.65
  17 -11  -9    0.54    0.83
  16 -11  -9   22.47    1.05
  15 -11  -9    6.07    0.83
  14 -11  -9   15.93    1.01
  13 -11  -9   34.22    1.88
  11 -11  -9    0.36    0.79
  10 -11  -9   69.37    2.57
   9 -11  -9    9.29    0.79
   8 -11  -9  143.48    3.54
   7 -11  -9   -1.52    1.16
   6 -11  -9  172.82    4.05
   5 -11  -9   71.69    2.64
   4 -11  -9  168.88    8.45
   3 -11  -9   61.71    2.35
   2 -11  -9  187.49    6.58
   1 -11  -9   23.31    1.26
   0 -11  -9   41.23    1.70
  -1 -11  -9    3.72    1.30
  -2 -11  -9   23.34    1.48
  -3 -11  -9   30.93    1.37
  -4 -11  -9    1.48    0.90
  -5 -11  -9   73.93    2.93
  -6 -11  -9   62.44    2.17
  -7 -11  -9  104.28    4.01
  -8 -11  -9    3.07    0.83
  -9 -11  -9  253.54   10.26
 -10 -11  -9  112.15    3.54
 -11 -11  -9  124.00    5.46
 -12 -11  -9    4.37    0.76
 -13 -11  -9   91.78    3.29
 -14 -11  -9    3.14    0.61
 -15 -11  -9   82.06    5.93
 -16 -11  -9    9.39    1.16
 -17 -11  -9  183.51    7.08
 -18 -11  -9    6.25    1.16
 -19 -11  -9   15.83    1.45
 -20 -11  -9    1.84    0.90
 -21 -11  -9   29.16    1.45
 -22 -11  -9   -1.41    0.94
  28 -11  -8    1.05    1.59
  26 -11  -8    2.17    1.41
  25 -11  -8    1.91    0.69
  24 -11  -8    6.07    1.34
  23 -11  -8   -2.93    1.41
  22 -11  -8    0.83    0.79
  21 -11  -8    6.07    0.83
  20 -11  -8    6.47    0.72
  19 -11  -8   23.56    1.73
  18 -11  -8    8.35    1.84
  17 -11  -8    0.22    1.08
  16 -11  -8    2.57    1.05
  15 -11  -8   55.28    3.29
  14 -11  -8    4.44    0.69
  13 -11  -8   -0.43    0.76
  12 -11  -8   22.22    1.30
  11 -11  -8    0.69    0.65
  10 -11  -8   13.40    0.94
   9 -11  -8    0.76    0.79
   8 -11  -8    3.47    0.69
   7 -11  -8   39.89    1.88
   6 -11  -8   24.71    2.53
   5 -11  -8   22.47    1.52
   4 -11  -8    3.11    0.90
   3 -11  -8    0.29    0.51
   1 -11  -8   -0.07    0.72
   0 -11  -8  110.56    4.34
  -1 -11  -8    9.18    0.90
  -4 -11  -8   37.61    2.10
  -5 -11  -8    1.81    0.61
  -6 -11  -8   32.16    1.19
  -7 -11  -8  230.67    9.54
  -8 -11  -8   36.57    1.41
  -9 -11  -8   16.26    1.99
 -10 -11  -8   27.28    1.34
 -11 -11  -8   28.58    2.89
 -12 -11  -8    0.79    0.83
 -14 -11  -8    1.99    0.76
 -15 -11  -8    4.52    0.76
 -16 -11  -8    6.47    0.72
 -17 -11  -8    3.04    0.69
 -18 -11  -8    1.99    0.90
 -19 -11  -8    7.62    1.26
 -20 -11  -8    0.11    1.30
 -21 -11  -8    0.58    0.76
 -22 -11  -8    0.51    1.01
 -23 -11  -8   26.16    1.99
  27 -11  -7    8.13    1.19
  26 -11  -7    1.95    1.45
  25 -11  -7   16.22    1.59
  24 -11  -7    5.82    0.87
  23 -11  -7    7.70    1.30
  22 -11  -7    8.78    1.16
  19 -11  -7   14.38    1.41
  18 -11  -7   74.54    2.28
  17 -11  -7   25.94    1.91
  16 -11  -7   89.32    3.29
  15 -11  -7   30.06    1.63
  14 -11  -7   54.96    5.53
  13 -11  -7   34.54    1.70
  12 -11  -7   20.81    1.05
  11 -11  -7    0.33    1.37
  10 -11  -7  124.19    5.46
   9 -11  -7   32.88    1.26
   8 -11  -7    1.77    0.58
   7 -11  -7    5.02    0.58
   6 -11  -7  116.38    4.88
   5 -11  -7   88.13    3.04
   4 -11  -7   76.67    2.24
   3 -11  -7  186.15    6.36
   2 -11  -7  578.04   23.77
   1 -11  -7    1.84    0.83
  -1 -11  -7   74.94    2.10
  -2 -11  -7  372.92    8.42
  -3 -11  -7   87.76    2.38
  -4 -11  -7   13.26    1.16
  -5 -11  -7  139.40    3.79
  -6 -11  -7  127.26    4.59
  -7 -11  -7   37.94    3.40
  -8 -11  -7   32.81    1.55
  -9 -11  -7  420.07   11.67
 -10 -11  -7   65.11    3.11
 -11 -11  -7   -0.36    0.98
 -12 -11  -7  136.43    8.27
 -13 -11  -7   95.39    3.47
 -14 -11  -7    2.53    0.72
 -15 -11  -7   32.16    2.17
 -16 -11  -7   53.62    2.46
 -17 -11  -7  194.32    6.47
 -19 -11  -7    1.81    0.72
 -20 -11  -7    7.26    0.72
 -21 -11  -7   96.58    2.64
 -22 -11  -7    2.78    1.19
 -23 -11  -7    5.24    1.45
 -24 -11  -7    3.76    0.94
  28 -11  -6    7.44    1.41
  27 -11  -6    1.37    0.98
  26 -11  -6    1.37    0.72
  25 -11  -6    0.61    0.87
  24 -11  -6   -1.19    0.98
  23 -11  -6    1.66    0.87
  21 -11  -6    3.18    1.23
  20 -11  -6    4.44    1.08
  19 -11  -6    2.89    1.30
  18 -11  -6   26.23    1.55
  17 -11  -6    0.14    0.58
  16 -11  -6    1.19    1.34
  15 -11  -6   18.36    1.01
  14 -11  -6   16.30    0.90
  13 -11  -6    5.96    0.98
  12 -11  -6   58.53    2.67
  11 -11  -6   23.67    1.19
  10 -11  -6    3.43    0.65
   9 -11  -6   23.09    1.70
   7 -11  -6   -0.11    0.54
   6 -11  -6   13.69    1.59
   5 -11  -6   12.61    0.87
   4 -11  -6    5.31    0.61
   3 -11  -6   36.28    1.37
   2 -11  -6   74.40    2.96
   1 -11  -6    5.53    1.01
   0 -11  -6   39.42    1.63
  -1 -11  -6   16.62    1.12
  -2 -11  -6    3.25    0.79
  -3 -11  -6   36.60    1.52
  -4 -11  -6   11.49    0.98
  -6 -11  -6    9.86    1.34
  -7 -11  -6  260.01   11.78
  -8 -11  -6   12.57    1.12
  -9 -11  -6   22.84    1.34
 -10 -11  -6    0.83    0.58
 -11 -11  -6    2.96    0.94
 -12 -11  -6   42.56    2.13
 -13 -11  -6    9.14    2.13
 -14 -11  -6    1.55    0.58
 -15 -11  -6    5.31    1.05
 -16 -11  -6   17.38    1.05
 -17 -11  -6    1.73    1.70
 -18 -11  -6    5.38    1.12
 -19 -11  -6    4.48    0.87
 -20 -11  -6    1.95    0.87
 -21 -11  -6    1.37    0.54
 -22 -11  -6    6.25    0.94
 -23 -11  -6   15.14    0.98
 -24 -11  -6   -0.98    1.16
  27 -11  -5    3.07    0.98
  26 -11  -5   11.31    1.05
  25 -11  -5   13.55    1.01
  24 -11  -5    2.60    1.81
  23 -11  -5    4.77    0.76
  22 -11  -5   27.10    1.84
  21 -11  -5   70.85    2.89
  20 -11  -5    8.31    0.76
  19 -11  -5    8.27    1.34
  18 -11  -5   67.75    2.31
  17 -11  -5   82.60    4.19
  16 -11  -5    6.72    0.87
  15 -11  -5   -0.58    0.61
  14 -11  -5  151.90    4.70
  13 -11  -5   81.44    3.40
  12 -11  -5   24.57    1.26
  11 -11  -5    0.04    0.76
  10 -11  -5  245.48    6.36
   9 -11  -5  302.57   10.55
   8 -11  -5   11.42    0.90
   7 -11  -5   70.42    2.57
   6 -11  -5  109.91    4.77
   5 -11  -5    9.83    1.01
   4 -11  -5    3.43    0.90
   3 -11  -5   16.19    1.45
   2 -11  -5  621.40   11.82
   1 -11  -5  119.60    3.54
   0 -11  -5   43.18    1.45
  -2 -11  -5   37.47    2.42
  -3 -11  -5   93.65    3.22
  -4 -11  -5  353.51   16.84
  -5 -11  -5  225.93    5.78
  -6 -11  -5  188.50    4.59
  -7 -11  -5   19.15    1.23
  -8 -11  -5  480.59   17.38
  -9 -11  -5  125.59    3.29
 -10 -11  -5  166.32    6.47
 -11 -11  -5   91.16    3.61
 -12 -11  -5   67.02    2.20
 -13 -11  -5   10.91    0.94
 -14 -11  -5    4.91    0.69
 -15 -11  -5   38.55    2.49
 -16 -11  -5   10.80    1.12
 -17 -11  -5   23.52    1.52
 -18 -11  -5    9.21    1.55
 -19 -11  -5   44.77    2.20
 -20 -11  -5    0.07    0.79
 -21 -11  -5   27.93    2.53
 -22 -11  -5    6.68    0.87
 -24 -11  -5    2.89    0.76
 -25 -11  -5   11.06    1.30
 -26 -11  -5    0.90    0.94
  28 -11  -4    5.78    1.23
  27 -11  -4    1.52    0.83
  26 -11  -4   -2.42    2.46
  25 -11  -4    2.02    0.69
  24 -11  -4    0.69    0.72
  23 -11  -4    0.58    0.54
  22 -11  -4    7.12    1.41
  21 -11  -4   16.30    1.19
  20 -11  -4   10.80    1.23
  19 -11  -4   17.05    0.94
  18 -11  -4   32.30    1.88
  16 -11  -4   -0.29    0.61
  15 -11  -4   34.43    1.91
  14 -11  -4   37.40    2.24
  13 -11  -4    1.05    0.76
  12 -11  -4   79.31    2.96
  11 -11  -4    4.55    0.94
  10 -11  -4   14.92    1.05
   9 -11  -4  228.97    5.67
   8 -11  -4   29.05    1.73
   7 -11  -4   33.39    1.34
   6 -11  -4   37.97    3.76
   5 -11  -4    8.06    0.69
   4 -11  -4   26.85    1.70
   3 -11  -4  103.48    6.43
   2 -11  -4    7.48    1.63
   1 -11  -4   38.12    1.48
   0 -11  -4  174.01    5.20
  -1 -11  -4    1.48    1.05
  -2 -11  -4   14.20    0.98
  -3 -11  -4  132.60    4.23
  -4 -11  -4   33.39    1.34
  -5 -11  -4    0.87    0.83
  -6 -11  -4    0.47    0.61
  -7 -11  -4  171.08    6.14
  -8 -11  -4    5.31    0.98
  -9 -11  -4   78.95    3.14
 -10 -11  -4   18.72    1.77
 -11 -11  -4    2.06    1.48
 -12 -11  -4   -0.18    0.87
 -14 -11  -4    0.18    0.54
 -16 -11  -4   46.32    1.84
 -17 -11  -4    4.88    0.79
 -18 -11  -4    2.78    0.72
 -19 -11  -4   21.21    1.12
 -20 -11  -4    3.29    1.73
 -21 -11  -4    4.41    0.87
 -22 -11  -4    7.44    0.90
 -23 -11  -4   12.68    1.05
 -25 -11  -4    2.42    0.76
 -26 -11  -4    2.02    1.08
  28 -11  -3    5.02    1.45
  27 -11  -3   -1.37    1.77
  26 -11  -3    3.36    0.61
  25 -11  -3   30.17    1.95
  24 -11  -3    1.45    0.90
  23 -11  -3   12.00    1.19
  22 -11  -3   12.54    1.52
  21 -11  -3   31.80    1.70
  20 -11  -3    0.58    0.87
  19 -11  -3    1.84    0.90
  18 -11  -3   70.60    3.18
  17 -11  -3    5.06    1.26
  16 -11  -3   -0.07    0.54
  15 -11  -3  166.60    6.11
  14 -11  -3   33.93    2.96
  13 -11  -3   -1.05    0.72
  12 -11  -3   41.95    2.82
  11 -11  -3  140.34    4.73
  10 -11  -3    3.61    1.12
   9 -11  -3    4.52    1.12
   8 -11  -3  155.80    6.47
   7 -11  -3    6.54    0.65
   6 -11  -3  448.69   12.03
   5 -11  -3   39.06    1.88
   4 -11  -3   80.79    5.17
   3 -11  -3    1.52    0.79
   2 -11  -3  648.86   14.20
   0 -11  -3  176.72    4.59
  -1 -11  -3   -1.34    0.83
  -2 -11  -3  132.75    3.50
  -3 -11  -3   11.89    0.87
  -4 -11  -3  665.59   14.89
  -5 -11  -3    5.67    0.79
  -6 -11  -3   36.17    1.55
  -7 -11  -3  128.88    4.62
  -9 -11  -3   44.12    1.84
 -10 -11  -3   24.75    1.91
 -11 -11  -3   19.29    1.16
 -12 -11  -3  175.96    6.79
 -13 -11  -3   52.90    1.84
 -14 -11  -3   15.43    1.23
 -15 -11  -3  147.63    4.59
 -16 -11  -3   89.93    4.48
 -17 -11  -3    1.30    0.87
 -18 -11  -3    3.69    1.26
 -19 -11  -3   88.70    4.99
 -20 -11  -3   19.08    1.99
 -21 -11  -3    1.48    0.76
 -22 -11  -3    0.54    0.87
 -23 -11  -3   62.83    2.60
 -25 -11  -3    4.08    0.72
 -26 -11  -3    1.48    1.23
 -27 -11  -3    9.86    1.48
  27 -11  -2   15.97    1.95
  26 -11  -2    2.75    0.90
  25 -11  -2    1.73    0.76
  24 -11  -2    1.12    1.37
  23 -11  -2    9.61    1.12
  22 -11  -2    6.00    0.65
  21 -11  -2   -0.18    0.87
  20 -11  -2   25.80    1.45
  19 -11  -2   13.19    1.08
  18 -11  -2    5.53    0.76
  17 -11  -2   15.97    1.70
  16 -11  -2   47.48    2.02
  15 -11  -2   24.75    1.70
  14 -11  -2   63.23    2.85
  13 -11  -2   75.41    2.67
  12 -11  -2    8.71    1.34
  11 -11  -2   32.48    1.73
  10 -11  -2  158.40    4.84
   9 -11  -2   42.60    2.02
   8 -11  -2    6.87    1.26
   7 -11  -2  146.80    5.28
   6 -11  -2   13.55    0.87
   5 -11  -2    0.65    1.23
   4 -11  -2    7.77    0.87
   3 -11  -2  192.76    6.76
   2 -11  -2  250.97    8.35
   1 -11  -2   -0.72    1.01
   0 -11  -2   67.24    3.36
  -1 -11  -2   14.89    1.45
  -2 -11  -2  106.34    3.36
  -3 -11  -2   11.85    0.94
  -4 -11  -2    6.18    0.87
  -5 -11  -2  186.30    4.91
  -6 -11  -2  228.57   12.90
  -7 -11  -2    4.16    0.72
  -8 -11  -2    8.49    0.69
  -9 -11  -2   12.39    1.05
 -10 -11  -2   20.81    1.55
 -11 -11  -2   27.71    1.88
 -12 -11  -2   45.35    1.84
 -13 -11  -2   25.58    1.84
 -14 -11  -2   11.71    1.30
 -15 -11  -2   15.50    1.19
 -16 -11  -2    1.95    0.83
 -17 -11  -2   35.55    2.06
 -18 -11  -2   43.90    2.57
 -19 -11  -2   24.64    1.41
 -20 -11  -2   -0.18    1.70
 -21 -11  -2   36.82    2.85
 -22 -11  -2    0.07    0.72
 -23 -11  -2    0.47    0.69
 -24 -11  -2    0.94    1.05
 -25 -11  -2    8.64    0.72
 -26 -11  -2   -1.84    1.08
 -27 -11  -2    4.59    1.99
  28 -11  -1    2.49    1.55
  27 -11  -1    1.88    1.08
  26 -11  -1    3.04    0.87
  25 -11  -1   12.25    1.30
  24 -11  -1    2.24    1.34
  23 -11  -1   24.39    1.55
  22 -11  -1    1.88    1.23
  21 -11  -1    5.71    0.65
  20 -11  -1    8.82    1.52
  19 -11  -1   39.64    2.60
  18 -11  -1    5.74    1.26
  17 -11  -1   51.92    2.24
  16 -11  -1   56.76    2.57
  14 -11  -1   57.20    3.11
  13 -11  -1    7.15    1.41
  12 -11  -1   24.53    1.37
  11 -11  -1   31.18    1.63
  10 -11  -1   12.03    1.55
   9 -11  -1  157.25    8.92
   8 -11  -1   60.74    2.53
   7 -11  -1   75.95    2.64
   6 -11  -1   12.14    0.90
   5 -11  -1   80.94    2.53
   4 -11  -1  114.61    5.85
   3 -11  -1    1.12    0.83
   2 -11  -1  215.13    6.29
   1 -11  -1   28.00    2.85
   0 -11  -1  184.06    4.88
  -1 -11  -1    1.48    0.98
  -2 -11  -1    0.22    0.98
  -3 -11  -1   59.36    2.67
  -4 -11  -1  515.78   10.51
  -5 -11  -1   47.01    3.69
  -6 -11  -1   36.06    1.95
  -7 -11  -1    0.07    0.83
  -8 -11  -1  324.18   10.04
  -9 -11  -1  183.51    5.53
 -10 -11  -1    0.04    0.90
 -11 -11  -1  176.76    8.78
 -12 -11  -1   13.12    0.94
 -13 -11  -1    0.51    0.69
 -14 -11  -1   10.33    1.01
 -15 -11  -1  128.95    3.69
 -16 -11  -1    1.95    1.55
 -17 -11  -1   19.29    1.77
 -18 -11  -1   10.73    1.16
 -19 -11  -1   70.85    2.75
 -20 -11  -1   20.63    1.45
 -22 -11  -1    1.81    1.26
 -23 -11  -1   56.91    2.38
 -24 -11  -1   10.51    1.01
 -25 -11  -1    4.59    0.98
 -26 -11  -1    2.35    0.98
 -27 -11  -1    7.12    0.98
  28 -11   0    3.50    1.26
  27 -11   0    3.76    1.08
  26 -11   0    8.89    1.26
  25 -11   0    7.08    1.37
  24 -11   0    1.26    1.45
  23 -11   0    7.44    1.70
  22 -11   0    8.96    0.98
  21 -11   0   87.37    3.50
  20 -11   0    1.41    1.01
  19 -11   0   12.43    1.48
  18 -11   0   42.31    2.82
  17 -11   0    4.19    1.99
  16 -11   0   41.70    1.91
  15 -11   0   40.36    2.75
  14 -11   0  102.98    4.23
  13 -11   0   18.75    1.34
  12 -11   0   10.44    1.23
  11 -11   0   92.39    3.72
  10 -11   0   86.10    3.76
   9 -11   0    0.61    0.79
   8 -11   0   62.91    4.19
   7 -11   0   -0.07    1.12
   6 -11   0   29.63    2.02
   5 -11   0  274.10   14.96
   4 -11   0   43.03    1.70
   3 -11   0   21.39    1.23
   2 -11   0  384.12   11.53
   1 -11   0  370.75    8.71
   0 -11   0   -2.24    1.01
  -1 -11   0  349.58   10.62
  -2 -11   0  373.68   16.58
  -3 -11   0   19.29    1.34
  -4 -11   0   44.77    1.55
  -5 -11   0  276.05    7.70
  -8 -11   0   69.99    2.78
  -9 -11   0    1.23    0.65
 -10 -11   0   75.34    3.07
 -11 -11   0   87.95    3.47
 -12 -11   0    9.43    1.16
 -13 -11   0   15.72    1.12
 -14 -11   0  106.08    3.07
 -15 -11   0   40.14    3.25
 -16 -11   0   41.52    1.73
 -17 -11   0    6.94    0.94
 -18 -11   0   41.44    2.78
 -19 -11   0   14.89    1.81
 -20 -11   0    0.33    0.69
 -21 -11   0   84.15    3.22
 -22 -11   0    7.01    0.79
 -23 -11   0   10.44    1.41
 -24 -11   0    0.25    0.61
 -25 -11   0    7.48    1.16
 -26 -11   0    4.44    0.76
  27 -11   1    6.18    0.87
  26 -11   1    0.65    1.30
  25 -11   1    4.70    2.13
  24 -11   1   10.51    1.23
  23 -11   1   53.80    2.78
  22 -11   1   -0.33    0.83
  21 -11   1   19.69    1.23
  20 -11   1   21.14    1.70
  19 -11   1   72.91    3.04
  18 -11   1   12.83    1.19
  17 -11   1   19.80    1.66
  16 -11   1    1.77    0.76
  15 -11   1  147.13    5.42
  14 -11   1   10.37    1.34
  13 -11   1   -0.83    0.87
  12 -11   1   12.90    1.52
  11 -11   1  188.90    6.87
  10 -11   1    0.00    0.65
   9 -11   1  211.95   13.19
   8 -11   1  270.01    9.57
   7 -11   1   -0.79    1.05
   6 -11   1   39.35    1.99
   5 -11   1   43.39    3.97
   4 -11   1  489.70   13.19
   3 -11   1   57.81    2.78
   1 -11   1    1.05    1.05
   0 -11   1  181.45    6.87
  -1 -11   1   33.10    2.71
  -2 -11   1  196.27    5.56
  -3 -11   1    1.12    0.83
  -4 -11   1  116.53    3.29
  -5 -11   1   77.68    2.75
  -6 -11   1   12.50    0.98
  -7 -11   1   71.32    2.17
  -8 -11   1   53.37    2.17
  -9 -11   1  184.27    6.47
 -10 -11   1   13.55    1.26
 -11 -11   1   36.49    1.52
 -12 -11   1   23.02    1.77
 -13 -11   1    6.68    0.61
 -14 -11   1   51.20    2.85
 -15 -11   1   12.79    1.41
 -16 -11   1   51.20    1.84
 -17 -11   1   49.72    2.82
 -18 -11   1    3.76    0.54
 -19 -11   1   35.99    1.77
 -20 -11   1    8.24    0.87
 -21 -11   1    6.00    1.34
 -22 -11   1    0.43    0.79
 -23 -11   1   24.89    3.36
 -24 -11   1    0.11    1.08
 -25 -11   1   10.15    1.66
 -26 -11   1    4.84    1.30
 -27 -11   1    0.04    0.69
 -28 -11   1    0.18    0.90
  27 -11   2    5.49    1.34
  26 -11   2    0.47    0.94
  25 -11   2   11.71    2.10
  24 -11   2    1.34    1.01
  23 -11   2    0.90    1.34
  22 -11   2    0.33    0.87
  21 -11   2   38.63    2.13
  20 -11   2    1.52    1.19
  19 -11   2   26.70    1.73
  18 -11   2   42.82    1.99
  17 -11   2   36.06    2.28
  16 -11   2    3.36    0.98
  14 -11   2    9.11    1.30
  13 -11   2   20.34    1.37
  12 -11   2   64.06    3.29
  11 -11   2   31.07    1.73
  10 -11   2   20.27    1.48
   9 -11   2    9.00    0.79
   8 -11   2   13.19    1.08
   7 -11   2    2.17    0.72
   6 -11   2  226.26    6.90
   5 -11   2  194.06    5.82
   4 -11   2    7.05    0.90
   3 -11   2   12.83    0.98
   0 -11   2   76.31    3.11
  -1 -11   2    1.34    0.90
  -2 -11   2  251.91    5.60
  -3 -11   2  173.69    3.90
  -4 -11   2    7.37    0.79
  -5 -11   2    2.31    0.79
  -6 -11   2   11.63    0.76
  -7 -11   2  128.77    3.50
  -8 -11   2    9.03    0.98
  -9 -11   2   41.95    1.77
 -10 -11   2  160.06    5.82
 -11 -11   2   32.59    2.60
 -12 -11   2    8.35    1.26
 -13 -11   2   69.66    2.57
 -14 -11   2   65.22    3.18
 -15 -11   2   24.17    1.84
 -16 -11   2   35.45    1.99
 -17 -11   2   16.04    1.66
 -18 -11   2    3.29    0.69
 -19 -11   2   12.54    1.63
 -20 -11   2   28.58    1.88
 -21 -11   2    0.40    0.61
 -22 -11   2    3.65    1.16
 -23 -11   2    9.14    1.30
 -24 -11   2    2.35    0.87
 -25 -11   2    2.13    0.90
 -26 -11   2    2.64    1.30
 -27 -11   2   12.25    0.94
 -28 -11   2   -1.45    1.30
  26 -11   3   -0.94    1.48
  25 -11   3    2.89    1.19
  24 -11   3   11.53    1.30
  23 -11   3   70.46    3.36
  22 -11   3   -0.83    1.45
  21 -11   3    1.91    1.12
  20 -11   3   19.33    1.41
  19 -11   3   92.21    4.23
  18 -11   3    1.12    1.30
  17 -11   3   -5.13    2.20
  16 -11   3   79.09    2.96
  15 -11   3  136.87    4.48
  14 -11   3   19.04    1.45
  13 -11   3   51.31    2.49
  12 -11   3  201.15    5.67
  11 -11   3   16.22    2.35
  10 -11   3   25.40    1.48
   9 -11   3   46.97    2.02
   8 -11   3   87.40    6.14
   7 -11   3  124.66    3.32
   6 -11   3   35.73    1.91
   5 -11   3    5.53    1.34
   4 -11   3  627.14   14.60
   3 -11   3   10.62    0.90
   2 -11   3  139.04    4.23
   1 -11   3   -0.36    0.69
   0 -11   3  193.81    5.74
  -1 -11   3    3.65    1.01
  -2 -11   3  635.56   18.25
  -3 -11   3    0.90    0.72
  -4 -11   3   75.44    2.96
  -5 -11   3   46.28    2.20
  -6 -11   3  444.53   11.74
  -7 -11   3    4.16    0.72
  -8 -11   3  161.33    6.94
  -9 -11   3    6.32    1.12
 -10 -11   3    5.82    1.37
 -11 -11   3  145.11    4.08
 -12 -11   3   39.35    1.70
 -13 -11   3    0.00    0.98
 -14 -11   3   31.15    2.67
 -15 -11   3  158.44    4.30
 -16 -11   3    0.47    0.87
 -17 -11   3    4.77    0.83
 -21 -11   3   26.05    1.99
 -22 -11   3    9.72    1.37
 -23 -11   3   10.33    1.12
 -24 -11   3    0.43    1.19
 -26 -11   3    3.11    0.87
 -27 -11   3   -0.36    1.84
 -28 -11   3    2.38    1.59
  26 -11   4    2.38    1.08
  25 -11   4    4.30    1.05
  24 -11   4    1.37    1.08
  23 -11   4    9.72    1.16
  22 -11   4    8.38    1.05
  21 -11   4    3.36    1.26
  20 -11   4    5.53    0.79
  19 -11   4   23.88    1.70
  18 -11   4    1.99    0.76
  17 -11   4    6.40    0.98
  16 -11   4   31.40    3.61
  15 -11   4   52.50    2.28
  14 -11   4    2.96    1.16
  13 -11   4   18.07    1.12
  12 -11   4    2.20    0.79
  11 -11   4    1.48    1.19
  10 -11   4   17.38    2.53
   9 -11   4   81.15    3.04
   8 -11   4    6.58    0.83
   7 -11   4  177.55    5.82
   6 -11   4    0.36    1.77
   5 -11   4    0.04    1.73
   4 -11   4   31.47    1.34
   3 -11   4  146.59    9.61
   1 -11   4    4.37    0.76
   0 -11   4  180.52    4.88
  -1 -11   4   37.83    2.24
  -2 -11   4    5.02    0.83
  -3 -11   4   86.07    2.78
  -4 -11   4   31.76    1.70
  -5 -11   4    6.72    0.87
  -6 -11   4   34.07    2.02
  -9 -11   4  227.88    5.38
 -10 -11   4   15.68    1.34
 -11 -11   4    4.95    0.87
 -12 -11   4   84.04    2.67
 -13 -11   4    1.77    0.76
 -14 -11   4   34.87    1.81
 -15 -11   4   28.91    2.93
 -17 -11   4   23.31    1.26
 -18 -11   4   24.57    1.95
 -19 -11   4   13.84    1.48
 -20 -11   4    8.78    1.34
 -21 -11   4   13.84    1.37
 -23 -11   4    0.00    1.91
 -24 -11   4    0.36    0.94
 -25 -11   4    1.26    0.58
 -26 -11   4    2.10    1.05
 -27 -11   4    0.22    0.76
  26 -11   5    2.78    2.02
  25 -11   5    8.45    1.70
  24 -11   5    1.63    0.79
  22 -11   5    5.74    1.70
  21 -11   5   19.37    1.55
  20 -11   5    0.69    1.01
  19 -11   5   37.00    2.06
  18 -11   5   11.53    2.35
  17 -11   5   18.10    1.23
  16 -11   5    8.06    1.81
  14 -11   5    4.62    0.90
  13 -11   5    9.47    0.98
  12 -11   5   68.94    2.78
  11 -11   5  103.08    4.77
  10 -11   5  154.39    6.18
   9 -11   5  124.47    4.34
   8 -11   5  490.09   29.99
   7 -11   5   17.16    1.30
   6 -11   5  200.10    6.50
   5 -11   5  244.22    7.37
   4 -11   5  376.39    9.36
   3 -11   5  111.36    3.40
   2 -11   5   34.94    1.73
   1 -11   5  140.77    5.93
   0 -11   5   53.11    2.02
  -1 -11   5  120.36    3.97
  -2 -11   5  682.93   20.31
  -3 -11   5   18.97    0.98
  -4 -11   5    5.42    1.66
  -5 -11   5    8.71    1.16
  -6 -11   5  132.35    3.43
  -7 -11   5   72.19    2.31
  -8 -11   5   12.94    0.87
  -9 -11   5  297.55    8.13
 -10 -11   5  272.65   10.44
 -11 -11   5   -1.34    0.98
 -12 -11   5   21.21    1.26
 -14 -11   5  117.93    7.55
 -15 -11   5   -0.07    0.79
 -16 -11   5    4.81    0.79
 -17 -11   5   60.59    2.78
 -18 -11   5   51.38    1.95
 -19 -11   5    3.58    1.19
 -20 -11   5    7.62    1.99
 -21 -11   5   57.92    2.42
 -22 -11   5   18.97    1.59
 -23 -11   5    3.83    0.83
 -24 -11   5    2.64    0.98
 -25 -11   5   10.04    1.12
 -26 -11   5   10.80    1.16
 -27 -11   5    2.17    0.90
  25 -11   6    2.57    1.52
  24 -11   6    0.47    0.90
  23 -11   6    6.47    2.24
  21 -11   6    1.48    0.94
  20 -11   6    3.61    0.90
  19 -11   6    4.05    1.63
  18 -11   6    2.78    1.08
  17 -11   6    0.51    1.26
  16 -11   6   11.49    1.19
  15 -11   6    3.29    1.08
  14 -11   6   -0.04    1.12
  13 -11   6    5.71    0.94
  12 -11   6   36.96    1.59
  11 -11   6    4.16    0.79
  10 -11   6   -1.05    0.90
   9 -11   6   24.79    1.66
   8 -11   6   13.59    1.30
   7 -11   6  236.12    9.86
   6 -11   6   11.78    1.23
   5 -11   6  135.31    8.74
   4 -11   6   16.58    1.63
   3 -11   6   49.61    2.06
   2 -11   6    4.48    0.65
   1 -11   6   20.96    1.41
   0 -11   6   39.75    2.31
  -1 -11   6    5.35    0.79
  -2 -11   6   75.26    5.09
  -3 -11   6   40.79    1.63
  -4 -11   6    5.38    0.76
  -5 -11   6   13.62    1.08
  -6 -11   6   17.74    1.23
  -7 -11   6    0.83    0.58
  -8 -11   6    5.09    0.65
  -9 -11   6   27.17    1.30
 -10 -11   6    2.71    0.69
 -12 -11   6   58.97    2.06
 -13 -11   6    4.77    1.05
 -14 -11   6   14.53    1.70
 -15 -11   6   19.58    1.48
 -16 -11   6    0.25    1.01
 -17 -11   6   -0.58    1.73
 -18 -11   6   21.64    1.73
 -20 -11   6    4.81    0.76
 -21 -11   6    1.19    0.79
 -22 -11   6    1.08    0.79
 -23 -11   6    2.02    1.19
 -24 -11   6    0.69    0.94
 -25 -11   6    2.89    1.08
 -26 -11   6    0.04    0.90
 -27 -11   6    0.14    1.23
  24 -11   7    1.91    1.23
  23 -11   7    5.28    1.08
  22 -11   7    2.57    2.13
  21 -11   7   78.01    2.64
  20 -11   7    5.31    1.08
  19 -11   7   -0.69    0.94
  18 -11   7    5.31    1.23
  17 -11   7  161.33    5.35
  16 -11   7   34.11    2.82
  15 -11   7   25.11    1.26
  14 -11   7    2.71    1.45
  13 -11   7   79.02    3.22
  12 -11   7  119.31    4.30
  11 -11   7   -0.43    0.79
  10 -11   7   54.78    3.04
   9 -11   7  468.02   14.42
   8 -11   7   39.56    3.50
   7 -11   7   38.59    1.88
   6 -11   7  125.16    4.48
   5 -11   7  166.39    6.83
   4 -11   7   14.16    1.34
   3 -11   7  100.81    3.54
   2 -11   7  444.53   14.67
   1 -11   7   82.20    4.12
   0 -11   7   52.46    1.95
  -1 -11   7    1.41    1.08
  -2 -11   7  526.01   13.01
  -3 -11   7  210.76    5.42
  -5 -11   7  106.08    3.18
  -6 -11   7  132.93    5.20
  -7 -11   7    7.23    1.30
  -8 -11   7    3.04    1.52
  -9 -11   7   38.41    2.10
 -10 -11   7  113.13    4.37
 -11 -11   7    1.45    0.69
 -13 -11   7   30.39    1.52
 -14 -11   7   42.13    1.66
 -15 -11   7   24.86    1.99
 -16 -11   7   73.20    2.78
 -17 -11   7   21.25    1.30
 -19 -11   7   11.85    1.55
 -20 -11   7   28.54    3.18
 -21 -11   7    5.06    1.01
 -22 -11   7    5.89    1.26
 -24 -11   7    6.72    1.48
 -25 -11   7   13.22    1.16
 -26 -11   7   -0.47    1.48
 -27 -11   7    1.30    1.52
  23 -11   8   23.52    1.99
  22 -11   8   -0.04    1.48
  21 -11   8    0.14    1.59
  20 -11   8    0.04    0.90
  19 -11   8    6.21    1.55
  18 -11   8    1.23    0.94
  17 -11   8    4.12    1.01
  16 -11   8    2.06    1.41
  15 -11   8    7.05    1.30
  14 -11   8    0.79    1.12
  13 -11   8    6.97    1.23
  12 -11   8   -0.43    1.16
  11 -11   8   21.03    1.88
  10 -11   8   24.86    1.48
   9 -11   8   17.20    1.63
   8 -11   8   28.29    1.70
   6 -11   8   26.99    4.05
   5 -11   8   -0.51    1.45
   4 -11   8   46.97    1.99
   3 -11   8   41.52    1.77
   2 -11   8  146.59   10.80
   1 -11   8   11.60    1.12
   0 -11   8  117.28    2.96
  -1 -11   8    0.43    0.69
  -2 -11   8    5.13    0.79
  -3 -11   8    1.81    1.37
  -4 -11   8    1.81    1.55
  -5 -11   8   23.88    1.73
  -6 -11   8   27.60    1.66
  -7 -11   8   39.13    3.00
  -8 -11   8    2.49    0.94
  -9 -11   8    0.65    1.01
 -10 -11   8   12.75    2.10
 -11 -11   8    1.45    0.79
 -13 -11   8    1.23    0.61
 -14 -11   8    3.25    0.87
 -15 -11   8   52.90    2.46
 -16 -11   8    2.13    0.69
 -17 -11   8   -0.47    0.72
 -18 -11   8    7.59    1.26
 -19 -11   8   14.81    1.01
 -20 -11   8    3.61    1.59
 -21 -11   8    4.59    1.52
 -22 -11   8    0.18    0.83
 -23 -11   8    0.40    1.05
 -24 -11   8    2.78    0.83
 -26 -11   8    2.20    1.26
 -27 -11   8    0.72    1.30
  22 -11   9    0.58    1.05
  21 -11   9   24.06    1.70
  20 -11   9    1.08    1.41
  19 -11   9   14.16    1.70
  18 -11   9    3.25    1.70
  17 -11   9  126.10    5.49
  16 -11   9    6.83    1.16
  15 -11   9   68.43    4.16
  14 -11   9    1.73    1.19
  13 -11   9   69.08    2.71
  12 -11   9    5.42    0.98
  11 -11   9  102.87    3.43
  10 -11   9   97.16    3.32
   9 -11   9  221.16    9.36
   8 -11   9    0.00    0.94
   7 -11   9   84.19    7.80
   6 -11   9   58.46    2.67
   5 -11   9   76.85    2.93
   4 -11   9    0.25    0.65
   3 -11   9   36.28    2.17
   2 -11   9   26.77    1.55
   1 -11   9    5.06    1.16
   0 -11   9   46.25    1.59
  -1 -11   9   30.46    1.73
  -2 -11   9  192.84    8.35
  -3 -11   9   65.83    2.64
  -4 -11   9  218.60   10.30
  -7 -11   9   -0.43    0.54
  -8 -11   9  148.36    5.13
  -9 -11   9    9.68    1.05
 -10 -11   9   77.97    3.29
 -11 -11   9    0.29    0.65
 -12 -11   9  109.37    3.83
 -13 -11   9   30.39    1.23
 -14 -11   9   15.57    1.01
 -15 -11   9    4.84    0.87
 -16 -11   9   18.36    2.10
 -17 -11   9    2.42    1.99
 -18 -11   9    3.18    0.94
 -19 -11   9    0.11    0.76
 -21 -11   9   -0.83    0.76
 -22 -11   9   -0.54    1.08
 -23 -11   9    0.79    0.87
 -24 -11   9    2.02    1.12
 -25 -11   9    0.00    0.94
 -26 -11   9    3.76    1.77
 -27 -11   9    2.64    1.48
  22 -11  10    0.33    0.90
  21 -11  10    8.64    1.26
  20 -11  10    0.58    1.55
  19 -11  10    3.69    1.16
  18 -11  10   -0.14    1.08
  17 -11  10    0.54    1.08
  16 -11  10    3.40    0.72
  15 -11  10    7.88    1.34
  14 -11  10    7.26    1.48
  13 -11  10    6.43    1.08
  12 -11  10   14.31    1.37
  11 -11  10  160.46    7.37
  10 -11  10    0.65    0.94
   9 -11  10    4.34    1.05
   8 -11  10   23.41    2.24
   7 -11  10    3.97    1.01
   5 -11  10   10.88    1.70
   4 -11  10   41.52    4.73
   3 -11  10   22.44    2.42
   2 -11  10    9.65    2.38
   1 -11  10   44.04    1.84
   0 -11  10    9.36    2.02
  -1 -11  10   36.28    4.05
  -5 -11  10   11.67    1.63
  -6 -11  10    5.24    1.41
  -7 -11  10   -0.76    0.87
 -10 -11  10   52.75    3.11
 -11 -11  10   45.63    2.89
 -12 -11  10    0.33    1.01
 -13 -11  10    1.66    0.98
 -14 -11  10   47.44    3.07
 -15 -11  10    0.61    0.83
 -16 -11  10   -1.34    0.90
 -17 -11  10    6.94    1.37
 -18 -11  10    1.63    0.79
 -19 -11  10    0.72    1.08
 -20 -11  10    1.30    1.05
 -21 -11  10    4.01    0.87
 -22 -11  10    0.90    0.76
 -23 -11  10    2.13    0.90
 -24 -11  10    3.61    0.94
 -25 -11  10    2.17    1.12
 -26 -11  10    1.34    1.05
 -27 -11  10   -1.12    1.81
  20 -11  11    2.85    1.19
  19 -11  11   33.17    2.38
  18 -11  11    5.31    1.08
  17 -11  11   31.11    2.20
  16 -11  11    2.42    0.90
  15 -11  11   13.33    1.66
  14 -11  11   -0.36    1.73
  13 -11  11   15.68    2.13
  12 -11  11   10.08    1.41
  11 -11  11   65.69    4.48
  10 -11  11   22.15    1.95
   9 -11  11   32.77    3.58
   8 -11  11    5.74    0.76
   7 -11  11   73.35    5.24
   6 -11  11   27.75    1.70
   4 -11  11   99.83    6.47
   2 -11  11   12.21    1.55
   1 -11  11    2.57    1.37
   0 -11  11   22.15    2.60
  -1 -11  11   44.33    2.60
  -4 -11  11    0.76    0.87
  -5 -11  11   18.82    1.01
  -6 -11  11    1.12    1.01
  -7 -11  11   16.08    1.52
  -8 -11  11  142.00    7.77
 -11 -11  11    0.33    0.76
 -14 -11  11    9.47    1.73
 -15 -11  11   -0.98    1.08
 -16 -11  11   41.55    2.49
 -17 -11  11    0.51    1.26
 -18 -11  11    2.67    0.83
 -19 -11  11    0.25    0.90
 -20 -11  11   13.44    1.41
 -21 -11  11   -0.36    0.94
 -22 -11  11    0.69    0.94
 -23 -11  11    0.69    0.79
 -24 -11  11    0.94    1.34
 -26 -11  11    3.18    1.23
  19 -11  12    0.54    1.23
  18 -11  12   20.52    1.99
  17 -11  12    0.29    1.12
  16 -11  12    6.58    1.19
  15 -11  12    2.06    0.94
  14 -11  12    0.04    0.76
  13 -11  12   42.92    3.11
  12 -11  12   13.26    2.28
  11 -11  12    0.61    1.16
  10 -11  12    8.31    1.30
   9 -11  12  132.24    7.55
   6 -11  12   45.85    2.35
   5 -11  12   58.50    3.36
   3 -11  12    2.46    0.83
   1 -11  12    4.34    1.23
  -1 -11  12    3.54    1.01
  -5 -11  12    0.33    1.08
  -7 -11  12   45.45    3.72
  -8 -11  12    1.91    1.05
  -9 -11  12   -0.07    0.69
 -11 -11  12   13.62    1.66
 -12 -11  12    3.54    1.30
 -14 -11  12   44.70    3.22
 -17 -11  12    8.53    1.16
 -18 -11  12    4.23    1.19
 -19 -11  12    4.16    0.98
 -20 -11  12    1.77    1.05
 -21 -11  12   -2.42    1.37
 -22 -11  12    0.00    0.65
 -23 -11  12    2.31    1.26
  18 -11  13   -1.01    1.55
  17 -11  13    5.24    1.16
  16 -11  13    6.43    1.30
  15 -11  13   21.75    1.63
  14 -11  13   11.89    1.66
  13 -11  13    1.34    0.94
  10 -11  13    5.24    1.45
   8 -11  13    1.99    1.48
 -10 -11  13    1.19    1.30
 -11 -11  13    4.77    0.87
 -12 -11  13   18.21    1.26
 -13 -11  13    0.79    1.34
 -14 -11  13    4.52    1.37
 -15 -11  13    4.55    1.23
 -17 -11  13    1.45    0.98
 -18 -11  13    7.66    1.26
 -19 -11  13    1.59    1.05
 -20 -11  13    5.09    2.53
 -21 -11  13    0.04    1.23
 -22 -11  13   -0.07    1.26
 -23 -11  13    4.41    1.34
 -25 -11  13   -1.19    1.66
  17 -11  14    9.68    1.37
  15 -11  14   14.63    1.77
  14 -11  14    1.34    1.12
  12 -11  14   26.63    2.42
  11 -11  14   12.28    1.48
  10 -11  14    6.21    1.77
   9 -11  14   47.30    3.43
 -12 -11  14   36.89    2.53
 -15 -11  14    0.14    0.98
 -16 -11  14    8.85    1.73
 -17 -11  14   -0.76    1.37
 -20 -11  14    0.54    2.20
 -21 -11  14    0.65    1.16
  13 -11  15    0.22    1.37
  12 -11  15    5.20    1.37
 -18 -11  15    4.66    1.66
  11 -12 -19    1.05    1.26
  10 -12 -19   -0.61    1.30
   9 -12 -19    0.29    0.76
   8 -12 -19   -1.12    1.01
   7 -12 -19   14.85    0.94
   6 -12 -19    0.98    0.83
   5 -12 -19   -1.84    1.01
   4 -12 -19    0.07    0.87
   3 -12 -19    8.53    1.01
   2 -12 -19    0.87    1.19
   1 -12 -19    0.22    0.72
   0 -12 -19    1.45    0.83
  -1 -12 -19    5.02    0.90
  15 -12 -18   -4.70    2.06
  14 -12 -18    1.01    1.16
  12 -12 -18   -0.25    0.83
  11 -12 -18    3.90    1.05
  10 -12 -18   12.75    1.91
   9 -12 -18    5.42    0.76
   8 -12 -18    0.18    0.94
   7 -12 -18    4.81    0.87
   6 -12 -18   11.96    1.08
   5 -12 -18    4.05    1.34
   4 -12 -18   -0.87    0.61
   3 -12 -18   29.34    1.59
   2 -12 -18   29.45    1.48
   1 -12 -18   -0.36    0.90
   0 -12 -18    0.72    1.05
  -1 -12 -18   35.52    3.47
  -2 -12 -18    4.01    0.76
  -3 -12 -18    0.72    1.48
  -4 -12 -18    3.40    1.19
  -5 -12 -18   43.11    2.20
  17 -12 -17    3.25    0.98
  15 -12 -17    1.59    1.41
  14 -12 -17    0.04    0.87
  13 -12 -17   -2.06    1.63
  12 -12 -17    3.61    0.65
  11 -12 -17    1.63    0.72
  10 -12 -17    0.22    0.76
   9 -12 -17    4.81    1.12
   8 -12 -17    3.69    1.01
   7 -12 -17    3.79    0.90
   6 -12 -17   -2.02    1.95
   5 -12 -17    7.37    1.01
   4 -12 -17    4.37    0.94
   3 -12 -17    7.44    1.05
   2 -12 -17   11.35    1.63
   1 -12 -17    1.19    1.05
   0 -12 -17    5.20    1.05
  -1 -12 -17    0.04    1.16
  -2 -12 -17    0.79    0.83
  -3 -12 -17    4.59    1.05
  -4 -12 -17    5.60    1.41
  -5 -12 -17    2.02    0.90
  -6 -12 -17    4.62    0.98
  -7 -12 -17   71.40    3.79
  19 -12 -16    1.05    1.16
  18 -12 -16    3.07    0.83
  17 -12 -16    4.01    0.76
  16 -12 -16   10.70    1.19
  15 -12 -16    0.87    1.23
  14 -12 -16   -0.40    0.94
  13 -12 -16   -0.94    0.94
  12 -12 -16    6.68    1.19
  11 -12 -16    1.95    0.79
  10 -12 -16    5.74    1.12
   9 -12 -16   11.20    1.08
   8 -12 -16   12.21    0.94
   7 -12 -16    2.06    0.76
   6 -12 -16   48.63    3.65
   5 -12 -16    2.57    0.90
   4 -12 -16    1.81    0.90
   3 -12 -16    1.34    0.83
   2 -12 -16   51.24    1.84
   1 -12 -16   26.09    1.95
   0 -12 -16   49.83    2.57
  -1 -12 -16   15.32    1.16
  -2 -12 -16   -0.29    0.72
  -3 -12 -16   37.94    2.82
  -4 -12 -16   22.55    1.41
  -5 -12 -16   -0.07    0.79
  -6 -12 -16    0.43    0.79
  -7 -12 -16  104.46    4.34
  -8 -12 -16    2.82    1.23
  -9 -12 -16    5.53    0.98
 -10 -12 -16   26.52    1.70
  18 -12 -15   -0.36    0.83
  17 -12 -15    1.19    0.54
  16 -12 -15    7.84    0.98
  15 -12 -15    2.17    1.08
  14 -12 -15   -0.90    1.05
  13 -12 -15    4.08    1.08
  12 -12 -15    4.37    0.76
  11 -12 -15    7.95    1.01
  10 -12 -15    2.78    0.76
   9 -12 -15    5.20    0.87
   8 -12 -15    3.58    0.69
   7 -12 -15    2.20    1.08
   6 -12 -15    4.01    1.12
   5 -12 -15    4.55    1.41
   4 -12 -15    1.23    0.79
   3 -12 -15    2.28    0.87
   2 -12 -15    3.40    1.16
   1 -12 -15   23.16    1.26
   0 -12 -15    6.61    1.23
  -1 -12 -15   18.46    1.30
  -2 -12 -15    3.14    1.19
  -3 -12 -15   22.55    1.19
  -4 -12 -15    0.58    1.16
  -5 -12 -15    8.09    1.12
  -6 -12 -15    0.25    0.79
  -7 -12 -15    0.58    1.05
  -8 -12 -15    0.83    1.70
  -9 -12 -15   29.34    1.59
 -10 -12 -15   -0.36    0.87
 -11 -12 -15   33.39    2.06
 -12 -12 -15    0.83    1.37
  22 -12 -14    0.79    1.81
  20 -12 -14    5.13    0.90
  19 -12 -14    2.13    1.77
  18 -12 -14   10.15    1.16
  17 -12 -14    2.42    0.58
  16 -12 -14    6.76    0.87
  15 -12 -14    6.32    0.83
  14 -12 -14    2.53    0.72
  13 -12 -14    5.71    1.01
  12 -12 -14    6.90    1.08
  11 -12 -14    1.34    1.16
   9 -12 -14   12.68    1.30
   8 -12 -14    4.48    1.01
   7 -12 -14    0.98    1.01
   6 -12 -14    9.43    0.94
   5 -12 -14    4.73    1.01
   4 -12 -14   36.82    2.24
   3 -12 -14    3.36    1.01
   2 -12 -14    0.76    1.66
   1 -12 -14    3.90    0.72
   0 -12 -14   69.55    3.14
  -1 -12 -14   12.68    0.98
  -2 -12 -14    0.90    0.83
  -3 -12 -14   34.65    1.48
  -4 -12 -14    6.21    0.76
  -5 -12 -14    0.90    0.58
  -6 -12 -14   -0.14    0.98
  -7 -12 -14   39.96    1.95
  -8 -12 -14   13.69    1.05
  -9 -12 -14   36.53    1.77
 -10 -12 -14    3.65    1.16
 -11 -12 -14   14.16    1.01
 -12 -12 -14   10.23    1.12
 -13 -12 -14    0.83    1.81
 -14 -12 -14    6.94    1.23
  22 -12 -13    0.61    1.01
  21 -12 -13    0.00    0.61
  20 -12 -13    3.29    1.05
  19 -12 -13    3.40    0.87
  18 -12 -13    2.13    0.90
  17 -12 -13    1.05    0.87
  16 -12 -13   15.86    1.05
  15 -12 -13    1.91    0.72
  14 -12 -13   10.66    1.08
  13 -12 -13   -0.33    0.54
  12 -12 -13    1.70    0.61
  11 -12 -13    0.07    0.58
  10 -12 -13   54.38    1.88
   9 -12 -13   -0.51    0.61
   8 -12 -13    5.31    0.69
   7 -12 -13    2.78    0.72
   6 -12 -13   45.42    1.70
   5 -12 -13   15.07    0.98
   4 -12 -13    1.81    0.69
   3 -12 -13   11.20    0.83
   2 -12 -13   19.58    1.19
   1 -12 -13   36.06    1.81
   0 -12 -13    1.19    0.83
  -1 -12 -13   -1.41    0.90
  -2 -12 -13    8.13    0.83
  -3 -12 -13   24.39    1.30
  -4 -12 -13    2.78    0.76
  -5 -12 -13   34.11    1.91
  -6 -12 -13    2.82    0.76
  -7 -12 -13    1.26    1.08
  -8 -12 -13    2.42    1.81
  -9 -12 -13   35.16    1.95
 -10 -12 -13    6.76    1.48
 -11 -12 -13    1.63    0.61
 -12 -12 -13    1.66    1.30
 -13 -12 -13   19.84    1.45
 -14 -12 -13    8.78    1.19
 -15 -12 -13   13.37    1.99
 -16 -12 -13    1.12    1.01
  24 -12 -12    0.98    0.87
  23 -12 -12   -0.18    2.06
  22 -12 -12    5.74    0.83
  21 -12 -12    0.18    0.61
  20 -12 -12    4.37    1.37
  19 -12 -12   -1.88    1.34
  18 -12 -12    3.04    0.87
  17 -12 -12    0.33    0.72
  15 -12 -12   -0.43    1.41
  14 -12 -12    2.93    0.87
  13 -12 -12   28.54    2.02
  12 -12 -12   23.56    1.70
  11 -12 -12    0.98    0.65
  10 -12 -12    2.96    0.87
   9 -12 -12    0.72    0.72
   8 -12 -12   22.22    1.37
   7 -12 -12   21.46    1.55
   6 -12 -12   11.31    2.35
   5 -12 -12   44.01    3.36
   4 -12 -12   17.13    1.84
   2 -12 -12    7.84    1.30
   1 -12 -12   50.66    2.85
   0 -12 -12    6.14    0.79
  -1 -12 -12   13.44    2.28
  -2 -12 -12    3.25    0.72
  -3 -12 -12  117.75    3.11
  -4 -12 -12    0.61    0.72
  -5 -12 -12   -0.72    0.79
  -6 -12 -12    1.16    1.05
  -7 -12 -12    5.46    0.94
  -8 -12 -12    1.45    0.76
  -9 -12 -12    0.40    0.98
 -10 -12 -12   15.07    2.13
 -11 -12 -12   17.74    1.16
 -13 -12 -12    2.35    1.52
 -14 -12 -12   -0.22    1.26
 -15 -12 -12   10.73    1.01
 -16 -12 -12    4.37    1.30
 -17 -12 -12    6.72    1.41
  23 -12 -11   -0.79    1.34
  22 -12 -11    0.98    0.98
  21 -12 -11   -1.55    0.87
  20 -12 -11   -0.98    1.12
  19 -12 -11    4.91    1.12
  18 -12 -11   10.01    1.26
  17 -12 -11    0.98    0.79
  16 -12 -11    1.12    0.79
  15 -12 -11   19.58    1.08
  14 -12 -11   31.87    1.55
  13 -12 -11   -0.04    0.69
  12 -12 -11    1.77    0.72
  10 -12 -11   45.20    2.10
   9 -12 -11    8.20    0.76
   8 -12 -11    0.83    0.98
   7 -12 -11    0.94    1.12
   6 -12 -11   67.35    3.76
   5 -12 -11    9.11    0.79
   4 -12 -11   33.71    1.63
   3 -12 -11    6.61    1.01
   2 -12 -11   25.15    1.30
   1 -12 -11    5.64    0.79
   0 -12 -11   19.76    1.77
  -1 -12 -11    6.43    1.63
  -2 -12 -11    7.91    0.94
  -3 -12 -11   35.95    1.59
  -4 -12 -11   12.86    0.87
  -5 -12 -11    5.67    1.12
  -6 -12 -11   -0.40    0.87
  -7 -12 -11    6.03    0.83
  -8 -12 -11    1.05    0.61
  -9 -12 -11   64.46    2.93
 -10 -12 -11    1.70    0.87
 -11 -12 -11    3.83    0.83
 -12 -12 -11   -1.01    1.26
 -13 -12 -11   65.47    3.90
 -14 -12 -11    1.84    0.87
 -15 -12 -11    9.00    1.26
 -16 -12 -11    7.30    1.12
 -17 -12 -11    0.14    0.83
 -18 -12 -11   10.19    2.24
  23 -12 -10    4.73    1.66
  22 -12 -10    2.42    0.83
  21 -12 -10    4.44    0.69
  20 -12 -10   21.25    1.41
  19 -12 -10   -1.23    0.87
  18 -12 -10    1.63    0.51
  17 -12 -10    0.98    0.83
  16 -12 -10    8.13    0.79
  15 -12 -10    0.25    0.54
  13 -12 -10   12.36    1.37
  12 -12 -10   -1.08    0.87
  11 -12 -10   -0.40    1.05
  10 -12 -10    0.11    0.83
   8 -12 -10   42.06    1.26
   7 -12 -10    8.53    1.70
   6 -12 -10   31.51    2.35
   5 -12 -10    0.00    1.05
   4 -12 -10   53.37    2.13
   3 -12 -10    8.53    1.16
   2 -12 -10   21.50    1.34
   1 -12 -10   17.74    1.05
   0 -12 -10   28.69    1.30
  -1 -12 -10   26.41    1.73
  -2 -12 -10    5.38    0.83
  -3 -12 -10  135.49    3.76
  -4 -12 -10   34.98    2.35
  -5 -12 -10   58.32    3.00
  -6 -12 -10    2.17    0.79
  -7 -12 -10   17.89    1.08
  -8 -12 -10   19.55    1.37
  -9 -12 -10    2.02    0.69
 -10 -12 -10    1.37    0.90
 -11 -12 -10   31.11    1.45
 -12 -12 -10    3.04    0.83
 -13 -12 -10    1.08    1.05
 -14 -12 -10    4.88    1.26
 -15 -12 -10   87.37    3.69
 -16 -12 -10   11.74    1.30
 -17 -12 -10   10.19    0.83
 -18 -12 -10    1.73    1.16
 -19 -12 -10    7.70    1.26
 -20 -12 -10    4.41    1.66
  25 -12  -9   -1.12    1.63
  24 -12  -9    1.19    0.98
  23 -12  -9   -0.58    1.19
  22 -12  -9    2.96    1.01
  21 -12  -9    0.25    0.76
  20 -12  -9    1.34    0.76
  19 -12  -9    3.29    0.83
  18 -12  -9   23.56    1.23
  17 -12  -9   -0.65    0.69
  16 -12  -9    1.41    0.72
  15 -12  -9    3.83    0.79
  14 -12  -9   27.75    1.81
  13 -12  -9   -0.65    0.90
  12 -12  -9   27.10    1.63
  11 -12  -9    3.18    1.12
  10 -12  -9   34.25    2.17
   9 -12  -9   20.70    1.16
   7 -12  -9    9.76    0.90
   6 -12  -9   52.21    2.49
   5 -12  -9   19.76    1.19
   4 -12  -9   54.96    1.99
   3 -12  -9    4.66    1.05
   2 -12  -9   20.31    1.91
   1 -12  -9   12.47    0.83
   0 -12  -9   46.07    2.10
  -1 -12  -9   20.60    2.35
  -2 -12  -9   12.83    1.30
  -3 -12  -9   49.93    2.64
  -4 -12  -9   60.99    2.35
  -5 -12  -9    8.13    1.55
  -6 -12  -9   46.07    1.91
  -7 -12  -9    2.85    0.76
  -8 -12  -9    9.57    1.77
  -9 -12  -9  100.88    4.70
 -10 -12  -9   15.75    1.99
 -11 -12  -9   -1.01    0.69
 -12 -12  -9   20.38    1.55
 -13 -12  -9   41.91    2.67
 -14 -12  -9   27.60    1.77
 -15 -12  -9   40.07    2.60
 -16 -12  -9    3.79    0.69
 -17 -12  -9    3.76    0.90
 -18 -12  -9   -0.65    1.23
 -19 -12  -9   24.14    1.23
 -20 -12  -9    6.72    2.10
 -21 -12  -9    1.73    1.05
  26 -12  -8    0.54    1.19
  24 -12  -8    8.17    0.79
  23 -12  -8    4.19    1.05
  22 -12  -8    1.23    1.30
  21 -12  -8    1.91    0.79
  20 -12  -8    4.84    0.90
  19 -12  -8    1.19    1.05
  18 -12  -8   15.43    1.16
  17 -12  -8    3.36    0.98
  16 -12  -8   -1.34    0.98
  15 -12  -8   31.94    1.66
  14 -12  -8   44.73    1.88
  12 -12  -8   72.73    2.53
  11 -12  -8   38.52    1.59
  10 -12  -8    7.84    0.69
   8 -12  -8   59.29    2.20
   7 -12  -8    2.71    0.79
   6 -12  -8  102.61    3.14
   5 -12  -8    0.83    0.61
   4 -12  -8   23.92    1.23
   3 -12  -8   20.99    1.37
   2 -12  -8  166.82    6.03
   1 -12  -8   62.11    3.69
   0 -12  -8    1.88    0.69
  -1 -12  -8   21.25    1.05
  -2 -12  -8   19.15    1.08
  -3 -12  -8   17.52    0.90
  -4 -12  -8   83.83    4.08
  -5 -12  -8   64.64    2.02
  -6 -12  -8   14.63    1.05
  -7 -12  -8    6.21    0.87
  -8 -12  -8  114.36    5.60
  -9 -12  -8   52.82    2.93
 -10 -12  -8   45.38    1.70
 -11 -12  -8   17.27    1.08
 -12 -12  -8    3.87    1.08
 -13 -12  -8   52.79    2.46
 -14 -12  -8    2.89    1.05
 -15 -12  -8   33.42    1.59
 -16 -12  -8    9.39    1.05
 -17 -12  -8  151.36    6.32
 -18 -12  -8    0.07    1.01
 -19 -12  -8    4.44    0.90
 -20 -12  -8    0.47    1.19
 -21 -12  -8   58.53    2.57
 -22 -12  -8    4.08    0.79
  26 -12  -7    3.00    1.30
  25 -12  -7   -0.36    1.12
  24 -12  -7    2.60    1.23
  23 -12  -7   -1.23    0.65
  22 -12  -7    1.08    0.65
  21 -12  -7    0.79    1.01
  18 -12  -7   22.76    3.07
  17 -12  -7   18.46    1.23
  16 -12  -7   13.01    0.79
  15 -12  -7    2.75    0.87
  14 -12  -7   12.90    0.98
  13 -12  -7   -0.47    0.72
  12 -12  -7    9.50    1.59
  11 -12  -7    1.23    0.76
  10 -12  -7   20.92    1.48
   9 -12  -7    2.10    1.05
   8 -12  -7   60.05    2.10
   7 -12  -7    4.23    1.16
   6 -12  -7    0.54    0.72
   5 -12  -7   -0.04    1.16
   4 -12  -7  105.40    2.78
   3 -12  -7   23.20    2.17
   2 -12  -7   29.66    1.26
   1 -12  -7   19.48    1.34
   0 -12  -7   47.30    1.77
  -1 -12  -7  254.30    6.87
  -2 -12  -7   25.73    1.66
  -3 -12  -7    5.71    1.59
  -4 -12  -7    2.38    0.58
  -5 -12  -7    3.79    0.58
  -6 -12  -7  101.78    5.09
  -7 -12  -7   62.00    2.06
  -8 -12  -7    0.83    1.23
  -9 -12  -7   17.70    1.48
 -11 -12  -7  140.01    3.50
 -12 -12  -7    3.69    0.76
 -13 -12  -7    0.61    0.76
 -14 -12  -7   91.59    3.00
 -15 -12  -7   20.56    1.59
 -16 -12  -7    2.64    0.94
 -17 -12  -7    4.66    0.94
 -18 -12  -7    3.50    0.79
 -19 -12  -7   23.99    1.52
 -20 -12  -7    9.83    0.69
 -21 -12  -7    3.36    1.37
 -22 -12  -7    0.40    0.83
  26 -12  -6   11.20    1.73
  25 -12  -6    9.97    2.13
  24 -12  -6    6.72    1.30
  23 -12  -6   -0.36    0.61
  22 -12  -6   34.11    1.81
  21 -12  -6   20.56    2.06
  20 -12  -6   12.61    1.12
  19 -12  -6   46.21    2.67
  18 -12  -6   91.88    3.97
  17 -12  -6    0.51    0.69
  16 -12  -6    9.21    1.01
  15 -12  -6   15.32    0.87
  14 -12  -6   11.42    0.94
  13 -12  -6   19.94    2.24
  12 -12  -6    2.28    0.65
  11 -12  -6  119.81    8.24
  10 -12  -6  178.20    7.01
   9 -12  -6   47.12    1.84
   8 -12  -6    4.77    0.94
   7 -12  -6    3.25    0.76
   6 -12  -6  348.49    8.13
   5 -12  -6    1.19    1.12
   4 -12  -6  133.07    4.73
   3 -12  -6  316.41    6.76
   1 -12  -6    0.58    0.79
  -1 -12  -6  249.45    6.36
  -2 -12  -6   99.76    2.85
  -3 -12  -6   11.85    1.52
  -4 -12  -6    3.14    1.30
  -5 -12  -6   50.55    2.49
  -6 -12  -6  156.67    5.60
  -7 -12  -6  101.10    4.55
  -8 -12  -6   10.04    0.90
  -9 -12  -6   88.85    3.72
 -10 -12  -6  114.65    3.65
 -11 -12  -6    9.57    1.88
 -12 -12  -6   11.31    1.52
 -13 -12  -6   45.82    1.91
 -14 -12  -6   15.39    0.94
 -15 -12  -6    3.58    0.90
 -16 -12  -6   11.38    1.23
 -17 -12  -6   83.43    7.19
 -18 -12  -6   16.11    1.63
 -19 -12  -6   46.21    1.70
 -20 -12  -6    4.95    0.98
 -21 -12  -6   10.26    1.19
 -22 -12  -6    8.24    0.98
 -23 -12  -6   12.83    1.91
  26 -12  -5    1.08    1.26
  24 -12  -5   -0.40    0.83
  23 -12  -5    7.05    0.76
  22 -12  -5   36.38    2.06
  20 -12  -5    9.79    1.34
  19 -12  -5    2.02    0.83
  18 -12  -5   13.98    1.23
  17 -12  -5    5.60    0.83
  16 -12  -5    5.60    0.94
  15 -12  -5    1.23    1.12
  14 -12  -5    9.32    1.05
  12 -12  -5    9.25    0.72
  11 -12  -5   14.96    1.41
  10 -12  -5   35.05    1.70
   9 -12  -5   15.14    1.23
   8 -12  -5   10.37    1.34
   7 -12  -5   17.56    1.30
   6 -12  -5    8.35    1.45
   5 -12  -5   27.75    1.88
   4 -12  -5   19.40    0.98
   3 -12  -5    0.29    0.94
   2 -12  -5   14.56    1.59
   0 -12  -5   17.56    1.48
  -1 -12  -5    1.05    1.19
  -2 -12  -5   43.29    1.37
  -3 -12  -5  113.67    3.54
  -4 -12  -5   26.01    2.53
  -6 -12  -5   27.03    1.34
  -7 -12  -5  154.25    6.25
  -8 -12  -5   -0.51    1.05
  -9 -12  -5   88.34    2.53
 -10 -12  -5    2.06    0.69
 -11 -12  -5   66.34    2.89
 -12 -12  -5    0.61    0.83
 -13 -12  -5   21.28    1.30
 -14 -12  -5   32.77    1.59
 -15 -12  -5   23.74    1.66
 -16 -12  -5    1.34    0.72
 -17 -12  -5    6.83    1.59
 -18 -12  -5    2.10    1.16
 -19 -12  -5   11.02    1.08
 -20 -12  -5   14.45    1.23
 -21 -12  -5   10.30    1.48
 -22 -12  -5    0.29    1.37
 -23 -12  -5    2.60    0.79
  27 -12  -4   -2.06    1.55
  25 -12  -4    9.18    0.79
  24 -12  -4    2.49    0.87
  23 -12  -4    7.05    1.08
  22 -12  -4   11.24    0.98
  21 -12  -4   29.41    1.77
  20 -12  -4   25.11    2.13
  19 -12  -4    8.49    1.30
  18 -12  -4   80.47    2.78
  17 -12  -4   23.81    2.02
  16 -12  -4   31.07    1.34
  15 -12  -4    0.33    0.54
  14 -12  -4   81.15    2.67
  13 -12  -4   97.34    3.25
  12 -12  -4    1.30    0.79
  11 -12  -4    1.77    1.12
  10 -12  -4  192.08    5.09
   9 -12  -4   46.97    3.18
   8 -12  -4    1.16    1.16
   7 -12  -4   88.85    3.25
   6 -12  -4    2.75    0.79
   5 -12  -4   46.07    2.17
   4 -12  -4  191.32    5.74
   3 -12  -4    3.50    0.94
   2 -12  -4  150.78    8.09
   1 -12  -4  267.01    5.82
   0 -12  -4  206.42    5.89
  -1 -12  -4   99.33    3.36
  -2 -12  -4   84.37    2.42
  -3 -12  -4   91.52    3.04
  -4 -12  -4  139.65    3.50
  -5 -12  -4   43.21    2.78
  -6 -12  -4  145.00    4.81
  -7 -12  -4  410.68   11.63
  -8 -12  -4  281.40   12.00
  -9 -12  -4   24.71    1.23
 -10 -12  -4   52.50    4.34
 -11 -12  -4   32.88    2.96
 -12 -12  -4   63.85    3.18
 -13 -12  -4   12.83    1.37
 -14 -12  -4   13.40    0.72
 -15 -12  -4  119.45    5.42
 -16 -12  -4   21.14    1.84
 -17 -12  -4    0.87    0.83
 -18 -12  -4    7.15    1.34
 -19 -12  -4   16.26    1.34
 -20 -12  -4   18.64    1.52
 -21 -12  -4    0.72    0.61
 -22 -12  -4   28.94    1.52
 -24 -12  -4    9.11    0.90
  26 -12  -3   -0.43    0.79
  25 -12  -3    1.41    0.87
  24 -12  -3    1.16    1.08
  23 -12  -3    1.88    1.12
  22 -12  -3    0.72    0.76
  21 -12  -3    7.23    1.41
  20 -12  -3    2.10    1.16
  19 -12  -3    4.01    1.23
  18 -12  -3    0.58    0.76
  17 -12  -3   22.62    1.30
  16 -12  -3  100.30    4.62
  15 -12  -3    5.71    1.30
  14 -12  -3   33.42    1.59
  13 -12  -3   90.76    2.75
  12 -12  -3   28.83    1.55
  11 -12  -3   -1.48    0.87
  10 -12  -3   15.14    1.37
   9 -12  -3    6.00    0.72
   8 -12  -3  372.30    8.49
   7 -12  -3   25.83    1.63
   6 -12  -3   -0.58    0.90
   5 -12  -3   13.01    1.05
   4 -12  -3    1.63    0.65
   3 -12  -3   10.41    0.65
   2 -12  -3    0.98    0.76
   1 -12  -3   36.89    1.91
   0 -12  -3   41.30    1.52
  -2 -12  -3    5.35    1.48
  -3 -12  -3    1.70    0.83
  -4 -12  -3   61.64    4.84
  -6 -12  -3    5.60    0.94
  -7 -12  -3    7.30    0.87
  -8 -12  -3   22.91    1.88
  -9 -12  -3   19.29    1.05
 -10 -12  -3   49.83    2.64
 -11 -12  -3   90.76    3.14
 -12 -12  -3    0.72    0.69
 -13 -12  -3    0.36    0.58
 -14 -12  -3   15.43    1.88
 -15 -12  -3    3.40    0.76
 -16 -12  -3    4.70    1.55
 -17 -12  -3   -0.04    1.16
 -18 -12  -3    2.38    1.23
 -19 -12  -3    5.78    1.05
 -20 -12  -3   -1.01    0.58
 -21 -12  -3    3.14    0.69
 -22 -12  -3   15.21    2.46
 -23 -12  -3    1.70    0.90
 -24 -12  -3    1.55    0.98
  26 -12  -2    3.83    0.87
  25 -12  -2    5.96    1.66
  24 -12  -2    3.07    0.90
  23 -12  -2   31.33    1.84
  22 -12  -2    1.16    1.26
  21 -12  -2    2.20    0.87
  20 -12  -2    6.47    1.55
  19 -12  -2    1.23    0.94
  18 -12  -2   17.67    1.08
  17 -12  -2   17.38    1.19
  16 -12  -2   98.53    4.62
  15 -12  -2   18.64    1.26
  14 -12  -2    0.58    1.19
  13 -12  -2    0.25    0.65
  12 -12  -2   29.45    1.26
  11 -12  -2  210.76    6.32
  10 -12  -2    4.26    1.19
   9 -12  -2   29.77    1.55
   8 -12  -2  182.72    6.97
   7 -12  -2    1.63    0.87
   6 -12  -2   12.83    1.30
   4 -12  -2   69.23    3.11
   3 -12  -2   91.34    2.57
   2 -12  -2   31.90    1.23
   1 -12  -2  121.08    3.54
   0 -12  -2   90.29    2.46
  -1 -12  -2    2.28    0.79
  -2 -12  -2    1.41    1.12
  -3 -12  -2   12.28    0.79
  -5 -12  -2  353.95   11.35
  -6 -12  -2    1.19    1.16
  -7 -12  -2   66.88    2.57
  -8 -12  -2  128.74    3.72
  -9 -12  -2    4.70    0.83
 -10 -12  -2   69.66    2.49
 -11 -12  -2   70.28    2.57
 -12 -12  -2  148.29    4.95
 -13 -12  -2   13.80    1.55
 -14 -12  -2    5.82    1.12
 -15 -12  -2   84.26    3.72
 -16 -12  -2   33.35    1.55
 -17 -12  -2   37.97    2.78
 -18 -12  -2    0.29    0.87
 -19 -12  -2   20.13    1.59
 -20 -12  -2   20.16    1.30
 -21 -12  -2    9.39    1.48
 -22 -12  -2    0.33    0.94
 -23 -12  -2    0.98    0.79
 -25 -12  -2    4.84    1.34
  26 -12  -1    0.29    1.34
  25 -12  -1    5.13    1.55
  24 -12  -1   -0.83    1.08
  23 -12  -1    1.12    0.98
  22 -12  -1    4.52    2.02
  21 -12  -1   21.97    1.45
  20 -12  -1   11.20    2.28
  18 -12  -1    1.08    0.72
  17 -12  -1    6.72    0.83
  16 -12  -1   22.08    1.30
  15 -12  -1    2.60    1.88
  14 -12  -1   52.03    4.01
  13 -12  -1   89.53    4.01
  12 -12  -1  218.27    6.61
  11 -12  -1    1.55    0.72
  10 -12  -1   39.09    2.49
   9 -12  -1   22.44    1.88
   8 -12  -1   85.13    3.58
   7 -12  -1   66.70    2.49
   5 -12  -1    0.47    0.79
   4 -12  -1    8.35    1.34
   3 -12  -1    8.06    1.45
   2 -12  -1  214.91    6.25
   1 -12  -1    2.75    0.87
   0 -12  -1  171.73    7.05
  -1 -12  -1    0.18    0.87
  -3 -12  -1   74.07    3.07
  -4 -12  -1    8.78    0.94
  -5 -12  -1   90.55    5.17
  -6 -12  -1   68.87    3.36
  -7 -12  -1   67.31    2.49
  -8 -12  -1   58.21    1.99
  -9 -12  -1    3.18    0.58
 -10 -12  -1   82.49    3.72
 -11 -12  -1   19.87    1.08
 -12 -12  -1    5.38    1.01
 -13 -12  -1   43.03    2.67
 -14 -12  -1   18.90    1.73
 -15 -12  -1    7.37    0.83
 -16 -12  -1   28.15    2.06
 -17 -12  -1   35.37    1.88
 -18 -12  -1    0.33    0.79
 -19 -12  -1    0.87    0.76
 -20 -12  -1    0.65    0.76
 -21 -12  -1    7.30    0.72
 -22 -12  -1   10.51    1.23
 -23 -12  -1    0.36    0.76
 -24 -12  -1   -1.19    1.05
 -25 -12  -1    6.36    1.12
 -26 -12  -1    2.31    1.66
  26 -12   0    4.19    1.73
  25 -12   0    4.23    0.87
  24 -12   0    4.37    0.69
  23 -12   0    3.90    1.19
  22 -12   0    3.18    0.90
  21 -12   0    1.59    0.94
  20 -12   0   34.51    1.77
  19 -12   0    8.85    1.16
  18 -12   0    1.26    0.76
  17 -12   0    4.41    0.87
  16 -12   0    1.26    0.83
  15 -12   0   27.97    1.88
  14 -12   0    1.70    1.37
  13 -12   0    4.23    1.48
  12 -12   0    4.55    0.79
  11 -12   0   90.04    3.11
  10 -12   0    8.27    1.08
   9 -12   0    6.61    0.87
   8 -12   0   97.74    4.05
   7 -12   0    1.37    0.76
   5 -12   0   37.36    2.85
   4 -12   0    2.64    0.72
   3 -12   0   16.69    1.12
   2 -12   0  108.18    3.14
   0 -12   0  187.45    6.87
  -1 -12   0   14.09    1.12
  -3 -12   0   15.72    1.34
  -4 -12   0    2.13    0.87
  -5 -12   0   42.49    3.07
  -6 -12   0    0.51    1.19
  -7 -12   0    0.90    1.01
  -8 -12   0   95.17    3.32
  -9 -12   0    4.81    0.65
 -10 -12   0    9.32    1.41
 -11 -12   0   97.23    4.59
 -12 -12   0    4.66    1.05
 -14 -12   0    5.46    0.79
 -15 -12   0   24.28    1.34
 -16 -12   0    4.05    0.94
 -17 -12   0    2.20    1.05
 -18 -12   0    2.64    1.01
 -19 -12   0    5.93    1.16
 -20 -12   0   38.16    2.42
 -21 -12   0    1.81    0.90
 -22 -12   0    1.37    1.01
 -23 -12   0    3.14    0.69
 -24 -12   0    5.06    1.08
 -26 -12   0    1.99    1.12
  26 -12   1    0.72    1.12
  25 -12   1    6.40    2.17
  24 -12   1   -0.33    0.79
  23 -12   1   -0.33    0.65
  22 -12   1   12.75    2.64
  21 -12   1    6.25    0.87
  20 -12   1   -0.83    1.05
  19 -12   1    1.84    0.79
  18 -12   1   -0.58    1.01
  17 -12   1   30.97    1.45
  16 -12   1   23.99    1.88
  15 -12   1    7.62    1.05
  14 -12   1   16.95    1.23
  13 -12   1   46.25    2.17
  12 -12   1    7.23    0.90
  11 -12   1   18.57    1.16
  10 -12   1   82.71    2.71
   9 -12   1    1.66    0.76
   8 -12   1   55.21    3.14
   7 -12   1   75.52    3.18
   6 -12   1   65.40    2.35
   5 -12   1   98.68    3.94
   4 -12   1   10.80    0.98
   3 -12   1   65.40    3.04
   2 -12   1    5.85    0.83
   1 -12   1    1.01    0.83
   0 -12   1  161.76    6.03
  -1 -12   1    3.32    0.94
  -2 -12   1  199.70    4.34
  -4 -12   1    6.50    0.94
  -5 -12   1    0.69    0.65
  -6 -12   1  105.25    3.47
  -7 -12   1   54.70    2.46
  -8 -12   1   80.25    2.82
  -9 -12   1   29.63    1.48
 -10 -12   1   40.90    1.99
 -11 -12   1    5.38    1.19
 -12 -12   1  197.79    4.99
 -14 -12   1   58.82    3.29
 -15 -12   1    0.47    0.76
 -16 -12   1   20.99    1.45
 -17 -12   1    8.35    1.08
 -18 -12   1    3.58    1.34
 -19 -12   1   15.97    2.13
 -20 -12   1    9.76    1.23
 -21 -12   1   20.31    1.34
 -22 -12   1    5.96    0.94
 -24 -12   1   -0.90    0.94
 -25 -12   1    6.21    1.16
 -26 -12   1    1.23    0.94
  25 -12   2    3.90    0.83
  24 -12   2   14.34    1.59
  23 -12   2   -1.01    1.23
  22 -12   2    0.51    1.34
  21 -12   2   10.41    1.16
  20 -12   2   19.40    1.34
  19 -12   2   19.80    1.37
  18 -12   2   -0.22    0.83
  17 -12   2   44.41    2.46
  16 -12   2   33.78    2.02
  15 -12   2   88.63    3.61
  14 -12   2    5.02    1.12
  13 -12   2   15.32    1.08
  12 -12   2  136.72    4.52
  11 -12   2   58.43    2.60
  10 -12   2   76.89    2.38
   9 -12   2    5.49    0.98
   8 -12   2  125.38    5.09
   7 -12   2   69.88    2.85
   6 -12   2    0.43    0.90
   5 -12   2  346.94   10.48
   4 -12   2  465.49   12.86
   3 -12   2   12.94    1.59
   2 -12   2    2.93    0.87
   1 -12   2    2.28    0.69
   0 -12   2   97.99    2.93
  -2 -12   2   30.89    1.73
  -3 -12   2   95.75    5.93
  -4 -12   2   69.45    2.02
  -5 -12   2   10.44    1.08
  -6 -12   2   13.26    1.26
  -8 -12   2  190.42    4.66
  -9 -12   2   27.10    1.73
 -10 -12   2    1.08    0.98
 -12 -12   2   28.18    1.88
 -13 -12   2    1.34    1.05
 -15 -12   2   12.75    1.16
 -16 -12   2   99.11    5.13
 -17 -12   2   18.75    1.30
 -18 -12   2   18.39    1.23
 -19 -12   2   -0.61    0.98
 -20 -12   2    5.13    1.30
 -21 -12   2    2.17    0.94
 -22 -12   2    0.36    0.72
 -23 -12   2   28.15    3.43
 -24 -12   2    2.85    0.79
 -25 -12   2    2.67    1.26
 -26 -12   2    0.94    1.19
  25 -12   3   -0.11    2.10
  24 -12   3   -0.47    1.05
  23 -12   3    2.64    0.98
  22 -12   3   18.46    1.26
  21 -12   3    5.17    0.87
  20 -12   3   -0.43    1.34
  19 -12   3    7.08    2.57
  18 -12   3    1.70    1.05
  17 -12   3    0.14    1.01
  16 -12   3    3.72    0.87
  15 -12   3    4.01    1.05
  14 -12   3    9.21    1.12
  12 -12   3   -0.04    0.90
  11 -12   3   98.93    3.94
  10 -12   3   44.26    2.20
   9 -12   3   22.29    1.30
   8 -12   3   27.03    1.45
   7 -12   3    8.82    1.01
   6 -12   3    5.60    1.26
   5 -12   3    9.07    1.70
   4 -12   3   55.79    2.28
   3 -12   3    0.51    0.72
   2 -12   3    0.79    0.98
   1 -12   3   25.18    1.73
   0 -12   3   32.59    1.91
  -1 -12   3   36.89    1.48
  -2 -12   3   -0.40    0.65
  -3 -12   3    8.56    0.98
  -4 -12   3    1.23    0.83
  -5 -12   3   11.78    1.66
  -6 -12   3    2.10    0.98
  -8 -12   3  374.04    8.64
 -10 -12   3   12.61    1.91
 -11 -12   3    0.87    1.23
 -12 -12   3   29.52    2.06
 -13 -12   3   82.78    5.17
 -14 -12   3   36.17    1.77
 -15 -12   3    5.13    0.76
 -18 -12   3    1.63    0.90
 -19 -12   3   -0.07    1.55
 -20 -12   3    2.67    1.81
 -21 -12   3    6.50    0.79
 -22 -12   3    1.73    0.69
 -23 -12   3    1.08    0.69
 -24 -12   3   -0.76    0.94
 -25 -12   3    1.55    0.69
 -26 -12   3   -0.33    0.98
 -27 -12   3    7.77    1.55
  24 -12   4    7.44    1.26
  23 -12   4    3.97    0.98
  22 -12   4   29.30    1.81
  21 -12   4   -0.14    0.87
  20 -12   4   12.83    1.91
  19 -12   4   11.53    1.55
  18 -12   4    3.43    0.76
  17 -12   4   -0.25    0.87
  16 -12   4   16.77    1.16
  14 -12   4   10.23    1.12
  13 -12   4    8.49    2.13
  12 -12   4   60.63    3.36
  11 -12   4   31.47    1.52
  10 -12   4   50.73    2.02
   9 -12   4   26.01    1.66
   8 -12   4  243.49   11.02
   7 -12   4  404.28   10.23
   6 -12   4  146.73    6.03
   5 -12   4   45.67    2.17
   4 -12   4  147.13    5.60
   2 -12   4   87.98    3.04
   1 -12   4   91.88    3.76
   0 -12   4  228.43    6.36
  -1 -12   4  271.68    5.93
  -2 -12   4  165.34    4.84
  -3 -12   4    0.36    0.72
  -4 -12   4  183.37    4.59
  -5 -12   4   50.37    2.20
  -6 -12   4    4.08    1.12
  -7 -12   4  100.88    3.87
  -9 -12   4   54.74    1.95
 -11 -12   4    0.07    0.69
 -12 -12   4   -0.25    1.19
 -13 -12   4   87.66    2.82
 -16 -12   4   26.23    2.28
 -17 -12   4   22.00    1.66
 -18 -12   4   72.30    2.89
 -19 -12   4    6.94    0.87
 -20 -12   4   25.11    1.88
 -21 -12   4   29.01    2.13
 -22 -12   4   13.44    1.59
 -23 -12   4    3.18    0.98
 -24 -12   4    1.63    0.65
 -25 -12   4    8.60    1.30
 -26 -12   4    2.10    1.01
 -27 -12   4   -1.34    0.94
  23 -12   5   -0.14    1.23
  22 -12   5    0.29    0.87
  21 -12   5   11.35    1.41
  20 -12   5   11.38    1.66
  19 -12   5    9.72    2.57
  18 -12   5   -0.33    0.72
  17 -12   5    5.56    0.98
  16 -12   5    1.08    1.01
  15 -12   5   15.32    2.53
  14 -12   5   27.06    1.48
  13 -12   5   15.28    1.59
  12 -12   5    0.43    0.98
  11 -12   5   46.50    2.24
  10 -12   5    2.78    0.69
   9 -12   5   84.40    4.19
   8 -12   5    1.16    0.79
   7 -12   5  161.15    4.41
   6 -12   5   25.91    1.16
   5 -12   5    9.83    1.91
   4 -12   5   34.36    1.63
   3 -12   5  119.78    3.40
   2 -12   5   43.07    1.52
   1 -12   5    2.13    0.58
   0 -12   5   13.12    0.94
  -1 -12   5   52.75    2.10
  -2 -12   5   15.86    1.12
  -3 -12   5   -0.61    1.16
  -4 -12   5   21.64    2.02
  -5 -12   5   32.27    2.82
  -6 -12   5   10.37    1.23
  -7 -12   5   16.26    1.23
  -8 -12   5    7.48    0.76
  -9 -12   5   16.66    1.73
 -10 -12   5   28.91    1.34
 -11 -12   5   10.37    1.59
 -12 -12   5    6.58    1.08
 -13 -12   5   16.26    1.12
 -14 -12   5    6.54    0.72
 -15 -12   5    0.33    1.05
 -16 -12   5    3.65    0.76
 -18 -12   5   12.36    1.37
 -19 -12   5    1.52    1.37
 -20 -12   5    5.96    1.19
 -21 -12   5    0.14    0.83
 -22 -12   5   27.89    1.99
 -25 -12   5    4.12    1.05
 -26 -12   5    0.33    1.88
 -27 -12   5   -0.72    1.12
  23 -12   6    9.90    1.99
  22 -12   6    3.14    1.05
  21 -12   6    7.23    1.37
  20 -12   6    4.99    2.13
  19 -12   6   30.97    2.28
  18 -12   6   11.56    1.01
  17 -12   6   70.67    3.65
  16 -12   6    9.07    1.12
  15 -12   6    0.04    1.23
  14 -12   6    9.83    1.41
  13 -12   6   34.76    2.28
  12 -12   6    7.41    1.26
  10 -12   6   99.80    3.04
   9 -12   6   80.21    2.78
   8 -12   6    8.06    1.08
   7 -12   6  111.61    3.87
   6 -12   6  140.81    6.03
   5 -12   6   52.10    2.20
   4 -12   6    2.60    0.76
   3 -12   6   16.69    1.16
   2 -12   6   95.32    2.96
   1 -12   6  267.81    6.58
   0 -12   6   23.74    1.26
  -1 -12   6    2.28    1.08
  -2 -12   6  106.16    4.19
  -3 -12   6  317.96    6.79
  -4 -12   6  151.28    3.72
  -5 -12   6    4.08    0.83
  -6 -12   6  364.32   11.60
  -7 -12   6    3.58    1.01
  -8 -12   6    3.40    0.83
  -9 -12   6   47.77    2.31
 -10 -12   6  160.68    5.02
 -11 -12   6  101.86    2.93
 -12 -12   6    2.78    0.72
 -13 -12   6   17.23    2.31
 -14 -12   6    8.20    0.90
 -15 -12   6   11.96    1.41
 -16 -12   6    9.11    1.37
 -17 -12   6   -0.43    0.76
 -19 -12   6   31.98    1.55
 -20 -12   6    9.90    0.98
 -21 -12   6   17.05    1.26
 -22 -12   6   31.62    2.67
 -24 -12   6    6.58    0.90
 -26 -12   6    9.29    1.73
  22 -12   7   -1.01    1.01
  21 -12   7    0.29    1.01
  20 -12   7    7.33    1.05
  19 -12   7   14.45    1.16
  18 -12   7    2.67    1.08
  17 -12   7    5.24    1.37
  16 -12   7    1.81    2.10
  15 -12   7   12.47    1.23
  14 -12   7   58.32    3.36
  13 -12   7    1.23    0.98
  12 -12   7    2.75    0.69
  11 -12   7  102.65    3.43
  10 -12   7    0.47    0.87
   9 -12   7   15.28    2.53
   8 -12   7    0.94    0.79
   7 -12   7   55.32    2.64
   6 -12   7   91.70    2.78
   5 -12   7    2.89    0.90
   4 -12   7    2.67    0.58
   3 -12   7    8.67    0.90
   2 -12   7   23.23    1.91
   1 -12   7  266.58    9.76
   0 -12   7   45.45    1.84
  -1 -12   7   20.23    1.23
  -2 -12   7   25.65    2.60
  -3 -12   7   27.97    1.59
  -4 -12   7  105.18    3.43
  -5 -12   7    1.30    0.76
  -6 -12   7    0.33    0.58
  -7 -12   7    3.87    0.72
  -8 -12   7   62.62    2.06
  -9 -12   7    0.69    0.54
 -10 -12   7   17.81    2.35
 -11 -12   7    1.19    0.72
 -12 -12   7    5.49    1.19
 -13 -12   7    0.90    0.69
 -14 -12   7    9.21    1.16
 -15 -12   7    3.72    1.91
 -16 -12   7    9.11    1.99
 -17 -12   7   11.56    1.16
 -18 -12   7   15.90    1.41
 -19 -12   7    0.65    0.72
 -20 -12   7    1.08    1.26
 -21 -12   7   -1.52    0.98
 -22 -12   7    1.91    1.16
 -23 -12   7    1.26    1.05
 -24 -12   7    7.44    1.41
 -26 -12   7    3.87    1.12
  21 -12   8   38.41    3.58
  20 -12   8    1.37    1.19
  19 -12   8    1.23    1.05
  18 -12   8    0.94    1.77
  17 -12   8  140.44    7.77
  16 -12   8    7.48    1.16
  15 -12   8   27.64    1.88
  14 -12   8    0.04    0.83
  13 -12   8   39.89    2.06
  12 -12   8    0.58    0.76
  11 -12   8    8.31    1.41
  10 -12   8   38.77    1.84
   9 -12   8   47.55    2.20
   8 -12   8  106.30    3.40
   7 -12   8    5.38    0.90
   6 -12   8   12.36    2.60
   5 -12   8   57.52    5.82
   4 -12   8   62.44    3.18
   3 -12   8   16.58    1.19
   2 -12   8   21.21    1.63
   1 -12   8   23.02    2.35
   0 -12   8    3.87    0.65
  -1 -12   8   76.09    4.77
  -2 -12   8  160.50    4.66
  -3 -12   8   16.91    2.02
  -4 -12   8   18.10    1.95
  -5 -12   8    0.36    0.61
  -6 -12   8  106.70    3.32
  -7 -12   8    5.09    0.72
  -8 -12   8   57.49    2.24
  -9 -12   8    5.49    1.05
 -10 -12   8   10.08    1.08
 -11 -12   8   31.11    1.45
 -12 -12   8   61.53    2.13
 -14 -12   8   36.10    1.45
 -15 -12   8   26.38    1.19
 -16 -12   8    0.00    0.79
 -17 -12   8    0.54    0.76
 -18 -12   8   11.02    1.19
 -19 -12   8   -1.26    1.05
 -20 -12   8    7.80    1.63
 -21 -12   8    0.69    0.87
 -22 -12   8    0.29    0.87
 -23 -12   8    3.04    1.12
 -24 -12   8    3.83    0.90
  21 -12   9   -0.98    1.01
  20 -12   9    3.04    0.90
  19 -12   9   13.30    1.41
  18 -12   9    3.07    0.98
  17 -12   9    3.76    1.05
  16 -12   9    5.35    1.37
  15 -12   9   24.86    1.95
  14 -12   9   19.04    1.16
  13 -12   9   28.40    1.91
  12 -12   9   16.98    1.41
  11 -12   9    0.61    1.08
  10 -12   9   12.65    1.12
   9 -12   9   85.96    3.69
   8 -12   9    6.61    0.83
   7 -12   9    1.91    0.65
   6 -12   9   36.02    1.91
   5 -12   9    8.27    1.34
   4 -12   9   56.51    5.74
   3 -12   9   53.11    2.53
   2 -12   9   10.95    1.73
   1 -12   9   20.60    1.19
   0 -12   9   44.15    4.26
  -1 -12   9   13.12    1.59
  -2 -12   9   15.54    1.41
  -3 -12   9    5.60    1.66
  -4 -12   9   47.66    3.72
  -5 -12   9   18.97    1.37
  -6 -12   9   48.92    1.88
  -7 -12   9    7.01    1.34
  -8 -12   9   37.76    1.84
  -9 -12   9   14.89    1.48
 -10 -12   9   30.31    3.11
 -11 -12   9    1.05    0.72
 -12 -12   9   17.74    1.88
 -13 -12   9   -0.25    1.19
 -14 -12   9   26.85    1.48
 -15 -12   9    5.71    0.79
 -16 -12   9   -1.41    0.98
 -17 -12   9    3.25    1.34
 -18 -12   9   17.23    1.63
 -19 -12   9    1.16    0.79
 -20 -12   9    0.07    0.98
 -21 -12   9   -0.33    1.45
 -22 -12   9    1.08    0.76
 -23 -12   9    0.36    0.94
 -24 -12   9   -0.36    1.05
 -25 -12   9    4.34    1.99
  20 -12  10    4.52    1.19
  19 -12  10    3.04    1.12
  18 -12  10    1.16    0.87
  17 -12  10    5.93    0.90
  16 -12  10    5.20    2.17
  15 -12  10   77.32    3.18
  14 -12  10    3.69    0.72
  13 -12  10    1.12    1.26
  12 -12  10    3.25    1.05
  11 -12  10   23.67    1.19
  10 -12  10    1.70    1.34
   9 -12  10    0.51    0.87
   8 -12  10   15.46    1.12
   7 -12  10   15.83    1.48
   6 -12  10    1.19    0.87
   5 -12  10   40.43    3.25
   4 -12  10   28.98    1.99
   3 -12  10  108.87    8.38
   2 -12  10    3.97    1.63
   1 -12  10   26.12    1.99
   0 -12  10   25.08    2.38
  -3 -12  10    9.97    1.19
  -5 -12  10    1.81    1.19
  -6 -12  10   31.58    3.29
  -7 -12  10    8.35    1.48
  -8 -12  10   36.35    1.73
  -9 -12  10   18.90    1.84
 -10 -12  10    0.43    1.01
 -11 -12  10    0.11    0.90
 -12 -12  10    1.37    0.65
 -13 -12  10   10.66    0.98
 -14 -12  10    4.62    1.37
 -15 -12  10    0.83    0.58
 -16 -12  10    4.84    0.90
 -17 -12  10    0.61    1.08
 -19 -12  10    0.00    0.79
 -20 -12  10   17.78    1.01
 -21 -12  10    1.45    1.66
  18 -12  11    9.68    1.26
  17 -12  11    0.79    1.08
  16 -12  11    7.52    1.08
  15 -12  11    7.26    1.34
  14 -12  11    1.48    0.87
  13 -12  11   49.61    2.78
  12 -12  11    2.78    1.34
  11 -12  11    4.59    2.10
  10 -12  11    0.94    0.98
   8 -12  11    1.30    0.94
   7 -12  11    6.68    1.88
   6 -12  11    1.05    1.59
   5 -12  11    5.93    1.34
  -7 -12  11   -1.30    1.30
  -8 -12  11    0.90    0.83
  -9 -12  11    5.49    1.55
 -10 -12  11   36.42    2.17
 -11 -12  11    2.82    1.05
 -12 -12  11   -0.65    1.12
 -13 -12  11    0.47    1.34
 -14 -12  11   25.91    2.75
 -15 -12  11   12.50    1.08
 -16 -12  11    0.79    0.69
 -17 -12  11    1.48    1.48
 -18 -12  11    7.19    1.16
 -20 -12  11    0.07    0.69
 -21 -12  11    0.61    0.87
  17 -12  12    3.58    2.49
  16 -12  12    1.23    1.30
  15 -12  12    2.96    1.30
  14 -12  12    0.87    1.37
  13 -12  12   -0.04    1.48
  12 -12  12   28.98    3.04
  11 -12  12   10.55    1.52
   9 -12  12    0.29    1.26
   6 -12  12   -0.72    1.84
   5 -12  12    0.00    1.41
   3 -12  12   83.21    3.43
   2 -12  12    1.34    0.90
   1 -12  12    8.06    0.90
  -1 -12  12   40.54    2.35
  -2 -12  12    6.47    0.79
  -3 -12  12    3.04    1.41
  -5 -12  12   26.85    1.63
  -6 -12  12    9.54    1.12
  -7 -12  12   24.10    1.77
  -8 -12  12   12.50    2.35
  -9 -12  12    0.07    0.76
 -10 -12  12    3.65    1.59
 -14 -12  12    5.74    1.63
 -15 -12  12    0.72    0.90
 -16 -12  12    2.28    1.08
 -17 -12  12   -1.81    1.37
 -18 -12  12    0.83    0.98
 -19 -12  12    1.88    1.37
 -20 -12  12    2.42    0.90
 -21 -12  12    0.79    0.79
  16 -12  13    2.17    1.26
  15 -12  13    6.47    1.81
  14 -12  13    4.95    1.77
  13 -12  13   10.33    2.24
  12 -12  13    1.05    1.81
  11 -12  13    2.89    1.84
  10 -12  13    3.40    1.48
   9 -12  13   25.29    2.28
   8 -12  13   -2.13    1.34
   7 -12  13    1.19    0.87
 -10 -12  13   35.55    1.73
 -11 -12  13    0.18    1.45
 -12 -12  13    1.55    0.94
 -16 -12  13   11.24    1.77
 -17 -12  13    0.07    1.05
 -18 -12  13    1.37    1.05
 -19 -12  13    1.77    1.23
  11 -12  14    5.46    1.88
   9 -12  14   13.91    2.24
 -11 -12  14   -0.22    0.94
 -13 -12  14    5.31    1.91
 -16 -12  14    9.03    2.02
 -22 -12  14   -0.11    2.06
   6 -13 -18    1.59    1.16
   4 -13 -18   -1.77    1.37
   3 -13 -18    5.42    1.30
  11 -13 -17   -0.76    1.19
  10 -13 -17    4.41    1.01
   9 -13 -17   10.88    0.79
   8 -13 -17    1.84    1.77
   7 -13 -17    2.10    0.79
   6 -13 -17   17.16    1.34
   5 -13 -17    8.85    0.87
   4 -13 -17    2.82    0.90
   3 -13 -17    3.07    1.12
   2 -13 -17    8.64    0.65
   1 -13 -17    9.72    1.05
   0 -13 -17    6.03    1.05
  -1 -13 -17   10.84    2.64
  -2 -13 -17   12.10    1.81
  15 -13 -16    0.98    1.30
  14 -13 -16    0.00    1.52
  13 -13 -16    4.34    1.41
  12 -13 -16    0.90    0.58
  11 -13 -16    3.36    1.01
  10 -13 -16    2.93    0.79
   9 -13 -16    1.91    0.83
   8 -13 -16    7.12    1.41
   7 -13 -16    0.18    0.72
   6 -13 -16    1.52    1.16
   5 -13 -16    1.95    0.98
   4 -13 -16    0.07    1.08
   3 -13 -16    5.35    0.72
   2 -13 -16    0.36    0.76
   1 -13 -16   14.85    1.48
   0 -13 -16    1.81    0.72
  -1 -13 -16    1.37    0.83
  -2 -13 -16    1.19    0.69
  -3 -13 -16   13.62    1.16
  -4 -13 -16    5.71    0.90
  -5 -13 -16   -0.87    1.34
  -6 -13 -16    2.53    1.52
  -7 -13 -16    7.62    1.30
  17 -13 -15    1.30    1.66
  15 -13 -15    2.06    0.94
  14 -13 -15    4.08    0.94
  13 -13 -15    9.86    1.01
  12 -13 -15    0.04    1.01
  11 -13 -15    0.04    0.94
  10 -13 -15    0.04    0.61
   9 -13 -15   11.96    1.08
   8 -13 -15    3.69    1.34
   7 -13 -15    1.59    0.90
   6 -13 -15    2.28    0.94
   5 -13 -15   12.14    2.46
   4 -13 -15    0.87    1.12
   3 -13 -15    6.97    0.90
   2 -13 -15   12.47    1.08
   1 -13 -15    9.83    0.83
   0 -13 -15   14.27    0.90
  -1 -13 -15   18.39    1.70
  -2 -13 -15    5.31    1.37
  -3 -13 -15   15.07    1.59
  -4 -13 -15    7.30    1.26
  -5 -13 -15    5.35    1.16
  -6 -13 -15    5.74    1.05
  -7 -13 -15    2.75    0.87
  -8 -13 -15    7.73    1.73
  -9 -13 -15    0.51    1.01
  18 -13 -14   -0.94    1.30
  17 -13 -14    3.54    1.37
  16 -13 -14   -0.11    0.65
  15 -13 -14    0.79    1.63
  14 -13 -14    6.76    1.19
  13 -13 -14    1.34    0.76
  12 -13 -14    4.16    0.76
  11 -13 -14    0.94    0.76
  10 -13 -14    1.63    0.83
   9 -13 -14    0.22    0.90
   8 -13 -14    0.25    0.61
   7 -13 -14    1.08    0.61
   6 -13 -14   -0.33    1.48
   5 -13 -14    0.90    0.65
   4 -13 -14    9.83    1.59
   3 -13 -14    9.00    0.72
   2 -13 -14   19.01    1.34
   1 -13 -14    7.88    1.63
   0 -13 -14    0.58    1.23
  -1 -13 -14    5.38    0.87
  -2 -13 -14    2.78    0.94
  -3 -13 -14    4.16    0.76
  -4 -13 -14    4.77    0.83
  -5 -13 -14    8.56    0.98
  -6 -13 -14    3.07    0.76
  -7 -13 -14    1.66    0.94
  -8 -13 -14    2.89    0.69
  -9 -13 -14    4.26    1.12
 -10 -13 -14    4.66    1.34
 -11 -13 -14   -0.54    1.08
  18 -13 -13    0.25    0.61
  17 -13 -13    4.05    0.65
  16 -13 -13   -0.33    0.76
  15 -13 -13    1.70    1.37
  14 -13 -13   -0.36    1.05
  13 -13 -13   10.12    1.45
  12 -13 -13    1.84    0.83
  11 -13 -13    2.49    0.72
  10 -13 -13    1.05    0.87
   9 -13 -13    7.44    0.83
   8 -13 -13    0.51    0.98
   7 -13 -13   12.68    0.79
   6 -13 -13    1.01    0.61
   5 -13 -13   12.43    1.63
   4 -13 -13    2.10    0.65
   3 -13 -13    0.65    0.98
   2 -13 -13    1.99    0.76
   1 -13 -13    0.40    0.58
   0 -13 -13    5.67    1.01
  -1 -13 -13   17.16    1.45
  -2 -13 -13    2.42    1.34
  -3 -13 -13    3.22    2.13
  -4 -13 -13   22.73    1.48
  -5 -13 -13   15.68    1.55
  -6 -13 -13    0.83    1.30
  -7 -13 -13   -0.07    0.83
  -8 -13 -13   31.94    2.02
 -10 -13 -13   12.43    1.26
 -11 -13 -13    0.87    0.83
 -12 -13 -13   12.18    1.26
 -13 -13 -13    2.67    1.01
  21 -13 -12    1.16    1.12
  19 -13 -12    2.13    0.69
  18 -13 -12    3.61    1.41
  17 -13 -12    2.13    0.72
  16 -13 -12    3.50    2.13
  15 -13 -12    1.99    0.79
  14 -13 -12    0.22    0.79
  13 -13 -12   15.61    1.37
  12 -13 -12    1.37    0.94
  11 -13 -12    8.56    1.34
  10 -13 -12    4.30    0.87
   9 -13 -12   -0.22    0.65
   8 -13 -12   -1.05    0.94
   7 -13 -12    4.01    1.23
   6 -13 -12   -0.22    1.12
   5 -13 -12   16.26    1.12
   4 -13 -12   15.39    1.05
   3 -13 -12    1.99    1.08
   2 -13 -12    0.61    0.98
   1 -13 -12   41.44    1.77
   0 -13 -12   11.60    2.10
  -1 -13 -12   15.39    1.59
  -2 -13 -12    1.26    1.08
  -3 -13 -12    4.19    1.70
  -4 -13 -12   25.98    1.37
  -5 -13 -12    6.97    0.87
  -6 -13 -12    0.43    0.65
  -7 -13 -12    4.34    0.98
  -8 -13 -12    0.98    0.65
  -9 -13 -12   15.18    0.90
 -10 -13 -12    4.23    1.01
 -11 -13 -12    4.66    0.87
 -12 -13 -12    6.94    1.08
 -13 -13 -12    1.26    1.01
 -14 -13 -12    3.14    1.12
 -15 -13 -12    0.29    0.98
  21 -13 -11    5.17    1.16
  20 -13 -11    0.36    0.76
  19 -13 -11    0.00    0.72
  18 -13 -11    0.47    1.05
  17 -13 -11    0.76    1.05
  16 -13 -11    0.61    0.83
  15 -13 -11    0.43    0.94
  14 -13 -11   -0.94    1.12
  13 -13 -11   16.95    1.08
  12 -13 -11   -0.83    0.83
  11 -13 -11    3.14    0.83
  10 -13 -11   -1.16    0.83
   9 -13 -11   10.55    1.05
   8 -13 -11   -1.19    0.76
   7 -13 -11   10.95    1.23
   6 -13 -11   -0.94    1.08
   5 -13 -11   -0.58    1.26
   4 -13 -11    8.09    1.41
   3 -13 -11   15.93    0.98
   2 -13 -11    2.78    0.76
   1 -13 -11   12.32    1.34
   0 -13 -11    9.79    1.23
  -1 -13 -11    1.45    0.98
  -2 -13 -11    8.17    0.90
  -3 -13 -11    8.17    1.81
  -4 -13 -11   12.25    1.59
  -5 -13 -11    7.41    0.87
  -6 -13 -11    1.91    0.98
  -7 -13 -11    5.46    0.65
  -8 -13 -11   17.67    1.19
  -9 -13 -11   14.06    1.66
 -10 -13 -11   14.71    1.12
 -11 -13 -11    7.41    1.84
 -12 -13 -11   37.83    1.84
 -13 -13 -11    1.16    0.72
 -14 -13 -11    0.79    0.65
 -16 -13 -11    8.82    2.06
  23 -13 -10   -0.29    1.16
  22 -13 -10    1.26    1.05
  21 -13 -10   -1.30    1.99
  18 -13 -10    5.28    0.72
  17 -13 -10    3.79    0.65
  16 -13 -10    0.61    0.76
  15 -13 -10    3.87    0.72
  14 -13 -10   13.80    1.16
  13 -13 -10    0.14    0.65
  12 -13 -10   11.27    1.12
  11 -13 -10   16.87    0.90
  10 -13 -10   32.12    1.77
   9 -13 -10    9.43    1.05
   7 -13 -10    0.58    0.72
   5 -13 -10   40.68    2.38
   4 -13 -10   10.66    1.48
   3 -13 -10   13.22    1.41
   2 -13 -10    0.18    0.87
   1 -13 -10   17.27    1.05
   0 -13 -10   17.52    1.30
  -1 -13 -10   70.64    2.46
  -2 -13 -10    1.48    0.83
  -3 -13 -10   -0.04    1.08
  -4 -13 -10    1.37    0.83
  -5 -13 -10   32.12    1.37
  -6 -13 -10   23.34    1.23
  -7 -13 -10    6.11    0.83
  -8 -13 -10    1.05    0.65
  -9 -13 -10   41.12    2.10
 -10 -13 -10    0.87    1.08
 -11 -13 -10    3.14    0.87
 -12 -13 -10   -0.54    0.98
 -13 -13 -10   52.14    2.13
 -14 -13 -10   27.71    2.13
 -15 -13 -10    1.77    1.01
 -16 -13 -10   15.36    1.95
 -17 -13 -10    0.87    0.94
  21 -13  -9    3.72    0.94
  20 -13  -9    4.59    0.83
  19 -13  -9    7.59    1.01
  18 -13  -9    2.85    0.79
  17 -13  -9    1.05    1.05
  16 -13  -9    8.74    0.83
  15 -13  -9   23.31    1.34
  14 -13  -9    4.52    0.94
  13 -13  -9   22.47    1.81
  12 -13  -9   35.95    1.66
  11 -13  -9   16.80    1.23
  10 -13  -9   -2.31    1.73
   9 -13  -9   -0.43    1.05
   8 -13  -9   14.78    1.01
   7 -13  -9   73.17    2.60
   6 -13  -9    0.72    0.58
   5 -13  -9   10.51    1.37
   4 -13  -9   14.20    1.37
   3 -13  -9   23.09    1.59
   2 -13  -9    6.76    1.26
   1 -13  -9   15.72    1.01
   0 -13  -9   75.44    2.17
  -1 -13  -9    6.25    0.98
  -2 -13  -9    8.53    1.08
  -3 -13  -9    0.98    0.72
  -4 -13  -9   79.74    4.01
  -5 -13  -9  120.36    6.68
  -6 -13  -9    7.48    0.90
  -7 -13  -9    6.83    0.87
  -8 -13  -9   47.95    1.73
  -9 -13  -9    4.70    0.76
 -10 -13  -9   -0.14    0.61
 -11 -13  -9   12.21    1.05
 -12 -13  -9  112.62    6.11
 -13 -13  -9   45.53    1.66
 -14 -13  -9   -0.29    0.58
 -15 -13  -9   34.65    1.99
 -16 -13  -9   18.28    1.26
 -17 -13  -9    5.85    1.95
 -18 -13  -9    7.26    1.05
  22 -13  -8    2.78    0.65
  21 -13  -8    1.48    0.65
  20 -13  -8    4.62    0.76
  19 -13  -8   -0.14    0.65
  18 -13  -8   21.35    1.52
  17 -13  -8    1.01    1.52
  16 -13  -8    5.13    0.79
  15 -13  -8    2.28    0.83
  14 -13  -8    0.90    0.69
  13 -13  -8    3.25    0.58
  12 -13  -8    4.70    0.65
  11 -13  -8    1.01    0.79
  10 -13  -8   50.91    1.81
   9 -13  -8    0.69    0.83
   8 -13  -8   17.89    1.08
   7 -13  -8    1.08    1.41
   6 -13  -8   33.24    3.11
   5 -13  -8   19.51    1.16
   4 -13  -8   40.79    1.63
   3 -13  -8   14.42    0.90
   2 -13  -8   11.67    0.90
   1 -13  -8    0.36    0.65
   0 -13  -8   81.12    2.64
  -1 -13  -8   21.35    1.34
  -2 -13  -8    0.94    0.83
  -3 -13  -8   48.45    1.66
  -4 -13  -8    3.94    1.16
  -6 -13  -8   17.42    2.10
  -7 -13  -8    8.89    0.98
  -8 -13  -8    3.94    0.65
  -9 -13  -8   37.32    1.66
 -10 -13  -8    3.72    0.83
 -11 -13  -8    3.25    1.05
 -12 -13  -8   17.70    1.30
 -13 -13  -8   34.33    1.91
 -14 -13  -8   22.04    1.52
 -15 -13  -8   72.84    5.09
 -16 -13  -8    1.91    1.08
 -17 -13  -8   -0.29    0.83
 -18 -13  -8   12.97    1.30
 -19 -13  -8   19.33    1.45
  22 -13  -7    7.30    1.37
  21 -13  -7    2.06    1.08
  20 -13  -7    0.76    0.51
  19 -13  -7   28.04    2.46
  18 -13  -7   12.39    1.34
  17 -13  -7   -0.87    0.72
  16 -13  -7    1.55    0.69
  14 -13  -7   36.17    2.10
  13 -13  -7    0.51    0.72
  12 -13  -7   19.26    1.16
  11 -13  -7  161.58    4.16
  10 -13  -7   49.57    2.78
   9 -13  -7    0.25    0.58
   8 -13  -7   19.69    1.59
   7 -13  -7  124.76    5.06
   6 -13  -7  108.76    3.83
   5 -13  -7    7.99    0.83
   4 -13  -7   12.83    1.30
   3 -13  -7  120.93    6.32
   2 -13  -7  105.58    4.12
   1 -13  -7   22.33    1.48
   0 -13  -7   46.68    1.59
  -1 -13  -7  125.02    3.83
  -2 -13  -7    4.05    0.76
  -3 -13  -7   14.49    1.26
  -4 -13  -7   31.47    1.48
  -5 -13  -7   38.26    1.81
  -6 -13  -7   30.17    2.71
  -7 -13  -7   42.31    2.13
  -8 -13  -7   62.44    3.18
  -9 -13  -7   78.51    3.50
 -10 -13  -7  105.76    3.65
 -11 -13  -7   38.59    1.70
 -12 -13  -7   21.97    1.05
 -13 -13  -7   63.66    2.89
 -14 -13  -7   59.91    2.24
 -15 -13  -7   33.17    1.52
 -16 -13  -7   26.45    1.45
 -17 -13  -7   37.25    1.88
 -18 -13  -7   26.45    2.06
 -19 -13  -7    4.77    1.16
 -20 -13  -7   14.49    1.91
  23 -13  -6    6.65    0.76
  22 -13  -6    4.08    1.12
  21 -13  -6    2.13    1.12
  20 -13  -6   -0.47    1.30
  19 -13  -6    3.14    0.98
  18 -13  -6    2.31    1.34
  17 -13  -6    9.83    1.66
  16 -13  -6    2.02    1.16
  15 -13  -6    3.97    0.98
  14 -13  -6   13.30    1.12
  13 -13  -6    3.14    0.72
  12 -13  -6   13.44    1.19
  11 -13  -6    1.01    0.54
  10 -13  -6    3.97    0.72
   9 -13  -6    1.05    0.79
   8 -13  -6   73.09    3.90
   7 -13  -6   61.93    2.02
   6 -13  -6    5.53    0.69
   5 -13  -6  146.91    3.97
   4 -13  -6   47.19    1.70
   3 -13  -6   24.17    1.19
   2 -13  -6   48.42    1.81
   1 -13  -6    0.29    1.08
   0 -13  -6    3.61    1.05
  -1 -13  -6   28.69    1.63
  -2 -13  -6   30.50    1.59
  -3 -13  -6    4.88    1.63
  -4 -13  -6   50.69    2.31
  -5 -13  -6   23.96    1.45
  -6 -13  -6   29.81    1.73
  -7 -13  -6    5.38    0.69
  -8 -13  -6    2.20    1.05
  -9 -13  -6    3.29    0.83
 -10 -13  -6    2.35    0.94
 -11 -13  -6   15.03    1.12
 -12 -13  -6    7.62    1.30
 -13 -13  -6    1.55    0.72
 -14 -13  -6   21.97    1.59
 -15 -13  -6   19.15    1.05
 -16 -13  -6   16.40    0.94
 -17 -13  -6    4.55    0.90
 -18 -13  -6    0.04    1.05
 -19 -13  -6    9.32    0.98
 -20 -13  -6    3.94    1.48
  24 -13  -5    4.41    1.48
  23 -13  -5    3.97    0.72
  22 -13  -5   17.56    1.45
  21 -13  -5    1.12    2.20
  20 -13  -5    3.18    1.26
  19 -13  -5    7.99    0.83
  18 -13  -5   32.09    2.49
  17 -13  -5   13.15    2.17
  16 -13  -5    8.02    0.98
  15 -13  -5   12.86    1.48
  14 -13  -5   12.10    1.19
  13 -13  -5   30.68    2.42
  12 -13  -5    6.21    1.34
  11 -13  -5   63.52    2.75
  10 -13  -5   40.43    2.28
   9 -13  -5   66.66    2.64
   8 -13  -5    8.13    1.52
   7 -13  -5   40.32    1.63
   6 -13  -5   69.19    4.73
   5 -13  -5  166.46    6.03
   4 -13  -5   13.04    1.19
   3 -13  -5  115.22    3.25
   2 -13  -5  104.46    4.26
   1 -13  -5  105.11    3.32
   0 -13  -5    4.81    1.16
  -1 -13  -5   42.02    1.70
  -2 -13  -5   92.68    3.00
  -3 -13  -5  337.29    7.15
  -4 -13  -5    0.61    0.87
  -5 -13  -5    0.65    0.61
  -6 -13  -5   43.47    2.06
  -7 -13  -5  130.00    3.50
  -8 -13  -5   -1.52    0.98
  -9 -13  -5   11.06    1.08
 -10 -13  -5  154.90    4.84
 -11 -13  -5   61.46    2.71
 -13 -13  -5    1.55    0.76
 -14 -13  -5   66.16    2.96
 -15 -13  -5   80.83    2.78
 -16 -13  -5    0.94    0.79
 -17 -13  -5   -0.18    0.94
 -18 -13  -5   41.23    2.42
 -19 -13  -5   10.84    1.37
 -20 -13  -5    3.25    1.01
 -21 -13  -5   -1.30    1.19
 -22 -13  -5   49.07    3.90
  24 -13  -4   -1.73    1.01
  23 -13  -4    1.34    2.38
  22 -13  -4    0.61    0.61
  21 -13  -4    7.84    1.08
  20 -13  -4   -0.11    0.72
  19 -13  -4    1.63    0.54
  18 -13  -4   11.56    0.98
  17 -13  -4    9.21    0.79
  15 -13  -4   10.04    1.52
  14 -13  -4   57.20    3.04
  13 -13  -4   22.47    1.30
  12 -13  -4    6.54    1.70
  11 -13  -4    7.44    0.83
  10 -13  -4   -1.41    1.81
   9 -13  -4   20.67    1.48
   8 -13  -4  110.17    4.59
   7 -13  -4    1.45    0.90
   6 -13  -4    1.05    0.79
   5 -13  -4   -1.16    0.83
   4 -13  -4    0.72    0.61
   3 -13  -4   -1.19    1.05
   2 -13  -4   61.46    2.10
   0 -13  -4   35.63    1.59
  -1 -13  -4   36.31    2.06
  -2 -13  -4    3.90    0.76
  -3 -13  -4    4.88    1.19
  -4 -13  -4   10.66    0.79
  -5 -13  -4    0.79    0.76
  -6 -13  -4    4.37    1.45
  -7 -13  -4   22.29    1.05
  -8 -13  -4   12.79    1.23
  -9 -13  -4   46.50    1.88
 -10 -13  -4    9.18    1.01
 -11 -13  -4   65.22    2.49
 -12 -13  -4    1.73    0.94
 -13 -13  -4   24.71    1.30
 -14 -13  -4   23.81    1.34
 -15 -13  -4   24.03    1.77
 -16 -13  -4   11.74    1.19
 -17 -13  -4   11.09    0.98
 -18 -13  -4    8.49    1.16
 -19 -13  -4    1.16    0.94
 -20 -13  -4    1.30    1.37
 -21 -13  -4    0.76    0.98
 -22 -13  -4    1.30    1.26
  24 -13  -3    3.36    1.19
  23 -13  -3    1.81    0.69
  22 -13  -3    1.08    0.98
  20 -13  -3   14.89    0.98
  19 -13  -3    4.19    0.79
  18 -13  -3    1.12    0.79
  17 -13  -3    5.67    1.30
  16 -13  -3   61.75    2.49
  15 -13  -3    0.90    0.69
  14 -13  -3    0.58    0.65
  13 -13  -3    4.44    0.90
  12 -13  -3   25.33    2.17
  11 -13  -3    1.84    1.88
  10 -13  -3    6.50    0.65
   9 -13  -3  139.79    5.78
   8 -13  -3   36.75    1.77
   7 -13  -3    1.81    0.54
   6 -13  -3   -0.25    0.76
   5 -13  -3   72.23    3.32
   3 -13  -3   77.36    3.32
   2 -13  -3    4.08    1.01
   1 -13  -3   96.15    6.47
   0 -13  -3   15.72    1.05
  -1 -13  -3   17.23    1.01
  -2 -13  -3   48.63    2.46
  -3 -13  -3  171.08    4.23
  -4 -13  -3   14.60    0.83
  -5 -13  -3   47.66    2.02
  -6 -13  -3    1.48    0.51
  -7 -13  -3   70.93    3.14
  -8 -13  -3  109.30    2.96
  -9 -13  -3   18.93    1.41
 -10 -13  -3  134.95    5.71
 -11 -13  -3   83.28    2.71
 -12 -13  -3   24.89    1.70
 -13 -13  -3   16.30    1.08
 -14 -13  -3    8.71    1.37
 -15 -13  -3    9.32    0.94
 -16 -13  -3    6.65    1.73
 -17 -13  -3    3.83    1.30
 -18 -13  -3    1.16    1.05
 -19 -13  -3    0.36    1.23
 -20 -13  -3   12.65    0.98
 -21 -13  -3    0.40    1.01
 -22 -13  -3    1.34    1.16
 -23 -13  -3    0.87    0.76
  24 -13  -2    1.34    1.23
  23 -13  -2   -0.69    0.72
  22 -13  -2    9.47    1.16
  21 -13  -2    0.07    0.90
  20 -13  -2    0.54    0.94
  19 -13  -2    1.99    1.01
  18 -13  -2    3.11    1.16
  17 -13  -2    0.79    1.05
  16 -13  -2    9.65    0.94
  15 -13  -2    0.72    0.61
  14 -13  -2    2.24    0.90
  13 -13  -2   37.87    1.63
  12 -13  -2   70.24    3.11
  11 -13  -2    1.34    1.12
   9 -13  -2    5.49    1.34
   8 -13  -2   28.29    1.34
   7 -13  -2  121.91    4.08
   6 -13  -2   12.57    1.19
   5 -13  -2   24.43    1.41
   4 -13  -2   10.23    0.98
   3 -13  -2    0.72    0.58
   2 -13  -2   -0.98    1.45
   1 -13  -2    1.45    0.72
   0 -13  -2   -0.58    1.05
  -1 -13  -2   50.58    4.26
  -2 -13  -2    1.55    0.90
  -3 -13  -2   77.76    2.57
  -4 -13  -2   95.57    2.67
  -5 -13  -2    5.20    0.72
  -6 -13  -2   22.00    1.26
  -7 -13  -2   33.89    1.30
  -8 -13  -2    4.48    0.83
  -9 -13  -2    8.45    0.90
 -10 -13  -2    1.34    0.69
 -11 -13  -2   98.57    3.00
 -12 -13  -2   45.56    3.83
 -13 -13  -2    8.45    0.83
 -14 -13  -2    9.25    0.72
 -15 -13  -2   11.85    1.41
 -16 -13  -2   14.20    1.05
 -17 -13  -2   12.72    1.45
 -18 -13  -2    7.66    0.90
 -19 -13  -2   -0.43    0.58
 -20 -13  -2    1.52    0.65
 -22 -13  -2    0.18    1.23
 -23 -13  -2   -0.61    0.79
  24 -13  -1   22.80    2.28
  23 -13  -1    0.69    0.79
  22 -13  -1    0.25    1.16
  21 -13  -1    4.12    1.05
  20 -13  -1   20.20    2.38
  19 -13  -1    2.10    1.34
  18 -13  -1    1.66    1.34
  17 -13  -1    1.01    0.61
  16 -13  -1    3.32    1.63
  15 -13  -1    3.61    0.76
  14 -13  -1   47.80    4.52
  13 -13  -1    0.54    0.76
  12 -13  -1    1.52    0.83
  11 -13  -1    1.34    0.65
  10 -13  -1    9.25    0.94
   9 -13  -1   34.98    2.28
   8 -13  -1  115.66    5.09
   7 -13  -1    3.76    0.83
   6 -13  -1    5.74    0.83
   5 -13  -1   11.49    0.87
   4 -13  -1   -1.16    0.83
   3 -13  -1   31.18    2.93
   1 -13  -1   39.67    1.45
   0 -13  -1    0.36    1.12
  -1 -13  -1   15.57    1.55
  -2 -13  -1   22.22    1.19
  -3 -13  -1    7.77    0.94
  -4 -13  -1    0.94    1.05
  -5 -13  -1   42.06    3.00
  -6 -13  -1   18.46    1.59
  -7 -13  -1   33.89    1.95
  -8 -13  -1   13.01    2.10
  -9 -13  -1    1.70    0.69
 -10 -13  -1   14.53    1.23
 -11 -13  -1   32.30    1.26
 -12 -13  -1   -0.65    1.05
 -13 -13  -1    6.03    0.98
 -14 -13  -1   10.51    0.98
 -15 -13  -1    0.14    0.72
 -16 -13  -1   32.19    1.84
 -17 -13  -1   14.27    1.26
 -18 -13  -1    2.17    1.08
 -19 -13  -1    2.35    0.83
 -20 -13  -1   29.63    1.84
 -21 -13  -1    3.79    0.79
 -22 -13  -1    8.45    1.91
 -23 -13  -1   -0.47    0.61
 -24 -13  -1    5.24    1.73
  24 -13   0   -1.05    1.59
  23 -13   0   -0.65    1.12
  22 -13   0    8.17    1.30
  21 -13   0    0.22    0.83
  20 -13   0    0.51    0.72
  19 -13   0    1.45    0.76
  18 -13   0    9.43    1.16
  17 -13   0    3.14    0.90
  16 -13   0   31.25    3.04
  15 -13   0    5.89    0.79
  14 -13   0    3.76    0.87
  13 -13   0   12.07    1.66
  12 -13   0   87.80    3.58
  11 -13   0    8.45    1.12
  10 -13   0   62.62    3.04
   9 -13   0   11.35    1.05
   8 -13   0    5.53    1.05
   7 -13   0   11.16    2.57
   6 -13   0  121.44    4.91
   5 -13   0   49.21    3.76
   4 -13   0   38.73    1.77
   3 -13   0    3.83    1.05
   2 -13   0    1.45    0.61
   1 -13   0  135.78    3.61
   0 -13   0    1.23    1.05
  -1 -13   0  131.77    4.01
  -2 -13   0    0.51    1.08
  -4 -13   0   39.46    1.63
  -5 -13   0   56.19    2.75
  -6 -13   0  116.27    3.04
  -7 -13   0   12.68    1.41
  -8 -13   0    6.94    0.76
  -9 -13   0   12.94    1.41
 -10 -13   0   69.08    3.76
 -11 -13   0    6.76    1.01
 -12 -13   0   83.25    4.30
 -13 -13   0   17.16    1.19
 -14 -13   0    4.81    1.41
 -15 -13   0    7.41    1.52
 -16 -13   0   27.28    1.77
 -17 -13   0    2.57    0.76
 -18 -13   0   11.74    1.26
 -20 -13   0    0.72    1.48
 -21 -13   0   -0.61    0.76
 -22 -13   0    7.55    1.23
 -23 -13   0   -0.11    1.08
 -24 -13   0    0.87    0.90
  23 -13   1    1.05    1.08
  22 -13   1    2.57    0.83
  21 -13   1    2.64    1.12
  20 -13   1   21.90    1.66
  18 -13   1    0.14    1.41
  17 -13   1   15.97    1.48
  16 -13   1   34.33    1.59
  15 -13   1    0.47    0.79
  14 -13   1   15.57    1.16
  13 -13   1    5.56    0.72
  12 -13   1    1.81    1.01
  11 -13   1   29.77    1.63
  10 -13   1   16.80    1.26
   9 -13   1    0.11    1.05
   8 -13   1   11.13    1.16
   7 -13   1   26.99    1.66
   6 -13   1   14.81    1.48
   5 -13   1   37.90    1.91
   4 -13   1    1.95    1.52
   3 -13   1    6.61    0.87
   1 -13   1   14.02    0.94
   0 -13   1   -0.76    1.66
  -1 -13   1   48.20    1.95
  -3 -13   1   35.88    1.52
  -4 -13   1    1.34    1.01
  -5 -13   1   11.27    0.90
  -6 -13   1    5.46    1.23
  -7 -13   1    7.48    1.19
  -9 -13   1   36.02    1.95
 -11 -13   1    0.94    1.12
 -12 -13   1    1.95    0.83
 -13 -13   1   -1.05    0.65
 -14 -13   1   52.07    2.89
 -15 -13   1    3.69    0.61
 -16 -13   1    0.90    1.08
 -17 -13   1    2.46    1.01
 -18 -13   1    4.01    1.84
 -19 -13   1    2.57    0.87
 -20 -13   1   21.57    1.19
 -21 -13   1    7.15    1.19
 -22 -13   1    1.59    1.08
 -23 -13   1   -0.72    0.87
 -24 -13   1   12.68    1.55
  23 -13   2    0.58    0.98
  22 -13   2    1.23    0.94
  21 -13   2    2.64    2.02
  20 -13   2   -0.36    1.59
  19 -13   2    1.05    1.05
  18 -13   2    5.24    0.94
  17 -13   2    6.14    1.95
  16 -13   2    6.29    1.66
  15 -13   2   12.57    1.16
  14 -13   2    6.79    1.16
  13 -13   2    8.96    1.05
  11 -13   2   95.46    3.87
  10 -13   2    1.34    0.90
   9 -13   2   10.70    1.12
   8 -13   2    3.22    0.72
   7 -13   2   36.17    1.45
   6 -13   2   16.37    2.06
   5 -13   2    1.19    2.31
   4 -13   2   91.12    3.61
   3 -13   2   66.95    3.29
   2 -13   2    0.69    0.87
   0 -13   2    0.61    0.69
  -1 -13   2   -0.14    0.94
  -2 -13   2    1.48    0.72
  -3 -13   2    3.14    1.52
  -4 -13   2   10.19    1.59
  -5 -13   2   22.51    1.59
  -6 -13   2   11.20    1.23
  -7 -13   2  142.68    5.09
  -8 -13   2   32.34    2.42
  -9 -13   2    6.07    1.16
 -10 -13   2    1.91    0.90
 -11 -13   2   -0.58    1.05
 -12 -13   2   64.60    2.53
 -13 -13   2   37.61    1.70
 -15 -13   2    0.07    1.05
 -16 -13   2   11.20    1.34
 -17 -13   2    0.11    0.72
 -18 -13   2    0.72    0.83
 -19 -13   2    1.01    0.98
 -20 -13   2   -0.11    0.54
 -21 -13   2    0.43    1.01
 -22 -13   2    6.72    1.12
 -23 -13   2    0.25    0.87
 -24 -13   2    0.36    0.65
  23 -13   3   -1.05    1.45
  22 -13   3    0.18    2.02
  21 -13   3   -0.47    1.30
  20 -13   3   12.68    1.34
  19 -13   3    0.79    1.48
  18 -13   3    1.73    1.34
  17 -13   3    7.66    2.20
  15 -13   3    9.65    1.30
  14 -13   3   10.77    1.59
  13 -13   3   14.06    1.37
  12 -13   3   23.31    1.48
  11 -13   3   79.60    2.93
  10 -13   3  110.17    4.08
   9 -13   3   15.97    1.26
   8 -13   3   90.98    2.75
   7 -13   3   70.93    2.60
   6 -13   3   -0.94    0.98
   5 -13   3   52.14    2.17
   4 -13   3   14.42    1.41
   3 -13   3  155.48    6.50
   2 -13   3   38.05    1.84
   1 -13   3   19.55    1.34
   0 -13   3   14.16    1.73
  -1 -13   3  104.85    3.00
  -2 -13   3    3.47    0.90
  -3 -13   3   76.35    3.40
  -4 -13   3   44.04    1.52
  -5 -13   3   65.65    2.49
  -6 -13   3    1.41    0.72
  -7 -13   3    1.77    0.72
 -10 -13   3    7.23    1.41
 -11 -13   3    1.84    1.12
 -12 -13   3   25.55    1.84
 -13 -13   3    4.77    1.30
 -14 -13   3    0.90    0.79
 -15 -13   3   -1.01    1.08
 -16 -13   3   56.26    4.26
 -17 -13   3    3.65    0.83
 -18 -13   3    0.14    1.01
 -19 -13   3    6.97    1.12
 -20 -13   3   16.11    1.59
 -21 -13   3   11.13    1.16
 -22 -13   3    3.11    0.98
 -23 -13   3    1.30    1.19
 -24 -13   3    2.49    0.83
  22 -13   4    1.59    1.12
  21 -13   4   -1.73    1.48
  20 -13   4    3.00    1.01
  19 -13   4    1.34    0.90
  18 -13   4    8.31    1.08
  17 -13   4   12.00    1.45
  16 -13   4   10.23    1.59
  15 -13   4   21.50    1.77
  14 -13   4   16.08    1.52
  13 -13   4   21.14    1.70
  12 -13   4   -2.13    1.81
  11 -13   4   54.45    2.42
  10 -13   4    8.82    1.37
   9 -13   4   39.56    2.20
   8 -13   4    5.67    1.34
   7 -13   4   17.49    1.55
   6 -13   4    1.34    1.19
   5 -13   4    0.69    0.72
   4 -13   4   15.21    1.05
   3 -13   4    5.85    0.94
   2 -13   4    4.37    0.90
   1 -13   4   26.92    2.53
   0 -13   4   31.83    1.66
  -1 -13   4   33.13    1.45
  -2 -13   4   53.94    4.23
  -3 -13   4    0.36    1.23
  -4 -13   4    1.48    0.61
  -5 -13   4    0.76    0.87
  -6 -13   4    1.01    1.23
  -7 -13   4    0.11    0.79
  -8 -13   4   95.21    3.29
  -9 -13   4   16.87    1.34
 -11 -13   4    8.35    0.87
 -12 -13   4    6.11    1.66
 -14 -13   4   46.83    2.57
 -15 -13   4    9.32    0.90
 -16 -13   4    1.55    1.19
 -17 -13   4    8.35    0.94
 -18 -13   4    9.39    1.23
 -19 -13   4    0.79    1.26
 -20 -13   4    0.54    1.26
 -21 -13   4    8.85    1.34
 -22 -13   4    0.94    1.26
 -23 -13   4    0.36    0.65
 -24 -13   4    0.00    0.79
  22 -13   5   24.93    1.63
  21 -13   5   -0.22    1.05
  20 -13   5    2.71    0.87
  19 -13   5   14.16    1.48
  18 -13   5   45.85    2.75
  17 -13   5    2.85    2.10
  15 -13   5   68.58    3.54
  14 -13   5   48.24    3.69
  13 -13   5   -0.43    0.94
  12 -13   5   -0.22    0.94
  11 -13   5   56.00    4.84
  10 -13   5  116.13    7.95
   9 -13   5    7.91    0.98
   8 -13   5    1.99    1.26
   7 -13   5  110.17    3.25
   6 -13   5   37.00    2.75
   5 -13   5    0.72    0.69
   4 -13   5    0.65    0.76
   3 -13   5  320.63    7.70
   2 -13   5   78.84    2.53
   1 -13   5   30.13    3.04
   0 -13   5    1.48    0.87
  -1 -13   5   90.47    2.96
  -2 -13   5   91.92    4.23
  -3 -13   5   83.21    5.49
  -4 -13   5    9.25    1.08
  -5 -13   5  138.71    4.12
  -6 -13   5   69.92    3.18
  -7 -13   5   32.41    1.81
  -8 -13   5    8.67    1.48
  -9 -13   5   57.52    2.53
 -10 -13   5   33.93    1.81
 -12 -13   5    7.62    1.16
 -13 -13   5   22.04    1.81
 -15 -13   5   16.84    1.26
 -16 -13   5    4.05    1.12
 -18 -13   5   27.53    3.00
 -19 -13   5    3.54    1.37
 -20 -13   5    3.69    1.16
 -21 -13   5    3.11    2.06
 -22 -13   5   16.95    1.08
 -23 -13   5    1.70    0.94
 -24 -13   5    7.33    0.94
  21 -13   6    5.09    1.66
  20 -13   6    7.26    1.23
  19 -13   6    7.37    0.98
  18 -13   6    0.79    1.30
  17 -13   6    0.33    2.64
  16 -13   6   11.67    1.70
  15 -13   6   15.21    1.66
  14 -13   6   14.38    2.24
  13 -13   6    2.35    1.77
  12 -13   6    8.60    0.83
  11 -13   6   11.71    0.94
  10 -13   6    1.08    0.90
   9 -13   6    3.94    0.76
   8 -13   6    2.89    1.88
   7 -13   6    4.81    0.87
   6 -13   6   19.55    1.26
   5 -13   6   21.86    2.02
   4 -13   6   44.15    3.97
   3 -13   6    6.14    0.69
   2 -13   6   28.07    1.23
   1 -13   6   24.46    1.23
   0 -13   6    2.10    1.84
  -1 -13   6   -1.84    1.70
  -2 -13   6   41.70    1.63
  -3 -13   6   21.43    1.26
  -4 -13   6   39.13    2.13
  -5 -13   6  142.58    4.26
  -6 -13   6    5.28    1.23
  -7 -13   6   55.82    1.73
  -8 -13   6   62.80    2.89
  -9 -13   6    1.55    1.16
 -10 -13   6    3.97    0.90
 -11 -13   6    0.61    0.76
 -12 -13   6   10.55    0.94
 -13 -13   6    4.44    1.05
 -14 -13   6    8.42    1.26
 -15 -13   6    2.10    1.23
 -16 -13   6   -1.01    0.79
 -18 -13   6    3.47    1.19
 -19 -13   6    3.43    1.23
 -20 -13   6   -1.37    1.19
 -21 -13   6   -0.22    1.16
 -22 -13   6    3.36    1.05
 -23 -13   6    3.61    2.10
 -24 -13   6    0.36    1.70
  20 -13   7   10.23    2.06
  19 -13   7    1.05    1.48
  18 -13   7   15.28    1.55
  17 -13   7   38.52    2.06
  16 -13   7   20.60    1.99
  14 -13   7   44.55    2.31
  13 -13   7   42.78    2.35
  12 -13   7   19.69    1.55
  11 -13   7   25.58    2.10
  10 -13   7   71.32    3.40
   9 -13   7   56.87    2.60
   8 -13   7   51.74    2.20
   7 -13   7   29.16    3.50
   6 -13   7   22.40    1.30
   5 -13   7   30.03    1.30
   4 -13   7   28.80    1.77
   3 -13   7   10.91    1.45
   2 -13   7    4.55    0.87
   1 -13   7  120.36    3.29
   0 -13   7   44.98    1.91
  -1 -13   7   19.26    1.26
  -2 -13   7   98.93    3.22
  -3 -13   7  105.22    3.40
  -4 -13   7   11.60    0.87
  -5 -13   7    6.79    0.72
  -6 -13   7   87.76    3.43
  -7 -13   7  109.12    3.83
  -8 -13   7   17.05    1.55
  -9 -13   7   -0.98    1.08
 -10 -13   7   36.31    1.59
 -11 -13   7  115.77    6.21
 -12 -13   7   18.57    1.63
 -13 -13   7   -1.23    0.76
 -14 -13   7   25.40    3.07
 -15 -13   7   18.17    1.41
 -16 -13   7    3.18    1.08
 -18 -13   7   14.63    1.52
 -20 -13   7   -0.36    0.83
 -21 -13   7    2.35    0.76
 -22 -13   7    2.85    1.05
 -23 -13   7    1.19    1.01
  19 -13   8   14.71    1.12
  18 -13   8   10.51    1.37
  17 -13   8    0.83    0.98
  16 -13   8    2.17    1.08
  15 -13   8   45.42    2.42
  14 -13   8   14.13    1.19
  13 -13   8   22.94    1.66
  12 -13   8   13.51    1.55
  11 -13   8    2.24    1.19
  10 -13   8    4.08    1.30
   9 -13   8   31.62    1.81
   8 -13   8    4.52    0.69
   7 -13   8    5.46    0.90
   6 -13   8   12.43    1.70
   5 -13   8    1.91    0.65
   4 -13   8    4.48    0.79
   3 -13   8   39.64    1.63
   2 -13   8    1.59    0.87
   1 -13   8   19.08    1.30
   0 -13   8   71.25    2.82
  -1 -13   8    0.36    0.87
  -2 -13   8   14.63    1.26
  -3 -13   8   11.09    1.08
  -4 -13   8   34.43    2.20
  -5 -13   8   14.81    1.23
  -6 -13   8   29.45    1.16
  -7 -13   8    0.87    0.69
  -8 -13   8   14.24    1.16
  -9 -13   8    1.95    0.90
 -11 -13   8   -0.18    0.72
 -12 -13   8    0.47    1.70
 -13 -13   8    3.69    1.12
 -14 -13   8    0.69    0.69
 -15 -13   8    1.59    0.87
 -16 -13   8    3.58    0.83
 -17 -13   8   -0.43    0.83
 -18 -13   8   13.91    1.05
 -19 -13   8    2.71    1.66
 -20 -13   8    4.23    1.30
 -21 -13   8    2.67    0.90
 -22 -13   8    1.30    1.41
 -23 -13   8    2.75    1.55
 -24 -13   8    2.96    1.16
  18 -13   9    3.43    1.16
  17 -13   9    3.69    1.16
  16 -13   9   14.24    2.46
  15 -13   9   29.09    1.48
  14 -13   9   -0.43    0.98
  13 -13   9   32.55    2.28
  12 -13   9   59.44    5.67
  11 -13   9    8.71    1.26
  10 -13   9    0.65    0.83
   9 -13   9    2.71    0.90
   8 -13   9   32.48    1.66
   7 -13   9    4.34    0.83
   6 -13   9    5.13    0.79
   5 -13   9  112.15    4.12
   4 -13   9   74.58    2.89
   3 -13   9    1.08    0.58
   2 -13   9    4.73    0.98
   1 -13   9    7.23    1.52
   0 -13   9   57.99    4.23
  -1 -13   9   14.42    2.35
  -2 -13   9    6.50    0.72
  -3 -13   9   23.27    1.48
  -4 -13   9   15.57    1.52
  -5 -13   9   10.98    0.90
  -6 -13   9    1.23    0.72
  -7 -13   9   67.02    3.04
  -8 -13   9   10.12    2.02
  -9 -13   9    1.34    0.79
 -10 -13   9    0.69    1.52
 -11 -13   9   14.06    1.52
 -12 -13   9   29.59    1.63
 -13 -13   9   17.27    1.77
 -14 -13   9    4.70    1.05
 -16 -13   9    7.12    1.77
 -17 -13   9    4.19    1.45
 -18 -13   9    0.43    1.73
 -19 -13   9    7.95    0.87
 -20 -13   9    2.20    1.41
 -21 -13   9    3.47    1.34
 -22 -13   9   -0.61    1.59
 -23 -13   9    3.32    1.34
  17 -13  10    1.23    1.26
  16 -13  10   12.00    1.91
  15 -13  10   -0.72    1.48
  14 -13  10   17.27    1.95
  13 -13  10   36.75    2.10
  12 -13  10    1.01    0.83
  11 -13  10    1.77    0.76
  10 -13  10   -1.91    1.34
   9 -13  10   26.67    1.52
   8 -13  10   -0.69    1.12
   7 -13  10    5.28    1.41
   6 -13  10   20.52    1.55
   5 -13  10   23.85    1.77
   4 -13  10    0.00    1.12
   3 -13  10   -0.22    1.12
   2 -13  10    1.26    0.65
   1 -13  10   53.37    5.67
  -1 -13  10   12.68    1.05
  -2 -13  10   -0.90    0.98
  -3 -13  10    9.61    1.59
  -4 -13  10    8.67    0.87
  -5 -13  10   24.86    2.71
  -6 -13  10    6.25    1.16
  -7 -13  10   -0.58    1.08
  -8 -13  10    1.41    1.08
  -9 -13  10    6.83    1.55
 -10 -13  10   29.12    1.84
 -12 -13  10   12.03    2.31
 -13 -13  10   -0.40    0.76
 -14 -13  10   12.03    1.26
 -15 -13  10    2.46    0.72
 -16 -13  10    0.00    0.87
 -18 -13  10    5.06    2.02
 -19 -13  10    2.60    1.55
 -20 -13  10   -0.11    0.94
 -21 -13  10   -0.54    1.66
  16 -13  11    9.18    1.52
  15 -13  11    2.10    1.08
  14 -13  11   -1.48    2.20
  12 -13  11   21.86    2.35
  11 -13  11    7.55    1.84
  10 -13  11   12.75    2.35
   9 -13  11    9.94    1.26
   7 -13  11    4.48    1.48
   4 -13  11    9.43    1.34
   3 -13  11    3.29    1.41
   2 -13  11    6.90    1.23
   1 -13  11    1.23    1.05
   0 -13  11    6.72    1.34
  -2 -13  11    2.89    1.16
  -4 -13  11    6.50    1.45
  -8 -13  11    1.73    1.73
  -9 -13  11    9.39    1.45
 -11 -13  11    2.38    1.01
 -12 -13  11   -2.28    1.26
 -13 -13  11   11.63    1.45
 -14 -13  11   -0.47    1.05
 -16 -13  11   -0.04    1.12
 -17 -13  11    0.00    1.12
 -18 -13  11    0.54    0.94
  14 -13  12    2.31    1.55
  13 -13  12    4.37    1.77
  11 -13  12    4.08    1.05
  10 -13  12    1.45    0.94
   6 -13  12    0.33    1.52
   5 -13  12    4.81    1.23
   4 -13  12   19.94    1.70
   3 -13  12    2.75    1.77
   2 -13  12    2.49    1.05
   1 -13  12   13.62    1.45
   0 -13  12    8.45    1.16
  -1 -13  12   35.45    2.46
  -2 -13  12    2.60    0.87
  -3 -13  12    2.38    1.05
  -4 -13  12   13.80    1.48
  -5 -13  12   12.14    1.59
  -6 -13  12   -2.42    1.37
  -7 -13  12    2.57    0.69
  -8 -13  12    1.52    0.83
 -11 -13  12    0.79    1.81
 -12 -13  12    0.36    1.34
 -14 -13  12    1.84    1.26
 -15 -13  12    3.87    1.19
 -16 -13  12    1.52    1.99
 -17 -13  12   -0.76    1.45
  13 -13  13    1.70    1.45
  10 -13  13    9.68    1.73
   8 -13  13   17.96    1.48
   6 -13  13   -1.12    1.34
   5 -13  13    7.99    1.81
   4 -13  13   12.61    1.23
  -6 -13  13    1.16    1.41
  -8 -13  13   -0.29    1.59
  -9 -13  13    3.36    1.84
 -10 -13  13   -0.72    0.94
 -11 -13  13    1.81    1.26
 -14 -13  13   -1.70    1.81
 -19 -13  13   -0.40    1.84
  11 -13  14    0.40    1.55
   9 -13  14    4.08    1.59
   6 -13  14    0.07    1.16
   7 -14 -16   -1.08    1.91
   6 -14 -16    0.79    1.19
   5 -14 -16    9.32    1.84
   3 -14 -16    1.01    0.83
   2 -14 -16    1.66    1.08
   1 -14 -16    6.65    1.63
  10 -14 -15    0.40    0.87
   9 -14 -15   -0.98    1.26
   8 -14 -15    0.11    1.16
   7 -14 -15    4.59    0.69
   6 -14 -15    3.61    0.98
   5 -14 -15   -0.40    0.76
   4 -14 -15   -0.83    0.79
   3 -14 -15    0.90    0.87
   2 -14 -15   -1.05    0.79
   1 -14 -15   -0.07    0.76
   0 -14 -15   -0.14    1.41
  -1 -14 -15    0.18    1.16
  -2 -14 -15    3.43    1.30
  -3 -14 -15    0.61    1.05
  -4 -14 -15    3.00    1.05
  14 -14 -14   -0.14    1.19
  11 -14 -14    7.08    0.83
  10 -14 -14    0.58    0.94
   9 -14 -14   14.09    0.98
   8 -14 -14    0.54    0.51
   7 -14 -14    5.17    1.52
   6 -14 -14    0.36    0.90
   5 -14 -14   31.40    1.59
   4 -14 -14    1.84    0.61
   3 -14 -14    7.52    1.45
   2 -14 -14    4.52    0.90
   1 -14 -14    3.29    0.79
   0 -14 -14    0.58    0.76
  -1 -14 -14   24.14    1.26
  -2 -14 -14    2.93    1.23
  -3 -14 -14    1.12    0.69
  -4 -14 -14    7.99    1.34
  -5 -14 -14    7.01    1.41
  -6 -14 -14    7.01    1.08
  -7 -14 -14    0.18    1.48
  16 -14 -13    1.84    1.73
  15 -14 -13    5.31    1.30
  13 -14 -13   -0.33    0.83
  12 -14 -13   -0.11    0.65
  10 -14 -13    0.90    1.16
   9 -14 -13    2.24    1.16
   8 -14 -13    4.12    2.10
   7 -14 -13    7.88    0.69
   6 -14 -13    7.05    0.65
   5 -14 -13    3.14    1.19
   4 -14 -13    2.42    0.76
   3 -14 -13   -0.61    1.34
   2 -14 -13    0.33    0.87
   1 -14 -13   -0.36    0.90
   0 -14 -13    1.30    0.65
  -1 -14 -13    3.76    1.05
  -3 -14 -13    2.60    0.87
  -4 -14 -13    0.79    0.94
  -5 -14 -13    0.40    1.01
  -6 -14 -13    1.70    0.65
  -7 -14 -13   12.10    1.37
  -8 -14 -13    3.61    1.41
  -9 -14 -13    1.52    1.19
  16 -14 -12   -1.45    1.30
  15 -14 -12    3.36    1.30
  14 -14 -12   -1.63    1.59
  13 -14 -12    3.87    0.58
  12 -14 -12   -0.36    0.61
  11 -14 -12   -0.11    0.72
  10 -14 -12    0.07    0.94
   9 -14 -12    2.46    0.76
   8 -14 -12    3.07    0.76
   6 -14 -12    0.33    0.69
   5 -14 -12    1.70    0.98
   4 -14 -12   -1.01    0.76
   3 -14 -12   16.95    1.23
   2 -14 -12   42.67    2.93
   1 -14 -12    6.65    1.12
   0 -14 -12    7.44    0.90
  -1 -14 -12    8.53    1.37
  -2 -14 -12   38.41    2.06
  -3 -14 -12    3.87    0.98
  -4 -14 -12   27.17    2.20
  -5 -14 -12   13.04    1.88
  -6 -14 -12    4.66    1.01
  -7 -14 -12    2.38    0.72
  -8 -14 -12    8.53    1.16
  -9 -14 -12    4.52    1.70
 -11 -14 -12   -0.14    1.01
  19 -14 -11    0.40    1.12
  18 -14 -11    1.41    0.94
  17 -14 -11    6.90    1.01
  15 -14 -11    1.23    0.58
  14 -14 -11   -0.61    0.69
  13 -14 -11    1.45    0.69
  12 -14 -11    2.67    1.12
  11 -14 -11    1.55    0.72
  10 -14 -11    0.61    0.94
   9 -14 -11    7.19    0.79
   8 -14 -11    0.58    0.79
   7 -14 -11   -0.40    1.01
   6 -14 -11    1.08    0.83
   5 -14 -11   27.06    1.34
   4 -14 -11    0.43    1.19
   3 -14 -11    0.22    0.65
   2 -14 -11    3.94    0.98
   1 -14 -11    3.79    1.05
   0 -14 -11    1.99    1.26
  -1 -14 -11    1.95    0.76
  -2 -14 -11    2.13    1.45
  -3 -14 -11    8.02    1.81
  -4 -14 -11    4.81    1.05
  -5 -14 -11    0.04    0.69
  -6 -14 -11    9.76    1.73
  -7 -14 -11    2.85    1.26
  -8 -14 -11    0.69    0.69
  -9 -14 -11   14.31    2.20
 -10 -14 -11    1.41    0.69
 -11 -14 -11    1.59    1.08
 -12 -14 -11   -0.29    1.01
 -13 -14 -11    0.98    1.05
  17 -14 -10    2.46    0.79
  16 -14 -10    0.00    0.83
  15 -14 -10    2.93    1.34
  14 -14 -10    2.49    0.69
  13 -14 -10    4.59    0.87
  12 -14 -10    9.72    1.37
  11 -14 -10    9.43    1.23
  10 -14 -10    2.85    0.98
   9 -14 -10   32.77    3.25
   8 -14 -10    4.08    1.26
   7 -14 -10   44.80    2.13
   6 -14 -10    3.00    0.69
   5 -14 -10    9.68    0.79
   4 -14 -10   -0.07    1.23
   3 -14 -10   16.19    1.52
   2 -14 -10   17.78    1.34
   0 -14 -10   46.14    1.63
  -1 -14 -10   11.31    0.94
  -2 -14 -10   27.10    1.34
  -3 -14 -10    9.14    0.94
  -4 -14 -10   39.96    2.02
  -5 -14 -10   -2.24    1.55
  -6 -14 -10    5.31    1.30
  -7 -14 -10    8.60    1.37
  -8 -14 -10   25.98    1.84
  -9 -14 -10   -0.36    1.30
 -10 -14 -10   11.78    0.83
 -11 -14 -10   -0.54    1.08
 -12 -14 -10   21.17    1.99
 -13 -14 -10    2.60    1.34
 -14 -14 -10    4.26    1.16
  20 -14  -9    0.18    1.34
  19 -14  -9    2.31    1.19
  18 -14  -9    0.22    0.76
  16 -14  -9    0.87    0.69
  14 -14  -9    1.52    1.12
  13 -14  -9    7.05    0.94
  12 -14  -9    0.83    0.58
  11 -14  -9   -0.98    0.61
  10 -14  -9    3.65    0.79
   9 -14  -9    2.64    1.01
   8 -14  -9    0.98    0.69
   7 -14  -9   20.74    1.23
   6 -14  -9    0.69    0.90
   5 -14  -9    5.42    1.08
   4 -14  -9    0.25    0.94
   3 -14  -9    5.74    1.95
   2 -14  -9    3.32    0.90
   1 -14  -9    3.11    0.61
   0 -14  -9   -0.90    1.08
  -1 -14  -9   34.80    1.73
  -2 -14  -9   -0.58    0.83
  -3 -14  -9   22.29    1.30
  -4 -14  -9    4.81    0.79
  -5 -14  -9   -0.87    0.72
  -6 -14  -9   10.44    0.83
  -7 -14  -9    2.93    0.87
  -8 -14  -9   11.20    0.90
  -9 -14  -9    8.56    1.12
 -10 -14  -9    2.89    0.87
 -11 -14  -9    4.16    1.48
 -12 -14  -9    2.49    0.90
 -13 -14  -9   -0.47    1.08
 -14 -14  -9    1.12    0.87
 -15 -14  -9   -0.65    0.94
  21 -14  -8    1.99    1.26
  20 -14  -8    1.59    1.26
  19 -14  -8   30.86    1.48
  18 -14  -8    2.38    1.30
  17 -14  -8    3.04    0.98
  16 -14  -8    7.95    0.87
  15 -14  -8    5.82    1.08
  14 -14  -8    0.83    0.79
  13 -14  -8   -0.25    0.98
  12 -14  -8    1.95    0.90
  11 -14  -8   32.34    1.63
  10 -14  -8    2.38    1.12
   9 -14  -8    5.09    1.16
   8 -14  -8    3.22    0.76
   7 -14  -8  136.54    5.35
   6 -14  -8   17.16    1.30
   5 -14  -8    4.23    0.79
   4 -14  -8   34.04    1.52
   3 -14  -8  135.60    3.43
   2 -14  -8    4.12    0.98
   1 -14  -8   10.51    2.75
  -1 -14  -8   27.24    1.41
  -2 -14  -8    2.49    0.76
  -3 -14  -8    1.30    0.87
  -5 -14  -8    4.66    1.16
  -6 -14  -8   -0.25    0.58
  -7 -14  -8    1.59    1.01
  -8 -14  -8   26.81    2.20
  -9 -14  -8   51.85    2.24
 -10 -14  -8    0.25    0.65
 -11 -14  -8    0.14    0.65
 -12 -14  -8   50.91    2.38
 -13 -14  -8    9.72    1.01
 -14 -14  -8   14.16    1.48
 -15 -14  -8    2.64    0.94
 -16 -14  -8   42.24    2.38
 -17 -14  -8    2.75    1.16
  21 -14  -7    0.94    1.30
  20 -14  -7    0.83    1.19
  19 -14  -7   -2.06    1.48
  18 -14  -7    1.23    0.76
  17 -14  -7   -0.14    0.69
  16 -14  -7    0.25    0.43
  15 -14  -7   -0.07    0.54
  14 -14  -7    0.87    0.61
  13 -14  -7    0.90    0.61
  12 -14  -7    1.77    0.94
  11 -14  -7    0.18    0.61
  10 -14  -7    1.70    0.61
   9 -14  -7    5.42    0.65
   8 -14  -7    1.45    1.37
   7 -14  -7    6.18    2.42
   6 -14  -7   -1.41    0.94
   5 -14  -7    5.56    1.34
   4 -14  -7    1.34    1.19
   3 -14  -7   -0.33    1.12
   2 -14  -7   -1.41    1.01
   1 -14  -7   -0.18    1.23
   0 -14  -7    1.73    0.69
  -1 -14  -7    2.10    0.58
  -2 -14  -7   -0.40    0.90
  -3 -14  -7    3.54    0.69
  -4 -14  -7    1.30    1.16
  -5 -14  -7    1.66    0.65
  -6 -14  -7   -0.72    0.76
  -7 -14  -7    1.12    1.26
  -8 -14  -7   19.33    1.45
  -9 -14  -7    5.42    0.87
 -10 -14  -7    0.36    0.90
 -11 -14  -7    6.94    1.19
 -12 -14  -7    0.83    0.61
 -13 -14  -7    5.24    0.94
 -14 -14  -7    3.14    1.08
 -15 -14  -7   -1.08    0.90
 -16 -14  -7    3.50    0.98
 -17 -14  -7    4.59    2.13
 -18 -14  -7   -0.11    1.19
  22 -14  -6    6.94    1.26
  20 -14  -6    0.90    1.01
  19 -14  -6    7.77    0.98
  17 -14  -6   21.28    3.25
  16 -14  -6   -0.90    0.76
  15 -14  -6   19.40    1.41
  14 -14  -6   15.93    1.45
  13 -14  -6    1.41    0.94
  12 -14  -6    6.83    1.52
  11 -14  -6   72.84    2.20
  10 -14  -6   31.69    1.41
   9 -14  -6    5.85    1.30
   8 -14  -6    2.46    1.30
   7 -14  -6   83.79    2.75
   6 -14  -6    0.33    1.12
   4 -14  -6    7.15    1.45
   3 -14  -6   32.52    1.59
   2 -14  -6   30.28    1.30
   1 -14  -6  173.04    5.78
   0 -14  -6    1.01    0.72
  -1 -14  -6   38.48    1.99
  -2 -14  -6   47.59    2.13
  -3 -14  -6   47.55    1.99
  -5 -14  -6    7.52    1.08
  -6 -14  -6    7.62    1.01
  -7 -14  -6   42.74    2.46
  -8 -14  -6   10.51    1.16
  -9 -14  -6   14.96    1.55
 -10 -14  -6   42.31    1.70
 -11 -14  -6  116.06    3.47
 -12 -14  -6    8.92    0.90
 -13 -14  -6    1.77    0.79
 -14 -14  -6   77.43    2.57
 -15 -14  -6   16.44    1.59
 -16 -14  -6   11.74    1.37
 -17 -14  -6   -2.42    1.66
 -18 -14  -6   36.38    3.04
  21 -14  -5    0.72    0.72
  20 -14  -5    0.61    0.76
  19 -14  -5    2.89    0.87
  18 -14  -5    1.01    0.90
  17 -14  -5    5.60    1.77
  16 -14  -5    3.04    0.61
  15 -14  -5    1.88    1.41
  14 -14  -5    1.55    1.41
  13 -14  -5    0.94    1.34
  12 -14  -5    1.08    0.90
  11 -14  -5    1.63    1.05
  10 -14  -5   -0.25    1.12
   9 -14  -5    1.70    0.87
   7 -14  -5   12.36    1.08
   6 -14  -5    1.48    0.72
   5 -14  -5    0.94    1.16
   4 -14  -5    6.00    0.90
   3 -14  -5   10.59    1.19
   2 -14  -5   11.27    1.05
   1 -14  -5    8.64    0.98
   0 -14  -5    6.25    0.90
  -1 -14  -5    1.05    0.79
  -2 -14  -5   -0.58    0.76
  -3 -14  -5    4.41    1.23
  -4 -14  -5   -0.94    0.90
  -5 -14  -5    5.96    0.65
  -6 -14  -5    2.28    1.30
  -9 -14  -5   31.54    1.37
 -10 -14  -5   15.03    1.41
 -11 -14  -5    3.54    1.26
 -12 -14  -5    2.42    0.87
 -13 -14  -5    1.01    1.01
 -14 -14  -5   -1.23    0.79
 -15 -14  -5    0.36    1.01
 -16 -14  -5    5.60    1.16
 -17 -14  -5    0.33    1.08
 -18 -14  -5    1.88    1.30
 -19 -14  -5    6.87    1.52
  22 -14  -4   -1.81    1.37
  21 -14  -4    7.80    1.30
  20 -14  -4   19.58    2.96
  19 -14  -4    3.29    0.98
  18 -14  -4    2.49    1.05
  17 -14  -4    8.24    0.76
  16 -14  -4    9.65    0.98
  15 -14  -4    8.42    1.05
  13 -14  -4    0.79    1.05
  12 -14  -4   32.45    1.45
  11 -14  -4    3.58    0.79
  10 -14  -4    1.91    1.30
   9 -14  -4  109.99    3.76
   8 -14  -4   82.78    2.89
   7 -14  -4   29.88    1.48
   6 -14  -4   39.28    4.34
   5 -14  -4  199.81    5.78
   4 -14  -4    2.02    0.61
   3 -14  -4    0.07    0.58
   2 -14  -4    4.41    0.83
   1 -14  -4   75.95    2.57
   0 -14  -4    0.11    0.58
  -1 -14  -4    1.73    1.08
  -2 -14  -4    6.25    0.65
  -3 -14  -4  124.04    3.29
  -4 -14  -4    6.50    1.77
  -5 -14  -4    1.63    0.90
  -6 -14  -4   -0.76    0.72
  -7 -14  -4  124.47    7.01
  -9 -14  -4   -1.66    0.98
 -10 -14  -4  137.77    3.65
 -11 -14  -4   87.19    3.07
 -12 -14  -4   -1.16    1.01
 -13 -14  -4   27.82    1.30
 -14 -14  -4   86.46    3.97
 -15 -14  -4   20.88    1.16
 -16 -14  -4   12.36    1.01
 -17 -14  -4   12.32    1.12
 -18 -14  -4   11.24    1.12
 -19 -14  -4    0.65    0.98
 -20 -14  -4    2.49    1.01
  21 -14  -3   -0.36    0.90
  20 -14  -3    1.30    0.76
  19 -14  -3    0.72    0.94
  18 -14  -3   -1.08    1.01
  17 -14  -3    0.36    0.98
  16 -14  -3    1.59    0.87
  15 -14  -3    1.19    1.48
  14 -14  -3    4.16    0.69
  13 -14  -3    4.44    1.05
  12 -14  -3   -1.19    1.12
  11 -14  -3   19.37    1.16
  10 -14  -3    0.33    0.76
   9 -14  -3    1.23    1.01
   8 -14  -3    0.90    0.72
   7 -14  -3    1.66    1.26
   6 -14  -3   -0.07    0.98
   5 -14  -3    0.65    0.76
   4 -14  -3    0.65    0.79
   3 -14  -3    2.20    0.76
   2 -14  -3    0.51    1.05
   1 -14  -3   58.86    3.32
   0 -14  -3    8.89    1.19
  -1 -14  -3    1.34    0.58
  -2 -14  -3    7.77    1.34
  -3 -14  -3    5.67    0.94
  -4 -14  -3    0.61    0.72
  -5 -14  -3    0.83    1.05
  -6 -14  -3    8.45    1.48
  -7 -14  -3    1.26    0.65
  -8 -14  -3    4.66    1.23
  -9 -14  -3    1.05    0.69
 -10 -14  -3    0.83    1.05
 -11 -14  -3   25.76    1.19
 -12 -14  -3   12.86    1.34
 -13 -14  -3   -0.87    1.12
 -14 -14  -3    1.01    0.90
 -15 -14  -3    1.37    0.90
 -16 -14  -3   -1.01    0.87
 -17 -14  -3   18.43    3.29
 -18 -14  -3    7.37    1.01
 -19 -14  -3    3.32    0.98
 -20 -14  -3    7.55    2.02
  21 -14  -2    1.08    1.41
  20 -14  -2    9.54    0.90
  19 -14  -2    0.61    0.58
  18 -14  -2    2.24    0.76
  17 -14  -2    6.90    1.23
  16 -14  -2    7.59    1.05
  15 -14  -2    2.38    0.79
  14 -14  -2   -0.07    0.69
  13 -14  -2   12.90    0.98
  12 -14  -2   39.31    3.83
  11 -14  -2    6.54    0.90
  10 -14  -2    4.77    0.79
   9 -14  -2   35.73    2.17
   8 -14  -2    8.17    0.98
   7 -14  -2   14.38    1.34
   6 -14  -2    0.47    1.30
   5 -14  -2  149.59    3.94
   4 -14  -2   -1.34    1.12
   3 -14  -2   69.41    2.28
   2 -14  -2   30.68    1.88
   1 -14  -2   14.60    1.05
   0 -14  -2   -0.51    0.90
  -1 -14  -2    9.36    0.98
  -3 -14  -2   62.00    2.10
  -4 -14  -2   -0.58    0.98
  -5 -14  -2   64.46    3.54
  -6 -14  -2    1.48    0.94
  -7 -14  -2   53.01    2.64
  -8 -14  -2    0.79    0.76
  -9 -14  -2   41.59    2.60
 -10 -14  -2   82.38    2.89
 -11 -14  -2   61.86    4.55
 -12 -14  -2    7.59    1.16
 -13 -14  -2   48.13    3.29
 -14 -14  -2   41.05    2.17
 -15 -14  -2   -0.25    0.79
 -16 -14  -2   23.16    2.20
 -17 -14  -2    1.16    0.65
 -18 -14  -2    3.54    0.90
 -19 -14  -2   -0.33    1.41
 -20 -14  -2    1.52    1.05
 -21 -14  -2    4.05    1.34
  21 -14  -1   -1.91    1.37
  20 -14  -1    0.65    0.51
  19 -14  -1    6.03    0.98
  18 -14  -1    1.37    1.01
  17 -14  -1    0.65    0.54
  16 -14  -1   -0.25    1.12
  15 -14  -1    5.13    0.76
  14 -14  -1    2.67    1.19
  13 -14  -1    3.11    1.81
  12 -14  -1    0.58    0.87
  11 -14  -1   20.23    1.05
  10 -14  -1    1.30    0.87
   9 -14  -1    2.06    0.72
   8 -14  -1    0.40    0.98
   7 -14  -1   24.86    1.45
   6 -14  -1   -0.22    0.58
   5 -14  -1    2.10    1.05
   4 -14  -1   -1.19    0.98
   2 -14  -1    3.94    1.19
   1 -14  -1    2.17    0.72
   0 -14  -1    1.01    0.94
  -1 -14  -1   35.08    1.81
  -2 -14  -1    3.00    0.83
  -3 -14  -1    0.79    0.94
  -4 -14  -1   20.45    1.59
  -5 -14  -1   -0.33    0.65
  -6 -14  -1    5.42    2.24
  -7 -14  -1    5.67    1.08
  -8 -14  -1   -0.72    0.76
  -9 -14  -1   11.85    1.30
 -10 -14  -1    1.84    1.30
 -11 -14  -1    6.43    1.05
 -12 -14  -1    2.78    0.76
 -13 -14  -1   16.04    1.08
 -14 -14  -1    0.87    0.72
 -15 -14  -1    4.19    0.79
 -16 -14  -1    2.17    1.08
 -17 -14  -1    1.26    0.65
 -18 -14  -1    0.58    0.72
 -19 -14  -1   -1.41    0.69
 -20 -14  -1    3.65    1.34
 -21 -14  -1    0.14    0.79
  21 -14   0    1.52    1.19
  20 -14   0    8.13    1.73
  19 -14   0    1.81    2.42
  18 -14   0   -1.45    2.20
  17 -14   0    4.37    1.01
  16 -14   0    6.40    1.26
  15 -14   0    4.12    1.01
  14 -14   0    0.47    0.98
  13 -14   0   47.41    2.20
  12 -14   0   13.15    1.99
  11 -14   0    0.94    0.79
  10 -14   0   44.70    2.06
   9 -14   0   37.07    2.35
   8 -14   0   17.70    1.37
   7 -14   0   39.49    2.38
   6 -14   0    1.99    1.01
   5 -14   0   81.30    4.19
   4 -14   0    1.34    0.69
   3 -14   0   13.73    1.52
   2 -14   0    2.78    0.87
   1 -14   0    1.59    1.05
   0 -14   0   27.82    1.59
  -2 -14   0    3.43    0.58
  -3 -14   0   13.26    1.19
  -4 -14   0    0.61    0.69
  -5 -14   0   91.78    3.47
  -6 -14   0    2.67    0.76
  -7 -14   0   37.97    1.99
  -8 -14   0   19.33    1.52
  -9 -14   0   49.61    2.82
 -10 -14   0   49.21    2.57
 -11 -14   0    0.72    1.05
 -12 -14   0   10.04    1.55
 -13 -14   0   46.00    2.49
 -15 -14   0    2.10    0.94
 -16 -14   0    6.61    1.01
 -17 -14   0    1.70    1.16
 -18 -14   0   -0.36    0.65
 -19 -14   0    0.22    0.72
 -20 -14   0    9.97    1.05
 -21 -14   0   -0.54    1.41
 -22 -14   0    0.07    1.37
  21 -14   1   -1.99    1.66
  20 -14   1    2.24    1.70
  19 -14   1    0.61    1.12
  18 -14   1    0.79    1.12
  17 -14   1    1.84    0.72
  16 -14   1    0.04    1.12
  15 -14   1    5.13    0.94
  14 -14   1    3.32    1.12
  13 -14   1   16.66    1.12
  11 -14   1    5.38    1.23
  10 -14   1    0.36    0.87
   9 -14   1   11.56    1.30
   8 -14   1    2.10    1.34
   7 -14   1    7.12    1.45
   6 -14   1    3.40    1.48
   5 -14   1    1.59    0.76
   4 -14   1   16.26    1.77
   3 -14   1   -0.61    0.69
   2 -14   1    2.53    0.69
   1 -14   1   34.90    2.75
  -1 -14   1    1.77    0.69
  -2 -14   1    5.28    1.73
  -4 -14   1   -0.61    0.65
  -5 -14   1    0.04    1.05
  -6 -14   1   -1.12    1.26
  -7 -14   1   29.74    1.26
  -8 -14   1    1.45    0.83
  -9 -14   1    1.41    0.69
 -10 -14   1   -0.43    0.76
 -11 -14   1   23.96    1.77
 -12 -14   1   -0.90    1.12
 -13 -14   1    2.78    0.90
 -14 -14   1   -1.05    1.59
 -15 -14   1    4.88    1.19
 -16 -14   1    1.30    0.72
 -17 -14   1    2.13    1.08
 -18 -14   1    0.98    1.48
 -19 -14   1    7.84    1.23
 -20 -14   1   -0.07    0.83
 -21 -14   1    0.79    1.08
 -22 -14   1   -1.73    1.70
  21 -14   2    3.14    1.66
  20 -14   2    3.04    1.63
  19 -14   2    1.30    0.94
  18 -14   2    4.88    1.12
  17 -14   2    4.59    1.19
  16 -14   2   14.20    1.05
  15 -14   2   -1.30    0.87
  14 -14   2   43.21    2.13
  13 -14   2   47.48    2.38
  12 -14   2    6.14    1.59
  11 -14   2   60.95    2.57
  10 -14   2   70.17    2.60
   9 -14   2   39.46    2.13
   7 -14   2   51.63    3.18
   6 -14   2   -0.04    1.12
   5 -14   2   70.78    3.32
   4 -14   2   -0.25    1.12
   3 -14   2   56.26    2.35
   2 -14   2   67.06    5.42
   1 -14   2    7.66    0.98
   0 -14   2    0.14    0.65
  -1 -14   2   11.71    0.87
  -2 -14   2   29.99    2.24
  -3 -14   2   65.22    2.35
  -5 -14   2  145.03    3.65
  -6 -14   2    0.83    0.83
  -7 -14   2   17.60    1.45
  -8 -14   2    6.76    0.90
  -9 -14   2   32.88    1.91
 -10 -14   2    6.32    1.19
 -11 -14   2    4.55    0.87
 -12 -14   2   30.46    2.06
 -13 -14   2   18.39    2.67
 -14 -14   2   -0.04    1.05
 -17 -14   2    7.70    1.05
 -18 -14   2   -0.40    1.08
 -19 -14   2    0.90    1.66
 -20 -14   2   10.15    1.37
 -21 -14   2    1.99    1.45
  20 -14   3    7.84    0.98
  19 -14   3    2.20    0.94
  18 -14   3    6.07    0.94
  17 -14   3   11.74    1.30
  16 -14   3    1.05    1.08
  15 -14   3    2.42    0.90
  14 -14   3    2.02    0.79
  13 -14   3    0.83    1.23
  12 -14   3   10.73    1.34
  11 -14   3   18.14    1.73
  10 -14   3    0.61    1.01
   9 -14   3    0.87    0.98
   7 -14   3    1.55    0.90
   6 -14   3    5.42    1.16
   5 -14   3    2.57    0.79
   4 -14   3    1.66    0.76
   3 -14   3    5.78    1.08
   2 -14   3    5.71    0.83
   1 -14   3    4.30    0.69
   0 -14   3    9.94    1.37
  -1 -14   3   51.09    2.02
  -3 -14   3    1.48    0.83
  -4 -14   3    3.25    0.98
  -5 -14   3    1.23    1.41
  -6 -14   3    1.26    0.98
  -7 -14   3    0.36    1.05
  -8 -14   3    1.95    0.87
  -9 -14   3   -1.66    1.37
 -10 -14   3    1.08    0.90
 -11 -14   3   18.61    1.16
 -12 -14   3    0.58    0.76
 -13 -14   3    2.60    1.52
 -14 -14   3    2.06    0.94
 -16 -14   3   -0.47    0.87
 -18 -14   3    1.81    1.08
 -19 -14   3    2.10    1.19
 -20 -14   3    0.69    0.90
 -21 -14   3    0.72    0.76
  20 -14   4    4.48    1.08
  19 -14   4   -0.51    1.12
  18 -14   4   12.43    1.48
  15 -14   4   24.50    1.77
  14 -14   4   68.87    4.62
  13 -14   4   24.43    1.73
  12 -14   4    2.06    1.05
  11 -14   4   59.83    1.84
  10 -14   4  103.63    3.29
   9 -14   4    0.14    0.90
   8 -14   4    1.45    0.79
   7 -14   4   94.74    3.18
   6 -14   4   -0.33    0.72
   4 -14   4    6.14    1.16
   3 -14   4  115.73    4.23
   2 -14   4    1.95    1.30
   1 -14   4    0.18    0.83
   0 -14   4    1.99    1.08
  -1 -14   4   72.48    2.31
  -3 -14   4   -0.25    0.69
  -5 -14   4  172.31    4.12
  -6 -14   4   37.69    2.93
  -7 -14   4   24.39    1.73
  -8 -14   4   77.11    2.46
  -9 -14   4  103.63    3.83
 -10 -14   4    0.72    0.69
 -11 -14   4    3.40    0.76
 -12 -14   4   29.70    1.91
 -14 -14   4   -1.81    1.52
 -15 -14   4    8.06    0.83
 -16 -14   4    7.66    1.26
 -17 -14   4    9.32    1.01
 -18 -14   4    2.53    0.90
 -20 -14   4   15.18    0.83
 -21 -14   4   10.98    1.91
  19 -14   5    2.28    1.30
  18 -14   5   -0.29    1.01
  17 -14   5    3.43    1.19
  16 -14   5    0.22    0.87
  15 -14   5   -1.05    0.87
  14 -14   5    1.70    1.01
  13 -14   5   -0.33    0.69
  12 -14   5    3.43    0.83
  11 -14   5    4.37    0.90
  10 -14   5   12.47    1.26
   9 -14   5   23.20    1.91
   7 -14   5    2.24    0.94
   6 -14   5    2.17    1.41
   5 -14   5    4.91    0.69
   4 -14   5   -1.26    1.45
   3 -14   5    2.42    0.72
   2 -14   5    0.76    1.99
   1 -14   5    1.88    0.69
   0 -14   5    4.81    1.30
  -1 -14   5    6.03    1.05
  -2 -14   5    8.71    1.52
  -3 -14   5    7.26    0.76
  -5 -14   5    0.25    0.65
  -6 -14   5    0.11    1.26
  -7 -14   5   11.16    0.83
  -8 -14   5   -0.25    1.48
  -9 -14   5    1.37    0.94
 -10 -14   5    0.76    1.41
 -11 -14   5    3.00    2.13
 -12 -14   5   -0.51    0.94
 -13 -14   5    2.28    0.90
 -14 -14   5    3.04    1.19
 -15 -14   5    0.47    0.94
 -17 -14   5    1.99    0.94
 -18 -14   5    1.81    1.05
 -19 -14   5    1.88    0.76
 -20 -14   5    2.49    0.79
 -21 -14   5    1.91    1.19
  18 -14   6   25.76    3.32
  17 -14   6    2.20    1.01
  16 -14   6    6.72    1.12
  15 -14   6   13.33    2.13
  14 -14   6   59.26    2.78
  13 -14   6    0.54    1.23
  12 -14   6    4.23    1.01
  11 -14   6   87.01    4.08
  10 -14   6   32.37    2.06
   9 -14   6    9.57    0.87
   8 -14   6   10.12    1.19
   7 -14   6   28.80    1.73
   6 -14   6    5.78    0.94
   5 -14   6    5.96    0.72
   3 -14   6   35.26    1.77
   2 -14   6   32.59    2.10
   1 -14   6   28.80    1.48
   0 -14   6   -0.04    1.05
  -1 -14   6  139.43    3.69
  -2 -14   6   24.14    1.55
  -4 -14   6    7.01    0.90
  -5 -14   6   40.54    1.66
  -6 -14   6   -0.65    0.94
  -7 -14   6   54.45    2.35
  -9 -14   6    4.77    0.79
 -10 -14   6   27.53    1.16
 -11 -14   6   51.99    2.89
 -12 -14   6    4.34    1.19
 -13 -14   6    2.60    0.87
 -14 -14   6    8.31    0.98
 -15 -14   6   13.95    1.08
 -16 -14   6    0.83    1.23
 -17 -14   6   16.22    1.16
 -18 -14   6    5.64    1.16
 -19 -14   6    9.83    1.91
 -20 -14   6    0.40    1.05
  18 -14   7    3.07    1.66
  17 -14   7    1.95    1.48
  16 -14   7    2.96    1.05
  15 -14   7   -0.11    0.87
  14 -14   7    1.55    1.08
  13 -14   7    3.54    1.12
  12 -14   7    0.69    1.08
  11 -14   7    6.76    1.05
  10 -14   7   -2.02    1.01
   9 -14   7    4.48    1.12
   8 -14   7   16.80    1.08
   7 -14   7    2.60    1.99
   6 -14   7   -0.87    0.76
   5 -14   7   -0.04    0.87
   4 -14   7    0.51    0.79
   3 -14   7    0.98    0.72
   2 -14   7    0.69    0.83
   1 -14   7    3.32    0.98
   0 -14   7    3.50    0.79
  -1 -14   7    0.76    0.61
  -2 -14   7   -0.04    0.94
  -3 -14   7    2.17    1.88
  -4 -14   7    0.69    0.72
  -5 -14   7    2.96    0.98
  -6 -14   7   -1.23    0.94
  -7 -14   7    6.94    1.01
  -8 -14   7    1.52    0.69
  -9 -14   7    3.72    0.87
 -10 -14   7   -0.18    0.72
 -12 -14   7    1.66    0.94
 -13 -14   7    0.29    0.87
 -14 -14   7    1.05    1.05
 -15 -14   7    1.88    1.73
 -16 -14   7   -0.11    0.83
 -17 -14   7    0.07    0.79
 -18 -14   7    2.64    1.19
 -19 -14   7    1.55    1.01
 -20 -14   7    2.17    1.37
 -21 -14   7    3.79    1.59
  17 -14   8    3.54    1.19
  16 -14   8   24.21    1.91
  15 -14   8    0.72    1.08
  14 -14   8   -0.47    2.38
  13 -14   8    6.90    1.55
  12 -14   8   35.48    2.24
  11 -14   8    1.01    0.83
  10 -14   8    1.12    0.79
   9 -14   8   37.36    2.10
   8 -14   8   24.03    2.10
   7 -14   8    0.76    0.90
   6 -14   8    1.23    0.69
   5 -14   8    3.07    1.05
   4 -14   8    9.18    1.19
   3 -14   8    0.83    0.69
   2 -14   8    0.87    0.98
   1 -14   8   19.11    1.63
   0 -14   8   91.56    3.25
  -1 -14   8   11.96    0.90
  -2 -14   8    2.17    0.79
  -3 -14   8  108.83    5.78
  -4 -14   8   29.12    1.88
  -5 -14   8    3.04    0.72
  -6 -14   8   11.78    1.41
  -7 -14   8  108.72    3.04
  -8 -14   8    0.18    1.48
  -9 -14   8    5.35    0.79
 -10 -14   8    2.60    2.02
 -11 -14   8   27.68    1.41
 -12 -14   8   -0.04    0.94
 -13 -14   8   -0.36    0.90
 -14 -14   8   -0.18    0.98
 -15 -14   8    4.23    1.01
 -16 -14   8    7.37    1.08
 -17 -14   8    2.28    0.98
 -18 -14   8    1.23    0.87
 -19 -14   8   21.17    1.37
 -20 -14   8    4.12    1.73
 -21 -14   8    1.37    1.63
  15 -14   9   -1.12    1.01
  14 -14   9    2.20    1.48
  13 -14   9   -0.11    1.08
  12 -14   9    1.77    0.83
  11 -14   9    3.76    0.79
  10 -14   9   -0.29    0.83
   9 -14   9    6.36    1.73
   8 -14   9   10.04    1.16
   7 -14   9    1.95    0.94
   6 -14   9    8.71    0.94
   5 -14   9    0.58    0.87
   4 -14   9    6.32    1.08
   3 -14   9   18.86    1.16
   2 -14   9    0.61    0.58
   1 -14   9   26.52    3.76
   0 -14   9   -1.48    1.81
  -1 -14   9    2.57    1.45
  -2 -14   9    3.14    2.02
  -3 -14   9    6.25    1.19
  -4 -14   9   -0.25    0.79
  -5 -14   9    4.70    1.99
  -6 -14   9    1.84    1.99
  -7 -14   9   14.96    1.23
  -8 -14   9   -1.66    1.77
  -9 -14   9    1.55    0.79
 -10 -14   9    3.40    1.05
 -11 -14   9    1.48    1.84
 -12 -14   9    1.41    0.69
 -13 -14   9    6.90    1.16
 -14 -14   9   -0.65    1.05
 -15 -14   9    6.47    0.90
 -16 -14   9    0.65    1.26
 -17 -14   9    1.23    0.72
 -18 -14   9   -2.82    1.59
 -19 -14   9   -0.18    1.52
 -20 -14   9   -1.26    1.08
  14 -14  10    2.93    1.45
  13 -14  10    2.57    1.55
  11 -14  10    0.94    2.28
  10 -14  10    5.60    1.59
   9 -14  10    1.05    0.90
   8 -14  10   17.38    1.41
   7 -14  10    8.78    1.08
   6 -14  10    4.91    1.05
   5 -14  10   -0.43    0.94
   4 -14  10   44.48    4.30
   3 -14  10    7.66    1.52
   2 -14  10   19.44    2.85
   1 -14  10    3.94    1.45
   0 -14  10   28.44    2.71
  -1 -14  10    0.94    0.79
  -2 -14  10   15.54    1.84
  -3 -14  10   11.02    1.77
  -5 -14  10    8.92    1.41
  -6 -14  10    2.60    1.73
  -7 -14  10   31.54    3.69
  -8 -14  10    1.45    0.87
  -9 -14  10   24.35    1.77
 -10 -14  10    4.12    2.10
 -11 -14  10    8.78    1.19
 -12 -14  10   10.12    1.08
 -13 -14  10    3.14    0.98
 -14 -14  10    2.42    0.98
 -15 -14  10    1.08    1.41
 -16 -14  10   -0.43    0.94
 -17 -14  10    1.12    1.63
  12 -14  11    0.04    1.34
  11 -14  11    0.00    1.77
  10 -14  11   -0.79    1.41
   8 -14  11    1.91    1.45
   7 -14  11    2.53    1.73
   4 -14  11   -0.65    1.01
   3 -14  11    5.74    1.81
   2 -14  11   -3.61    1.99
  -1 -14  11   -1.01    1.55
  -2 -14  11    2.02    0.87
  -3 -14  11    1.08    1.63
  -4 -14  11    0.76    0.76
  -5 -14  11   20.88    2.35
  -7 -14  11    0.29    0.98
  -8 -14  11    1.81    1.52
 -11 -14  11    0.54    1.16
 -12 -14  11    2.78    1.37
 -13 -14  11    1.70    0.72
 -14 -14  11    1.05    1.55
 -15 -14  11    0.51    1.08
   9 -14  12    0.65    1.59
   8 -14  12    7.48    1.59
   6 -14  12    2.17    1.19
   4 -14  12   17.96    1.52
   2 -14  12   25.80    2.24
  -1 -14  12    2.06    1.01
  -2 -14  12   19.22    1.63
  -3 -14  12   17.38    2.17
  -4 -14  12    0.90    0.83
  -5 -14  12    2.10    1.12
  -7 -14  12    0.07    1.66
  -9 -14  12    1.52    1.23
 -10 -14  12    1.26    1.84
 -12 -14  12    0.72    1.34
 -14 -14  12    1.48    1.55
   9 -14  13    0.98    1.70
   6 -14  13    0.54    1.34
   3 -14  13    0.69    1.81
   1 -14  13   -0.83    1.63
  -1 -14  13    1.41    1.59
  -3 -14  13    0.54    1.12
   6 -15 -14    0.51    0.94
   5 -15 -14   -0.11    1.05
   3 -15 -14   -0.04    1.66
   2 -15 -14    0.72    1.08
   1 -15 -14    2.89    1.30
   9 -15 -13    4.41    1.81
   8 -15 -13   -3.04    1.70
   7 -15 -13    2.10    1.23
   5 -15 -13    1.63    1.26
   4 -15 -13    1.16    1.16
   3 -15 -13    5.89    2.10
   2 -15 -13   -0.65    1.63
   1 -15 -13    4.66    0.87
   0 -15 -13    3.50    1.70
  -1 -15 -13    2.28    1.16
  -3 -15 -13    0.76    1.08
  -4 -15 -13    4.70    1.52
  13 -15 -12   -0.54    1.84
   8 -15 -12   -0.65    1.70
   7 -15 -12    1.45    0.87
   5 -15 -12    4.19    0.87
   4 -15 -12    1.81    0.69
   3 -15 -12    5.93    1.23
   2 -15 -12    3.14    0.83
   1 -15 -12    8.42    1.01
   0 -15 -12    4.37    1.23
  -1 -15 -12   20.41    1.41
  -2 -15 -12    7.80    2.13
  -3 -15 -12    1.73    1.12
  -4 -15 -12    5.02    1.34
  -5 -15 -12    8.82    1.16
  -6 -15 -12    6.47    1.41
  -7 -15 -12    6.03    1.70
  15 -15 -11    1.41    0.83
  13 -15 -11   11.49    1.23
  10 -15 -11    3.43    0.76
   9 -15 -11    1.55    0.69
   8 -15 -11    1.30    1.26
   7 -15 -11    9.36    0.72
   5 -15 -11    1.26    0.76
   4 -15 -11    1.12    0.65
   3 -15 -11    4.26    0.83
   2 -15 -11    0.72    1.26
   1 -15 -11   -2.31    1.26
   0 -15 -11    8.92    0.79
  -1 -15 -11   12.21    0.94
  -2 -15 -11    1.84    0.79
  -3 -15 -11    2.38    1.37
  -4 -15 -11   12.72    1.12
  -5 -15 -11    4.34    0.94
  -7 -15 -11    0.47    0.90
  -8 -15 -11    6.36    1.48
  15 -15 -10    0.33    0.61
  13 -15 -10   13.22    0.83
  12 -15 -10    3.40    1.91
  11 -15 -10    0.14    0.98
  10 -15 -10   -0.36    0.79
   9 -15 -10    1.19    0.72
   8 -15 -10    1.81    0.94
   7 -15 -10    3.72    0.79
   5 -15 -10    5.89    0.90
   4 -15 -10    9.57    1.08
   3 -15 -10    1.45    0.72
   2 -15 -10   -3.69    1.26
   1 -15 -10    0.58    0.90
   0 -15 -10    5.71    1.23
  -1 -15 -10   14.74    1.70
  -2 -15 -10    2.57    0.76
  -3 -15 -10    8.49    0.87
  -4 -15 -10   18.93    1.12
  -5 -15 -10    1.26    1.05
  -6 -15 -10    2.35    0.94
  -7 -15 -10    5.64    0.98
  -9 -15 -10    1.70    1.34
 -10 -15 -10    4.77    1.30
  17 -15  -9    2.35    1.63
  15 -15  -9    9.36    1.26
  14 -15  -9   -0.65    0.90
  13 -15  -9    3.18    0.69
  12 -15  -9    1.91    0.83
  10 -15  -9    0.14    0.69
   9 -15  -9    1.77    0.94
   7 -15  -9   40.25    3.36
   6 -15  -9    0.58    0.83
   5 -15  -9    5.53    0.79
   4 -15  -9    1.88    1.66
   3 -15  -9    6.11    0.72
   1 -15  -9    5.28    0.90
   0 -15  -9   11.45    1.45
  -1 -15  -9   29.05    2.13
  -2 -15  -9    1.16    0.61
  -3 -15  -9    2.93    0.72
  -5 -15  -9   14.38    2.24
  -6 -15  -9    0.36    0.69
  -7 -15  -9   -0.98    0.65
  -8 -15  -9   15.32    1.19
  -9 -15  -9   13.51    1.26
 -10 -15  -9    0.33    0.98
 -11 -15  -9   -1.19    1.41
 -12 -15  -9    8.02    1.23
  18 -15  -8    1.59    1.05
  17 -15  -8   -0.69    1.45
  14 -15  -8    1.52    0.69
  13 -15  -8    0.18    0.54
  12 -15  -8    2.93    0.61
  11 -15  -8    0.33    1.41
  10 -15  -8   18.10    1.55
   9 -15  -8    3.58    0.90
   8 -15  -8   -0.36    0.87
   7 -15  -8   19.69    1.19
   6 -15  -8    0.11    1.52
   4 -15  -8    8.45    0.90
   3 -15  -8    1.70    1.19
   2 -15  -8    9.11    1.16
   1 -15  -8    7.80    0.94
   0 -15  -8   13.12    1.37
  -1 -15  -8   -0.04    0.61
  -2 -15  -8    5.53    0.76
  -3 -15  -8    0.18    1.08
  -5 -15  -8   14.45    1.48
  -6 -15  -8    4.37    0.79
  -7 -15  -8    0.79    0.79
  -8 -15  -8   -0.07    1.08
  -9 -15  -8    0.65    0.72
 -10 -15  -8    1.19    1.48
 -11 -15  -8    6.65    0.94
 -12 -15  -8    4.52    1.23
  16 -15  -7    0.51    0.61
  15 -15  -7   11.74    1.16
  14 -15  -7    3.07    0.72
  13 -15  -7    2.67    0.83
  12 -15  -7   -0.61    1.19
  11 -15  -7   22.73    1.88
  10 -15  -7    7.66    0.79
   9 -15  -7    1.08    0.72
   8 -15  -7    2.75    0.76
   7 -15  -7   31.22    1.91
   6 -15  -7    4.70    0.79
   5 -15  -7   15.18    1.66
   4 -15  -7    2.85    1.34
   3 -15  -7   49.32    1.95
   2 -15  -7    7.12    0.90
   1 -15  -7    6.54    0.94
   0 -15  -7    4.19    1.12
  -1 -15  -7   19.76    1.63
  -2 -15  -7    7.84    0.76
  -3 -15  -7    3.18    2.64
  -5 -15  -7    6.00    0.79
  -6 -15  -7    1.12    0.72
  -7 -15  -7   -0.18    0.83
  -8 -15  -7   25.80    1.19
  -9 -15  -7   24.89    1.66
 -10 -15  -7    6.29    1.05
 -12 -15  -7   15.72    1.12
 -13 -15  -7    4.95    0.87
  19 -15  -6    0.18    0.90
  18 -15  -6   -0.40    0.79
  17 -15  -6    0.76    0.76
  16 -15  -6    0.04    1.30
  15 -15  -6    0.29    0.69
  14 -15  -6    2.38    1.05
  13 -15  -6    2.10    0.61
  12 -15  -6    0.25    0.98
  11 -15  -6    1.59    0.76
  10 -15  -6    3.14    0.98
   9 -15  -6    6.32    1.23
   8 -15  -6   10.51    0.94
   7 -15  -6    0.22    0.58
   6 -15  -6    0.36    0.94
   5 -15  -6   18.68    1.19
   4 -15  -6    1.26    1.16
   3 -15  -6    4.30    1.01
   1 -15  -6    0.33    0.61
   0 -15  -6    0.58    1.30
  -1 -15  -6   12.47    0.94
  -2 -15  -6    1.30    0.76
  -3 -15  -6    1.88    0.98
  -4 -15  -6    0.90    1.19
  -5 -15  -6    0.22    0.83
  -6 -15  -6    0.14    0.65
  -7 -15  -6    1.01    0.90
  -8 -15  -6    0.79    0.65
  -9 -15  -6    4.44    1.01
 -10 -15  -6    0.04    1.05
 -11 -15  -6    3.79    0.94
 -12 -15  -6    0.25    0.79
 -13 -15  -6    0.65    0.87
 -14 -15  -6    0.14    1.05
 -15 -15  -6    6.97    1.26
  19 -15  -5    8.27    1.55
  18 -15  -5    4.55    0.69
  17 -15  -5    0.11    0.65
  16 -15  -5   -0.47    0.90
  15 -15  -5    9.36    1.12
  14 -15  -5    1.37    0.58
  12 -15  -5   10.91    1.08
  11 -15  -5    0.58    0.87
  10 -15  -5    6.47    0.87
   9 -15  -5   23.52    2.17
   7 -15  -5   15.79    1.70
   5 -15  -5   26.85    3.04
   4 -15  -5    6.47    0.90
   3 -15  -5   14.06    0.90
   2 -15  -5    5.17    0.87
   1 -15  -5   55.86    1.77
   0 -15  -5   -1.45    0.90
  -3 -15  -5   63.95    3.43
  -4 -15  -5    5.31    1.41
  -5 -15  -5    4.05    1.48
  -6 -15  -5   18.54    1.19
  -7 -15  -5   35.77    2.28
  -8 -15  -5    0.69    0.58
  -9 -15  -5    0.58    0.83
 -10 -15  -5   54.05    3.14
 -11 -15  -5   24.61    2.42
 -12 -15  -5    4.77    0.98
 -14 -15  -5   27.28    1.63
 -15 -15  -5    9.00    0.87
 -16 -15  -5    3.07    1.16
  19 -15  -4    1.01    1.26
  18 -15  -4    0.83    0.87
  17 -15  -4   -0.14    1.45
  16 -15  -4    1.45    1.01
  15 -15  -4    1.12    0.83
  14 -15  -4   10.44    1.08
  12 -15  -4   -1.95    0.94
  11 -15  -4    6.76    0.98
  10 -15  -4   -0.14    0.79
   9 -15  -4    1.37    0.94
   8 -15  -4   34.18    3.79
   7 -15  -4    1.84    0.83
   6 -15  -4    9.25    0.94
   5 -15  -4    1.55    0.79
   4 -15  -4    3.72    0.72
   3 -15  -4    4.81    1.34
   2 -15  -4   15.03    1.30
   1 -15  -4   16.26    1.01
   0 -15  -4    0.98    0.54
  -1 -15  -4    7.80    1.23
  -2 -15  -4    1.23    0.69
  -3 -15  -4    0.40    0.72
  -4 -15  -4   -0.22    0.58
  -5 -15  -4    6.11    0.83
  -6 -15  -4    3.07    0.87
  -7 -15  -4   11.06    0.94
  -8 -15  -4    8.56    0.69
  -9 -15  -4   22.00    1.37
 -10 -15  -4   -1.73    1.30
 -11 -15  -4   44.62    1.95
 -12 -15  -4    7.26    0.98
 -13 -15  -4    1.70    0.72
 -14 -15  -4    7.55    1.12
 -15 -15  -4   11.63    1.30
 -16 -15  -4   -2.31    1.12
 -17 -15  -4    0.11    1.05
  19 -15  -3    0.65    0.58
  18 -15  -3   -0.29    0.61
  17 -15  -3   15.18    1.41
  16 -15  -3    4.01    1.12
  15 -15  -3   11.20    1.01
  14 -15  -3    9.50    1.48
  13 -15  -3   14.38    1.63
  12 -15  -3    1.19    0.76
  11 -15  -3   -1.19    0.69
  10 -15  -3    1.30    0.83
   8 -15  -3    9.54    1.66
   7 -15  -3    1.59    0.47
   6 -15  -3    2.78    0.72
   4 -15  -3    2.49    0.69
   3 -15  -3   -3.83    2.20
   2 -15  -3    4.55    2.24
   1 -15  -3   61.71    2.06
   0 -15  -3    0.07    0.87
  -1 -15  -3   11.09    1.34
  -2 -15  -3    8.56    1.48
  -3 -15  -3   17.67    1.55
  -4 -15  -3    1.48    1.08
  -5 -15  -3   10.91    0.90
  -6 -15  -3    4.55    0.76
  -7 -15  -3   53.08    2.93
  -8 -15  -3    3.14    1.95
  -9 -15  -3   18.86    2.42
 -10 -15  -3   28.69    2.38
 -12 -15  -3    3.36    1.45
 -14 -15  -3   31.72    1.30
 -15 -15  -3    1.55    1.52
 -16 -15  -3   22.22    1.73
 -17 -15  -3    6.79    1.05
  19 -15  -2    1.63    1.23
  18 -15  -2    1.26    0.94
  17 -15  -2   -0.29    0.98
  16 -15  -2   -0.22    2.53
  15 -15  -2    6.83    0.94
  14 -15  -2    0.69    1.05
  13 -15  -2    1.91    1.19
  12 -15  -2   32.63    2.10
  11 -15  -2   11.38    1.12
  10 -15  -2    6.21    1.16
   9 -15  -2    3.65    0.90
   8 -15  -2   75.91    3.00
   7 -15  -2    4.19    1.08
   6 -15  -2   26.67    1.34
   5 -15  -2    2.35    1.16
   4 -15  -2    1.16    1.19
   3 -15  -2    0.00    0.94
   2 -15  -2   24.82    1.12
   1 -15  -2   11.60    1.05
   0 -15  -2   15.36    1.08
  -1 -15  -2   17.20    1.08
  -2 -15  -2   13.95    1.23
  -3 -15  -2   -0.07    0.98
  -4 -15  -2   16.15    1.01
  -5 -15  -2    6.29    0.90
  -6 -15  -2    7.95    1.01
  -7 -15  -2    8.35    1.37
  -8 -15  -2    0.11    0.94
  -9 -15  -2    1.91    0.65
 -10 -15  -2    4.34    1.05
 -11 -15  -2   24.28    1.19
 -12 -15  -2    0.58    0.90
 -13 -15  -2   16.04    1.70
 -14 -15  -2    9.50    0.98
 -15 -15  -2    8.56    2.20
 -16 -15  -2    1.16    0.98
 -17 -15  -2    4.41    1.05
 -18 -15  -2   -0.69    0.90
  19 -15  -1    0.72    0.87
  18 -15  -1    0.98    1.66
  17 -15  -1    3.50    1.01
  16 -15  -1   -0.83    1.05
  15 -15  -1    1.77    0.90
  14 -15  -1    3.04    0.90
  13 -15  -1    3.83    0.83
  12 -15  -1    2.67    1.52
  11 -15  -1    9.97    1.01
   9 -15  -1   66.01    2.96
   8 -15  -1   16.44    1.30
   7 -15  -1    0.11    0.72
   5 -15  -1   59.26    2.60
   4 -15  -1   -1.48    0.76
   3 -15  -1    3.22    0.94
   2 -15  -1    8.60    0.94
   1 -15  -1   32.27    1.48
   0 -15  -1    2.46    0.76
  -1 -15  -1    3.29    0.83
  -2 -15  -1    0.65    1.19
  -3 -15  -1   11.56    0.83
  -4 -15  -1    7.37    1.34
  -5 -15  -1   19.22    1.16
  -6 -15  -1   10.01    0.83
  -7 -15  -1   16.26    1.23
  -8 -15  -1    0.94    0.98
  -9 -15  -1    0.58    1.08
 -11 -15  -1    2.53    1.52
 -13 -15  -1    6.94    1.19
 -15 -15  -1    0.79    1.12
 -16 -15  -1   20.34    1.70
 -17 -15  -1    4.52    1.19
 -18 -15  -1   -1.95    0.90
  19 -15   0    2.82    1.16
  18 -15   0    1.05    1.52
  17 -15   0    1.16    1.19
  16 -15   0   11.63    2.38
  15 -15   0    4.34    0.90
  14 -15   0    1.30    1.05
  13 -15   0    7.59    2.93
  12 -15   0   16.40    1.55
  11 -15   0    0.29    0.98
  10 -15   0   22.15    1.41
   9 -15   0   12.47    0.94
   8 -15   0    7.62    1.05
   7 -15   0    5.85    1.34
   6 -15   0  135.06    3.43
   5 -15   0   12.86    1.01
   4 -15   0    0.58    0.76
   3 -15   0    0.87    1.01
   2 -15   0   18.68    1.91
   1 -15   0    1.63    1.19
   0 -15   0    1.52    0.98
  -1 -15   0    0.87    0.83
  -2 -15   0   23.52    2.60
  -3 -15   0    1.16    0.79
  -4 -15   0    0.18    0.79
  -5 -15   0   14.13    1.16
  -6 -15   0  133.72    4.48
  -7 -15   0    5.74    1.16
  -8 -15   0    5.31    0.76
  -9 -15   0   14.56    2.17
 -10 -15   0   20.38    1.30
 -11 -15   0    0.25    0.83
 -12 -15   0   12.83    1.41
 -13 -15   0   12.10    1.16
 -14 -15   0    3.36    0.72
 -15 -15   0    4.66    0.87
 -16 -15   0   11.06    2.17
 -17 -15   0    2.64    1.26
 -18 -15   0    0.54    0.94
  18 -15   1    1.05    0.76
  17 -15   1    2.89    0.90
  16 -15   1   11.67    1.34
  15 -15   1    2.49    1.16
  14 -15   1    3.14    0.76
  13 -15   1    9.57    1.01
  12 -15   1    0.79    0.76
  11 -15   1   -0.76    0.98
  10 -15   1   30.35    1.37
   9 -15   1    1.91    0.72
   8 -15   1    0.69    2.17
   7 -15   1    9.29    1.12
   6 -15   1    9.90    1.52
   5 -15   1   14.63    1.63
   4 -15   1    7.05    1.26
   3 -15   1   12.50    1.52
   2 -15   1    2.53    1.26
   1 -15   1    1.63    0.72
   0 -15   1    2.71    2.06
  -1 -15   1   25.87    1.26
  -2 -15   1    5.53    0.87
  -3 -15   1    3.29    0.83
  -4 -15   1    0.65    1.26
  -5 -15   1   60.59    4.44
  -6 -15   1    0.61    1.05
  -7 -15   1    0.83    0.90
  -8 -15   1   16.11    1.12
  -9 -15   1   58.75    2.49
 -10 -15   1    7.15    1.23
 -11 -15   1   13.62    2.31
 -12 -15   1   -1.41    0.94
 -15 -15   1    2.53    1.01
 -16 -15   1   -0.04    1.16
 -17 -15   1    5.60    0.90
 -18 -15   1    1.19    1.34
  18 -15   2    1.48    0.94
  17 -15   2    3.43    0.98
  16 -15   2   -0.36    1.05
  15 -15   2    3.69    2.53
  14 -15   2   11.24    1.01
  13 -15   2   14.81    1.08
  12 -15   2    1.08    0.90
  11 -15   2   20.23    3.72
  10 -15   2    9.47    1.30
   9 -15   2    4.62    1.12
   8 -15   2    0.40    0.72
   7 -15   2    9.07    1.37
   5 -15   2    2.78    0.76
   4 -15   2   11.06    1.66
   3 -15   2   -0.51    1.66
   2 -15   2   10.33    1.55
   1 -15   2   16.33    1.01
   0 -15   2   14.45    0.94
  -1 -15   2   12.39    1.95
  -2 -15   2   20.67    2.64
  -3 -15   2   -0.22    0.72
  -4 -15   2    1.63    0.61
  -5 -15   2    5.17    1.08
  -6 -15   2   25.08    1.99
  -7 -15   2    4.99    1.16
  -8 -15   2   70.24    2.20
  -9 -15   2    3.97    0.79
 -10 -15   2    3.40    1.12
 -12 -15   2   35.12    1.95
 -13 -15   2    1.88    0.90
 -14 -15   2   -0.07    0.69
 -15 -15   2    6.32    0.94
 -16 -15   2    1.41    0.94
 -17 -15   2    0.11    1.05
 -19 -15   2    3.36    1.48
  17 -15   3    8.67    1.30
  16 -15   3   18.07    1.63
  15 -15   3    2.85    1.05
  14 -15   3   26.77    1.45
  13 -15   3    4.34    1.34
  12 -15   3    4.62    0.87
  11 -15   3   13.12    2.06
   9 -15   3   15.28    0.98
   8 -15   3    1.84    0.69
   7 -15   3   38.12    1.88
   6 -15   3    4.77    1.01
   5 -15   3   10.62    1.19
   4 -15   3    0.94    0.65
   3 -15   3   10.59    1.34
   2 -15   3    4.52    1.26
   1 -15   3   10.08    1.41
  -1 -15   3   56.44    2.24
  -2 -15   3    3.14    0.79
  -4 -15   3    3.50    0.79
  -5 -15   3   41.59    1.70
  -6 -15   3    5.74    1.23
  -7 -15   3    1.95    1.16
  -8 -15   3    9.79    0.94
  -9 -15   3   33.67    1.52
 -10 -15   3    0.04    0.90
 -12 -15   3    1.37    1.23
 -13 -15   3   11.38    1.66
 -14 -15   3    8.02    1.08
 -15 -15   3   13.55    1.63
 -18 -15   3   -1.48    1.23
  17 -15   4   -1.59    2.24
  16 -15   4   -0.54    0.58
  15 -15   4    8.38    1.52
  14 -15   4    3.94    1.91
  13 -15   4    2.71    0.98
  12 -15   4    2.10    1.95
  11 -15   4   41.88    1.77
  10 -15   4   -0.43    0.87
   9 -15   4   13.04    2.02
   7 -15   4    6.47    0.79
   6 -15   4    4.23    1.34
   4 -15   4    2.06    1.05
   3 -15   4   -0.51    0.83
   2 -15   4    3.50    0.83
   1 -15   4    2.89    0.87
  -1 -15   4   11.49    1.23
  -2 -15   4   10.51    1.01
  -4 -15   4    2.49    0.76
  -5 -15   4   -0.43    0.76
  -6 -15   4    9.54    1.73
  -7 -15   4    3.69    1.70
  -8 -15   4   31.54    1.88
  -9 -15   4   -1.12    1.30
 -12 -15   4   -0.72    1.01
 -13 -15   4    0.25    0.83
 -14 -15   4    8.02    1.26
 -15 -15   4   -0.90    0.79
 -16 -15   4   -0.07    0.90
 -18 -15   4   -0.65    0.94
 -19 -15   4   -0.14    0.87
  16 -15   5    1.41    1.01
  15 -15   5    4.08    1.26
  14 -15   5   20.70    1.26
  13 -15   5    0.76    1.05
  12 -15   5    2.67    0.87
  11 -15   5   22.62    2.57
  10 -15   5   48.60    2.78
   9 -15   5    0.43    1.08
   8 -15   5    0.69    0.72
   7 -15   5   23.74    1.55
   6 -15   5   18.82    1.48
   5 -15   5    3.11    0.79
   3 -15   5   44.01    2.13
   2 -15   5    6.32    0.76
   1 -15   5    1.91    0.69
   0 -15   5   -0.07    1.12
  -1 -15   5   38.08    1.84
  -2 -15   5    4.84    1.52
  -3 -15   5   10.77    1.12
  -4 -15   5    6.47    0.83
  -5 -15   5   15.75    2.64
  -6 -15   5   13.08    1.30
  -7 -15   5    6.47    1.01
  -8 -15   5   11.16    0.87
  -9 -15   5   17.74    1.48
 -10 -15   5    5.49    0.90
 -11 -15   5    0.87    0.69
 -12 -15   5    7.80    0.94
 -13 -15   5    3.36    1.91
 -14 -15   5    0.47    1.26
 -15 -15   5    5.20    1.45
 -16 -15   5    1.41    1.66
 -17 -15   5    1.37    0.98
 -18 -15   5    2.85    1.23
 -19 -15   5    8.20    1.88
  15 -15   6    6.21    1.05
  14 -15   6   -0.11    1.34
  13 -15   6   -1.19    0.94
  11 -15   6    1.26    1.16
  10 -15   6    1.30    0.98
   9 -15   6    4.08    0.87
   8 -15   6    0.25    0.83
   7 -15   6    1.45    1.23
   6 -15   6    1.16    0.98
   5 -15   6    0.29    0.90
   4 -15   6   -1.73    1.66
   3 -15   6    0.54    0.87
   2 -15   6    0.58    0.87
   1 -15   6    7.62    1.41
   0 -15   6    0.04    0.69
  -1 -15   6    0.25    0.65
  -2 -15   6    0.51    1.84
  -3 -15   6    4.41    0.79
  -4 -15   6    0.98    1.81
  -5 -15   6   14.20    1.08
  -6 -15   6   -0.94    1.88
  -7 -15   6   -0.04    0.72
  -8 -15   6    7.80    1.05
  -9 -15   6    5.42    0.90
 -11 -15   6    1.05    1.59
 -12 -15   6    2.35    1.08
 -13 -15   6    2.82    0.94
 -14 -15   6    0.54    0.72
 -15 -15   6    0.87    0.76
 -16 -15   6   -0.11    1.73
 -17 -15   6   -0.61    0.83
 -18 -15   6   -2.75    1.91
  14 -15   7    9.97    1.34
  13 -15   7    0.00    1.63
  12 -15   7   13.19    1.23
  11 -15   7   16.37    1.41
  10 -15   7    9.97    1.23
   9 -15   7   14.63    1.26
   8 -15   7   22.18    1.19
   7 -15   7    1.77    0.90
   6 -15   7    0.69    0.94
   5 -15   7    7.62    1.41
   4 -15   7    5.93    1.23
   3 -15   7    2.53    0.72
   2 -15   7    0.69    2.35
   1 -15   7   14.96    1.30
   0 -15   7    3.58    1.19
  -1 -15   7    8.74    1.08
  -2 -15   7    4.66    1.23
  -3 -15   7   43.86    2.57
  -4 -15   7    4.34    1.23
  -5 -15   7   14.09    1.34
  -6 -15   7    3.29    0.79
  -7 -15   7   27.68    2.96
  -8 -15   7    2.89    0.79
  -9 -15   7    0.76    0.79
 -11 -15   7   20.05    1.52
 -12 -15   7    0.87    0.79
 -13 -15   7    1.63    0.90
 -14 -15   7    3.94    1.99
 -15 -15   7    8.60    1.81
 -16 -15   7   -0.40    0.98
 -17 -15   7    2.38    1.19
  12 -15   8    3.25    0.83
  11 -15   8    4.99    0.90
  10 -15   8    1.73    0.83
   9 -15   8   -0.18    0.83
   8 -15   8    3.25    1.12
   7 -15   8    0.58    0.90
   6 -15   8    3.04    1.37
   5 -15   8   12.79    1.23
   4 -15   8    5.06    0.87
   3 -15   8   -0.14    1.23
   2 -15   8    4.41    1.05
   1 -15   8   -1.23    0.83
   0 -15   8    8.20    1.19
  -1 -15   8    3.87    0.79
  -2 -15   8   -0.18    1.66
  -3 -15   8    1.99    1.01
  -4 -15   8    7.48    1.26
  -5 -15   8   -0.43    0.87
  -6 -15   8    4.01    1.73
  -7 -15   8   14.67    0.90
  -8 -15   8   -0.58    0.94
  -9 -15   8    2.38    1.01
 -10 -15   8   14.78    1.12
 -11 -15   8    1.16    0.94
 -12 -15   8    1.70    1.01
 -13 -15   8    0.51    1.08
 -14 -15   8    0.25    1.01
 -15 -15   8    0.33    1.05
 -16 -15   8   -0.58    1.59
  10 -15   9   -2.57    1.88
   9 -15   9    6.36    2.24
   8 -15   9   12.28    1.55
   7 -15   9    0.65    0.76
   6 -15   9   -1.23    1.30
   5 -15   9   13.26    1.73
   4 -15   9    8.67    1.19
   3 -15   9    0.94    1.12
   2 -15   9    2.13    1.41
   1 -15   9   24.10    1.37
   0 -15   9   11.24    2.28
  -1 -15   9    5.06    1.26
  -2 -15   9    2.53    0.79
  -3 -15   9    3.97    1.19
  -4 -15   9    1.41    0.90
  -5 -15   9    3.18    1.30
  -6 -15   9    0.40    0.79
  -7 -15   9   23.67    2.93
  -8 -15   9    1.37    1.12
  -9 -15   9    0.90    1.01
 -11 -15   9    9.39    1.55
 -12 -15   9    1.99    0.98
 -13 -15   9    0.22    1.26
 -14 -15   9    1.66    1.16
 -15 -15   9    7.80    2.10
  10 -15  10    0.14    1.52
   8 -15  10   13.51    1.95
   7 -15  10    4.37    1.01
   6 -15  10   -1.16    2.49
   5 -15  10   -0.76    0.79
   4 -15  10   16.01    2.85
   3 -15  10    8.56    1.55
   2 -15  10    1.99    1.08
   1 -15  10   12.10    2.10
   0 -15  10    5.35    1.19
  -1 -15  10    1.95    0.94
  -2 -15  10    0.25    0.65
  -3 -15  10   -0.14    1.70
  -4 -15  10    7.05    2.20
  -5 -15  10    3.32    1.37
  -6 -15  10   19.33    2.71
  -7 -15  10    1.99    1.19
  -8 -15  10    0.94    0.83
 -10 -15  10   -0.04    1.26
 -11 -15  10    1.99    1.08
 -12 -15  10    1.19    1.37
 -13 -15  10   11.06    1.26
 -14 -15  10    1.16    0.94
   8 -15  11    3.14    1.23
   7 -15  11   -3.58    2.24
   5 -15  11    2.93    1.81
   4 -15  11    7.84    2.13
   2 -15  11    0.83    1.52
   1 -15  11    8.38    1.59
  -2 -15  11    0.90    0.87
  -3 -15  11    5.06    2.31
  -4 -15  11    1.95    0.98
  -6 -15  11    3.47    1.41
  -7 -15  11    8.78    1.70
  -8 -15  11   -1.55    1.48
 -11 -15  11    0.00    1.30
 -14 -15  11   -0.07    1.66
  -1 -15  12    4.95    1.77
  -4 -15  12    2.13    1.45
  -5 -15  12   -1.81    2.42
  -6 -15  13   -0.22    0.90
   7 -16 -11    4.41    2.10
   3 -16 -11    2.82    1.77
   2 -16 -11   16.01    2.28
   1 -16 -11    0.90    1.66
   0 -16 -11    2.96    1.01
  -1 -16 -11   -1.30    1.05
  10 -16 -10    0.43    0.90
   9 -16 -10    1.77    1.16
   7 -16 -10    0.79    1.01
   6 -16 -10    1.52    1.37
   5 -16 -10    0.14    1.23
   4 -16 -10    9.39    1.19
   3 -16 -10   -0.14    0.94
   2 -16 -10    1.16    1.70
   1 -16 -10    3.22    1.52
   0 -16 -10   -2.60    1.23
  -1 -16 -10    1.91    1.01
  -2 -16 -10    0.65    1.19
  -4 -16 -10   -0.58    1.08
   9 -16  -9    3.04    1.34
   8 -16  -9    7.66    1.08
   7 -16  -9    0.90    0.69
   6 -16  -9    5.71    1.19
   5 -16  -9   -0.04    0.61
   4 -16  -9    7.70    1.23
   3 -16  -9    0.47    1.01
   2 -16  -9    5.09    0.61
   1 -16  -9    4.30    2.28
   0 -16  -9   14.09    1.01
  -1 -16  -9    0.07    1.08
  -2 -16  -9   -0.07    0.69
  -4 -16  -9   20.27    1.66
  -5 -16  -9    1.23    1.52
  -6 -16  -9    2.96    1.01
  -7 -16  -9    7.77    1.41
  13 -16  -8    1.70    1.84
  12 -16  -8    4.52    1.16
  11 -16  -8    2.93    1.45
  10 -16  -8    0.76    0.79
   9 -16  -8    7.62    1.59
   8 -16  -8    0.65    0.72
   7 -16  -8    6.18    0.65
   6 -16  -8    7.41    0.94
   5 -16  -8    0.54    0.94
   4 -16  -8    4.05    0.90
   2 -16  -8   10.84    0.90
   1 -16  -8    0.14    0.79
   0 -16  -8   -0.22    1.19
  -1 -16  -8   16.37    1.45
  -2 -16  -8    1.23    0.72
  -3 -16  -8    3.58    0.61
  -4 -16  -8   23.96    1.30
  -5 -16  -8    5.56    0.79
  -6 -16  -8    4.99    1.08
  -7 -16  -8    5.20    1.48
  -8 -16  -8   12.36    2.38
  -9 -16  -8   12.32    1.34
  13 -16  -7    2.82    1.30
  12 -16  -7    4.91    1.08
  11 -16  -7   -0.07    1.77
  10 -16  -7    1.12    0.72
   9 -16  -7   -0.04    0.51
   8 -16  -7   12.21    1.30
   7 -16  -7   -0.79    0.79
   6 -16  -7    2.75    0.76
   5 -16  -7    4.59    0.94
   4 -16  -7   21.79    1.45
   3 -16  -7   -0.04    1.05
   2 -16  -7    1.41    0.65
   1 -16  -7    4.01    0.76
   0 -16  -7   10.15    0.83
  -1 -16  -7    1.45    1.12
  -2 -16  -7    4.44    0.76
  -3 -16  -7    0.98    0.54
  -4 -16  -7    4.12    0.98
  -5 -16  -7    6.97    0.72
  -6 -16  -7    1.48    1.08
  -7 -16  -7   10.44    1.48
  -8 -16  -7    5.82    1.41
  -9 -16  -7   -0.22    1.63
  14 -16  -6    1.63    1.84
  13 -16  -6    5.96    1.45
  12 -16  -6    1.01    1.37
  11 -16  -6    1.01    0.61
  10 -16  -6    1.37    0.83
   9 -16  -6    7.41    0.90
   8 -16  -6   -0.54    0.90
   7 -16  -6    0.79    0.58
   6 -16  -6    7.37    0.65
   4 -16  -6    0.61    0.79
   3 -16  -6    7.01    0.94
   2 -16  -6    8.71    2.10
   1 -16  -6   12.79    0.98
   0 -16  -6    1.73    1.05
  -1 -16  -6   16.91    1.52
  -2 -16  -6   -0.04    0.76
  -3 -16  -6    2.75    1.16
  -4 -16  -6   -0.36    0.90
  -5 -16  -6    5.56    0.79
  -6 -16  -6   25.87    1.26
  -7 -16  -6    8.09    0.90
  -8 -16  -6    1.81    0.72
  -9 -16  -6    1.08    0.90
  14 -16  -5    0.90    0.65
  13 -16  -5    0.36    0.83
  12 -16  -5    1.12    0.83
  11 -16  -5    0.07    0.98
  10 -16  -5   -1.34    0.83
   9 -16  -5    1.55    0.69
   8 -16  -5    5.85    0.94
   7 -16  -5    7.12    0.72
   6 -16  -5    1.37    0.72
   5 -16  -5    6.18    1.63
   4 -16  -5   13.12    0.94
   3 -16  -5    3.25    0.65
   2 -16  -5    1.81    1.12
   1 -16  -5    2.42    1.12
   0 -16  -5    0.61    0.79
  -1 -16  -5    5.93    1.01
  -2 -16  -5    6.32    1.16
  -3 -16  -5   10.73    0.98
  -4 -16  -5    7.01    1.19
  -5 -16  -5    3.43    1.19
  -6 -16  -5    0.61    1.01
  -8 -16  -5    0.11    0.90
  -9 -16  -5    1.95    0.87
 -10 -16  -5   -0.43    0.58
 -11 -16  -5    6.29    1.55
 -12 -16  -5    0.94    0.98
  14 -16  -4    1.37    0.51
  13 -16  -4    2.38    0.87
  12 -16  -4    0.00    0.43
  11 -16  -4    0.29    0.90
  10 -16  -4    8.06    1.52
   9 -16  -4    1.08    0.79
   8 -16  -4    3.32    0.61
   7 -16  -4    1.01    0.83
   6 -16  -4    3.04    1.12
   5 -16  -4   -1.88    1.08
   4 -16  -4    3.22    0.76
   3 -16  -4   18.82    1.55
   1 -16  -4   10.37    0.98
   0 -16  -4    0.94    0.90
  -1 -16  -4    3.14    0.90
  -2 -16  -4    0.90    0.69
  -3 -16  -4   12.94    1.23
  -4 -16  -4   -0.65    0.90
  -5 -16  -4    0.72    0.94
  -6 -16  -4    4.23    1.37
  -7 -16  -4    9.00    1.55
  -8 -16  -4    5.93    0.87
  -9 -16  -4    2.13    0.76
 -10 -16  -4    0.04    0.69
 -11 -16  -4   -0.47    1.81
 -12 -16  -4    0.22    0.79
 -13 -16  -4    8.82    1.26
  15 -16  -3    0.72    0.76
  14 -16  -3    0.76    0.54
  13 -16  -3    0.36    1.05
  12 -16  -3   14.96    1.30
  11 -16  -3    5.28    0.76
  10 -16  -3    0.61    0.83
   9 -16  -3    4.26    0.94
   8 -16  -3   47.55    2.46
   7 -16  -3    7.52    1.91
   6 -16  -3    1.16    0.98
   5 -16  -3    0.61    0.72
   4 -16  -3   22.62    1.37
   3 -16  -3    6.14    1.23
   2 -16  -3    0.65    0.69
   1 -16  -3    2.24    1.08
   0 -16  -3    1.55    0.98
  -1 -16  -3    8.82    0.94
  -2 -16  -3   -0.33    0.79
  -3 -16  -3    8.24    0.87
  -4 -16  -3    0.94    0.83
  -5 -16  -3    6.36    1.23
  -6 -16  -3    3.25    1.77
  -7 -16  -3   13.37    1.37
  -9 -16  -3    0.65    0.79
 -10 -16  -3    0.29    1.12
 -11 -16  -3   27.79    2.46
 -12 -16  -3    2.64    1.23
 -13 -16  -3    1.12    1.05
 -14 -16  -3    1.63    1.19
  15 -16  -2    0.76    0.87
  14 -16  -2   -0.87    0.94
  13 -16  -2    0.98    0.69
  12 -16  -2    1.84    0.72
  11 -16  -2    3.11    0.72
  10 -16  -2   13.59    1.55
   9 -16  -2    3.72    1.23
   8 -16  -2    2.20    0.87
   7 -16  -2    3.36    0.69
   6 -16  -2    0.61    0.79
   5 -16  -2    0.54    0.79
   4 -16  -2    3.65    0.90
   3 -16  -2    0.87    0.61
   2 -16  -2    2.60    1.41
   1 -16  -2   23.85    1.63
   0 -16  -2    6.32    0.90
  -1 -16  -2    0.40    0.87
  -2 -16  -2   11.24    1.23
  -3 -16  -2   12.21    0.90
  -4 -16  -2    2.31    0.98
  -5 -16  -2    5.82    0.90
  -6 -16  -2   10.30    1.05
  -7 -16  -2    4.52    0.87
  -8 -16  -2   15.86    1.12
  -9 -16  -2    1.05    0.76
 -10 -16  -2    1.19    0.79
 -11 -16  -2    3.97    2.13
 -13 -16  -2    1.37    0.76
  15 -16  -1    0.90    1.01
  14 -16  -1    5.42    0.94
  13 -16  -1    2.06    1.05
  12 -16  -1   10.80    1.34
  11 -16  -1    1.99    0.72
  10 -16  -1   10.48    1.23
   9 -16  -1   -1.34    1.01
   8 -16  -1   44.77    5.42
   7 -16  -1   14.06    1.45
   6 -16  -1   50.40    1.91
   5 -16  -1   29.38    1.34
   4 -16  -1   11.16    1.08
   3 -16  -1    1.70    0.65
   2 -16  -1   28.54    1.73
   1 -16  -1    5.53    0.98
   0 -16  -1   11.85    1.01
  -1 -16  -1    1.08    0.76
  -2 -16  -1   16.22    1.08
  -3 -16  -1    5.20    1.08
  -4 -16  -1    3.65    0.83
  -5 -16  -1   20.41    1.26
  -6 -16  -1   52.64    1.99
  -7 -16  -1    1.05    0.90
  -8 -16  -1    0.43    0.69
  -9 -16  -1    0.76    0.79
 -10 -16  -1    8.20    0.94
 -11 -16  -1    2.89    0.87
 -12 -16  -1   -0.54    0.94
 -13 -16  -1   12.18    1.41
 -14 -16  -1    8.89    1.23
  15 -16   0   12.97    0.90
  13 -16   0   -1.19    0.90
  12 -16   0    1.48    0.76
  11 -16   0    3.87    0.76
   9 -16   0    0.98    0.98
   8 -16   0   37.72    3.54
   7 -16   0    3.18    1.34
   6 -16   0    0.18    0.69
   5 -16   0   10.01    1.34
   4 -16   0    4.52    1.08
   3 -16   0   -2.38    2.10
   2 -16   0   -0.18    0.58
   1 -16   0   13.12    1.26
   0 -16   0    5.06    0.76
  -1 -16   0   14.16    1.45
  -2 -16   0    1.12    1.05
  -3 -16   0   -0.25    0.72
  -4 -16   0    3.32    1.19
  -5 -16   0    8.60    0.76
  -6 -16   0   -0.14    1.37
  -7 -16   0    3.18    1.30
  -8 -16   0   37.43    2.31
  -9 -16   0    1.12    1.95
 -10 -16   0    1.81    1.01
 -11 -16   0    7.48    1.01
 -12 -16   0   -0.51    1.26
 -13 -16   0   -0.07    1.12
 -14 -16   0   -0.58    1.37
 -15 -16   0   13.84    1.59
  15 -16   1    0.72    1.01
  14 -16   1    6.87    0.90
  13 -16   1   10.30    0.90
  12 -16   1    0.69    0.79
  11 -16   1    2.02    0.76
  10 -16   1    8.20    1.05
   9 -16   1    2.82    0.79
   8 -16   1    0.25    1.05
   7 -16   1    1.12    0.98
   6 -16   1   55.43    2.13
   5 -16   1   22.73    1.34
   4 -16   1    7.41    1.37
   3 -16   1    9.14    1.99
   2 -16   1   14.09    1.52
   1 -16   1    0.72    0.87
   0 -16   1   11.56    1.30
  -1 -16   1    4.37    1.23
  -2 -16   1   29.34    1.66
  -3 -16   1    1.81    0.90
  -4 -16   1   10.59    1.34
  -5 -16   1   32.27    1.70
  -6 -16   1   55.17    3.00
  -7 -16   1   14.20    1.16
  -8 -16   1   51.78    2.17
  -9 -16   1   -0.04    1.45
 -10 -16   1   12.97    2.57
 -11 -16   1    0.83    0.94
 -12 -16   1    8.60    1.34
 -13 -16   1    5.82    1.34
 -14 -16   1    3.36    1.45
 -15 -16   1    2.17    0.65
  14 -16   2    0.40    1.99
  13 -16   2    2.20    1.08
  12 -16   2    1.34    0.94
  11 -16   2    0.65    1.23
  10 -16   2    4.23    2.06
   9 -16   2    0.69    0.76
   8 -16   2   13.44    1.01
   7 -16   2    4.34    1.59
   6 -16   2    9.11    1.66
   4 -16   2    1.34    0.65
   3 -16   2   11.02    1.16
   2 -16   2   12.10    1.05
   1 -16   2   -0.72    0.76
   0 -16   2    5.89    0.83
  -1 -16   2   26.67    2.02
  -2 -16   2   -0.11    1.19
  -3 -16   2   -0.25    1.16
  -6 -16   2    0.87    0.90
  -7 -16   2    1.91    0.87
  -8 -16   2    2.28    0.72
  -9 -16   2    2.93    1.01
 -10 -16   2   16.48    1.59
 -11 -16   2    4.26    0.87
 -12 -16   2    1.59    1.19
 -13 -16   2    0.11    0.83
 -14 -16   2   -3.25    1.95
 -15 -16   2   -1.59    0.90
  14 -16   3    0.18    0.94
  13 -16   3    2.78    0.79
  12 -16   3    1.81    1.16
  11 -16   3   20.85    1.84
  10 -16   3   -0.11    0.98
   9 -16   3   -0.98    2.17
   8 -16   3    0.72    0.79
   7 -16   3   15.28    1.05
   6 -16   3    6.61    0.90
   5 -16   3    5.31    1.12
   4 -16   3    3.25    1.05
   3 -16   3    7.23    0.98
   2 -16   3   -0.36    0.87
   1 -16   3    9.00    1.19
   0 -16   3    0.69    0.90
  -1 -16   3    2.82    0.90
  -2 -16   3    0.40    0.69
  -3 -16   3    7.05    0.90
  -4 -16   3   23.74    1.77
  -5 -16   3   -1.55    1.23
  -6 -16   3    1.12    0.90
  -7 -16   3    4.30    0.83
  -8 -16   3   45.96    2.10
  -9 -16   3    1.05    0.83
 -10 -16   3    0.40    1.12
 -11 -16   3    2.75    0.72
 -12 -16   3   10.73    1.12
 -13 -16   3   -1.34    1.05
 -14 -16   3   -0.94    0.87
 -15 -16   3    0.76    1.05
  13 -16   4    2.17    1.55
  12 -16   4    0.33    1.41
  10 -16   4    0.65    1.41
   9 -16   4    1.91    1.23
   8 -16   4    7.44    1.16
   7 -16   4    8.53    1.41
   6 -16   4    1.19    1.16
   5 -16   4   -0.22    1.41
   4 -16   4    0.94    1.88
   3 -16   4   11.71    2.64
   2 -16   4    1.45    0.87
   1 -16   4    4.77    1.16
   0 -16   4    0.25    1.12
  -1 -16   4   10.19    1.19
  -2 -16   4    9.18    0.98
  -3 -16   4   20.52    1.12
  -4 -16   4    2.75    1.12
  -6 -16   4    2.46    1.30
  -7 -16   4    1.19    1.01
  -8 -16   4    6.32    1.45
  -9 -16   4    2.42    0.98
 -10 -16   4    6.65    0.79
 -11 -16   4    2.42    0.90
 -12 -16   4   -0.65    2.02
 -13 -16   4    6.97    1.99
 -14 -16   4    1.95    1.08
 -15 -16   4    4.12    1.73
  12 -16   5    0.43    1.34
  11 -16   5    5.24    1.08
  10 -16   5    0.36    0.94
   9 -16   5    0.25    1.08
   8 -16   5   -0.04    1.37
   7 -16   5   22.40    1.81
   6 -16   5   -0.22    0.94
   5 -16   5    4.81    0.72
   4 -16   5    5.24    0.98
   3 -16   5    9.79    1.99
   2 -16   5    6.79    2.49
   1 -16   5    3.47    1.19
   0 -16   5    0.69    0.76
  -1 -16   5    2.60    0.94
  -2 -16   5    1.41    0.72
  -3 -16   5    2.31    1.26
  -4 -16   5   14.34    1.45
  -5 -16   5    4.48    1.30
  -6 -16   5    0.40    0.79
  -7 -16   5    2.24    1.12
  -8 -16   5    5.24    1.26
  -9 -16   5    0.33    1.01
 -10 -16   5   -0.25    1.26
 -11 -16   5    0.83    1.84
 -12 -16   5    1.91    1.26
 -13 -16   5    0.29    0.87
 -14 -16   5   -0.43    1.45
  11 -16   6   -0.72    1.19
  10 -16   6    1.63    1.48
   9 -16   6    1.41    1.52
   8 -16   6    0.11    1.23
   7 -16   6    7.84    0.83
   6 -16   6   19.69    1.55
   5 -16   6    1.81    0.98
   4 -16   6    1.45    1.30
   3 -16   6    2.10    1.08
   2 -16   6    0.18    1.08
   1 -16   6   14.31    1.19
   0 -16   6   -0.14    0.72
  -1 -16   6    7.15    1.23
  -2 -16   6    2.89    1.95
  -3 -16   6    5.78    0.83
  -4 -16   6    0.79    0.94
  -6 -16   6    2.89    1.91
  -7 -16   6    2.10    0.79
  -8 -16   6    1.73    0.76
  -9 -16   6    5.67    1.01
 -10 -16   6    2.13    0.83
 -11 -16   6    1.37    0.94
 -12 -16   6    1.45    1.66
  10 -16   7   -0.07    1.12
   9 -16   7    0.54    1.30
   8 -16   7    8.92    2.53
   7 -16   7    9.86    1.37
   6 -16   7    1.88    1.34
   5 -16   7    0.54    1.45
   4 -16   7    4.99    1.45
   3 -16   7    2.02    0.87
   2 -16   7    2.71    1.26
   1 -16   7    2.64    1.12
   0 -16   7    9.39    0.94
  -1 -16   7    3.32    0.72
  -2 -16   7    0.25    0.61
  -3 -16   7   -0.25    1.08
  -4 -16   7   16.01    1.23
  -5 -16   7    2.78    0.94
  -6 -16   7    1.91    1.41
  -7 -16   7    0.04    2.64
  -8 -16   7    8.24    1.16
  -9 -16   7   -0.58    0.87
 -10 -16   7    0.94    0.98
 -11 -16   7    2.67    0.98
 -13 -16   7    4.59    1.88
   9 -16   8    7.05    1.19
   8 -16   8    5.38    1.01
   7 -16   8    4.59    0.90
   6 -16   8    0.83    1.05
   5 -16   8    3.14    0.90
   4 -16   8   15.39    1.63
   3 -16   8    0.33    2.38
   2 -16   8    1.05    0.72
   1 -16   8   11.78    1.45
   0 -16   8    1.19    1.01
  -1 -16   8    0.47    0.76
  -2 -16   8    8.31    1.26
  -3 -16   8    2.67    1.66
  -4 -16   8    1.95    1.08
  -7 -16   8    5.89    0.87
  -8 -16   8   -0.18    0.90
  -9 -16   8    8.13    1.05
 -11 -16   8    3.29    1.23
 -12 -16   8    0.47    1.45
   7 -16   9    2.38    2.71
   6 -16   9    1.88    1.19
   5 -16   9    0.40    0.90
   4 -16   9   13.33    1.48
   3 -16   9    3.22    1.48
   2 -16   9   -0.04    0.76
   1 -16   9    1.59    2.24
   0 -16   9   13.33    1.08
  -2 -16   9    6.32    1.52
  -3 -16   9   -0.87    0.83
  -5 -16   9    1.48    0.79
  -6 -16   9    2.89    1.55
  -9 -16   9    4.88    1.37
 -10 -16   9    0.54    1.23
   4 -16  10   -2.17    1.34
   3 -16  10    1.84    1.55
   1 -16  10    1.16    1.37
  -1 -16  10    2.02    1.12
  -2 -16  10    0.87    1.19
  -5 -16  10   -0.25    1.08
  -7 -16  10    1.34    1.63
  -8 -16  10    3.79    2.24
   1 -16  11   -0.47    2.24
  -6 -16  11    7.99    1.77
  -7 -16  11    0.94    1.19
   6 -17  -7    2.71    0.98
   5 -17  -7    1.26    1.16
   4 -17  -7    0.98    0.61
   3 -17  -7    3.00    1.37
   2 -17  -7    6.50    1.48
   1 -17  -7   -0.72    1.12
   0 -17  -7    4.55    1.26
  -1 -17  -7    2.64    1.52
  -2 -17  -7    3.47    0.79
   8 -17  -6    1.70    1.30
   7 -17  -6    0.76    1.26
   6 -17  -6   -0.36    1.30
   5 -17  -6    2.42    0.94
   4 -17  -6    0.90    0.47
   3 -17  -6    0.29    0.94
   2 -17  -6    0.11    0.94
   1 -17  -6    3.07    0.76
   0 -17  -6    0.18    1.19
  -1 -17  -6    1.91    0.90
  -2 -17  -6    1.99    1.37
  -3 -17  -6    1.88    1.05
   9 -17  -5    0.07    1.16
   8 -17  -5    0.51    0.65
   7 -17  -5    2.17    0.83
   6 -17  -5    6.29    1.12
   5 -17  -5    5.82    0.94
   4 -17  -5    0.33    0.79
   3 -17  -5    1.26    1.41
   2 -17  -5    1.66    0.79
   1 -17  -5    1.59    1.08
   0 -17  -5   -0.61    0.79
  -1 -17  -5    7.88    0.79
  -2 -17  -5    2.71    0.83
  -4 -17  -5    0.72    0.61
  -5 -17  -5   -0.04    1.45
  -6 -17  -5    5.31    1.01
   9 -17  -4    1.34    1.16
   8 -17  -4    7.12    0.94
   7 -17  -4    1.55    1.08
   6 -17  -4    0.18    0.79
   5 -17  -4    0.94    0.90
   4 -17  -4   10.48    1.88
   3 -17  -4    1.45    0.90
   2 -17  -4    2.96    2.10
   1 -17  -4    1.41    0.51
   0 -17  -4    4.84    1.01
  -1 -17  -4    0.69    0.72
  -2 -17  -4    5.17    1.59
  -4 -17  -4    0.90    0.76
  -5 -17  -4    1.05    0.58
  -6 -17  -4    1.08    0.79
  -7 -17  -4    3.87    1.34
  10 -17  -3    7.15    1.08
   9 -17  -3   -0.14    1.01
   8 -17  -3    4.05    0.83
   7 -17  -3    1.88    2.20
   6 -17  -3    7.15    1.26
   5 -17  -3    0.79    0.72
   4 -17  -3    0.33    0.98
   3 -17  -3    9.86    0.76
   2 -17  -3    7.52    1.30
   1 -17  -3    1.81    1.19
   0 -17  -3    3.72    1.23
  -1 -17  -3    0.94    0.94
  -2 -17  -3    4.23    1.16
  -3 -17  -3    1.30    1.23
  -4 -17  -3    3.07    0.98
  -5 -17  -3    1.77    0.76
  -6 -17  -3    0.51    0.65
  -7 -17  -3    1.59    0.79
  -8 -17  -3    7.55    0.79
  10 -17  -2   -1.12    1.01
   9 -17  -2    0.11    0.65
   8 -17  -2    5.35    1.70
   7 -17  -2   10.84    1.45
   6 -17  -2    0.79    0.83
   5 -17  -2    2.06    0.58
   4 -17  -2    1.41    1.08
   3 -17  -2    2.82    1.19
   2 -17  -2    7.59    1.23
   1 -17  -2    7.88    0.98
   0 -17  -2   28.47    1.66
  -1 -17  -2    9.50    0.83
  -2 -17  -2   23.31    1.23
  -3 -17  -2    2.57    1.23
  -4 -17  -2    2.10    0.94
  -5 -17  -2    1.99    0.90
  -6 -17  -2    9.07    1.12
  -7 -17  -2    1.45    0.87
  -8 -17  -2    1.66    0.83
  -9 -17  -2    2.64    0.79
  10 -17  -1    9.25    2.38
   9 -17  -1    1.05    1.19
   8 -17  -1    7.30    1.19
   7 -17  -1    5.38    0.76
   6 -17  -1    0.18    1.01
   5 -17  -1   -0.04    0.69
   4 -17  -1    2.13    0.76
   3 -17  -1    3.87    0.98
   2 -17  -1    1.88    1.12
   1 -17  -1    2.42    0.87
   0 -17  -1   14.60    1.26
  -1 -17  -1    3.65    1.01
  -2 -17  -1   -0.29    0.58
  -3 -17  -1   -0.40    0.83
  -4 -17  -1   10.80    1.23
  -7 -17  -1    0.72    0.65
  -8 -17  -1   13.30    1.55
  -9 -17  -1    3.50    0.94
 -10 -17  -1    1.05    0.83
  10 -17   0    5.24    1.12
   9 -17   0    6.21    0.87
   8 -17   0   -1.34    1.45
   7 -17   0   12.00    1.05
   6 -17   0   22.80    1.37
   5 -17   0   10.19    1.48
   4 -17   0    1.45    0.83
   3 -17   0    2.13    0.83
   2 -17   0   20.74    1.37
   1 -17   0    3.07    1.26
   0 -17   0    4.19    2.89
  -1 -17   0    1.41    1.99
  -2 -17   0   23.02    2.57
  -3 -17   0    1.16    1.26
  -4 -17   0    2.28    0.65
  -5 -17   0   13.33    0.94
  -6 -17   0   22.73    1.77
  -7 -17   0    8.85    0.87
  -8 -17   0    0.65    0.90
  -9 -17   0    4.41    1.88
 -10 -17   0    4.44    1.23
   9 -17   1    3.90    1.16
   8 -17   1   13.15    1.52
   7 -17   1    0.25    0.87
   6 -17   1   -1.70    1.16
   5 -17   1    0.33    1.55
   4 -17   1   10.37    2.24
   3 -17   1    2.71    1.23
   2 -17   1   -1.19    1.19
   1 -17   1    2.82    0.76
   0 -17   1   11.53    0.87
  -1 -17   1    1.95    0.98
  -2 -17   1    2.24    1.45
  -3 -17   1    2.28    1.05
  -4 -17   1    6.21    1.19
  -5 -17   1    1.66    1.12
  -6 -17   1   -0.47    1.30
  -8 -17   1    9.11    1.30
  -9 -17   1    2.38    1.16
 -10 -17   1   11.92    1.26
   9 -17   2    1.59    1.08
   8 -17   2    1.91    0.87
   7 -17   2    2.13    1.08
   6 -17   2    6.43    1.52
   5 -17   2    3.32    0.87
   4 -17   2    2.24    0.83
   3 -17   2    2.64    0.79
   2 -17   2   24.35    1.63
   1 -17   2   10.77    1.88
   0 -17   2   20.60    1.81
  -1 -17   2    5.78    1.19
  -2 -17   2    6.25    1.26
  -3 -17   2    3.47    0.83
  -4 -17   2    2.46    0.76
  -5 -17   2    1.19    1.26
  -6 -17   2    1.59    1.08
  -7 -17   2    9.76    1.16
  -8 -17   2    5.56    0.87
  -9 -17   2    2.24    1.01
   8 -17   3    5.96    1.19
   7 -17   3    2.42    0.94
   6 -17   3    0.07    1.08
   5 -17   3    0.36    1.08
   4 -17   3   -0.76    1.08
   3 -17   3    2.67    1.19
   2 -17   3    4.30    0.98
   1 -17   3    0.29    0.90
   0 -17   3    6.40    1.23
  -1 -17   3    2.46    1.08
  -3 -17   3    5.89    1.30
  -4 -17   3    0.72    0.79
  -5 -17   3    1.81    1.16
  -6 -17   3    7.26    0.98
  -7 -17   3   -0.25    0.87
  -8 -17   3    8.02    1.99
  -9 -17   3   -0.94    1.26
 -10 -17   3    7.12    1.23
   7 -17   4    4.19    0.83
   6 -17   4   -1.01    0.98
   5 -17   4   -3.83    2.06
   4 -17   4    3.18    0.83
   3 -17   4   -0.40    0.79
   2 -17   4    2.17    1.26
   1 -17   4    1.19    1.16
   0 -17   4    5.06    1.30
  -1 -17   4    1.95    0.83
  -2 -17   4    1.45    0.90
  -3 -17   4    0.29    0.87
  -4 -17   4   11.35    1.16
  -5 -17   4   -0.18    0.79
  -6 -17   4    1.55    1.12
  -7 -17   4    1.34    1.01
  -8 -17   4    1.08    1.81
   5 -17   5    1.34    1.73
   4 -17   5   -0.22    1.16
   2 -17   5    3.90    0.79
   1 -17   5    9.00    1.01
   0 -17   5   -0.29    1.12
  -1 -17   5    2.10    0.98
  -2 -17   5    1.30    1.19
  -3 -17   5   -0.51    0.76
  -4 -17   5    0.54    0.90
  -5 -17   5    3.29    1.16
  -6 -17   5    7.19    1.45
  -7 -17   5    2.67    0.83
  -8 -17   5    1.81    1.23
   4 -17   6    5.56    1.05
   3 -17   6    1.45    1.91
   2 -17   6    2.93    1.05
   0 -17   6    0.33    1.05
  -1 -17   6    0.72    1.23
  -2 -17   6    2.38    1.05
  -4 -17   6    0.61    1.19
  -5 -17   6    1.12    2.02
  -6 -17   6    0.18    1.12
   2 -17   7    1.73    0.98
   1 -17   7    3.04    1.23
   0 -17   7    3.14    1.41
  -1 -17   7   -0.29    1.05
  -2 -17   7    4.88    1.01
   0   0   0    0.00    0.00

_computing_structure_solution     'SHELXT 2014/5 (Sheldrick, 2014)'
;
_shelx_hkl_checksum              73228
_olex2_submission_special_instructions 'No special instructions were received'
loop_
_space_group_symop_operation_xyz
'x, y, z'
'-x, y+1/2, -z+1/2'
'-x, -y, -z'
'x, -y-1/2, z-1/2'
loop_
_atom_site_label
_atom_site_type_symbol
_atom_site_fract_x
_atom_site_fract_y
_atom_site_fract_z
_atom_site_U_iso_or_equiv
_atom_site_adp_type
_atom_site_occupancy
_atom_site_site_symmetry_order
_atom_site_calc_flag
_atom_site_refinement_flags_posn
_atom_site_refinement_flags_adp
_atom_site_refinement_flags_occupancy
_atom_site_disorder_assembly
_atom_site_disorder_group
Zn1 Zn 0.89360(2) 0.64049(4) 0.97417(2) 0.07108(19) Uani 1 1 d . . . . .
Zn2 Zn 0.62510(2) 0.96219(3) 0.54484(2) 0.06455(18) Uani 1 1 d . . . . .
Cl1 Cl 0.94198(4) 0.74969(9) 0.93531(6) 0.0805(3) Uani 1 1 d . . . . .
Cl2 Cl 0.62503(4) 1.07817(8) 0.62633(6) 0.0734(3) Uani 1 1 d . . . . .
N1 N 0.89358(13) 0.5124(3) 0.92822(19) 0.0706(9) Uani 1 1 d . . . . .
N2 N 0.92841(15) 0.5937(3) 1.0602(2) 0.0793(11) Uani 1 1 d . . . . .
N3 N 0.85399(14) 0.7323(3) 1.01725(18) 0.0744(10) Uani 1 1 d . . . . .
N4 N 0.70198(13) 0.8642(3) 0.78517(17) 0.0655(8) Uani 1 1 d . . . . .
H4 H 0.703792 0.927404 0.782741 0.079 Uiso 1 1 calc R . . . .
N5 N 0.57701(12) 0.8572(2) 0.55065(17) 0.0622(8) Uani 1 1 d . . . . .
N6 N 0.59136(14) 1.0119(3) 0.45875(18) 0.0687(9) Uani 1 1 d . . . . .
N7 N 0.68956(14) 0.9900(3) 0.52312(19) 0.0699(9) Uani 1 1 d . . . . .
N8 N 0.82400(13) 0.7842(3) 0.74577(18) 0.0667(8) Uani 1 1 d . . . . .
H8 H 0.844327 0.826796 0.766821 0.080 Uiso 1 1 calc R . . . .
C1 C 0.87482(17) 0.4809(4) 0.8674(2) 0.0737(11) Uani 1 1 d . . . . .
C2 C 0.89324(19) 0.3870(4) 0.8555(3) 0.0820(13) Uani 1 1 d . . . . .
C3 C 0.9232(2) 0.3618(4) 0.9143(3) 0.0838(14) Uani 1 1 d . . . . .
C4 C 0.92414(17) 0.4382(4) 0.9584(2) 0.0765(12) Uani 1 1 d . . . . .
C5 C 0.8855(2) 0.3326(5) 0.7911(3) 0.102(2) Uani 1 1 d . . . . .
H5A H 0.916907 0.309291 0.783901 0.122 Uiso 1 1 calc R . . . .
H5B H 0.872798 0.377907 0.754939 0.122 Uiso 1 1 calc R . . . .
C6 C 0.8520(3) 0.2474(5) 0.7870(4) 0.122(3) Uani 1 1 d . . . . .
H6A H 0.847573 0.218740 0.742856 0.183 Uiso 1 1 calc GR . . . .
H6B H 0.821019 0.269077 0.795299 0.183 Uiso 1 1 calc GR . . . .
H6C H 0.865580 0.199169 0.820013 0.183 Uiso 1 1 calc GR . . . .
C7 C 0.9507(2) 0.2690(4) 0.9282(3) 0.0935(17) Uani 1 1 d . . . . .
H7A H 0.984075 0.283902 0.949754 0.112 Uiso 1 1 calc R . . . .
H7B H 0.951486 0.235983 0.886010 0.112 Uiso 1 1 calc R . . . .
C8 C 0.9288(3) 0.2009(5) 0.9728(4) 0.116(2) Uani 1 1 d . . . . .
H8A H 0.896661 0.181817 0.950230 0.173 Uiso 1 1 calc GR . . . .
H8B H 0.926886 0.234016 1.014048 0.173 Uiso 1 1 calc GR . . . .
H8C H 0.948898 0.143307 0.982545 0.173 Uiso 1 1 calc GR . . . .
C9 C 0.95194(18) 0.4407(4) 1.0224(3) 0.0806(13) Uani 1 1 d . . . . .
H9 H 0.971941 0.386150 1.034409 0.097 Uiso 1 1 calc R . . . .
C10 C 0.95447(18) 0.5101(4) 1.0699(2) 0.0820(13) Uani 1 1 d . . . . .
C11 C 0.9836(2) 0.5131(6) 1.1360(3) 0.1003(19) Uani 1 1 d . . . . .
C12 C 0.9729(2) 0.5979(6) 1.1637(3) 0.1026(19) Uani 1 1 d . . . . .
C13 C 0.9377(2) 0.6461(5) 1.1154(2) 0.0877(15) Uani 1 1 d . . . . .
C14 C 1.0182(3) 0.4375(7) 1.1665(3) 0.123(3) Uani 1 1 d . . . . .
H14A H 1.031907 0.405494 1.131600 0.148 Uiso 1 1 calc R . . . .
H14B H 1.044795 0.468431 1.197612 0.148 Uiso 1 1 calc R . . . .
C15 C 0.9962(5) 0.3662(9) 1.2010(5) 0.178(5) Uani 1 1 d . . . . .
H15A H 0.966113 0.345082 1.173248 0.266 Uiso 1 1 calc GR . . . .
H15B H 0.989825 0.394105 1.241973 0.266 Uiso 1 1 calc GR . . . .
H15C H 1.017717 0.310813 1.211502 0.266 Uiso 1 1 calc GR . . . .
C16 C 0.9919(3) 0.6335(7) 1.2324(3) 0.126(3) Uani 1 1 d . . . . .
H16A H 1.022983 0.601990 1.249804 0.152 Uiso 1 1 calc R . . . .
H16B H 0.997445 0.703920 1.231226 0.152 Uiso 1 1 calc R . . . .
C17 C 0.9581(4) 0.6127(9) 1.2773(4) 0.150(4) Uani 1 1 d . . . . .
H17A H 0.928246 0.648247 1.262280 0.226 Uiso 1 1 calc GR . . . .
H17B H 0.972492 0.632911 1.322256 0.226 Uiso 1 1 calc GR . . . .
H17C H 0.951354 0.543368 1.276910 0.226 Uiso 1 1 calc GR . . . .
C18 C 0.91520(19) 0.7349(5) 1.1202(2) 0.0877(15) Uani 1 1 d . . . . .
H18 H 0.927120 0.771511 1.158739 0.105 Uiso 1 1 calc R . . . .
C19 C 0.87777(18) 0.7763(4) 1.0759(2) 0.0765(12) Uani 1 1 d . . . . .
C20 C 0.85543(18) 0.8661(4) 1.0840(2) 0.0738(11) Uani 1 1 d . . . . .
C21 C 0.81690(17) 0.8760(4) 1.0334(2) 0.0736(11) Uani 1 1 d . . . . .
C22 C 0.81756(16) 0.7904(3) 0.9922(2) 0.0691(10) Uani 1 1 d . . . . .
C23 C 0.8731(2) 0.9389(5) 1.1370(2) 0.0855(14) Uani 1 1 d . . . . .
H23A H 0.881471 0.905682 1.180081 0.103 Uiso 1 1 calc R . . . .
H23B H 0.847229 0.985611 1.139464 0.103 Uiso 1 1 calc R . . . .
C24 C 0.9171(2) 0.9936(5) 1.1236(3) 0.0995(18) Uani 1 1 d . . . . .
H24A H 0.908620 1.028144 1.081534 0.149 Uiso 1 1 calc GR . . . .
H24B H 0.942814 0.947602 1.121390 0.149 Uiso 1 1 calc GR . . . .
H24C H 0.927874 1.039892 1.159202 0.149 Uiso 1 1 calc GR . . . .
C25 C 0.7800(2) 0.9534(4) 1.0251(3) 0.0826(13) Uani 1 1 d . . . . .
H25A H 0.773508 0.970216 1.068997 0.099 Uiso 1 1 calc R . . . .
H25B H 0.750054 0.927850 0.998155 0.099 Uiso 1 1 calc R . . . .
C26 C 0.7941(3) 1.0461(4) 0.9922(3) 0.0984(17) Uani 1 1 d . . . . .
H26A H 0.803853 1.029428 0.950717 0.148 Uiso 1 1 calc GR . . . .
H26B H 0.820737 1.077643 1.021799 0.148 Uiso 1 1 calc GR . . . .
H26C H 0.766680 1.089973 0.983191 0.148 Uiso 1 1 calc GR . . . .
C27 C 0.78306(16) 0.7637(3) 0.9325(2) 0.0681(10) Uani 1 1 d . . . . .
C28 C 0.77075(16) 0.6661(3) 0.9197(2) 0.0687(10) Uani 1 1 d . . . . .
H28 H 0.785823 0.618234 0.949569 0.082 Uiso 1 1 calc R . . . .
C29 C 0.73746(16) 0.6379(3) 0.8651(2) 0.0675(10) Uani 1 1 d . . . . .
H29 H 0.729274 0.571870 0.857536 0.081 Uiso 1 1 calc R . . . .
C30 C 0.71605(15) 0.7096(3) 0.8210(2) 0.0634(9) Uani 1 1 d . . . . .
C31 C 0.68035(15) 0.7087(3) 0.7613(2) 0.0629(9) Uani 1 1 d . . . . .
C32 C 0.65458(16) 0.6365(3) 0.7223(2) 0.0665(10) Uani 1 1 d . . . . .
H32 H 0.660074 0.570468 0.733524 0.080 Uiso 1 1 calc R . . . .
C33 C 0.62125(16) 0.6621(3) 0.6675(2) 0.0655(10) Uani 1 1 d . . . . .
H33 H 0.603867 0.612959 0.640967 0.079 Uiso 1 1 calc R . . . .
C34 C 0.61227(15) 0.7599(3) 0.6496(2) 0.0619(9) Uani 1 1 d . . . . .
C35 C 0.63904(15) 0.8322(3) 0.6864(2) 0.0614(9) Uani 1 1 d . . . . .
H35 H 0.634240 0.897999 0.674072 0.074 Uiso 1 1 calc R . . . .
C36 C 0.67266(15) 0.8063(3) 0.7410(2) 0.0628(9) Uani 1 1 d . . . . .
C37 C 0.72833(15) 0.8071(3) 0.8343(2) 0.0638(9) Uani 1 1 d . . . . .
C38 C 0.76177(16) 0.8351(3) 0.8894(2) 0.0669(10) Uani 1 1 d . . . . .
H38 H 0.769812 0.901087 0.897416 0.080 Uiso 1 1 calc R . . . .
C39 C 0.57421(15) 0.7847(3) 0.5935(2) 0.0618(9) Uani 1 1 d . . . . .
C40 C 0.52830(15) 0.7374(3) 0.5785(2) 0.0647(9) Uani 1 1 d . . . . .
C41 C 0.50281(15) 0.7842(3) 0.5240(2) 0.0652(10) Uani 1 1 d . . . . .
C42 C 0.53262(15) 0.8585(3) 0.5068(2) 0.0636(9) Uani 1 1 d . . . . .
C43 C 0.51015(17) 0.6604(3) 0.6177(2) 0.0697(10) Uani 1 1 d . . . . .
H43A H 0.477872 0.678781 0.624181 0.084 Uiso 1 1 calc R . . . .
H43B H 0.531317 0.656789 0.661703 0.084 Uiso 1 1 calc R . . . .
C44 C 0.5074(2) 0.5598(3) 0.5854(3) 0.0801(13) Uani 1 1 d . . . . .
H44A H 0.484219 0.561066 0.543606 0.120 Uiso 1 1 calc GR . . . .
H44B H 0.497284 0.512320 0.615036 0.120 Uiso 1 1 calc GR . . . .
H44C H 0.538917 0.541950 0.577140 0.120 Uiso 1 1 calc GR . . . .
C45 C 0.45301(16) 0.7605(3) 0.4890(2) 0.0730(11) Uani 1 1 d . . . . .
H45A H 0.434410 0.820908 0.479435 0.088 Uiso 1 1 calc R . . . .
H45B H 0.437247 0.720200 0.518005 0.088 Uiso 1 1 calc R . . . .
C46 C 0.45319(19) 0.7062(4) 0.4240(3) 0.0850(14) Uani 1 1 d . . . . .
H46A H 0.464594 0.749311 0.392876 0.128 Uiso 1 1 calc GR . . . .
H46B H 0.420695 0.684578 0.405013 0.128 Uiso 1 1 calc GR . . . .
H46C H 0.474406 0.650092 0.432817 0.128 Uiso 1 1 calc GR . . . .
C47 C 0.51861(16) 0.9200(3) 0.4542(2) 0.0665(10) Uani 1 1 d . . . . .
H47 H 0.486325 0.913898 0.431776 0.080 Uiso 1 1 calc R . . . .
C48 C 0.54603(16) 0.9914(3) 0.4289(2) 0.0668(10) Uani 1 1 d . . . . .
C49 C 0.53234(18) 1.0479(3) 0.3701(2) 0.0723(11) Uani 1 1 d . . . . .
C50 C 0.57134(19) 1.1031(4) 0.3655(2) 0.0784(12) Uani 1 1 d . . . . .
C51 C 0.60869(19) 1.0785(4) 0.4217(2) 0.0790(13) Uani 1 1 d . . . . .
C52 C 0.48503(19) 1.0422(4) 0.3231(2) 0.0774(12) Uani 1 1 d . . . . .
H52A H 0.480252 1.101765 0.296161 0.093 Uiso 1 1 calc R . . . .
H52B H 0.459151 1.038682 0.348595 0.093 Uiso 1 1 calc R . . . .
C53 C 0.4815(3) 0.9541(5) 0.2768(3) 0.1012(19) Uani 1 1 d . . . . .
H53A H 0.450331 0.954238 0.246652 0.152 Uiso 1 1 calc GR . . . .
H53B H 0.484872 0.894726 0.303085 0.152 Uiso 1 1 calc GR . . . .
H53C H 0.506960 0.957221 0.251290 0.152 Uiso 1 1 calc GR . . . .
C54 C 0.5775(2) 1.1733(5) 0.3111(3) 0.0970(17) Uani 1 1 d . . . . .
H54A H 0.546836 1.206829 0.294743 0.116 Uiso 1 1 calc R . . . .
H54B H 0.601583 1.222610 0.329534 0.116 Uiso 1 1 calc R . . . .
C55 C 0.5928(5) 1.1240(9) 0.2558(4) 0.176(5) Uani 1 1 d . . . . .
H55A H 0.590011 1.168320 0.218304 0.264 Uiso 1 1 calc GR . . . .
H55B H 0.572527 1.067464 0.242866 0.264 Uiso 1 1 calc GR . . . .
H55C H 0.626177 1.103367 0.269350 0.264 Uiso 1 1 calc GR . . . .
C56 C 0.6563(2) 1.1109(4) 0.4375(3) 0.0848(14) Uani 1 1 d . . . . .
H56 H 0.664031 1.165840 0.414205 0.102 Uiso 1 1 calc R . . . .
C57 C 0.69319(18) 1.0710(4) 0.4837(3) 0.0786(12) Uani 1 1 d . . . . .
C58 C 0.7423(2) 1.1009(4) 0.4940(3) 0.0841(14) Uani 1 1 d . . . . .
C59 C 0.76793(18) 1.0367(4) 0.5369(3) 0.0753(11) Uani 1 1 d . . . . .
C60 C 0.73391(16) 0.9705(3) 0.5554(2) 0.0670(10) Uani 1 1 d . . . . .
C61 C 0.7611(3) 1.1847(5) 0.4588(3) 0.0966(16) Uani 1 1 d . . . . .
H61A H 0.737821 1.238377 0.453278 0.116 Uiso 1 1 calc R . . . .
H61B H 0.791583 1.208277 0.485651 0.116 Uiso 1 1 calc R . . . .
C62 C 0.7689(3) 1.1533(5) 0.3940(4) 0.116(2) Uani 1 1 d . . . . .
H62A H 0.738599 1.131071 0.367308 0.174 Uiso 1 1 calc GR . . . .
H62B H 0.792152 1.100431 0.399694 0.174 Uiso 1 1 calc GR . . . .
H62C H 0.781164 1.207484 0.371831 0.174 Uiso 1 1 calc GR . . . .
C63 C 0.82162(18) 1.0311(4) 0.5579(3) 0.0794(12) Uani 1 1 d . . . . .
H63A H 0.836110 1.045177 0.519236 0.095 Uiso 1 1 calc R . . . .
H63B H 0.830501 0.964314 0.572226 0.095 Uiso 1 1 calc R . . . .
C64 C 0.8430(2) 1.1001(5) 0.6137(3) 0.0901(15) Uani 1 1 d . . . . .
H64A H 0.834377 1.166644 0.600282 0.135 Uiso 1 1 calc GR . . . .
H64B H 0.877856 1.093545 0.623419 0.135 Uiso 1 1 calc GR . . . .
H64C H 0.830388 1.084450 0.653270 0.135 Uiso 1 1 calc GR . . . .
C65 C 0.74367(15) 0.8849(3) 0.5973(2) 0.0647(9) Uani 1 1 d . . . . .
C66 C 0.71759(15) 0.7989(3) 0.5782(2) 0.0643(9) Uani 1 1 d . . . . .
H66 H 0.692797 0.799077 0.540066 0.077 Uiso 1 1 calc R . . . .
C67 C 0.72773(15) 0.7152(3) 0.6141(2) 0.0640(9) Uani 1 1 d . . . . .
H67 H 0.710372 0.657708 0.600788 0.077 Uiso 1 1 calc R . . . .
C68 C 0.76390(15) 0.7161(3) 0.6704(2) 0.0636(9) Uani 1 1 d . . . . .
C69 C 0.78462(15) 0.6432(3) 0.7174(2) 0.0638(9) Uani 1 1 d . . . . .
C70 C 0.77605(16) 0.5453(3) 0.7236(2) 0.0678(10) Uani 1 1 d . . . . .
H70 H 0.750748 0.514017 0.694436 0.081 Uiso 1 1 calc R . . . .
C71 C 0.80547(17) 0.4942(4) 0.7738(2) 0.0723(11) Uani 1 1 d . . . . .
H71 H 0.800000 0.427162 0.778570 0.087 Uiso 1 1 calc R . . . .
C72 C 0.84332(17) 0.5395(3) 0.8178(2) 0.0704(11) Uani 1 1 d . . . . .
C73 C 0.85102(16) 0.6374(3) 0.8130(2) 0.0679(10) Uani 1 1 d . . . . .
H73 H 0.875741 0.669117 0.842917 0.082 Uiso 1 1 calc R . . . .
C74 C 0.82112(15) 0.6886(3) 0.7623(2) 0.0652(10) Uani 1 1 d . . . . .
C75 C 0.78907(15) 0.8018(3) 0.6898(2) 0.0644(9) Uani 1 1 d . . . . .
C76 C 0.77968(15) 0.8867(3) 0.6534(2) 0.0666(10) Uani 1 1 d . . . . .
H76 H 0.797315 0.943957 0.666529 0.080 Uiso 1 1 calc R . . . .
Cl3 Cl 0.61803(10) 0.8809(2) 0.97551(11) 0.1416(8) Uani 1 1 d . . . . .
Cl4 Cl 0.62708(9) 0.70413(19) 0.90729(10) 0.1390(9) Uani 1 1 d . . . . .
Cl5 Cl 0.56916(9) 0.85430(18) 0.83945(11) 0.1378(8) Uani 1 1 d . . . . .
C80 C 0.5984(6) 0.8038(7) 0.9131(7) 0.236(8) Uani 1 1 d . . . . .
H80 H 0.570087 0.776830 0.928820 0.283 Uiso 1 1 calc R . . . .
Cl6 Cl 0.67050(12) 1.0953(4) 0.0827(4) 0.354(4) Uani 1 1 d . U . . .
Cl7 Cl 0.69147(16) 1.1755(2) 0.2060(3) 0.226(2) Uani 1 1 d . U . . .
Cl8 Cl 0.75430(15) 1.2073(2) 0.12037(15) 0.1805(13) Uani 1 1 d . U . . .
C81 C 0.6936(4) 1.2012(9) 0.1211(6) 0.166(4) Uani 1 1 d . U . . .
H81 H 0.675432 1.260303 0.103444 0.199 Uiso 1 1 calc R . . . .
O1 O 0.6748(3) 1.1656(5) 0.8655(4) 0.159(2) Uani 1 1 d . . . . .
H1 H 0.694412 1.141043 0.846347 0.238 Uiso 1 1 d R . . . .
O2 O 0.69986(15) 1.0687(3) 0.7601(2) 0.0954(11) Uani 1 1 d . . . . .
H2 H 0.680662 1.071502 0.723702 0.143 Uiso 1 1 calc GR . . . .
C77 C 0.6491(5) 1.0907(10) 0.8940(7) 0.181(5) Uani 1 1 d . . . . .
H77A H 0.619642 1.074262 0.862780 0.271 Uiso 1 1 calc GR . . . .
H77B H 0.641071 1.114414 0.935107 0.271 Uiso 1 1 calc GR . . . .
H77C H 0.669266 1.033180 0.903159 0.271 Uiso 1 1 calc GR . . . .
C78 C 0.7454(3) 1.0901(8) 0.7510(6) 0.161(4) Uani 1 1 d . . . . .
H78A H 0.745436 1.094363 0.703704 0.241 Uiso 1 1 calc GR . . . .
H78B H 0.767522 1.039253 0.770785 0.241 Uiso 1 1 calc GR . . . .
H78C H 0.755669 1.152002 0.772086 0.241 Uiso 1 1 calc GR . . . .
O3 O 0.86858(17) 0.8972(3) 0.8570(2) 0.1043(13) Uani 1 1 d . . . . .
H3 H 0.881382 0.854149 0.883165 0.157 Uiso 1 1 calc GR . . . .
C79 C 0.8833(3) 0.9870(6) 0.8824(5) 0.132(3) Uani 1 1 d . . . . .
H79A H 0.912300 1.006139 0.867029 0.198 Uiso 1 1 calc GR . . . .
H79B H 0.890018 0.983975 0.930676 0.198 Uiso 1 1 calc GR . . . .
H79C H 0.857980 1.034338 0.867474 0.198 Uiso 1 1 calc GR . . . .
loop_
_atom_site_aniso_label
_atom_site_aniso_U_11
_atom_site_aniso_U_22
_atom_site_aniso_U_33
_atom_site_aniso_U_23
_atom_site_aniso_U_13
_atom_site_aniso_U_12
Zn1 0.0670(3) 0.0802(4) 0.0546(3) 0.0004(2) -0.0161(2) 0.0045(2)
Zn2 0.0653(3) 0.0616(3) 0.0561(3) 0.00620(19) -0.0141(2) 0.00034(19)
Cl1 0.0742(6) 0.0857(7) 0.0693(7) 0.0035(5) -0.0157(5) -0.0026(5)
Cl2 0.0779(6) 0.0659(6) 0.0638(6) 0.0001(4) -0.0166(5) 0.0025(5)
N1 0.067(2) 0.074(2) 0.061(2) 0.0031(17) -0.0133(16) 0.0057(17)
N2 0.072(2) 0.089(3) 0.063(2) 0.0009(19) -0.0197(17) 0.006(2)
N3 0.074(2) 0.085(2) 0.0535(19) 0.0000(17) -0.0135(16) 0.0031(19)
N4 0.071(2) 0.0602(18) 0.0545(18) 0.0015(14) -0.0146(15) 0.0000(15)
N5 0.0621(18) 0.0627(18) 0.0510(17) 0.0011(13) -0.0148(14) 0.0031(14)
N6 0.071(2) 0.0649(19) 0.060(2) 0.0073(16) -0.0123(16) -0.0006(16)
N7 0.069(2) 0.070(2) 0.061(2) 0.0073(16) -0.0114(16) -0.0019(16)
N8 0.0622(18) 0.0673(19) 0.0599(19) -0.0010(15) -0.0143(15) -0.0004(15)
C1 0.069(2) 0.073(2) 0.067(3) 0.001(2) -0.016(2) 0.007(2)
C2 0.082(3) 0.075(3) 0.073(3) -0.001(2) -0.023(2) 0.013(2)
C3 0.082(3) 0.079(3) 0.075(3) 0.006(2) -0.023(2) 0.011(2)
C4 0.069(2) 0.080(3) 0.068(3) 0.007(2) -0.016(2) 0.003(2)
C5 0.113(4) 0.092(4) 0.079(3) -0.012(3) -0.034(3) 0.031(3)
C6 0.148(6) 0.087(4) 0.102(5) -0.008(3) -0.047(4) 0.011(4)
C7 0.093(3) 0.086(3) 0.082(3) -0.003(3) -0.030(3) 0.017(3)
C8 0.134(6) 0.080(3) 0.109(5) 0.016(3) -0.035(4) -0.005(4)
C9 0.071(3) 0.088(3) 0.070(3) 0.008(2) -0.019(2) 0.007(2)
C10 0.070(2) 0.103(4) 0.061(3) 0.006(2) -0.017(2) 0.005(3)
C11 0.086(3) 0.137(5) 0.063(3) -0.003(3) -0.020(2) 0.028(4)
C12 0.091(4) 0.140(5) 0.064(3) -0.005(3) -0.018(3) 0.025(4)
C13 0.080(3) 0.116(4) 0.055(2) -0.004(2) -0.017(2) 0.005(3)
C14 0.122(5) 0.149(6) 0.078(4) 0.013(4) -0.030(4) 0.046(5)
C15 0.199(11) 0.206(11) 0.122(7) 0.049(8) 0.019(7) 0.099(9)
C16 0.105(5) 0.191(8) 0.065(3) -0.020(4) -0.026(3) 0.047(5)
C17 0.145(7) 0.217(11) 0.087(5) 0.004(6) 0.015(5) 0.043(7)
C18 0.080(3) 0.116(4) 0.056(2) -0.011(3) -0.016(2) 0.007(3)
C19 0.072(3) 0.096(3) 0.053(2) -0.001(2) -0.0102(19) -0.005(2)
C20 0.073(3) 0.088(3) 0.055(2) -0.008(2) -0.0011(19) -0.006(2)
C21 0.069(2) 0.084(3) 0.060(2) -0.006(2) -0.0069(19) -0.007(2)
C22 0.068(2) 0.077(3) 0.053(2) -0.0002(19) -0.0097(18) 0.003(2)
C23 0.085(3) 0.108(4) 0.056(2) -0.015(2) -0.005(2) -0.010(3)
C24 0.092(4) 0.123(5) 0.077(3) -0.016(3) 0.001(3) -0.024(4)
C25 0.086(3) 0.084(3) 0.071(3) -0.010(2) -0.004(2) 0.000(2)
C26 0.108(4) 0.083(3) 0.092(4) 0.003(3) -0.009(3) -0.004(3)
C27 0.064(2) 0.079(3) 0.053(2) 0.0002(19) -0.0091(17) -0.0002(19)
C28 0.071(2) 0.073(2) 0.053(2) 0.0033(18) -0.0117(18) 0.003(2)
C29 0.064(2) 0.069(2) 0.059(2) 0.0055(18) -0.0138(18) 0.0021(18)
C30 0.062(2) 0.066(2) 0.054(2) 0.0012(17) -0.0086(17) 0.0019(17)
C31 0.064(2) 0.064(2) 0.053(2) 0.0061(16) -0.0078(17) 0.0041(17)
C32 0.067(2) 0.063(2) 0.060(2) 0.0049(17) -0.0086(18) 0.0010(18)
C33 0.070(2) 0.064(2) 0.053(2) 0.0001(17) -0.0106(17) 0.0008(18)
C34 0.061(2) 0.063(2) 0.053(2) 0.0035(16) -0.0116(16) 0.0023(16)
C35 0.064(2) 0.0593(19) 0.052(2) 0.0038(16) -0.0108(16) 0.0037(17)
C36 0.062(2) 0.063(2) 0.055(2) 0.0025(16) -0.0087(17) 0.0044(17)
C37 0.062(2) 0.071(2) 0.051(2) 0.0018(17) -0.0079(16) 0.0031(18)
C38 0.068(2) 0.069(2) 0.054(2) -0.0016(18) -0.0108(18) 0.0002(19)
C39 0.066(2) 0.0551(19) 0.056(2) -0.0007(16) -0.0099(17) 0.0024(16)
C40 0.065(2) 0.060(2) 0.060(2) -0.0016(17) -0.0092(18) 0.0003(17)
C41 0.063(2) 0.064(2) 0.058(2) -0.0021(17) -0.0139(17) 0.0026(17)
C42 0.065(2) 0.060(2) 0.055(2) -0.0003(16) -0.0146(17) 0.0014(17)
C43 0.070(2) 0.064(2) 0.065(2) 0.0017(19) -0.0097(19) -0.0023(19)
C44 0.089(3) 0.065(2) 0.073(3) 0.003(2) -0.014(2) -0.010(2)
C45 0.066(2) 0.069(2) 0.071(3) 0.001(2) -0.018(2) 0.0012(19)
C46 0.083(3) 0.071(3) 0.083(3) -0.005(2) -0.028(2) -0.006(2)
C47 0.070(2) 0.061(2) 0.057(2) -0.0027(17) -0.0161(18) 0.0067(18)
C48 0.072(2) 0.065(2) 0.053(2) 0.0037(17) -0.0134(18) 0.0068(19)
C49 0.077(3) 0.075(3) 0.053(2) 0.0054(19) -0.0142(19) 0.010(2)
C50 0.084(3) 0.077(3) 0.062(3) 0.016(2) -0.013(2) 0.011(2)
C51 0.080(3) 0.081(3) 0.064(3) 0.018(2) -0.015(2) 0.006(2)
C52 0.082(3) 0.084(3) 0.053(2) 0.005(2) -0.018(2) 0.012(2)
C53 0.110(4) 0.106(4) 0.070(3) -0.017(3) -0.026(3) 0.014(3)
C54 0.098(4) 0.113(4) 0.074(3) 0.033(3) 0.001(3) 0.016(3)
C55 0.252(13) 0.190(10) 0.103(6) 0.065(6) 0.075(8) 0.093(9)
C56 0.083(3) 0.084(3) 0.076(3) 0.026(3) -0.012(2) -0.005(2)
C57 0.077(3) 0.074(3) 0.074(3) 0.016(2) -0.014(2) -0.003(2)
C58 0.081(3) 0.081(3) 0.082(3) 0.011(3) -0.005(3) -0.010(2)
C59 0.072(3) 0.077(3) 0.070(3) 0.005(2) -0.004(2) -0.006(2)
C60 0.064(2) 0.072(2) 0.057(2) 0.0021(18) -0.0091(18) 0.0014(18)
C61 0.105(4) 0.090(4) 0.087(4) 0.006(3) 0.000(3) -0.005(3)
C62 0.127(6) 0.095(4) 0.121(6) -0.002(4) 0.012(5) 0.001(4)
C63 0.070(3) 0.089(3) 0.072(3) 0.006(2) -0.005(2) -0.009(2)
C64 0.081(3) 0.091(3) 0.089(4) 0.002(3) -0.006(3) -0.014(3)
C65 0.062(2) 0.068(2) 0.054(2) -0.0008(17) -0.0098(17) 0.0021(18)
C66 0.063(2) 0.069(2) 0.053(2) 0.0012(17) -0.0094(16) 0.0043(18)
C67 0.062(2) 0.067(2) 0.054(2) -0.0031(17) -0.0112(17) 0.0015(17)
C68 0.062(2) 0.067(2) 0.053(2) 0.0013(17) -0.0105(17) 0.0049(17)
C69 0.062(2) 0.067(2) 0.054(2) 0.0018(17) -0.0093(17) 0.0049(17)
C70 0.067(2) 0.068(2) 0.058(2) 0.0000(18) -0.0134(18) 0.0004(18)
C71 0.075(3) 0.069(2) 0.062(2) 0.0038(19) -0.013(2) 0.003(2)
C72 0.070(2) 0.076(3) 0.054(2) -0.0002(18) -0.0138(18) 0.008(2)
C73 0.068(2) 0.074(2) 0.051(2) -0.0023(18) -0.0138(17) 0.0044(19)
C74 0.064(2) 0.073(2) 0.051(2) 0.0003(17) -0.0082(17) 0.0046(18)
C75 0.061(2) 0.070(2) 0.054(2) -0.0017(17) -0.0111(16) 0.0068(18)
C76 0.062(2) 0.071(2) 0.058(2) 0.0005(18) -0.0111(17) -0.0033(18)
Cl3 0.170(2) 0.1480(18) 0.0970(13) 0.0139(12) 0.0014(13) 0.0063(16)
Cl4 0.1551(18) 0.1734(19) 0.0897(11) 0.0327(12) 0.0270(11) 0.0771(16)
Cl5 0.1460(17) 0.1520(18) 0.0994(12) 0.0364(12) -0.0145(11) 0.0439(14)
C80 0.310(17) 0.104(6) 0.212(12) 0.032(7) -0.148(12) 0.025(8)
Cl6 0.122(2) 0.303(5) 0.567(9) -0.304(6) -0.102(4) 0.065(3)
Cl7 0.239(4) 0.131(2) 0.345(6) 0.056(3) 0.148(4) 0.047(2)
Cl8 0.252(4) 0.158(2) 0.140(2) -0.0161(17) 0.061(2) -0.057(2)
C81 0.158(7) 0.156(7) 0.181(8) -0.001(6) 0.024(6) 0.011(6)
O1 0.156(6) 0.143(5) 0.171(6) -0.024(5) 0.020(5) -0.027(4)
O2 0.099(3) 0.079(2) 0.091(3) -0.001(2) -0.023(2) -0.0025(19)
C77 0.171(10) 0.188(11) 0.188(12) 0.022(10) 0.045(9) -0.013(9)
C78 0.109(6) 0.132(7) 0.230(12) -0.030(8) 0.007(7) -0.021(5)
O3 0.107(3) 0.087(2) 0.100(3) -0.001(2) -0.025(2) -0.008(2)
C79 0.139(7) 0.100(5) 0.149(8) -0.010(5) 0.007(6) -0.006(5)
loop_
_atom_type_symbol
_atom_type_description
_atom_type_scat_dispersion_real
_atom_type_scat_dispersion_imag
_atom_type_scat_source
C C 0.0033 0.0016 'International Tables Vol C Tables 4.2.6.8 and 6.1.1.4'
H H 0.0000 0.0000 'International Tables Vol C Tables 4.2.6.8 and 6.1.1.4'
Cl Cl 0.1484 0.1585 'International Tables Vol C Tables 4.2.6.8 and 6.1.1.4'
N N 0.0061 0.0033 'International Tables Vol C Tables 4.2.6.8 and 6.1.1.4'
O O 0.0106 0.0060 'International Tables Vol C Tables 4.2.6.8 and 6.1.1.4'
Zn Zn 0.2839 1.4301 'International Tables Vol C Tables 4.2.6.8 and 6.1.1.4'
loop_
_geom_angle_atom_site_label_1
_geom_angle_atom_site_label_2
_geom_angle_atom_site_label_3
_geom_angle
_geom_angle_site_symmetry_1
_geom_angle_site_symmetry_3
_geom_angle_publ_flag
N1 Zn1 Cl1 111.10(13) . . ?
N1 Zn1 N3 144.56(17) . . ?
N2 Zn1 Cl1 107.57(14) . . ?
N2 Zn1 N1 95.14(17) . . ?
N2 Zn1 N3 92.03(17) . . ?
N3 Zn1 Cl1 99.55(14) . . ?
N5 Zn2 Cl2 110.90(11) . . ?
N6 Zn2 Cl2 109.99(12) . . ?
N6 Zn2 N5 95.09(15) . . ?
N6 Zn2 N7 92.10(16) . . ?
N7 Zn2 Cl2 99.22(12) . . ?
N7 Zn2 N5 144.28(16) . . ?
C1 N1 Zn1 133.9(3) . . ?
C1 N1 C4 106.0(4) . . ?
C4 N1 Zn1 119.4(3) . . ?
C10 N2 Zn1 125.0(3) . . ?
C13 N2 Zn1 125.0(4) . . ?
C13 N2 C10 108.9(4) . . ?
C19 N3 Zn1 115.9(3) . . ?
C22 N3 Zn1 131.9(3) . . ?
C22 N3 C19 106.3(4) . . ?
C36 N4 H4 125.5 . . ?
C36 N4 C37 109.0(3) . . ?
C37 N4 H4 125.5 . . ?
C39 N5 Zn2 134.7(3) . . ?
C39 N5 C42 105.6(3) . . ?
C42 N5 Zn2 119.3(3) . . ?
C48 N6 Zn2 126.3(3) . . ?
C48 N6 C51 108.0(4) . . ?
C51 N6 Zn2 125.5(3) . . ?
C57 N7 Zn2 117.2(3) . . ?
C60 N7 Zn2 131.8(3) . . ?
C60 N7 C57 106.3(4) . . ?
C74 N8 H8 126.0 . . ?
C74 N8 C75 107.9(3) . . ?
C75 N8 H8 126.0 . . ?
N1 C1 C2 111.3(4) . . ?
N1 C1 C72 123.5(4) . . ?
C2 C1 C72 124.9(4) . . ?
C1 C2 C5 127.4(4) . . ?
C3 C2 C1 105.0(4) . . ?
C3 C2 C5 127.3(5) . . ?
C2 C3 C4 108.2(4) . . ?
C2 C3 C7 126.3(5) . . ?
C4 C3 C7 125.5(4) . . ?
C3 C4 N1 109.5(4) . . ?
C3 C4 C9 124.8(5) . . ?
C9 C4 N1 125.8(5) . . ?
C2 C5 H5A 108.5 . . ?
C2 C5 H5B 108.5 . . ?
C2 C5 C6 114.9(7) . . ?
H5A C5 H5B 107.5 . . ?
C6 C5 H5A 108.5 . . ?
C6 C5 H5B 108.5 . . ?
C5 C6 H6A 109.5 . . ?
C5 C6 H6B 109.5 . . ?
C5 C6 H6C 109.5 . . ?
H6A C6 H6B 109.5 . . ?
H6A C6 H6C 109.5 . . ?
H6B C6 H6C 109.5 . . ?
C3 C7 H7A 109.1 . . ?
C3 C7 H7B 109.1 . . ?
C3 C7 C8 112.4(6) . . ?
H7A C7 H7B 107.9 . . ?
C8 C7 H7A 109.1 . . ?
C8 C7 H7B 109.1 . . ?
C7 C8 H8A 109.5 . . ?
C7 C8 H8B 109.5 . . ?
C7 C8 H8C 109.5 . . ?
H8A C8 H8B 109.5 . . ?
H8A C8 H8C 109.5 . . ?
H8B C8 H8C 109.5 . . ?
C4 C9 H9 115.3 . . ?
C10 C9 C4 129.4(5) . . ?
C10 C9 H9 115.3 . . ?
N2 C10 C11 107.9(5) . . ?
C9 C10 N2 122.7(4) . . ?
C9 C10 C11 129.4(5) . . ?
C10 C11 C14 125.9(6) . . ?
C12 C11 C10 106.5(5) . . ?
C12 C11 C14 127.6(6) . . ?
C11 C12 C13 106.9(5) . . ?
C11 C12 C16 127.6(6) . . ?
C13 C12 C16 125.4(6) . . ?
N2 C13 C12 109.7(5) . . ?
N2 C13 C18 121.4(5) . . ?
C18 C13 C12 128.9(5) . . ?
C11 C14 H14A 109.2 . . ?
C11 C14 H14B 109.2 . . ?
H14A C14 H14B 107.9 . . ?
C15 C14 C11 112.1(8) . . ?
C15 C14 H14A 109.2 . . ?
C15 C14 H14B 109.2 . . ?
C14 C15 H15A 109.5 . . ?
C14 C15 H15B 109.5 . . ?
C14 C15 H15C 109.5 . . ?
H15A C15 H15B 109.5 . . ?
H15A C15 H15C 109.5 . . ?
H15B C15 H15C 109.5 . . ?
C12 C16 H16A 109.3 . . ?
C12 C16 H16B 109.3 . . ?
H16A C16 H16B 108.0 . . ?
C17 C16 C12 111.6(8) . . ?
C17 C16 H16A 109.3 . . ?
C17 C16 H16B 109.3 . . ?
C16 C17 H17A 109.5 . . ?
C16 C17 H17B 109.5 . . ?
C16 C17 H17C 109.5 . . ?
H17A C17 H17B 109.5 . . ?
H17A C17 H17C 109.5 . . ?
H17B C17 H17C 109.5 . . ?
C13 C18 H18 115.8 . . ?
C19 C18 C13 128.4(5) . . ?
C19 C18 H18 115.8 . . ?
N3 C19 C20 109.2(4) . . ?
C18 C19 N3 124.6(5) . . ?
C18 C19 C20 126.0(5) . . ?
C19 C20 C23 125.5(5) . . ?
C21 C20 C19 108.0(4) . . ?
C21 C20 C23 126.5(5) . . ?
C20 C21 C22 105.3(4) . . ?
C20 C21 C25 127.2(5) . . ?
C22 C21 C25 127.4(4) . . ?
N3 C22 C21 111.2(4) . . ?
N3 C22 C27 121.1(4) . . ?
C21 C22 C27 127.7(4) . . ?
C20 C23 H23A 109.3 . . ?
C20 C23 H23B 109.3 . . ?
C20 C23 C24 111.6(5) . . ?
H23A C23 H23B 108.0 . . ?
C24 C23 H23A 109.3 . . ?
C24 C23 H23B 109.3 . . ?
C23 C24 H24A 109.5 . . ?
C23 C24 H24B 109.5 . . ?
C23 C24 H24C 109.5 . . ?
H24A C24 H24B 109.5 . . ?
H24A C24 H24C 109.5 . . ?
H24B C24 H24C 109.5 . . ?
C21 C25 H25A 108.7 . . ?
C21 C25 H25B 108.7 . . ?
C21 C25 C26 114.3(5) . . ?
H25A C25 H25B 107.6 . . ?
C26 C25 H25A 108.7 . . ?
C26 C25 H25B 108.7 . . ?
C25 C26 H26A 109.5 . . ?
C25 C26 H26B 109.5 . . ?
C25 C26 H26C 109.5 . . ?
H26A C26 H26B 109.5 . . ?
H26A C26 H26C 109.5 . . ?
H26B C26 H26C 109.5 . . ?
C28 C27 C22 120.1(4) . . ?
C38 C27 C22 119.8(4) . . ?
C38 C27 C28 120.1(4) . . ?
C27 C28 H28 119.0 . . ?
C29 C28 C27 122.0(4) . . ?
C29 C28 H28 119.0 . . ?
C28 C29 H29 120.9 . . ?
C28 C29 C30 118.1(4) . . ?
C30 C29 H29 120.9 . . ?
C29 C30 C31 134.0(4) . . ?
C29 C30 C37 119.5(4) . . ?
C37 C30 C31 106.4(4) . . ?
C32 C31 C30 134.8(4) . . ?
C32 C31 C36 118.5(4) . . ?
C36 C31 C30 106.7(4) . . ?
C31 C32 H32 120.3 . . ?
C33 C32 C31 119.4(4) . . ?
C33 C32 H32 120.3 . . ?
C32 C33 H33 119.3 . . ?
C32 C33 C34 121.5(4) . . ?
C34 C33 H33 119.3 . . ?
C33 C34 C39 119.9(4) . . ?
C35 C34 C33 119.7(3) . . ?
C35 C34 C39 120.4(4) . . ?
C34 C35 H35 120.7 . . ?
C36 C35 C34 118.6(4) . . ?
C36 C35 H35 120.7 . . ?
N4 C36 C31 108.8(3) . . ?
N4 C36 C35 129.0(4) . . ?
C35 C36 C31 122.2(4) . . ?
N4 C37 C30 109.0(3) . . ?
N4 C37 C38 128.9(4) . . ?
C38 C37 C30 122.1(4) . . ?
C27 C38 C37 118.1(4) . . ?
C27 C38 H38 121.0 . . ?
C37 C38 H38 121.0 . . ?
N5 C39 C34 124.2(4) . . ?
N5 C39 C40 111.4(3) . . ?
C40 C39 C34 124.3(4) . . ?
C39 C40 C43 127.3(4) . . ?
C41 C40 C39 105.8(4) . . ?
C41 C40 C43 126.7(4) . . ?
C40 C41 C42 107.5(4) . . ?
C40 C41 C45 126.2(4) . . ?
C42 C41 C45 126.4(4) . . ?
N5 C42 C41 109.6(3) . . ?
C47 C42 N5 127.0(4) . . ?
C47 C42 C41 123.4(4) . . ?
C40 C43 H43A 108.8 . . ?
C40 C43 H43B 108.8 . . ?
C40 C43 C44 113.9(4) . . ?
H43A C43 H43B 107.7 . . ?
C44 C43 H43A 108.8 . . ?
C44 C43 H43B 108.8 . . ?
C43 C44 H44A 109.5 . . ?
C43 C44 H44B 109.5 . . ?
C43 C44 H44C 109.5 . . ?
H44A C44 H44B 109.5 . . ?
H44A C44 H44C 109.5 . . ?
H44B C44 H44C 109.5 . . ?
C41 C45 H45A 109.4 . . ?
C41 C45 H45B 109.4 . . ?
C41 C45 C46 111.3(4) . . ?
H45A C45 H45B 108.0 . . ?
C46 C45 H45A 109.4 . . ?
C46 C45 H45B 109.4 . . ?
C45 C46 H46A 109.5 . . ?
C45 C46 H46B 109.5 . . ?
C45 C46 H46C 109.5 . . ?
H46A C46 H46B 109.5 . . ?
H46A C46 H46C 109.5 . . ?
H46B C46 H46C 109.5 . . ?
C42 C47 H47 115.7 . . ?
C42 C47 C48 128.7(4) . . ?
C48 C47 H47 115.7 . . ?
N6 C48 C47 121.7(4) . . ?
N6 C48 C49 110.4(4) . . ?
C47 C48 C49 127.8(4) . . ?
C48 C49 C52 125.4(5) . . ?
C50 C49 C48 106.0(4) . . ?
C50 C49 C52 128.5(4) . . ?
C49 C50 C51 106.9(4) . . ?
C49 C50 C54 128.5(4) . . ?
C51 C50 C54 124.5(5) . . ?
N6 C51 C50 108.7(4) . . ?
N6 C51 C56 121.9(4) . . ?
C56 C51 C50 129.3(5) . . ?
C49 C52 H52A 109.1 . . ?
C49 C52 H52B 109.1 . . ?
C49 C52 C53 112.6(4) . . ?
H52A C52 H52B 107.8 . . ?
C53 C52 H52A 109.1 . . ?
C53 C52 H52B 109.1 . . ?
C52 C53 H53A 109.5 . . ?
C52 C53 H53B 109.5 . . ?
C52 C53 H53C 109.5 . . ?
H53A C53 H53B 109.5 . . ?
H53A C53 H53C 109.5 . . ?
H53B C53 H53C 109.5 . . ?
C50 C54 H54A 109.2 . . ?
C50 C54 H54B 109.2 . . ?
H54A C54 H54B 107.9 . . ?
C55 C54 C50 111.9(6) . . ?
C55 C54 H54A 109.2 . . ?
C55 C54 H54B 109.2 . . ?
C54 C55 H55A 109.5 . . ?
C54 C55 H55B 109.5 . . ?
C54 C55 H55C 109.5 . . ?
H55A C55 H55B 109.5 . . ?
H55A C55 H55C 109.5 . . ?
H55B C55 H55C 109.5 . . ?
C51 C56 H56 116.6 . . ?
C57 C56 C51 126.8(5) . . ?
C57 C56 H56 116.6 . . ?
N7 C57 C58 109.0(4) . . ?
C56 C57 N7 125.8(5) . . ?
C56 C57 C58 125.0(5) . . ?
C57 C58 C61 125.0(5) . . ?
C59 C58 C57 106.9(4) . . ?
C59 C58 C61 128.0(5) . . ?
C58 C59 C60 106.6(4) . . ?
C58 C59 C63 127.2(5) . . ?
C60 C59 C63 126.2(4) . . ?
N7 C60 C59 111.1(4) . . ?
N7 C60 C65 120.7(4) . . ?
C59 C60 C65 127.8(4) . . ?
C58 C61 H61A 109.7 . . ?
C58 C61 H61B 109.7 . . ?
H61A C61 H61B 108.2 . . ?
C62 C61 C58 110.0(6) . . ?
C62 C61 H61A 109.7 . . ?
C62 C61 H61B 109.7 . . ?
C61 C62 H62A 109.5 . . ?
C61 C62 H62B 109.5 . . ?
C61 C62 H62C 109.5 . . ?
H62A C62 H62B 109.5 . . ?
H62A C62 H62C 109.5 . . ?
H62B C62 H62C 109.5 . . ?
C59 C63 H63A 108.6 . . ?
C59 C63 H63B 108.6 . . ?
C59 C63 C64 114.6(5) . . ?
H63A C63 H63B 107.6 . . ?
C64 C63 H63A 108.6 . . ?
C64 C63 H63B 108.6 . . ?
C63 C64 H64A 109.5 . . ?
C63 C64 H64B 109.5 . . ?
C63 C64 H64C 109.5 . . ?
H64A C64 H64B 109.5 . . ?
H64A C64 H64C 109.5 . . ?
H64B C64 H64C 109.5 . . ?
C66 C65 C60 119.2(4) . . ?
C76 C65 C60 120.2(4) . . ?
C76 C65 C66 120.5(4) . . ?
C65 C66 H66 119.5 . . ?
C67 C66 C65 121.0(4) . . ?
C67 C66 H66 119.5 . . ?
C66 C67 H67 120.5 . . ?
C66 C67 C68 119.0(4) . . ?
C68 C67 H67 120.5 . . ?
C67 C68 C69 133.8(4) . . ?
C67 C68 C75 119.9(4) . . ?
C75 C68 C69 106.3(3) . . ?
C70 C69 C68 133.6(4) . . ?
C70 C69 C74 119.9(4) . . ?
C74 C69 C68 106.5(4) . . ?
C69 C70 H70 120.8 . . ?
C69 C70 C71 118.4(4) . . ?
C71 C70 H70 120.8 . . ?
C70 C71 H71 119.2 . . ?
C70 C71 C72 121.6(4) . . ?
C72 C71 H71 119.2 . . ?
C71 C72 C1 119.2(4) . . ?
C73 C72 C1 120.7(4) . . ?
C73 C72 C71 120.1(4) . . ?
C72 C73 H73 121.0 . . ?
C72 C73 C74 117.9(4) . . ?
C74 C73 H73 121.0 . . ?
N8 C74 C69 109.9(3) . . ?
N8 C74 C73 127.9(4) . . ?
C69 C74 C73 122.0(4) . . ?
N8 C75 C68 109.4(4) . . ?
N8 C75 C76 128.8(4) . . ?
C76 C75 C68 121.8(4) . . ?
C65 C76 C75 117.9(4) . . ?
C65 C76 H76 121.1 . . ?
C75 C76 H76 121.1 . . ?
Cl3 C80 Cl5 116.6(5) . . ?
Cl3 C80 H80 99.0 . . ?
Cl4 C80 Cl3 120.0(6) . . ?
Cl4 C80 Cl5 116.1(9) . . ?
Cl4 C80 H80 99.0 . . ?
Cl5 C80 H80 99.0 . . ?
Cl6 C81 Cl7 101.3(8) . . ?
Cl6 C81 Cl8 109.1(7) . . ?
Cl6 C81 H81 113.8 . . ?
Cl7 C81 H81 113.8 . . ?
Cl8 C81 Cl7 104.1(7) . . ?
Cl8 C81 H81 113.8 . . ?
C77 O1 H1 110.2 . . ?
C78 O2 H2 109.5 . . ?
O1 C77 H77A 109.5 . . ?
O1 C77 H77B 109.5 . . ?
O1 C77 H77C 109.5 . . ?
H77A C77 H77B 109.5 . . ?
H77A C77 H77C 109.5 . . ?
H77B C77 H77C 109.5 . . ?
O2 C78 H78A 109.5 . . ?
O2 C78 H78B 109.5 . . ?
O2 C78 H78C 109.5 . . ?
H78A C78 H78B 109.5 . . ?
H78A C78 H78C 109.5 . . ?
H78B C78 H78C 109.5 . . ?
C79 O3 H3 109.5 . . ?
O3 C79 H79A 109.5 . . ?
O3 C79 H79B 109.5 . . ?
O3 C79 H79C 109.5 . . ?
H79A C79 H79B 109.5 . . ?
H79A C79 H79C 109.5 . . ?
H79B C79 H79C 109.5 . . ?
loop_
_geom_bond_atom_site_label_1
_geom_bond_atom_site_label_2
_geom_bond_distance
_geom_bond_site_symmetry_2
_geom_bond_publ_flag
Zn1 Cl1 2.2978(15) . ?
Zn1 N1 2.013(4) . ?
Zn1 N2 1.968(4) . ?
Zn1 N3 2.022(4) . ?
Zn2 Cl2 2.3295(13) . ?
Zn2 N5 2.019(4) . ?
Zn2 N6 1.974(3) . ?
Zn2 N7 2.015(4) . ?
N1 C1 1.339(6) . ?
N1 C4 1.413(6) . ?
N2 C10 1.371(7) . ?
N2 C13 1.335(7) . ?
N3 C19 1.407(6) . ?
N3 C22 1.336(6) . ?
N4 H4 0.8800 . ?
N4 C36 1.370(5) . ?
N4 C37 1.386(5) . ?
N5 C39 1.353(5) . ?
N5 C42 1.406(5) . ?
N6 C48 1.349(6) . ?
N6 C51 1.355(6) . ?
N7 C57 1.404(6) . ?
N7 C60 1.337(5) . ?
N8 H8 0.8800 . ?
N8 C74 1.376(6) . ?
N8 C75 1.392(5) . ?
C1 C2 1.443(7) . ?
C1 C72 1.469(6) . ?
C2 C3 1.387(6) . ?
C2 C5 1.507(8) . ?
C3 C4 1.394(8) . ?
C3 C7 1.505(7) . ?
C4 C9 1.402(6) . ?
C5 H5A 0.9900 . ?
C5 H5B 0.9900 . ?
C5 C6 1.512(10) . ?
C6 H6A 0.9800 . ?
C6 H6B 0.9800 . ?
C6 H6C 0.9800 . ?
C7 H7A 0.9900 . ?
C7 H7B 0.9900 . ?
C7 C8 1.536(10) . ?
C8 H8A 0.9800 . ?
C8 H8B 0.9800 . ?
C8 H8C 0.9800 . ?
C9 H9 0.9500 . ?
C9 C10 1.367(8) . ?
C10 C11 1.455(7) . ?
C11 C12 1.370(10) . ?
C11 C14 1.492(9) . ?
C12 C13 1.435(7) . ?
C12 C16 1.500(8) . ?
C13 C18 1.401(9) . ?
C14 H14A 0.9900 . ?
C14 H14B 0.9900 . ?
C14 C15 1.434(14) . ?
C15 H15A 0.9800 . ?
C15 H15B 0.9800 . ?
C15 H15C 0.9800 . ?
C16 H16A 0.9900 . ?
C16 H16B 0.9900 . ?
C16 C17 1.494(12) . ?
C17 H17A 0.9800 . ?
C17 H17B 0.9800 . ?
C17 H17C 0.9800 . ?
C18 H18 0.9500 . ?
C18 C19 1.386(7) . ?
C19 C20 1.424(8) . ?
C20 C21 1.368(6) . ?
C20 C23 1.501(7) . ?
C21 C22 1.464(7) . ?
C21 C25 1.488(7) . ?
C22 C27 1.467(6) . ?
C23 H23A 0.9900 . ?
C23 H23B 0.9900 . ?
C23 C24 1.538(8) . ?
C24 H24A 0.9800 . ?
C24 H24B 0.9800 . ?
C24 H24C 0.9800 . ?
C25 H25A 0.9900 . ?
C25 H25B 0.9900 . ?
C25 C26 1.544(8) . ?
C26 H26A 0.9800 . ?
C26 H26B 0.9800 . ?
C26 H26C 0.9800 . ?
C27 C28 1.409(7) . ?
C27 C38 1.388(6) . ?
C28 H28 0.9500 . ?
C28 C29 1.382(6) . ?
C29 H29 0.9500 . ?
C29 C30 1.404(6) . ?
C30 C31 1.437(5) . ?
C30 C37 1.410(6) . ?
C31 C32 1.400(6) . ?
C31 C36 1.421(6) . ?
C32 H32 0.9500 . ?
C32 C33 1.375(6) . ?
C33 H33 0.9500 . ?
C33 C34 1.416(6) . ?
C34 C35 1.391(6) . ?
C34 C39 1.466(5) . ?
C35 H35 0.9500 . ?
C35 C36 1.378(5) . ?
C37 C38 1.390(6) . ?
C38 H38 0.9500 . ?
C39 C40 1.443(6) . ?
C40 C41 1.377(6) . ?
C40 C43 1.493(6) . ?
C41 C42 1.425(6) . ?
C41 C45 1.498(6) . ?
C42 C47 1.378(6) . ?
C43 H43A 0.9900 . ?
C43 H43B 0.9900 . ?
C43 C44 1.542(6) . ?
C44 H44A 0.9800 . ?
C44 H44B 0.9800 . ?
C44 H44C 0.9800 . ?
C45 H45A 0.9900 . ?
C45 H45B 0.9900 . ?
C45 C46 1.542(7) . ?
C46 H46A 0.9800 . ?
C46 H46B 0.9800 . ?
C46 H46C 0.9800 . ?
C47 H47 0.9500 . ?
C47 C48 1.423(7) . ?
C48 C49 1.435(6) . ?
C49 C50 1.369(8) . ?
C49 C52 1.503(6) . ?
C50 C51 1.454(6) . ?
C50 C54 1.523(7) . ?
C51 C56 1.407(8) . ?
C52 H52A 0.9900 . ?
C52 H52B 0.9900 . ?
C52 C53 1.543(8) . ?
C53 H53A 0.9800 . ?
C53 H53B 0.9800 . ?
C53 H53C 0.9800 . ?
C54 H54A 0.9900 . ?
C54 H54B 0.9900 . ?
C54 C55 1.472(11) . ?
C55 H55A 0.9800 . ?
C55 H55B 0.9800 . ?
C55 H55C 0.9800 . ?
C56 H56 0.9500 . ?
C56 C57 1.389(7) . ?
C57 C58 1.437(7) . ?
C58 C59 1.363(7) . ?
C58 C61 1.524(8) . ?
C59 C60 1.441(7) . ?
C59 C63 1.510(7) . ?
C60 C65 1.463(6) . ?
C61 H61A 0.9900 . ?
C61 H61B 0.9900 . ?
C61 C62 1.466(9) . ?
C62 H62A 0.9800 . ?
C62 H62B 0.9800 . ?
C62 H62C 0.9800 . ?
C63 H63A 0.9900 . ?
C63 H63B 0.9900 . ?
C63 C64 1.530(8) . ?
C64 H64A 0.9800 . ?
C64 H64B 0.9800 . ?
C64 H64C 0.9800 . ?
C65 C66 1.420(6) . ?
C65 C76 1.391(5) . ?
C66 H66 0.9500 . ?
C66 C67 1.378(6) . ?
C67 H67 0.9500 . ?
C67 C68 1.396(5) . ?
C68 C69 1.445(6) . ?
C68 C75 1.405(6) . ?
C69 C70 1.390(6) . ?
C69 C74 1.401(6) . ?
C70 H70 0.9500 . ?
C70 C71 1.393(6) . ?
C71 H71 0.9500 . ?
C71 C72 1.415(6) . ?
C72 C73 1.381(7) . ?
C73 H73 0.9500 . ?
C73 C74 1.406(6) . ?
C75 C76 1.394(6) . ?
C76 H76 0.9500 . ?
Cl3 C80 1.684(12) . ?
Cl4 C80 1.623(13) . ?
Cl5 C80 1.734(10) . ?
C80 H80 1.0000 . ?
Cl6 C81 1.736(13) . ?
Cl7 C81 1.803(13) . ?
Cl8 C81 1.737(12) . ?
C81 H81 1.0000 . ?
O1 H1 0.8203 . ?
O1 C77 1.461(13) . ?
O2 H2 0.8400 . ?
O2 C78 1.383(10) . ?
C77 H77A 0.9800 . ?
C77 H77B 0.9800 . ?
C77 H77C 0.9800 . ?
C78 H78A 0.9800 . ?
C78 H78B 0.9800 . ?
C78 H78C 0.9800 . ?
O3 H3 0.8400 . ?
O3 C79 1.383(9) . ?
C79 H79A 0.9800 . ?
C79 H79B 0.9800 . ?
C79 H79C 0.9800 . ?
loop_
_geom_hbond_atom_site_label_D
_geom_hbond_atom_site_label_H
_geom_hbond_atom_site_label_A
_geom_hbond_distance_DH
_geom_hbond_distance_HA
_geom_hbond_distance_DA
_geom_hbond_angle_DHA
_geom_hbond_site_symmetry_A
_geom_hbond_publ_flag
N4 H4 O2 0.88 2.01 2.881(6) 169.0 . yes
N8 H8 O3 0.88 2.10 2.865(6) 145.3 . yes
O1 H1 O2 0.82 2.08 2.771(9) 142.0 . yes
O2 H2 Cl2 0.84 2.31 3.147(4) 177.3 . yes
O3 H3 Cl1 0.84 2.35 3.140(5) 157.2 . yes
